MODEL 1
REMARK VINA RESULT:      -5.6      0.000      0.000
REMARK  7 active torsions:
REMARK  status: ('A' for Active; 'I' for Inactive)
REMARK    1  A    between atoms: C_2  and  C_3 
REMARK    2  A    between atoms: C_3  and  O_6 
REMARK    3  A    between atoms: C_3  and  C_4 
REMARK    4  A    between atoms: C_7  and  O_6 
REMARK    5  A    between atoms: C_9  and  C_10 
REMARK    6  A    between atoms: N_15  and  C_14 
REMARK    7  A    between atoms: N_20  and  C_19 
REMARK       I    between atoms: C_22  and  N_20 
ROOT
ATOM      1  C   LIG d   1      -1.702  77.712 113.534  0.00  0.00     0.161 C 
ATOM      2  C   LIG d   1      -2.300  78.982 113.595  0.00  0.00     0.016 C 
ATOM      3  C   LIG d   1      -2.183  79.948 112.570  0.00  0.00     0.038 C 
ATOM      4  C   LIG d   1      -1.580  79.652 111.338  0.00  0.00     0.028 C 
ATOM      5  C   LIG d   1      -0.525  78.555 111.428  0.00  0.00    -0.047 C 
ATOM      6  C   LIG d   1      -1.134  77.331 112.151  0.00  0.00     0.091 C 
ENDROOT
BRANCH   1   7
ATOM      7  O   LIG d   1      -2.634  76.711 113.986  0.00  0.00    -0.368 OA
BRANCH   7   8
ATOM      8  C   LIG d   1      -2.591  76.390 115.399  0.00  0.00     0.119 C 
BRANCH   8   9
ATOM      9  C   LIG d   1      -2.260  74.891 115.523  0.00  0.00     0.028 C 
ATOM     10  C   LIG d   1      -0.746  74.620 115.502  0.00  0.00     0.006 C 
ENDBRANCH   8   9
BRANCH   8  11
ATOM     11  C   LIG d   1      -3.966  76.558 116.051  0.00  0.00     0.028 C 
ATOM     12  C   LIG d   1      -4.130  77.913 116.757  0.00  0.00     0.006 C 
ENDBRANCH   8  11
ENDBRANCH   7   8
ENDBRANCH   1   7
BRANCH   6  13
ATOM     13  N   LIG d   1      -0.143  76.243 112.356  0.00  0.00    -0.311 N 
ATOM     14  C   LIG d   1       0.171  75.351 111.418  0.00  0.00     0.210 C 
ATOM     15  C   LIG d   1       1.201  74.301 111.843  0.00  0.00     0.109 C 
ATOM     16  O   LIG d   1      -0.283  75.349 110.264  0.00  0.00    -0.276 OA
ATOM     17  H   LIG d   1       0.296  76.189 113.254  0.00  0.00     0.149 HD
ENDBRANCH   6  13
BRANCH   5  18
ATOM     18  N   LIG d   1      -0.079  78.252 110.055  0.00  0.00     0.381 N 
ATOM     19  H   LIG d   1      -0.517  78.879 109.410  0.00  0.00    -0.090 HD
ATOM     20  H   LIG d   1      -0.358  77.315 109.822  0.00  0.00    -0.090 HD
ATOM     21  H   LIG d   1       0.911  78.337 109.992  0.00  0.00    -0.090 HD
ENDBRANCH   5  18
BRANCH   3  22
ATOM     22  C   LIG d   1      -2.637  81.240 112.787  0.00  0.00     0.382 C 
ATOM     23  O   LIG d   1      -3.869  81.467 112.860  0.00  0.00    -0.241 OA
ATOM     24  O   LIG d   1      -1.833  82.187 112.867  0.00  0.00    -0.241 OA
ENDBRANCH   3  22
TORSDOF 7
ENDMDL
MODEL 2
REMARK VINA RESULT:      -5.0      4.405      6.760
REMARK  7 active torsions:
REMARK  status: ('A' for Active; 'I' for Inactive)
REMARK    1  A    between atoms: C_2  and  C_3 
REMARK    2  A    between atoms: C_3  and  O_6 
REMARK    3  A    between atoms: C_3  and  C_4 
REMARK    4  A    between atoms: C_7  and  O_6 
REMARK    5  A    between atoms: C_9  and  C_10 
REMARK    6  A    between atoms: N_15  and  C_14 
REMARK    7  A    between atoms: N_20  and  C_19 
REMARK       I    between atoms: C_22  and  N_20 
ROOT
ATOM      1  C   LIG d   1       1.530  81.380 112.574  0.00  0.00     0.161 C 
ATOM      2  C   LIG d   1       2.558  82.021 111.864  0.00  0.00     0.016 C 
ATOM      3  C   LIG d   1       2.666  81.991 110.454  0.00  0.00     0.038 C 
ATOM      4  C   LIG d   1       1.661  81.440 109.645  0.00  0.00     0.028 C 
ATOM      5  C   LIG d   1       0.861  80.341 110.337  0.00  0.00    -0.047 C 
ATOM      6  C   LIG d   1       0.364  80.867 111.703  0.00  0.00     0.091 C 
ENDROOT
BRANCH   1   7
ATOM      7  O   LIG d   1       1.035  82.250 113.611  0.00  0.00    -0.368 OA
BRANCH   7   8
ATOM      8  C   LIG d   1       1.436  83.640 113.521  0.00  0.00     0.119 C 
BRANCH   8   9
ATOM      9  C   LIG d   1       2.202  83.985 114.812  0.00  0.00     0.028 C 
ATOM     10  C   LIG d   1       3.667  84.368 114.541  0.00  0.00     0.006 C 
ENDBRANCH   8   9
BRANCH   8  11
ATOM     11  C   LIG d   1       0.219  84.570 113.510  0.00  0.00     0.028 C 
ATOM     12  C   LIG d   1      -0.943  84.022 112.667  0.00  0.00     0.006 C 
ENDBRANCH   8  11
ENDBRANCH   7   8
ENDBRANCH   1   7
BRANCH   6  13
ATOM     13  N   LIG d   1      -0.357  79.827 112.482  0.00  0.00    -0.311 N 
ATOM     14  C   LIG d   1      -1.667  79.866 112.720  0.00  0.00     0.210 C 
ATOM     15  C   LIG d   1      -2.206  78.705 113.562  0.00  0.00     0.109 C 
ATOM     16  O   LIG d   1      -2.439  80.735 112.287  0.00  0.00    -0.276 OA
ATOM     17  H   LIG d   1       0.187  79.070 112.845  0.00  0.00     0.149 HD
ENDBRANCH   6  13
BRANCH   5  18
ATOM     18  N   LIG d   1      -0.237  79.953 109.432  0.00  0.00     0.381 N 
ATOM     19  H   LIG d   1      -0.896  79.383 109.924  0.00  0.00    -0.090 HD
ATOM     20  H   LIG d   1       0.142  79.413 108.674  0.00  0.00    -0.090 HD
ATOM     21  H   LIG d   1      -0.690  80.766 109.076  0.00  0.00    -0.090 HD
ENDBRANCH   5  18
BRANCH   3  22
ATOM     22  C   LIG d   1       3.809  82.482 109.842  0.00  0.00     0.382 C 
ATOM     23  O   LIG d   1       3.886  83.697 109.540  0.00  0.00    -0.241 OA
ATOM     24  O   LIG d   1       4.747  81.716 109.548  0.00  0.00    -0.241 OA
ENDBRANCH   3  22
TORSDOF 7
ENDMDL
MODEL 3
REMARK VINA RESULT:      -4.8      3.214      5.613
REMARK  7 active torsions:
REMARK  status: ('A' for Active; 'I' for Inactive)
REMARK    1  A    between atoms: C_2  and  C_3 
REMARK    2  A    between atoms: C_3  and  O_6 
REMARK    3  A    between atoms: C_3  and  C_4 
REMARK    4  A    between atoms: C_7  and  O_6 
REMARK    5  A    between atoms: C_9  and  C_10 
REMARK    6  A    between atoms: N_15  and  C_14 
REMARK    7  A    between atoms: N_20  and  C_19 
REMARK       I    between atoms: C_22  and  N_20 
ROOT
ATOM      1  C   LIG d   1      -0.479  75.347 115.305  0.00  0.00     0.161 C 
ATOM      2  C   LIG d   1       0.144  74.816 116.447  0.00  0.00     0.016 C 
ATOM      3  C   LIG d   1       0.943  75.584 117.325  0.00  0.00     0.038 C 
ATOM      4  C   LIG d   1       1.050  76.977 117.204  0.00  0.00     0.028 C 
ATOM      5  C   LIG d   1       0.851  77.478 115.777  0.00  0.00    -0.047 C 
ATOM      6  C   LIG d   1      -0.464  76.887 115.217  0.00  0.00     0.091 C 
ENDROOT
BRANCH   1   7
ATOM      7  O   LIG d   1      -1.829  74.853 115.210  0.00  0.00    -0.368 OA
BRANCH   7   8
ATOM      8  C   LIG d   1      -2.833  75.598 115.942  0.00  0.00     0.119 C 
BRANCH   8   9
ATOM      9  C   LIG d   1      -2.893  75.018 117.368  0.00  0.00     0.028 C 
ATOM     10  C   LIG d   1      -2.569  76.070 118.443  0.00  0.00     0.006 C 
ENDBRANCH   8   9
BRANCH   8  11
ATOM     11  C   LIG d   1      -4.230  75.375 115.355  0.00  0.00     0.028 C 
ATOM     12  C   LIG d   1      -4.440  76.108 114.020  0.00  0.00     0.006 C 
ENDBRANCH   8  11
ENDBRANCH   7   8
ENDBRANCH   1   7
BRANCH   6  13
ATOM     13  N   LIG d   1      -0.693  77.259 113.797  0.00  0.00    -0.311 N 
ATOM     14  C   LIG d   1      -1.445  78.292 113.421  0.00  0.00     0.210 C 
ATOM     15  C   LIG d   1      -1.566  78.488 111.907  0.00  0.00     0.109 C 
ATOM     16  O   LIG d   1      -1.998  79.084 114.199  0.00  0.00    -0.276 OA
ATOM     17  H   LIG d   1      -0.256  76.689 113.100  0.00  0.00     0.149 HD
ENDBRANCH   6  13
BRANCH   5  18
ATOM     18  N   LIG d   1       0.851  78.952 115.818  0.00  0.00     0.381 N 
ATOM     19  H   LIG d   1       0.464  79.267 116.685  0.00  0.00    -0.090 HD
ATOM     20  H   LIG d   1       0.275  79.298 115.071  0.00  0.00    -0.090 HD
ATOM     21  H   LIG d   1       1.781  79.296 115.716  0.00  0.00    -0.090 HD
ENDBRANCH   5  18
BRANCH   3  22
ATOM     22  C   LIG d   1       1.677  74.951 118.317  0.00  0.00     0.382 C 
ATOM     23  O   LIG d   1       1.089  74.290 119.207  0.00  0.00    -0.241 OA
ATOM     24  O   LIG d   1       2.916  75.070 118.358  0.00  0.00    -0.241 OA
ENDBRANCH   3  22
TORSDOF 7
ENDMDL
MODEL 4
REMARK VINA RESULT:      -4.8      3.440      4.874
REMARK  7 active torsions:
REMARK  status: ('A' for Active; 'I' for Inactive)
REMARK    1  A    between atoms: C_2  and  C_3 
REMARK    2  A    between atoms: C_3  and  O_6 
REMARK    3  A    between atoms: C_3  and  C_4 
REMARK    4  A    between atoms: C_7  and  O_6 
REMARK    5  A    between atoms: C_9  and  C_10 
REMARK    6  A    between atoms: N_15  and  C_14 
REMARK    7  A    between atoms: N_20  and  C_19 
REMARK       I    between atoms: C_22  and  N_20 
ROOT
ATOM      1  C   LIG d   1      -0.187  78.171 115.638  0.00  0.00     0.161 C 
ATOM      2  C   LIG d   1      -1.379  78.336 114.914  0.00  0.00     0.016 C 
ATOM      3  C   LIG d   1      -2.038  77.277 114.249  0.00  0.00     0.038 C 
ATOM      4  C   LIG d   1      -1.629  75.943 114.391  0.00  0.00     0.028 C 
ATOM      5  C   LIG d   1      -0.142  75.795 114.698  0.00  0.00    -0.047 C 
ATOM      6  C   LIG d   1       0.215  76.704 115.897  0.00  0.00     0.091 C 
ENDROOT
BRANCH   1   7
ATOM      7  O   LIG d   1      -0.266  78.895 116.882  0.00  0.00    -0.368 OA
BRANCH   7   8
ATOM      8  C   LIG d   1      -0.677  78.129 118.041  0.00  0.00     0.119 C 
BRANCH   8   9
ATOM      9  C   LIG d   1      -2.086  78.611 118.439  0.00  0.00     0.028 C 
ATOM     10  C   LIG d   1      -3.179  77.592 118.075  0.00  0.00     0.006 C 
ENDBRANCH   8   9
BRANCH   8  11
ATOM     11  C   LIG d   1       0.211  78.429 119.251  0.00  0.00     0.028 C 
ATOM     12  C   LIG d   1       1.506  79.165 118.872  0.00  0.00     0.006 C 
ENDBRANCH   8  11
ENDBRANCH   7   8
ENDBRANCH   1   7
BRANCH   6  13
ATOM     13  N   LIG d   1       1.667  76.683 116.210  0.00  0.00    -0.311 N 
ATOM     14  C   LIG d   1       2.204  75.907 117.151  0.00  0.00     0.210 C 
ATOM     15  C   LIG d   1       3.718  76.056 117.326  0.00  0.00     0.109 C 
ATOM     16  O   LIG d   1       1.574  75.087 117.835  0.00  0.00    -0.276 OA
ATOM     17  H   LIG d   1       2.257  77.296 115.682  0.00  0.00     0.149 HD
ENDBRANCH   6  13
BRANCH   5  18
ATOM     18  N   LIG d   1       0.120  74.367 114.957  0.00  0.00     0.381 N 
ATOM     19  H   LIG d   1      -0.157  73.823 114.164  0.00  0.00    -0.090 HD
ATOM     20  H   LIG d   1      -0.428  74.074 115.747  0.00  0.00    -0.090 HD
ATOM     21  H   LIG d   1       1.088  74.226 115.144  0.00  0.00    -0.090 HD
ENDBRANCH   5  18
BRANCH   3  22
ATOM     22  C   LIG d   1      -3.098  77.553 113.398  0.00  0.00     0.382 C 
ATOM     23  O   LIG d   1      -3.195  78.684 112.864  0.00  0.00    -0.241 OA
ATOM     24  O   LIG d   1      -3.983  76.701 113.194  0.00  0.00    -0.241 OA
ENDBRANCH   3  22
TORSDOF 7
ENDMDL
MODEL 5
REMARK VINA RESULT:      -4.7      3.187      4.781
REMARK  7 active torsions:
REMARK  status: ('A' for Active; 'I' for Inactive)
REMARK    1  A    between atoms: C_2  and  C_3 
REMARK    2  A    between atoms: C_3  and  O_6 
REMARK    3  A    between atoms: C_3  and  C_4 
REMARK    4  A    between atoms: C_7  and  O_6 
REMARK    5  A    between atoms: C_9  and  C_10 
REMARK    6  A    between atoms: N_15  and  C_14 
REMARK    7  A    between atoms: N_20  and  C_19 
REMARK       I    between atoms: C_22  and  N_20 
ROOT
ATOM      1  C   LIG d   1      -0.148  77.808 116.007  0.00  0.00     0.161 C 
ATOM      2  C   LIG d   1      -1.337  78.110 115.323  0.00  0.00     0.016 C 
ATOM      3  C   LIG d   1      -1.933  77.244 114.378  0.00  0.00     0.038 C 
ATOM      4  C   LIG d   1      -1.458  75.941 114.164  0.00  0.00     0.028 C 
ATOM      5  C   LIG d   1       0.030  75.782 114.459  0.00  0.00    -0.047 C 
ATOM      6  C   LIG d   1       0.324  76.345 115.869  0.00  0.00     0.091 C 
ENDROOT
BRANCH   1   7
ATOM      7  O   LIG d   1      -0.281  78.161 117.398  0.00  0.00    -0.368 OA
BRANCH   7   8
ATOM      8  C   LIG d   1      -1.585  77.939 117.990  0.00  0.00     0.119 C 
BRANCH   8   9
ATOM      9  C   LIG d   1      -1.850  79.094 118.975  0.00  0.00     0.028 C 
ATOM     10  C   LIG d   1      -3.324  79.172 119.405  0.00  0.00     0.006 C 
ENDBRANCH   8   9
BRANCH   8  11
ATOM     11  C   LIG d   1      -1.599  76.667 118.845  0.00  0.00     0.028 C 
ATOM     12  C   LIG d   1      -2.310  75.493 118.153  0.00  0.00     0.006 C 
ENDBRANCH   8  11
ENDBRANCH   7   8
ENDBRANCH   1   7
BRANCH   6  13
ATOM     13  N   LIG d   1       1.771  76.305 116.204  0.00  0.00    -0.311 N 
ATOM     14  C   LIG d   1       2.251  75.756 117.319  0.00  0.00     0.210 C 
ATOM     15  C   LIG d   1       3.772  75.841 117.479  0.00  0.00     0.109 C 
ATOM     16  O   LIG d   1       1.564  75.179 118.175  0.00  0.00    -0.276 OA
ATOM     17  H   LIG d   1       2.403  76.724 115.549  0.00  0.00     0.149 HD
ENDBRANCH   6  13
BRANCH   5  18
ATOM     18  N   LIG d   1       0.360  74.351 114.328  0.00  0.00     0.381 N 
ATOM     19  H   LIG d   1      -0.424  73.856 113.950  0.00  0.00    -0.090 HD
ATOM     20  H   LIG d   1       0.559  73.978 115.239  0.00  0.00    -0.090 HD
ATOM     21  H   LIG d   1       1.151  74.237 113.734  0.00  0.00    -0.090 HD
ENDBRANCH   5  18
BRANCH   3  22
ATOM     22  C   LIG d   1      -2.994  77.693 113.607  0.00  0.00     0.382 C 
ATOM     23  O   LIG d   1      -3.141  78.922 113.398  0.00  0.00    -0.241 OA
ATOM     24  O   LIG d   1      -3.830  76.890 113.153  0.00  0.00    -0.241 OA
ENDBRANCH   3  22
TORSDOF 7
ENDMDL
MODEL 6
REMARK VINA RESULT:      -4.5      3.155      4.676
REMARK  7 active torsions:
REMARK  status: ('A' for Active; 'I' for Inactive)
REMARK    1  A    between atoms: C_2  and  C_3 
REMARK    2  A    between atoms: C_3  and  O_6 
REMARK    3  A    between atoms: C_3  and  C_4 
REMARK    4  A    between atoms: C_7  and  O_6 
REMARK    5  A    between atoms: C_9  and  C_10 
REMARK    6  A    between atoms: N_15  and  C_14 
REMARK    7  A    between atoms: N_20  and  C_19 
REMARK       I    between atoms: C_22  and  N_20 
ROOT
ATOM      1  C   LIG d   1      -1.957  76.686 115.985  0.00  0.00     0.161 C 
ATOM      2  C   LIG d   1      -2.686  76.682 114.784  0.00  0.00     0.016 C 
ATOM      3  C   LIG d   1      -2.340  77.470 113.662  0.00  0.00     0.038 C 
ATOM      4  C   LIG d   1      -1.147  78.206 113.612  0.00  0.00     0.028 C 
ATOM      5  C   LIG d   1      -0.642  78.636 114.985  0.00  0.00    -0.047 C 
ATOM      6  C   LIG d   1      -0.590  77.398 115.910  0.00  0.00     0.091 C 
ENDROOT
BRANCH   1   7
ATOM      7  O   LIG d   1      -1.793  75.335 116.461  0.00  0.00    -0.368 OA
BRANCH   7   8
ATOM      8  C   LIG d   1      -2.468  75.010 117.701  0.00  0.00     0.119 C 
BRANCH   8   9
ATOM      9  C   LIG d   1      -3.136  76.299 118.216  0.00  0.00     0.028 C 
ATOM     10  C   LIG d   1      -2.696  76.658 119.646  0.00  0.00     0.006 C 
ENDBRANCH   8   9
BRANCH   8  11
ATOM     11  C   LIG d   1      -1.470  74.607 118.790  0.00  0.00     0.028 C 
ATOM     12  C   LIG d   1      -0.105  74.186 118.222  0.00  0.00     0.006 C 
ENDBRANCH   8  11
ENDBRANCH   7   8
ENDBRANCH   1   7
BRANCH   6  13
ATOM     13  N   LIG d   1      -0.187  77.744 117.298  0.00  0.00    -0.311 N 
ATOM     14  C   LIG d   1       1.065  77.646 117.744  0.00  0.00     0.210 C 
ATOM     15  C   LIG d   1       1.260  78.034 119.213  0.00  0.00     0.109 C 
ATOM     16  O   LIG d   1       2.037  77.306 117.053  0.00  0.00    -0.276 OA
ATOM     17  H   LIG d   1      -0.907  78.060 117.917  0.00  0.00     0.149 HD
ENDBRANCH   6  13
BRANCH   5  18
ATOM     18  N   LIG d   1       0.675  79.272 114.797  0.00  0.00     0.381 N 
ATOM     19  H   LIG d   1       0.697  79.750 113.918  0.00  0.00    -0.090 HD
ATOM     20  H   LIG d   1       1.382  78.559 114.786  0.00  0.00    -0.090 HD
ATOM     21  H   LIG d   1       0.852  79.915 115.537  0.00  0.00    -0.090 HD
ENDBRANCH   5  18
BRANCH   3  22
ATOM     22  C   LIG d   1      -3.214  77.557 112.589  0.00  0.00     0.382 C 
ATOM     23  O   LIG d   1      -2.895  78.222 111.574  0.00  0.00    -0.241 OA
ATOM     24  O   LIG d   1      -4.335  77.017 112.641  0.00  0.00    -0.241 OA
ENDBRANCH   3  22
TORSDOF 7
ENDMDL
MODEL 7
REMARK VINA RESULT:      -4.5      3.060      5.693
REMARK  7 active torsions:
REMARK  status: ('A' for Active; 'I' for Inactive)
REMARK    1  A    between atoms: C_2  and  C_3 
REMARK    2  A    between atoms: C_3  and  O_6 
REMARK    3  A    between atoms: C_3  and  C_4 
REMARK    4  A    between atoms: C_7  and  O_6 
REMARK    5  A    between atoms: C_9  and  C_10 
REMARK    6  A    between atoms: N_15  and  C_14 
REMARK    7  A    between atoms: N_20  and  C_19 
REMARK       I    between atoms: C_22  and  N_20 
ROOT
ATOM      1  C   LIG d   1      -0.727  78.247 114.173  0.00  0.00     0.161 C 
ATOM      2  C   LIG d   1      -1.930  77.740 113.656  0.00  0.00     0.016 C 
ATOM      3  C   LIG d   1      -2.899  77.078 114.444  0.00  0.00     0.038 C 
ATOM      4  C   LIG d   1      -2.797  77.010 115.842  0.00  0.00     0.028 C 
ATOM      5  C   LIG d   1      -1.359  77.062 116.347  0.00  0.00    -0.047 C 
ATOM      6  C   LIG d   1      -0.649  78.280 115.714  0.00  0.00     0.091 C 
ENDROOT
BRANCH   1   7
ATOM      7  O   LIG d   1      -0.475  79.558 113.630  0.00  0.00    -0.368 OA
BRANCH   7   8
ATOM      8  C   LIG d   1      -1.184  79.890 112.411  0.00  0.00     0.119 C 
BRANCH   8   9
ATOM      9  C   LIG d   1      -0.145  79.963 111.276  0.00  0.00     0.028 C 
ATOM     10  C   LIG d   1      -0.513  79.063 110.084  0.00  0.00     0.006 C 
ENDBRANCH   8   9
BRANCH   8  11
ATOM     11  C   LIG d   1      -1.799  81.290 112.488  0.00  0.00     0.028 C 
ATOM     12  C   LIG d   1      -3.270  81.271 112.935  0.00  0.00     0.006 C 
ENDBRANCH   8  11
ENDBRANCH   7   8
ENDBRANCH   1   7
BRANCH   6  13
ATOM     13  N   LIG d   1       0.787  78.358 116.090  0.00  0.00    -0.311 N 
ATOM     14  C   LIG d   1       1.241  79.097 117.101  0.00  0.00     0.210 C 
ATOM     15  C   LIG d   1       2.759  79.050 117.305  0.00  0.00     0.109 C 
ATOM     16  O   LIG d   1       0.528  79.761 117.868  0.00  0.00    -0.276 OA
ATOM     17  H   LIG d   1       1.432  77.825 115.540  0.00  0.00     0.149 HD
ENDBRANCH   6  13
BRANCH   5  18
ATOM     18  N   LIG d   1      -1.406  77.122 117.820  0.00  0.00     0.381 N 
ATOM     19  H   LIG d   1      -1.430  78.077 118.120  0.00  0.00    -0.090 HD
ATOM     20  H   LIG d   1      -0.575  76.697 118.190  0.00  0.00    -0.090 HD
ATOM     21  H   LIG d   1      -2.212  76.641 118.156  0.00  0.00    -0.090 HD
ENDBRANCH   5  18
BRANCH   3  22
ATOM     22  C   LIG d   1      -3.965  76.439 113.830  0.00  0.00     0.382 C 
ATOM     23  O   LIG d   1      -4.433  75.384 114.323  0.00  0.00    -0.241 OA
ATOM     24  O   LIG d   1      -4.437  76.880 112.765  0.00  0.00    -0.241 OA
ENDBRANCH   3  22
TORSDOF 7
ENDMDL
MODEL 8
REMARK VINA RESULT:      -4.5      3.289      4.932
REMARK  7 active torsions:
REMARK  status: ('A' for Active; 'I' for Inactive)
REMARK    1  A    between atoms: C_2  and  C_3 
REMARK    2  A    between atoms: C_3  and  O_6 
REMARK    3  A    between atoms: C_3  and  C_4 
REMARK    4  A    between atoms: C_7  and  O_6 
REMARK    5  A    between atoms: C_9  and  C_10 
REMARK    6  A    between atoms: N_15  and  C_14 
REMARK    7  A    between atoms: N_20  and  C_19 
REMARK       I    between atoms: C_22  and  N_20 
ROOT
ATOM      1  C   LIG d   1      -1.035  77.475 115.280  0.00  0.00     0.161 C 
ATOM      2  C   LIG d   1      -1.179  78.058 114.010  0.00  0.00     0.016 C 
ATOM      3  C   LIG d   1      -2.312  77.860 113.187  0.00  0.00     0.038 C 
ATOM      4  C   LIG d   1      -3.452  77.183 113.645  0.00  0.00     0.028 C 
ATOM      5  C   LIG d   1      -3.150  76.152 114.727  0.00  0.00    -0.047 C 
ATOM      6  C   LIG d   1      -2.317  76.824 115.842  0.00  0.00     0.091 C 
ENDROOT
BRANCH   1   7
ATOM      7  O   LIG d   1      -0.520  78.449 116.209  0.00  0.00    -0.368 OA
BRANCH   7   8
ATOM      8  C   LIG d   1       0.816  78.204 116.713  0.00  0.00     0.119 C 
BRANCH   8   9
ATOM      9  C   LIG d   1       1.269  76.832 116.177  0.00  0.00     0.028 C 
ATOM     10  C   LIG d   1       1.679  75.868 117.303  0.00  0.00     0.006 C 
ENDBRANCH   8   9
BRANCH   8  11
ATOM     11  C   LIG d   1       0.820  78.065 118.238  0.00  0.00     0.028 C 
ATOM     12  C   LIG d   1      -0.184  79.004 118.925  0.00  0.00     0.006 C 
ENDBRANCH   8  11
ENDBRANCH   7   8
ENDBRANCH   1   7
BRANCH   6  13
ATOM     13  N   LIG d   1      -1.907  75.864 116.900  0.00  0.00    -0.311 N 
ATOM     14  C   LIG d   1      -2.281  75.973 118.174  0.00  0.00     0.210 C 
ATOM     15  C   LIG d   1      -1.730  74.888 119.104  0.00  0.00     0.109 C 
ATOM     16  O   LIG d   1      -3.043  76.846 118.615  0.00  0.00    -0.276 OA
ATOM     17  H   LIG d   1      -1.313  75.107 116.623  0.00  0.00     0.149 HD
ENDBRANCH   6  13
BRANCH   5  18
ATOM     18  N   LIG d   1      -4.440  75.622 115.209  0.00  0.00     0.381 N 
ATOM     19  H   LIG d   1      -5.009  75.356 114.431  0.00  0.00    -0.090 HD
ATOM     20  H   LIG d   1      -4.918  76.344 115.719  0.00  0.00    -0.090 HD
ATOM     21  H   LIG d   1      -4.285  74.835 115.801  0.00  0.00    -0.090 HD
ENDBRANCH   5  18
BRANCH   3  22
ATOM     22  C   LIG d   1      -2.295  78.309 111.875  0.00  0.00     0.382 C 
ATOM     23  O   LIG d   1      -1.893  79.469 111.615  0.00  0.00    -0.241 OA
ATOM     24  O   LIG d   1      -2.718  77.585 110.954  0.00  0.00    -0.241 OA
ENDBRANCH   3  22
TORSDOF 7
ENDMDL
MODEL 9
REMARK VINA RESULT:      -4.4      2.756      5.142
REMARK  7 active torsions:
REMARK  status: ('A' for Active; 'I' for Inactive)
REMARK    1  A    between atoms: C_2  and  C_3 
REMARK    2  A    between atoms: C_3  and  O_6 
REMARK    3  A    between atoms: C_3  and  C_4 
REMARK    4  A    between atoms: C_7  and  O_6 
REMARK    5  A    between atoms: C_9  and  C_10 
REMARK    6  A    between atoms: N_15  and  C_14 
REMARK    7  A    between atoms: N_20  and  C_19 
REMARK       I    between atoms: C_22  and  N_20 
ROOT
ATOM      1  C   LIG d   1      -1.203  77.404 115.239  0.00  0.00     0.161 C 
ATOM      2  C   LIG d   1      -1.915  77.698 116.414  0.00  0.00     0.016 C 
ATOM      3  C   LIG d   1      -1.512  77.262 117.697  0.00  0.00     0.038 C 
ATOM      4  C   LIG d   1      -0.280  76.626 117.912  0.00  0.00     0.028 C 
ATOM      5  C   LIG d   1       0.230  75.866 116.692  0.00  0.00    -0.047 C 
ATOM      6  C   LIG d   1       0.202  76.807 115.466  0.00  0.00     0.091 C 
ENDROOT
BRANCH   1   7
ATOM      7  O   LIG d   1      -1.119  78.581 114.411  0.00  0.00    -0.368 OA
BRANCH   7   8
ATOM      8  C   LIG d   1      -2.311  78.917 113.659  0.00  0.00     0.119 C 
BRANCH   8   9
ATOM      9  C   LIG d   1      -2.661  77.701 112.779  0.00  0.00     0.028 C 
ATOM     10  C   LIG d   1      -2.411  77.966 111.285  0.00  0.00     0.006 C 
ENDBRANCH   8   9
BRANCH   8  11
ATOM     11  C   LIG d   1      -2.046  80.063 112.678  0.00  0.00     0.028 C 
ATOM     12  C   LIG d   1      -2.984  81.261 112.894  0.00  0.00     0.006 C 
ENDBRANCH   8  11
ENDBRANCH   7   8
ENDBRANCH   1   7
BRANCH   6  13
ATOM     13  N   LIG d   1       0.605  76.117 114.213  0.00  0.00    -0.311 N 
ATOM     14  C   LIG d   1       0.012  75.014 113.759  0.00  0.00     0.210 C 
ATOM     15  C   LIG d   1       0.596  74.453 112.459  0.00  0.00     0.109 C 
ATOM     16  O   LIG d   1      -0.964  74.465 114.293  0.00  0.00    -0.276 OA
ATOM     17  H   LIG d   1       1.368  76.513 113.700  0.00  0.00     0.149 HD
ENDBRANCH   6  13
BRANCH   5  18
ATOM     18  N   LIG d   1       1.582  75.369 117.009  0.00  0.00     0.381 N 
ATOM     19  H   LIG d   1       1.528  74.673 117.726  0.00  0.00    -0.090 HD
ATOM     20  H   LIG d   1       2.137  76.133 117.352  0.00  0.00    -0.090 HD
ATOM     21  H   LIG d   1       2.004  74.983 116.193  0.00  0.00    -0.090 HD
ENDBRANCH   5  18
BRANCH   3  22
ATOM     22  C   LIG d   1      -2.365  77.426 118.778  0.00  0.00     0.382 C 
ATOM     23  O   LIG d   1      -2.510  76.497 119.609  0.00  0.00    -0.241 OA
ATOM     24  O   LIG d   1      -3.024  78.475 118.909  0.00  0.00    -0.241 OA
ENDBRANCH   3  22
TORSDOF 7
ENDMDL
