MODEL 1
REMARK VINA RESULT:      -4.4      0.000      0.000
REMARK  7 active torsions:
REMARK  status: ('A' for Active; 'I' for Inactive)
REMARK    1  A    between atoms: C_2  and  C_3 
REMARK    2  A    between atoms: C_3  and  O_6 
REMARK    3  A    between atoms: C_3  and  C_4 
REMARK    4  A    between atoms: C_7  and  O_6 
REMARK    5  A    between atoms: C_9  and  C_10 
REMARK    6  A    between atoms: N_15  and  C_14 
REMARK    7  A    between atoms: N_20  and  C_19 
REMARK       I    between atoms: C_22  and  N_20 
ROOT
ATOM      1  C   LIG d   1      -2.373  78.448 115.281  0.00  0.00     0.161 C 
ATOM      2  C   LIG d   1      -2.639  79.615 114.545  0.00  0.00     0.016 C 
ATOM      3  C   LIG d   1      -2.382  79.737 113.160  0.00  0.00     0.038 C 
ATOM      4  C   LIG d   1      -1.980  78.641 112.381  0.00  0.00     0.028 C 
ATOM      5  C   LIG d   1      -1.218  77.583 113.172  0.00  0.00    -0.047 C 
ATOM      6  C   LIG d   1      -2.038  77.207 114.427  0.00  0.00     0.091 C 
ENDROOT
BRANCH   1   7
ATOM      7  O   LIG d   1      -3.476  78.166 116.164  0.00  0.00    -0.368 OA
BRANCH   7   8
ATOM      8  C   LIG d   1      -3.367  78.694 117.509  0.00  0.00     0.119 C 
BRANCH   8   9
ATOM      9  C   LIG d   1      -1.867  78.796 117.846  0.00  0.00     0.028 C 
ATOM     10  C   LIG d   1      -1.537  80.044 118.683  0.00  0.00     0.006 C 
ENDBRANCH   8   9
BRANCH   8  11
ATOM     11  C   LIG d   1      -3.948  77.721 118.539  0.00  0.00     0.028 C 
ATOM     12  C   LIG d   1      -3.052  76.494 118.772  0.00  0.00     0.006 C 
ENDBRANCH   8  11
ENDBRANCH   7   8
ENDBRANCH   1   7
BRANCH   6  13
ATOM     13  N   LIG d   1      -1.325  76.239 115.301  0.00  0.00    -0.311 N 
ATOM     14  C   LIG d   1      -1.770  75.008 115.547  0.00  0.00     0.210 C 
ATOM     15  C   LIG d   1      -0.893  74.180 116.491  0.00  0.00     0.109 C 
ATOM     16  O   LIG d   1      -2.791  74.512 115.047  0.00  0.00    -0.276 OA
ATOM     17  H   LIG d   1      -0.471  76.548 115.723  0.00  0.00     0.149 HD
ENDBRANCH   6  13
BRANCH   5  18
ATOM     18  N   LIG d   1      -0.980  76.439 112.272  0.00  0.00     0.381 N 
ATOM     19  H   LIG d   1      -0.868  75.603 112.809  0.00  0.00    -0.090 HD
ATOM     20  H   LIG d   1      -0.132  76.600 111.758  0.00  0.00    -0.090 HD
ATOM     21  H   LIG d   1      -1.745  76.337 111.641  0.00  0.00    -0.090 HD
ENDBRANCH   5  18
BRANCH   3  22
ATOM     22  C   LIG d   1      -2.490  80.976 112.547  0.00  0.00     0.382 C 
ATOM     23  O   LIG d   1      -1.458  81.579 112.167  0.00  0.00    -0.241 OA
ATOM     24  O   LIG d   1      -3.603  81.518 112.411  0.00  0.00    -0.241 OA
ENDBRANCH   3  22
TORSDOF 7
ENDMDL
MODEL 2
REMARK VINA RESULT:      -4.2      0.808      1.694
REMARK  7 active torsions:
REMARK  status: ('A' for Active; 'I' for Inactive)
REMARK    1  A    between atoms: C_2  and  C_3 
REMARK    2  A    between atoms: C_3  and  O_6 
REMARK    3  A    between atoms: C_3  and  C_4 
REMARK    4  A    between atoms: C_7  and  O_6 
REMARK    5  A    between atoms: C_9  and  C_10 
REMARK    6  A    between atoms: N_15  and  C_14 
REMARK    7  A    between atoms: N_20  and  C_19 
REMARK       I    between atoms: C_22  and  N_20 
ROOT
ATOM      1  C   LIG d   1      -2.472  78.352 115.706  0.00  0.00     0.161 C 
ATOM      2  C   LIG d   1      -2.689  79.426 114.826  0.00  0.00     0.016 C 
ATOM      3  C   LIG d   1      -2.307  79.405 113.464  0.00  0.00     0.038 C 
ATOM      4  C   LIG d   1      -1.817  78.244 112.849  0.00  0.00     0.028 C 
ATOM      5  C   LIG d   1      -1.113  77.297 113.816  0.00  0.00    -0.047 C 
ATOM      6  C   LIG d   1      -2.040  77.036 115.026  0.00  0.00     0.091 C 
ENDROOT
BRANCH   1   7
ATOM      7  O   LIG d   1      -3.648  78.137 116.512  0.00  0.00    -0.368 OA
BRANCH   7   8
ATOM      8  C   LIG d   1      -3.494  78.361 117.935  0.00  0.00     0.119 C 
BRANCH   8   9
ATOM      9  C   LIG d   1      -4.410  77.359 118.663  0.00  0.00     0.028 C 
ATOM     10  C   LIG d   1      -3.761  75.973 118.813  0.00  0.00     0.006 C 
ENDBRANCH   8   9
BRANCH   8  11
ATOM     11  C   LIG d   1      -4.007  79.747 118.339  0.00  0.00     0.028 C 
ATOM     12  C   LIG d   1      -3.036  80.494 119.268  0.00  0.00     0.006 C 
ENDBRANCH   8  11
ENDBRANCH   7   8
ENDBRANCH   1   7
BRANCH   6  13
ATOM     13  N   LIG d   1      -1.395  76.187 116.061  0.00  0.00    -0.311 N 
ATOM     14  C   LIG d   1      -1.518  74.861 116.102  0.00  0.00     0.210 C 
ATOM     15  C   LIG d   1      -0.788  74.180 117.264  0.00  0.00     0.109 C 
ATOM     16  O   LIG d   1      -2.136  74.182 115.269  0.00  0.00    -0.276 OA
ATOM     17  H   LIG d   1      -0.849  76.653 116.759  0.00  0.00     0.149 HD
ENDBRANCH   6  13
BRANCH   5  18
ATOM     18  N   LIG d   1      -0.775  76.070 113.072  0.00  0.00     0.381 N 
ATOM     19  H   LIG d   1      -0.852  75.275 113.675  0.00  0.00    -0.090 HD
ATOM     20  H   LIG d   1       0.176  76.134 112.754  0.00  0.00    -0.090 HD
ATOM     21  H   LIG d   1      -1.386  75.964 112.292  0.00  0.00    -0.090 HD
ENDBRANCH   5  18
BRANCH   3  22
ATOM     22  C   LIG d   1      -2.378  80.568 112.713  0.00  0.00     0.382 C 
ATOM     23  O   LIG d   1      -1.431  80.883 111.953  0.00  0.00    -0.241 OA
ATOM     24  O   LIG d   1      -3.358  81.330 112.819  0.00  0.00    -0.241 OA
ENDBRANCH   3  22
TORSDOF 7
ENDMDL
MODEL 3
REMARK VINA RESULT:      -4.1      2.826      5.830
REMARK  7 active torsions:
REMARK  status: ('A' for Active; 'I' for Inactive)
REMARK    1  A    between atoms: C_2  and  C_3 
REMARK    2  A    between atoms: C_3  and  O_6 
REMARK    3  A    between atoms: C_3  and  C_4 
REMARK    4  A    between atoms: C_7  and  O_6 
REMARK    5  A    between atoms: C_9  and  C_10 
REMARK    6  A    between atoms: N_15  and  C_14 
REMARK    7  A    between atoms: N_20  and  C_19 
REMARK       I    between atoms: C_22  and  N_20 
ROOT
ATOM      1  C   LIG d   1      -0.818  78.803 114.043  0.00  0.00     0.161 C 
ATOM      2  C   LIG d   1      -1.961  78.068 113.685  0.00  0.00     0.016 C 
ATOM      3  C   LIG d   1      -2.770  77.384 114.620  0.00  0.00     0.038 C 
ATOM      4  C   LIG d   1      -2.576  77.513 116.004  0.00  0.00     0.028 C 
ATOM      5  C   LIG d   1      -1.135  77.834 116.386  0.00  0.00    -0.047 C 
ATOM      6  C   LIG d   1      -0.654  79.047 115.558  0.00  0.00     0.091 C 
ENDROOT
BRANCH   1   7
ATOM      7  O   LIG d   1      -0.798  80.055 113.329  0.00  0.00    -0.368 OA
BRANCH   7   8
ATOM      8  C   LIG d   1       0.240  80.201 112.328  0.00  0.00     0.119 C 
BRANCH   8   9
ATOM      9  C   LIG d   1       0.564  81.703 112.214  0.00  0.00     0.028 C 
ATOM     10  C   LIG d   1      -0.664  82.541 111.819  0.00  0.00     0.006 C 
ENDBRANCH   8   9
BRANCH   8  11
ATOM     11  C   LIG d   1      -0.262  79.788 110.941  0.00  0.00     0.028 C 
ATOM     12  C   LIG d   1       0.848  79.800 109.878  0.00  0.00     0.006 C 
ENDBRANCH   8  11
ENDBRANCH   7   8
ENDBRANCH   1   7
BRANCH   6  13
ATOM     13  N   LIG d   1       0.774  79.375 115.809  0.00  0.00    -0.311 N 
ATOM     14  C   LIG d   1       1.179  80.183 116.787  0.00  0.00     0.210 C 
ATOM     15  C   LIG d   1       2.694  80.403 116.858  0.00  0.00     0.109 C 
ATOM     16  O   LIG d   1       0.431  80.714 117.622  0.00  0.00    -0.276 OA
ATOM     17  H   LIG d   1       1.451  78.962 115.197  0.00  0.00     0.149 HD
ENDBRANCH   6  13
BRANCH   5  18
ATOM     18  N   LIG d   1      -1.103  78.077 117.840  0.00  0.00     0.381 N 
ATOM     19  H   LIG d   1      -0.955  79.050 118.018  0.00  0.00    -0.090 HD
ATOM     20  H   LIG d   1      -0.337  77.563 118.239  0.00  0.00    -0.090 HD
ATOM     21  H   LIG d   1      -1.960  77.783 118.254  0.00  0.00    -0.090 HD
ENDBRANCH   5  18
BRANCH   3  22
ATOM     22  C   LIG d   1      -3.763  76.526 114.172  0.00  0.00     0.382 C 
ATOM     23  O   LIG d   1      -3.956  75.431 114.753  0.00  0.00    -0.241 OA
ATOM     24  O   LIG d   1      -4.440  76.815 113.167  0.00  0.00    -0.241 OA
ENDBRANCH   3  22
TORSDOF 7
ENDMDL
MODEL 4
REMARK VINA RESULT:      -4.1      2.864      4.748
REMARK  7 active torsions:
REMARK  status: ('A' for Active; 'I' for Inactive)
REMARK    1  A    between atoms: C_2  and  C_3 
REMARK    2  A    between atoms: C_3  and  O_6 
REMARK    3  A    between atoms: C_3  and  C_4 
REMARK    4  A    between atoms: C_7  and  O_6 
REMARK    5  A    between atoms: C_9  and  C_10 
REMARK    6  A    between atoms: N_15  and  C_14 
REMARK    7  A    between atoms: N_20  and  C_19 
REMARK       I    between atoms: C_22  and  N_20 
ROOT
ATOM      1  C   LIG d   1      -0.938  79.480 114.507  0.00  0.00     0.161 C 
ATOM      2  C   LIG d   1      -1.848  78.425 114.687  0.00  0.00     0.016 C 
ATOM      3  C   LIG d   1      -2.367  77.654 113.621  0.00  0.00     0.038 C 
ATOM      4  C   LIG d   1      -1.892  77.790 112.308  0.00  0.00     0.028 C 
ATOM      5  C   LIG d   1      -1.346  79.181 112.002  0.00  0.00    -0.047 C 
ATOM      6  C   LIG d   1      -0.324  79.570 113.094  0.00  0.00     0.091 C 
ENDROOT
BRANCH   1   7
ATOM      7  O   LIG d   1       0.102  79.403 115.502  0.00  0.00    -0.368 OA
BRANCH   7   8
ATOM      8  C   LIG d   1      -0.267  78.793 116.763  0.00  0.00     0.119 C 
BRANCH   8   9
ATOM      9  C   LIG d   1      -0.323  79.913 117.820  0.00  0.00     0.028 C 
ATOM     10  C   LIG d   1       0.978  80.732 117.877  0.00  0.00     0.006 C 
ENDBRANCH   8   9
BRANCH   8  11
ATOM     11  C   LIG d   1       0.816  77.827 117.253  0.00  0.00     0.028 C 
ATOM     12  C   LIG d   1       0.264  76.732 118.179  0.00  0.00     0.006 C 
ENDBRANCH   8  11
ENDBRANCH   7   8
ENDBRANCH   1   7
BRANCH   6  13
ATOM     13  N   LIG d   1       0.196  80.951 112.918  0.00  0.00    -0.311 N 
ATOM     14  C   LIG d   1       1.263  81.244 112.175  0.00  0.00     0.210 C 
ATOM     15  C   LIG d   1       1.642  82.728 112.144  0.00  0.00     0.109 C 
ATOM     16  O   LIG d   1       1.911  80.419 111.513  0.00  0.00    -0.276 OA
ATOM     17  H   LIG d   1      -0.289  81.686 113.395  0.00  0.00     0.149 HD
ENDBRANCH   6  13
BRANCH   5  18
ATOM     18  N   LIG d   1      -0.759  79.142 110.649  0.00  0.00     0.381 N 
ATOM     19  H   LIG d   1       0.143  78.712 110.683  0.00  0.00    -0.090 HD
ATOM     20  H   LIG d   1      -0.648  80.084 110.316  0.00  0.00    -0.090 HD
ATOM     21  H   LIG d   1      -1.355  78.633 110.034  0.00  0.00    -0.090 HD
ENDBRANCH   5  18
BRANCH   3  22
ATOM     22  C   LIG d   1      -3.402  76.763 113.857  0.00  0.00     0.382 C 
ATOM     23  O   LIG d   1      -3.279  75.879 114.739  0.00  0.00    -0.241 OA
ATOM     24  O   LIG d   1      -4.440  76.803 113.170  0.00  0.00    -0.241 OA
ENDBRANCH   3  22
TORSDOF 7
ENDMDL
MODEL 5
REMARK VINA RESULT:      -4.0      2.726      4.439
REMARK  7 active torsions:
REMARK  status: ('A' for Active; 'I' for Inactive)
REMARK    1  A    between atoms: C_2  and  C_3 
REMARK    2  A    between atoms: C_3  and  O_6 
REMARK    3  A    between atoms: C_3  and  C_4 
REMARK    4  A    between atoms: C_7  and  O_6 
REMARK    5  A    between atoms: C_9  and  C_10 
REMARK    6  A    between atoms: N_15  and  C_14 
REMARK    7  A    between atoms: N_20  and  C_19 
REMARK       I    between atoms: C_22  and  N_20 
ROOT
ATOM      1  C   LIG d   1      -2.020  76.969 116.697  0.00  0.00     0.161 C 
ATOM      2  C   LIG d   1      -2.701  76.737 115.490  0.00  0.00     0.016 C 
ATOM      3  C   LIG d   1      -2.372  77.380 114.275  0.00  0.00     0.038 C 
ATOM      4  C   LIG d   1      -1.235  78.193 114.150  0.00  0.00     0.028 C 
ATOM      5  C   LIG d   1      -0.815  78.852 115.460  0.00  0.00    -0.047 C 
ATOM      6  C   LIG d   1      -0.708  77.767 116.555  0.00  0.00     0.091 C 
ENDROOT
BRANCH   1   7
ATOM      7  O   LIG d   1      -1.775  75.717 117.368  0.00  0.00    -0.368 OA
BRANCH   7   8
ATOM      8  C   LIG d   1      -0.450  75.155 117.204  0.00  0.00     0.119 C 
BRANCH   8   9
ATOM      9  C   LIG d   1      -0.504  74.180 116.012  0.00  0.00     0.028 C 
ATOM     10  C   LIG d   1       0.388  74.632 114.844  0.00  0.00     0.006 C 
ENDBRANCH   8   9
BRANCH   8  11
ATOM     11  C   LIG d   1      -0.056  74.297 118.411  0.00  0.00     0.028 C 
ATOM     12  C   LIG d   1       1.098  74.907 119.223  0.00  0.00     0.006 C 
ENDBRANCH   8  11
ENDBRANCH   7   8
ENDBRANCH   1   7
BRANCH   6  13
ATOM     13  N   LIG d   1      -0.383  78.339 117.889  0.00  0.00    -0.311 N 
ATOM     14  C   LIG d   1       0.860  78.469 118.348  0.00  0.00     0.210 C 
ATOM     15  C   LIG d   1       0.971  79.063 119.755  0.00  0.00     0.109 C 
ATOM     16  O   LIG d   1       1.884  78.179 117.710  0.00  0.00    -0.276 OA
ATOM     17  H   LIG d   1      -1.153  78.629 118.460  0.00  0.00     0.149 HD
ENDBRANCH   6  13
BRANCH   5  18
ATOM     18  N   LIG d   1       0.457  79.557 115.216  0.00  0.00     0.381 N 
ATOM     19  H   LIG d   1       0.468  79.926 114.286  0.00  0.00    -0.090 HD
ATOM     20  H   LIG d   1       1.214  78.901 115.303  0.00  0.00    -0.090 HD
ATOM     21  H   LIG d   1       0.570  80.295 115.875  0.00  0.00    -0.090 HD
ENDBRANCH   5  18
BRANCH   3  22
ATOM     22  C   LIG d   1      -3.208  77.245 113.177  0.00  0.00     0.382 C 
ATOM     23  O   LIG d   1      -4.361  76.771 113.322  0.00  0.00    -0.241 OA
ATOM     24  O   LIG d   1      -2.809  77.551 112.037  0.00  0.00    -0.241 OA
ENDBRANCH   3  22
TORSDOF 7
ENDMDL
MODEL 6
REMARK VINA RESULT:      -3.9      2.744      4.575
REMARK  7 active torsions:
REMARK  status: ('A' for Active; 'I' for Inactive)
REMARK    1  A    between atoms: C_2  and  C_3 
REMARK    2  A    between atoms: C_3  and  O_6 
REMARK    3  A    between atoms: C_3  and  C_4 
REMARK    4  A    between atoms: C_7  and  O_6 
REMARK    5  A    between atoms: C_9  and  C_10 
REMARK    6  A    between atoms: N_15  and  C_14 
REMARK    7  A    between atoms: N_20  and  C_19 
REMARK       I    between atoms: C_22  and  N_20 
ROOT
ATOM      1  C   LIG d   1      -1.780  77.854 116.830  0.00  0.00     0.161 C 
ATOM      2  C   LIG d   1      -2.724  77.067 116.150  0.00  0.00     0.016 C 
ATOM      3  C   LIG d   1      -2.850  77.046 114.742  0.00  0.00     0.038 C 
ATOM      4  C   LIG d   1      -1.934  77.700 113.906  0.00  0.00     0.028 C 
ATOM      5  C   LIG d   1      -1.275  78.910 114.559  0.00  0.00    -0.047 C 
ATOM      6  C   LIG d   1      -0.699  78.489 115.930  0.00  0.00     0.091 C 
ENDROOT
BRANCH   1   7
ATOM      7  O   LIG d   1      -1.167  77.082 117.881  0.00  0.00    -0.368 OA
BRANCH   7   8
ATOM      8  C   LIG d   1      -1.030  75.662 117.632  0.00  0.00     0.119 C 
BRANCH   8   9
ATOM      9  C   LIG d   1      -1.067  74.947 118.997  0.00  0.00     0.028 C 
ATOM     10  C   LIG d   1       0.278  74.291 119.352  0.00  0.00     0.006 C 
ENDBRANCH   8   9
BRANCH   8  11
ATOM     11  C   LIG d   1       0.342  75.330 117.038  0.00  0.00     0.028 C 
ATOM     12  C   LIG d   1       0.265  74.896 115.565  0.00  0.00     0.006 C 
ENDBRANCH   8  11
ENDBRANCH   7   8
ENDBRANCH   1   7
BRANCH   6  13
ATOM     13  N   LIG d   1      -0.111  79.634 116.674  0.00  0.00    -0.311 N 
ATOM     14  C   LIG d   1       1.056  79.570 117.314  0.00  0.00     0.210 C 
ATOM     15  C   LIG d   1       1.469  80.858 118.033  0.00  0.00     0.109 C 
ATOM     16  O   LIG d   1       1.802  78.580 117.327  0.00  0.00    -0.276 OA
ATOM     17  H   LIG d   1      -0.635  80.486 116.688  0.00  0.00     0.149 HD
ENDBRANCH   6  13
BRANCH   5  18
ATOM     18  N   LIG d   1      -0.245  79.413 113.629  0.00  0.00     0.381 N 
ATOM     19  H   LIG d   1       0.033  78.683 113.005  0.00  0.00    -0.090 HD
ATOM     20  H   LIG d   1       0.559  79.699 114.159  0.00  0.00    -0.090 HD
ATOM     21  H   LIG d   1      -0.602  80.185 113.111  0.00  0.00    -0.090 HD
ENDBRANCH   5  18
BRANCH   3  22
ATOM     22  C   LIG d   1      -3.927  76.396 114.158  0.00  0.00     0.382 C 
ATOM     23  O   LIG d   1      -4.362  75.330 114.658  0.00  0.00    -0.241 OA
ATOM     24  O   LIG d   1      -4.440  76.837 113.112  0.00  0.00    -0.241 OA
ENDBRANCH   3  22
TORSDOF 7
ENDMDL
MODEL 7
REMARK VINA RESULT:      -3.7      2.614      3.532
REMARK  7 active torsions:
REMARK  status: ('A' for Active; 'I' for Inactive)
REMARK    1  A    between atoms: C_2  and  C_3 
REMARK    2  A    between atoms: C_3  and  O_6 
REMARK    3  A    between atoms: C_3  and  C_4 
REMARK    4  A    between atoms: C_7  and  O_6 
REMARK    5  A    between atoms: C_9  and  C_10 
REMARK    6  A    between atoms: N_15  and  C_14 
REMARK    7  A    between atoms: N_20  and  C_19 
REMARK       I    between atoms: C_22  and  N_20 
ROOT
ATOM      1  C   LIG d   1      -0.379  78.534 115.867  0.00  0.00     0.161 C 
ATOM      2  C   LIG d   1      -1.440  78.679 114.958  0.00  0.00     0.016 C 
ATOM      3  C   LIG d   1      -2.149  77.586 114.409  0.00  0.00     0.038 C 
ATOM      4  C   LIG d   1      -1.942  76.271 114.851  0.00  0.00     0.028 C 
ATOM      5  C   LIG d   1      -0.538  76.028 115.393  0.00  0.00    -0.047 C 
ATOM      6  C   LIG d   1      -0.212  77.113 116.445  0.00  0.00     0.091 C 
ENDROOT
BRANCH   1   7
ATOM      7  O   LIG d   1      -0.513  79.496 116.932  0.00  0.00    -0.368 OA
BRANCH   7   8
ATOM      8  C   LIG d   1      -1.133  79.016 118.150  0.00  0.00     0.119 C 
BRANCH   8   9
ATOM      9  C   LIG d   1      -2.462  79.776 118.324  0.00  0.00     0.028 C 
ATOM     10  C   LIG d   1      -3.673  78.959 117.844  0.00  0.00     0.006 C 
ENDBRANCH   8   9
BRANCH   8  11
ATOM     11  C   LIG d   1      -0.296  79.376 119.381  0.00  0.00     0.028 C 
ATOM     12  C   LIG d   1       1.054  80.014 119.017  0.00  0.00     0.006 C 
ENDBRANCH   8  11
ENDBRANCH   7   8
ENDBRANCH   1   7
BRANCH   6  13
ATOM     13  N   LIG d   1       1.175  77.000 116.965  0.00  0.00    -0.311 N 
ATOM     14  C   LIG d   1       1.490  76.334 118.075  0.00  0.00     0.210 C 
ATOM     15  C   LIG d   1       2.976  76.358 118.445  0.00  0.00     0.109 C 
ATOM     16  O   LIG d   1       0.684  75.698 118.771  0.00  0.00    -0.276 OA
ATOM     17  H   LIG d   1       1.897  77.460 116.445  0.00  0.00     0.149 HD
ENDBRANCH   6  13
BRANCH   5  18
ATOM     18  N   LIG d   1      -0.503  74.660 115.944  0.00  0.00     0.381 N 
ATOM     19  H   LIG d   1      -0.262  74.010 115.223  0.00  0.00    -0.090 HD
ATOM     20  H   LIG d   1      -1.417  74.425 116.288  0.00  0.00    -0.090 HD
ATOM     21  H   LIG d   1       0.162  74.607 116.684  0.00  0.00    -0.090 HD
ENDBRANCH   5  18
BRANCH   3  22
ATOM     22  C   LIG d   1      -3.050  77.800 113.377  0.00  0.00     0.382 C 
ATOM     23  O   LIG d   1      -3.033  78.883 112.744  0.00  0.00    -0.241 OA
ATOM     24  O   LIG d   1      -3.909  76.941 113.100  0.00  0.00    -0.241 OA
ENDBRANCH   3  22
TORSDOF 7
ENDMDL
MODEL 8
REMARK VINA RESULT:      -3.6      2.328      5.246
REMARK  7 active torsions:
REMARK  status: ('A' for Active; 'I' for Inactive)
REMARK    1  A    between atoms: C_2  and  C_3 
REMARK    2  A    between atoms: C_3  and  O_6 
REMARK    3  A    between atoms: C_3  and  C_4 
REMARK    4  A    between atoms: C_7  and  O_6 
REMARK    5  A    between atoms: C_9  and  C_10 
REMARK    6  A    between atoms: N_15  and  C_14 
REMARK    7  A    between atoms: N_20  and  C_19 
REMARK       I    between atoms: C_22  and  N_20 
ROOT
ATOM      1  C   LIG d   1      -1.225  78.691 115.792  0.00  0.00     0.161 C 
ATOM      2  C   LIG d   1      -1.224  77.456 116.462  0.00  0.00     0.016 C 
ATOM      3  C   LIG d   1      -1.193  76.209 115.796  0.00  0.00     0.038 C 
ATOM      4  C   LIG d   1      -1.005  76.114 114.410  0.00  0.00     0.028 C 
ATOM      5  C   LIG d   1      -1.508  77.334 113.645  0.00  0.00    -0.047 C 
ATOM      6  C   LIG d   1      -0.909  78.608 114.284  0.00  0.00     0.091 C 
ENDROOT
BRANCH   1   7
ATOM      7  O   LIG d   1      -0.318  79.602 116.444  0.00  0.00    -0.368 OA
BRANCH   7   8
ATOM      8  C   LIG d   1       0.538  79.028 117.463  0.00  0.00     0.119 C 
BRANCH   8   9
ATOM      9  C   LIG d   1       0.260  79.781 118.779  0.00  0.00     0.028 C 
ATOM     10  C   LIG d   1      -0.678  80.984 118.580  0.00  0.00     0.006 C 
ENDBRANCH   8   9
BRANCH   8  11
ATOM     11  C   LIG d   1       2.017  79.281 117.156  0.00  0.00     0.028 C 
ATOM     12  C   LIG d   1       2.243  80.555 116.325  0.00  0.00     0.006 C 
ENDBRANCH   8  11
ENDBRANCH   7   8
ENDBRANCH   1   7
BRANCH   6  13
ATOM     13  N   LIG d   1      -1.416  79.852 113.649  0.00  0.00    -0.311 N 
ATOM     14  C   LIG d   1      -0.820  80.442 112.614  0.00  0.00     0.210 C 
ATOM     15  C   LIG d   1      -1.497  81.727 112.125  0.00  0.00     0.109 C 
ATOM     16  O   LIG d   1       0.185  80.006 112.033  0.00  0.00    -0.276 OA
ATOM     17  H   LIG d   1      -2.245  80.257 114.037  0.00  0.00     0.149 HD
ENDBRANCH   6  13
BRANCH   5  18
ATOM     18  N   LIG d   1      -1.126  77.162 112.231  0.00  0.00     0.381 N 
ATOM     19  H   LIG d   1      -0.134  77.052 112.158  0.00  0.00    -0.090 HD
ATOM     20  H   LIG d   1      -1.391  77.986 111.720  0.00  0.00    -0.090 HD
ATOM     21  H   LIG d   1      -1.584  76.364 111.848  0.00  0.00    -0.090 HD
ENDBRANCH   5  18
BRANCH   3  22
ATOM     22  C   LIG d   1      -1.389  75.041 116.517  0.00  0.00     0.382 C 
ATOM     23  O   LIG d   1      -0.657  74.781 117.501  0.00  0.00    -0.241 OA
ATOM     24  O   LIG d   1      -2.261  74.222 116.167  0.00  0.00    -0.241 OA
ENDBRANCH   3  22
TORSDOF 7
ENDMDL
MODEL 9
REMARK VINA RESULT:      -3.4      2.970      5.631
REMARK  7 active torsions:
REMARK  status: ('A' for Active; 'I' for Inactive)
REMARK    1  A    between atoms: C_2  and  C_3 
REMARK    2  A    between atoms: C_3  and  O_6 
REMARK    3  A    between atoms: C_3  and  C_4 
REMARK    4  A    between atoms: C_7  and  O_6 
REMARK    5  A    between atoms: C_9  and  C_10 
REMARK    6  A    between atoms: N_15  and  C_14 
REMARK    7  A    between atoms: N_20  and  C_19 
REMARK       I    between atoms: C_22  and  N_20 
ROOT
ATOM      1  C   LIG d   1      -0.815  75.486 116.157  0.00  0.00     0.161 C 
ATOM      2  C   LIG d   1      -0.027  75.232 117.292  0.00  0.00     0.016 C 
ATOM      3  C   LIG d   1       0.648  76.244 118.013  0.00  0.00     0.038 C 
ATOM      4  C   LIG d   1       0.459  77.606 117.733  0.00  0.00     0.028 C 
ATOM      5  C   LIG d   1       0.074  77.879 116.283  0.00  0.00    -0.047 C 
ATOM      6  C   LIG d   1      -1.123  76.977 115.903  0.00  0.00     0.091 C 
ENDROOT
BRANCH   1   7
ATOM      7  O   LIG d   1      -2.038  74.727 116.230  0.00  0.00    -0.368 OA
BRANCH   7   8
ATOM      8  C   LIG d   1      -3.116  75.329 116.988  0.00  0.00     0.119 C 
BRANCH   8   9
ATOM      9  C   LIG d   1      -3.346  74.458 118.238  0.00  0.00     0.028 C 
ATOM     10  C   LIG d   1      -3.100  75.231 119.545  0.00  0.00     0.006 C 
ENDBRANCH   8   9
BRANCH   8  11
ATOM     11  C   LIG d   1      -4.436  75.281 116.213  0.00  0.00     0.028 C 
ATOM     12  C   LIG d   1      -4.439  74.215 115.106  0.00  0.00     0.006 C 
ENDBRANCH   8  11
ENDBRANCH   7   8
ENDBRANCH   1   7
BRANCH   6  13
ATOM     13  N   LIG d   1      -1.509  77.120 114.475  0.00  0.00    -0.311 N 
ATOM     14  C   LIG d   1      -2.491  77.918 114.058  0.00  0.00     0.210 C 
ATOM     15  C   LIG d   1      -2.739  77.901 112.547  0.00  0.00     0.109 C 
ATOM     16  O   LIG d   1      -3.158  78.662 114.793  0.00  0.00    -0.276 OA
ATOM     17  H   LIG d   1      -0.999  76.575 113.808  0.00  0.00     0.149 HD
ENDBRANCH   6  13
BRANCH   5  18
ATOM     18  N   LIG d   1      -0.226  79.318 116.165  0.00  0.00     0.381 N 
ATOM     19  H   LIG d   1      -0.797  79.480 115.359  0.00  0.00    -0.090 HD
ATOM     20  H   LIG d   1       0.635  79.821 116.048  0.00  0.00    -0.090 HD
ATOM     21  H   LIG d   1      -0.697  79.636 116.983  0.00  0.00    -0.090 HD
ENDBRANCH   5  18
BRANCH   3  22
ATOM     22  C   LIG d   1       1.557  75.894 119.000  0.00  0.00     0.382 C 
ATOM     23  O   LIG d   1       1.481  74.770 119.552  0.00  0.00    -0.241 OA
ATOM     24  O   LIG d   1       2.422  76.706 119.378  0.00  0.00    -0.241 OA
ENDBRANCH   3  22
TORSDOF 7
ENDMDL
