MODEL 1
REMARK VINA RESULT:      -5.9      0.000      0.000
REMARK  7 active torsions:
REMARK  status: ('A' for Active; 'I' for Inactive)
REMARK    1  A    between atoms: C_2  and  C_3 
REMARK    2  A    between atoms: C_3  and  O_6 
REMARK    3  A    between atoms: C_3  and  C_4 
REMARK    4  A    between atoms: C_7  and  O_6 
REMARK    5  A    between atoms: C_9  and  C_10 
REMARK    6  A    between atoms: N_15  and  C_14 
REMARK    7  A    between atoms: N_20  and  C_19 
REMARK       I    between atoms: C_22  and  N_20 
ROOT
ATOM      1  C   LIG d   1       0.307  82.304 111.938  0.00  0.00     0.161 C 
ATOM      2  C   LIG d   1      -0.921  81.886 112.476  0.00  0.00     0.016 C 
ATOM      3  C   LIG d   1      -1.567  80.686 112.101  0.00  0.00     0.038 C 
ATOM      4  C   LIG d   1      -0.951  79.742 111.267  0.00  0.00     0.028 C 
ATOM      5  C   LIG d   1       0.064  80.353 110.306  0.00  0.00    -0.047 C 
ATOM      6  C   LIG d   1       1.048  81.234 111.110  0.00  0.00     0.091 C 
ENDROOT
BRANCH   1   7
ATOM      7  O   LIG d   1       1.158  82.801 112.990  0.00  0.00    -0.368 OA
BRANCH   7   8
ATOM      8  C   LIG d   1       0.586  82.812 114.321  0.00  0.00     0.119 C 
BRANCH   8   9
ATOM      9  C   LIG d   1       0.395  84.285 114.731  0.00  0.00     0.028 C 
ATOM     10  C   LIG d   1       0.872  84.561 116.167  0.00  0.00     0.006 C 
ENDBRANCH   8   9
BRANCH   8  11
ATOM     11  C   LIG d   1       1.557  82.227 115.350  0.00  0.00     0.028 C 
ATOM     12  C   LIG d   1       1.195  80.791 115.763  0.00  0.00     0.006 C 
ENDBRANCH   8  11
ENDBRANCH   7   8
ENDBRANCH   1   7
BRANCH   6  13
ATOM     13  N   LIG d   1       2.023  81.936 110.236  0.00  0.00    -0.311 N 
ATOM     14  C   LIG d   1       3.339  81.912 110.439  0.00  0.00     0.210 C 
ATOM     15  C   LIG d   1       4.164  82.720 109.431  0.00  0.00     0.109 C 
ATOM     16  O   LIG d   1       3.905  81.272 111.338  0.00  0.00    -0.276 OA
ATOM     17  H   LIG d   1       1.653  82.455 109.464  0.00  0.00     0.149 HD
ENDBRANCH   6  13
BRANCH   5  18
ATOM     18  N   LIG d   1       0.728  79.244 109.596  0.00  0.00     0.381 N 
ATOM     19  H   LIG d   1       1.631  79.079 109.994  0.00  0.00    -0.090 HD
ATOM     20  H   LIG d   1       0.852  79.503 108.633  0.00  0.00    -0.090 HD
ATOM     21  H   LIG d   1       0.174  78.419 109.657  0.00  0.00    -0.090 HD
ENDBRANCH   5  18
BRANCH   3  22
ATOM     22  C   LIG d   1      -2.863  80.440 112.530  0.00  0.00     0.382 C 
ATOM     23  O   LIG d   1      -3.199  79.281 112.874  0.00  0.00    -0.241 OA
ATOM     24  O   LIG d   1      -3.711  81.352 112.536  0.00  0.00    -0.241 OA
ENDBRANCH   3  22
TORSDOF 7
ENDMDL
MODEL 2
REMARK VINA RESULT:      -5.6      1.525      2.182
REMARK  7 active torsions:
REMARK  status: ('A' for Active; 'I' for Inactive)
REMARK    1  A    between atoms: C_2  and  C_3 
REMARK    2  A    between atoms: C_3  and  O_6 
REMARK    3  A    between atoms: C_3  and  C_4 
REMARK    4  A    between atoms: C_7  and  O_6 
REMARK    5  A    between atoms: C_9  and  C_10 
REMARK    6  A    between atoms: N_15  and  C_14 
REMARK    7  A    between atoms: N_20  and  C_19 
REMARK       I    between atoms: C_22  and  N_20 
ROOT
ATOM      1  C   LIG d   1      -1.086  81.373 112.055  0.00  0.00     0.161 C 
ATOM      2  C   LIG d   1      -1.974  80.360 112.455  0.00  0.00     0.016 C 
ATOM      3  C   LIG d   1      -1.967  79.057 111.906  0.00  0.00     0.038 C 
ATOM      4  C   LIG d   1      -0.966  78.631 111.021  0.00  0.00     0.028 C 
ATOM      5  C   LIG d   1      -0.353  79.766 110.208  0.00  0.00    -0.047 C 
ATOM      6  C   LIG d   1       0.084  80.894 111.171  0.00  0.00     0.091 C 
ENDROOT
BRANCH   1   7
ATOM      7  O   LIG d   1      -0.586  82.070 113.213  0.00  0.00    -0.368 OA
BRANCH   7   8
ATOM      8  C   LIG d   1       0.798  81.819 113.560  0.00  0.00     0.119 C 
BRANCH   8   9
ATOM      9  C   LIG d   1       0.810  81.099 114.923  0.00  0.00     0.028 C 
ATOM     10  C   LIG d   1       2.142  81.282 115.671  0.00  0.00     0.006 C 
ENDBRANCH   8   9
BRANCH   8  11
ATOM     11  C   LIG d   1       1.562  83.127 113.785  0.00  0.00     0.028 C 
ATOM     12  C   LIG d   1       0.702  84.373 113.519  0.00  0.00     0.006 C 
ENDBRANCH   8  11
ENDBRANCH   7   8
ENDBRANCH   1   7
BRANCH   6  13
ATOM     13  N   LIG d   1       0.618  82.079 110.451  0.00  0.00    -0.311 N 
ATOM     14  C   LIG d   1       1.908  82.242 110.163  0.00  0.00     0.210 C 
ATOM     15  C   LIG d   1       2.248  83.546 109.433  0.00  0.00     0.109 C 
ATOM     16  O   LIG d   1       2.799  81.417 110.414  0.00  0.00    -0.276 OA
ATOM     17  H   LIG d   1      -0.040  82.784 110.182  0.00  0.00     0.149 HD
ENDBRANCH   6  13
BRANCH   5  18
ATOM     18  N   LIG d   1       0.767  79.203 109.430  0.00  0.00     0.381 N 
ATOM     19  H   LIG d   1       1.351  79.943 109.093  0.00  0.00    -0.090 HD
ATOM     20  H   LIG d   1       0.396  78.709 108.638  0.00  0.00    -0.090 HD
ATOM     21  H   LIG d   1       1.299  78.583 109.999  0.00  0.00    -0.090 HD
ENDBRANCH   5  18
BRANCH   3  22
ATOM     22  C   LIG d   1      -2.994  78.177 112.212  0.00  0.00     0.382 C 
ATOM     23  O   LIG d   1      -3.613  77.591 111.291  0.00  0.00    -0.241 OA
ATOM     24  O   LIG d   1      -3.340  77.996 113.395  0.00  0.00    -0.241 OA
ENDBRANCH   3  22
TORSDOF 7
ENDMDL
MODEL 3
REMARK VINA RESULT:      -4.8      2.591      5.550
REMARK  7 active torsions:
REMARK  status: ('A' for Active; 'I' for Inactive)
REMARK    1  A    between atoms: C_2  and  C_3 
REMARK    2  A    between atoms: C_3  and  O_6 
REMARK    3  A    between atoms: C_3  and  C_4 
REMARK    4  A    between atoms: C_7  and  O_6 
REMARK    5  A    between atoms: C_9  and  C_10 
REMARK    6  A    between atoms: N_15  and  C_14 
REMARK    7  A    between atoms: N_20  and  C_19 
REMARK       I    between atoms: C_22  and  N_20 
ROOT
ATOM      1  C   LIG d   1       0.476  82.666 113.096  0.00  0.00     0.161 C 
ATOM      2  C   LIG d   1       1.487  83.440 113.689  0.00  0.00     0.016 C 
ATOM      3  C   LIG d   1       2.238  83.014 114.808  0.00  0.00     0.038 C 
ATOM      4  C   LIG d   1       2.131  81.713 115.321  0.00  0.00     0.028 C 
ATOM      5  C   LIG d   1       0.768  81.074 115.073  0.00  0.00    -0.047 C 
ATOM      6  C   LIG d   1       0.421  81.199 113.572  0.00  0.00     0.091 C 
ENDROOT
BRANCH   1   7
ATOM      7  O   LIG d   1       0.596  82.722 111.661  0.00  0.00    -0.368 OA
BRANCH   7   8
ATOM      8  C   LIG d   1       1.939  82.865 111.138  0.00  0.00     0.119 C 
BRANCH   8   9
ATOM      9  C   LIG d   1       1.850  83.720 109.859  0.00  0.00     0.028 C 
ATOM     10  C   LIG d   1       0.558  84.551 109.797  0.00  0.00     0.006 C 
ENDBRANCH   8   9
BRANCH   8  11
ATOM     11  C   LIG d   1       2.508  81.517 110.687  0.00  0.00     0.028 C 
ATOM     12  C   LIG d   1       3.990  81.599 110.287  0.00  0.00     0.006 C 
ENDBRANCH   8  11
ENDBRANCH   7   8
ENDBRANCH   1   7
BRANCH   6  13
ATOM     13  N   LIG d   1      -0.934  80.675 113.258  0.00  0.00    -0.311 N 
ATOM     14  C   LIG d   1      -1.196  79.909 112.200  0.00  0.00     0.210 C 
ATOM     15  C   LIG d   1      -2.663  79.494 112.051  0.00  0.00     0.109 C 
ATOM     16  O   LIG d   1      -0.348  79.508 111.390  0.00  0.00    -0.276 OA
ATOM     17  H   LIG d   1      -1.676  80.926 113.881  0.00  0.00     0.149 HD
ENDBRANCH   6  13
BRANCH   5  18
ATOM     18  N   LIG d   1       0.840  79.675 115.536  0.00  0.00     0.381 N 
ATOM     19  H   LIG d   1       1.671  79.540 116.077  0.00  0.00    -0.090 HD
ATOM     20  H   LIG d   1       0.884  79.070 114.735  0.00  0.00    -0.090 HD
ATOM     21  H   LIG d   1       0.038  79.455 116.084  0.00  0.00    -0.090 HD
ENDBRANCH   5  18
BRANCH   3  22
ATOM     22  C   LIG d   1       3.080  83.908 115.452  0.00  0.00     0.382 C 
ATOM     23  O   LIG d   1       2.709  84.467 116.512  0.00  0.00    -0.241 OA
ATOM     24  O   LIG d   1       4.188  84.197 114.962  0.00  0.00    -0.241 OA
ENDBRANCH   3  22
TORSDOF 7
ENDMDL
MODEL 4
REMARK VINA RESULT:      -4.7      2.675      5.814
REMARK  7 active torsions:
REMARK  status: ('A' for Active; 'I' for Inactive)
REMARK    1  A    between atoms: C_2  and  C_3 
REMARK    2  A    between atoms: C_3  and  O_6 
REMARK    3  A    between atoms: C_3  and  C_4 
REMARK    4  A    between atoms: C_7  and  O_6 
REMARK    5  A    between atoms: C_9  and  C_10 
REMARK    6  A    between atoms: N_15  and  C_14 
REMARK    7  A    between atoms: N_20  and  C_19 
REMARK       I    between atoms: C_22  and  N_20 
ROOT
ATOM      1  C   LIG d   1       0.843  83.582 113.962  0.00  0.00     0.161 C 
ATOM      2  C   LIG d   1       1.994  83.918 114.694  0.00  0.00     0.016 C 
ATOM      3  C   LIG d   1       2.707  82.993 115.491  0.00  0.00     0.038 C 
ATOM      4  C   LIG d   1       2.403  81.624 115.489  0.00  0.00     0.028 C 
ATOM      5  C   LIG d   1       0.943  81.328 115.162  0.00  0.00    -0.047 C 
ATOM      6  C   LIG d   1       0.561  82.069 113.860  0.00  0.00     0.091 C 
ENDROOT
BRANCH   1   7
ATOM      7  O   LIG d   1       0.912  84.169 112.647  0.00  0.00    -0.368 OA
BRANCH   7   8
ATOM      8  C   LIG d   1       1.495  83.342 111.610  0.00  0.00     0.119 C 
BRANCH   8   9
ATOM      9  C   LIG d   1       2.766  84.056 111.110  0.00  0.00     0.028 C 
ATOM     10  C   LIG d   1       3.055  83.770 109.627  0.00  0.00     0.006 C 
ENDBRANCH   8   9
BRANCH   8  11
ATOM     11  C   LIG d   1       0.576  83.249 110.389  0.00  0.00     0.028 C 
ATOM     12  C   LIG d   1      -0.731  84.037 110.565  0.00  0.00     0.006 C 
ENDBRANCH   8  11
ENDBRANCH   7   8
ENDBRANCH   1   7
BRANCH   6  13
ATOM     13  N   LIG d   1      -0.875  81.901 113.513  0.00  0.00    -0.311 N 
ATOM     14  C   LIG d   1      -1.327  80.943 112.707  0.00  0.00     0.210 C 
ATOM     15  C   LIG d   1      -2.840  80.962 112.465  0.00  0.00     0.109 C 
ATOM     16  O   LIG d   1      -0.624  80.059 112.194  0.00  0.00    -0.276 OA
ATOM     17  H   LIG d   1      -1.519  82.556 113.911  0.00  0.00     0.149 HD
ENDBRANCH   6  13
BRANCH   5  18
ATOM     18  N   LIG d   1       0.797  79.864 115.059  0.00  0.00     0.381 N 
ATOM     19  H   LIG d   1       0.668  79.472 115.970  0.00  0.00    -0.090 HD
ATOM     20  H   LIG d   1       1.638  79.480 114.666  0.00  0.00    -0.090 HD
ATOM     21  H   LIG d   1       0.018  79.639 114.479  0.00  0.00    -0.090 HD
ENDBRANCH   5  18
BRANCH   3  22
ATOM     22  C   LIG d   1       3.714  83.443 116.331  0.00  0.00     0.382 C 
ATOM     23  O   LIG d   1       4.631  84.170 115.879  0.00  0.00    -0.241 OA
ATOM     24  O   LIG d   1       3.741  83.095 117.527  0.00  0.00    -0.241 OA
ENDBRANCH   3  22
TORSDOF 7
ENDMDL
MODEL 5
REMARK VINA RESULT:      -4.5      2.952      4.556
REMARK  7 active torsions:
REMARK  status: ('A' for Active; 'I' for Inactive)
REMARK    1  A    between atoms: C_2  and  C_3 
REMARK    2  A    between atoms: C_3  and  O_6 
REMARK    3  A    between atoms: C_3  and  C_4 
REMARK    4  A    between atoms: C_7  and  O_6 
REMARK    5  A    between atoms: C_9  and  C_10 
REMARK    6  A    between atoms: N_15  and  C_14 
REMARK    7  A    between atoms: N_20  and  C_19 
REMARK       I    between atoms: C_22  and  N_20 
ROOT
ATOM      1  C   LIG d   1       0.326  80.629 113.731  0.00  0.00     0.161 C 
ATOM      2  C   LIG d   1       0.136  81.932 113.239  0.00  0.00     0.016 C 
ATOM      3  C   LIG d   1      -0.777  82.249 112.208  0.00  0.00     0.038 C 
ATOM      4  C   LIG d   1      -1.679  81.302 111.699  0.00  0.00     0.028 C 
ATOM      5  C   LIG d   1      -1.176  79.866 111.810  0.00  0.00    -0.047 C 
ATOM      6  C   LIG d   1      -0.728  79.603 113.265  0.00  0.00     0.091 C 
ENDROOT
BRANCH   1   7
ATOM      7  O   LIG d   1       0.398  80.656 115.170  0.00  0.00    -0.368 OA
BRANCH   7   8
ATOM      8  C   LIG d   1       1.694  80.967 115.738  0.00  0.00     0.119 C 
BRANCH   8   9
ATOM      9  C   LIG d   1       1.950  79.966 116.881  0.00  0.00     0.028 C 
ATOM     10  C   LIG d   1       1.031  78.735 116.801  0.00  0.00     0.006 C 
ENDBRANCH   8   9
BRANCH   8  11
ATOM     11  C   LIG d   1       1.696  82.348 116.400  0.00  0.00     0.028 C 
ATOM     12  C   LIG d   1       1.323  82.295 117.890  0.00  0.00     0.006 C 
ENDBRANCH   8  11
ENDBRANCH   7   8
ENDBRANCH   1   7
BRANCH   6  13
ATOM     13  N   LIG d   1      -0.143  78.247 113.442  0.00  0.00    -0.311 N 
ATOM     14  C   LIG d   1      -0.862  77.177 113.776  0.00  0.00     0.210 C 
ATOM     15  C   LIG d   1      -0.060  75.881 113.926  0.00  0.00     0.109 C 
ATOM     16  O   LIG d   1      -2.093  77.172 113.931  0.00  0.00    -0.276 OA
ATOM     17  H   LIG d   1       0.844  78.155 113.305  0.00  0.00     0.149 HD
ENDBRANCH   6  13
BRANCH   5  18
ATOM     18  N   LIG d   1      -2.268  78.977 111.371  0.00  0.00     0.381 N 
ATOM     19  H   LIG d   1      -2.204  78.823 110.385  0.00  0.00    -0.090 HD
ATOM     20  H   LIG d   1      -3.148  79.422 111.565  0.00  0.00    -0.090 HD
ATOM     21  H   LIG d   1      -2.214  78.107 111.854  0.00  0.00    -0.090 HD
ENDBRANCH   5  18
BRANCH   3  22
ATOM     22  C   LIG d   1      -0.768  83.517 111.647  0.00  0.00     0.382 C 
ATOM     23  O   LIG d   1      -0.144  84.447 112.212  0.00  0.00    -0.241 OA
ATOM     24  O   LIG d   1      -1.411  83.752 110.607  0.00  0.00    -0.241 OA
ENDBRANCH   3  22
TORSDOF 7
ENDMDL
MODEL 6
REMARK VINA RESULT:      -4.5      1.972      4.541
REMARK  7 active torsions:
REMARK  status: ('A' for Active; 'I' for Inactive)
REMARK    1  A    between atoms: C_2  and  C_3 
REMARK    2  A    between atoms: C_3  and  O_6 
REMARK    3  A    between atoms: C_3  and  C_4 
REMARK    4  A    between atoms: C_7  and  O_6 
REMARK    5  A    between atoms: C_9  and  C_10 
REMARK    6  A    between atoms: N_15  and  C_14 
REMARK    7  A    between atoms: N_20  and  C_19 
REMARK       I    between atoms: C_22  and  N_20 
ROOT
ATOM      1  C   LIG d   1       1.154  81.761 112.979  0.00  0.00     0.161 C 
ATOM      2  C   LIG d   1       1.908  82.849 112.508  0.00  0.00     0.016 C 
ATOM      3  C   LIG d   1       2.029  83.177 111.138  0.00  0.00     0.038 C 
ATOM      4  C   LIG d   1       1.277  82.524 110.150  0.00  0.00     0.028 C 
ATOM      5  C   LIG d   1       0.893  81.097 110.525  0.00  0.00    -0.047 C 
ATOM      6  C   LIG d   1       0.238  81.105 111.925  0.00  0.00     0.091 C 
ENDROOT
BRANCH   1   7
ATOM      7  O   LIG d   1       0.387  82.161 114.131  0.00  0.00    -0.368 OA
BRANCH   7   8
ATOM      8  C   LIG d   1       0.947  81.815 115.422  0.00  0.00     0.119 C 
BRANCH   8   9
ATOM      9  C   LIG d   1       1.248  83.132 116.164  0.00  0.00     0.028 C 
ATOM     10  C   LIG d   1       0.405  84.307 115.639  0.00  0.00     0.006 C 
ENDBRANCH   8   9
BRANCH   8  11
ATOM     11  C   LIG d   1       2.302  81.116 115.271  0.00  0.00     0.028 C 
ATOM     12  C   LIG d   1       3.353  81.634 116.266  0.00  0.00     0.006 C 
ENDBRANCH   8  11
ENDBRANCH   7   8
ENDBRANCH   1   7
BRANCH   6  13
ATOM     13  N   LIG d   1      -0.092  79.738 112.405  0.00  0.00    -0.311 N 
ATOM     14  C   LIG d   1      -1.270  79.152 112.196  0.00  0.00     0.210 C 
ATOM     15  C   LIG d   1      -1.408  77.748 112.793  0.00  0.00     0.109 C 
ATOM     16  O   LIG d   1      -2.202  79.649 111.547  0.00  0.00    -0.276 OA
ATOM     17  H   LIG d   1       0.618  79.250 112.914  0.00  0.00     0.149 HD
ENDBRANCH   6  13
BRANCH   5  18
ATOM     18  N   LIG d   1      -0.001  80.584 109.471  0.00  0.00     0.381 N 
ATOM     19  H   LIG d   1       0.534  80.337 108.662  0.00  0.00    -0.090 HD
ATOM     20  H   LIG d   1      -0.648  81.309 109.212  0.00  0.00    -0.090 HD
ATOM     21  H   LIG d   1      -0.500  79.788 109.803  0.00  0.00    -0.090 HD
ENDBRANCH   5  18
BRANCH   3  22
ATOM     22  C   LIG d   1       2.942  84.143 110.740  0.00  0.00     0.382 C 
ATOM     23  O   LIG d   1       3.695  84.680 111.588  0.00  0.00    -0.241 OA
ATOM     24  O   LIG d   1       2.990  84.515 109.553  0.00  0.00    -0.241 OA
ENDBRANCH   3  22
TORSDOF 7
ENDMDL
MODEL 7
REMARK VINA RESULT:      -4.0      2.109      2.904
REMARK  7 active torsions:
REMARK  status: ('A' for Active; 'I' for Inactive)
REMARK    1  A    between atoms: C_2  and  C_3 
REMARK    2  A    between atoms: C_3  and  O_6 
REMARK    3  A    between atoms: C_3  and  C_4 
REMARK    4  A    between atoms: C_7  and  O_6 
REMARK    5  A    between atoms: C_9  and  C_10 
REMARK    6  A    between atoms: N_15  and  C_14 
REMARK    7  A    between atoms: N_20  and  C_19 
REMARK       I    between atoms: C_22  and  N_20 
ROOT
ATOM      1  C   LIG d   1       0.123  80.939 113.207  0.00  0.00     0.161 C 
ATOM      2  C   LIG d   1      -0.317  79.679 113.644  0.00  0.00     0.016 C 
ATOM      3  C   LIG d   1      -0.721  78.647 112.766  0.00  0.00     0.038 C 
ATOM      4  C   LIG d   1      -0.569  78.756 111.376  0.00  0.00     0.028 C 
ATOM      5  C   LIG d   1      -0.604  80.195 110.873  0.00  0.00    -0.047 C 
ATOM      6  C   LIG d   1       0.401  81.037 111.692  0.00  0.00     0.091 C 
ENDROOT
BRANCH   1   7
ATOM      7  O   LIG d   1       1.287  81.338 113.957  0.00  0.00    -0.368 OA
BRANCH   7   8
ATOM      8  C   LIG d   1       1.049  82.217 115.083  0.00  0.00     0.119 C 
BRANCH   8   9
ATOM      9  C   LIG d   1       1.096  83.665 114.558  0.00  0.00     0.028 C 
ATOM     10  C   LIG d   1       0.058  84.571 115.241  0.00  0.00     0.006 C 
ENDBRANCH   8   9
BRANCH   8  11
ATOM     11  C   LIG d   1       2.179  82.122 116.113  0.00  0.00     0.028 C 
ATOM     12  C   LIG d   1       1.671  81.802 117.527  0.00  0.00     0.006 C 
ENDBRANCH   8  11
ENDBRANCH   7   8
ENDBRANCH   1   7
BRANCH   6  13
ATOM     13  N   LIG d   1       0.370  82.476 111.321  0.00  0.00    -0.311 N 
ATOM     14  C   LIG d   1      -0.746  83.202 111.295  0.00  0.00     0.210 C 
ATOM     15  C   LIG d   1      -0.559  84.661 110.866  0.00  0.00     0.109 C 
ATOM     16  O   LIG d   1      -1.869  82.786 111.619  0.00  0.00    -0.276 OA
ATOM     17  H   LIG d   1       1.241  82.902 111.074  0.00  0.00     0.149 HD
ENDBRANCH   6  13
BRANCH   5  18
ATOM     18  N   LIG d   1      -0.296  80.170 109.430  0.00  0.00     0.381 N 
ATOM     19  H   LIG d   1       0.671  79.955 109.294  0.00  0.00    -0.090 HD
ATOM     20  H   LIG d   1      -0.474  81.081 109.044  0.00  0.00    -0.090 HD
ATOM     21  H   LIG d   1      -0.863  79.491 108.972  0.00  0.00    -0.090 HD
ENDBRANCH   5  18
BRANCH   3  22
ATOM     22  C   LIG d   1      -1.323  77.507 113.276  0.00  0.00     0.382 C 
ATOM     23  O   LIG d   1      -2.557  77.496 113.501  0.00  0.00    -0.241 OA
ATOM     24  O   LIG d   1      -0.639  76.503 113.555  0.00  0.00    -0.241 OA
ENDBRANCH   3  22
TORSDOF 7
ENDMDL
MODEL 8
REMARK VINA RESULT:      -4.0      4.432      7.454
REMARK  7 active torsions:
REMARK  status: ('A' for Active; 'I' for Inactive)
REMARK    1  A    between atoms: C_2  and  C_3 
REMARK    2  A    between atoms: C_3  and  O_6 
REMARK    3  A    between atoms: C_3  and  C_4 
REMARK    4  A    between atoms: C_7  and  O_6 
REMARK    5  A    between atoms: C_9  and  C_10 
REMARK    6  A    between atoms: N_15  and  C_14 
REMARK    7  A    between atoms: N_20  and  C_19 
REMARK       I    between atoms: C_22  and  N_20 
ROOT
ATOM      1  C   LIG d   1       1.740  80.378 116.674  0.00  0.00     0.161 C 
ATOM      2  C   LIG d   1       3.046  80.412 116.157  0.00  0.00     0.016 C 
ATOM      3  C   LIG d   1       4.044  79.473 116.503  0.00  0.00     0.038 C 
ATOM      4  C   LIG d   1       3.759  78.339 117.279  0.00  0.00     0.028 C 
ATOM      5  C   LIG d   1       2.585  78.537 118.232  0.00  0.00    -0.047 C 
ATOM      6  C   LIG d   1       1.379  79.085 117.435  0.00  0.00     0.091 C 
ENDROOT
BRANCH   1   7
ATOM      7  O   LIG d   1       0.790  80.619 115.617  0.00  0.00    -0.368 OA
BRANCH   7   8
ATOM      8  C   LIG d   1       1.207  81.545 114.584  0.00  0.00     0.119 C 
BRANCH   8   9
ATOM      9  C   LIG d   1       0.706  82.945 114.988  0.00  0.00     0.028 C 
ATOM     10  C   LIG d   1       1.861  83.920 115.277  0.00  0.00     0.006 C 
ENDBRANCH   8   9
BRANCH   8  11
ATOM     11  C   LIG d   1       0.519  81.238 113.250  0.00  0.00     0.028 C 
ATOM     12  C   LIG d   1       1.413  81.539 112.037  0.00  0.00     0.006 C 
ENDBRANCH   8  11
ENDBRANCH   7   8
ENDBRANCH   1   7
BRANCH   6  13
ATOM     13  N   LIG d   1       0.213  79.386 118.307  0.00  0.00    -0.311 N 
ATOM     14  C   LIG d   1      -0.751  78.507 118.571  0.00  0.00     0.210 C 
ATOM     15  C   LIG d   1      -1.871  79.028 119.477  0.00  0.00     0.109 C 
ATOM     16  O   LIG d   1      -0.769  77.334 118.168  0.00  0.00    -0.276 OA
ATOM     17  H   LIG d   1       0.164  80.305 118.701  0.00  0.00     0.149 HD
ENDBRANCH   6  13
BRANCH   5  18
ATOM     18  N   LIG d   1       2.310  77.239 118.877  0.00  0.00     0.381 N 
ATOM     19  H   LIG d   1       1.455  77.292 119.393  0.00  0.00    -0.090 HD
ATOM     20  H   LIG d   1       3.055  77.031 119.519  0.00  0.00    -0.090 HD
ATOM     21  H   LIG d   1       2.247  76.523 118.187  0.00  0.00    -0.090 HD
ENDBRANCH   5  18
BRANCH   3  22
ATOM     22  C   LIG d   1       5.355  79.685 116.104  0.00  0.00     0.382 C 
ATOM     23  O   LIG d   1       6.059  80.540 116.694  0.00  0.00    -0.241 OA
ATOM     24  O   LIG d   1       5.828  79.064 115.134  0.00  0.00    -0.241 OA
ENDBRANCH   3  22
TORSDOF 7
ENDMDL
MODEL 9
REMARK VINA RESULT:      -3.9      3.107      5.757
REMARK  7 active torsions:
REMARK  status: ('A' for Active; 'I' for Inactive)
REMARK    1  A    between atoms: C_2  and  C_3 
REMARK    2  A    between atoms: C_3  and  O_6 
REMARK    3  A    between atoms: C_3  and  C_4 
REMARK    4  A    between atoms: C_7  and  O_6 
REMARK    5  A    between atoms: C_9  and  C_10 
REMARK    6  A    between atoms: N_15  and  C_14 
REMARK    7  A    between atoms: N_20  and  C_19 
REMARK       I    between atoms: C_22  and  N_20 
ROOT
ATOM      1  C   LIG d   1       1.812  82.550 114.555  0.00  0.00     0.161 C 
ATOM      2  C   LIG d   1       2.867  82.752 115.462  0.00  0.00     0.016 C 
ATOM      3  C   LIG d   1       3.212  81.827 116.473  0.00  0.00     0.038 C 
ATOM      4  C   LIG d   1       2.618  80.558 116.551  0.00  0.00     0.028 C 
ATOM      5  C   LIG d   1       1.207  80.513 115.975  0.00  0.00    -0.047 C 
ATOM      6  C   LIG d   1       1.225  81.123 114.554  0.00  0.00     0.091 C 
ENDROOT
BRANCH   1   7
ATOM      7  O   LIG d   1       2.232  82.920 113.227  0.00  0.00    -0.368 OA
BRANCH   7   8
ATOM      8  C   LIG d   1       1.877  84.256 112.795  0.00  0.00     0.119 C 
BRANCH   8   9
ATOM      9  C   LIG d   1       0.501  84.589 113.404  0.00  0.00     0.028 C 
ATOM     10  C   LIG d   1      -0.605  84.680 112.339  0.00  0.00     0.006 C 
ENDBRANCH   8   9
BRANCH   8  11
ATOM     11  C   LIG d   1       1.675  84.317 111.278  0.00  0.00     0.028 C 
ATOM     12  C   LIG d   1       2.970  84.643 110.517  0.00  0.00     0.006 C 
ENDBRANCH   8  11
ENDBRANCH   7   8
ENDBRANCH   1   7
BRANCH   6  13
ATOM     13  N   LIG d   1      -0.131  81.195 113.951  0.00  0.00    -0.311 N 
ATOM     14  C   LIG d   1      -0.380  80.918 112.672  0.00  0.00     0.210 C 
ATOM     15  C   LIG d   1      -1.844  81.074 112.250  0.00  0.00     0.109 C 
ATOM     16  O   LIG d   1       0.468  80.527 111.855  0.00  0.00    -0.276 OA
ATOM     17  H   LIG d   1      -0.883  81.474 114.550  0.00  0.00     0.149 HD
ENDBRANCH   6  13
BRANCH   5  18
ATOM     18  N   LIG d   1       0.762  79.107 115.995  0.00  0.00     0.381 N 
ATOM     19  H   LIG d   1       1.050  78.673 116.849  0.00  0.00    -0.090 HD
ATOM     20  H   LIG d   1       1.194  78.618 115.231  0.00  0.00    -0.090 HD
ATOM     21  H   LIG d   1      -0.230  79.062 115.909  0.00  0.00    -0.090 HD
ENDBRANCH   5  18
BRANCH   3  22
ATOM     22  C   LIG d   1       4.134  82.184 117.445  0.00  0.00     0.382 C 
ATOM     23  O   LIG d   1       5.310  81.750 117.383  0.00  0.00    -0.241 OA
ATOM     24  O   LIG d   1       3.793  82.897 118.408  0.00  0.00    -0.241 OA
ENDBRANCH   3  22
TORSDOF 7
ENDMDL
