MODEL 1
REMARK VINA RESULT:      -5.2      0.000      0.000
REMARK  7 active torsions:
REMARK  status: ('A' for Active; 'I' for Inactive)
REMARK    1  A    between atoms: C_2  and  C_3 
REMARK    2  A    between atoms: C_3  and  O_6 
REMARK    3  A    between atoms: C_3  and  C_4 
REMARK    4  A    between atoms: C_7  and  O_6 
REMARK    5  A    between atoms: C_9  and  C_10 
REMARK    6  A    between atoms: N_15  and  C_14 
REMARK    7  A    between atoms: N_20  and  C_19 
REMARK       I    between atoms: C_22  and  N_20 
ROOT
ATOM      1  C   LIG d   1       0.959  80.308 113.060  0.00  0.00     0.161 C 
ATOM      2  C   LIG d   1       2.020  80.514 112.162  0.00  0.00     0.016 C 
ATOM      3  C   LIG d   1       1.976  80.123 110.804  0.00  0.00     0.038 C 
ATOM      4  C   LIG d   1       0.804  79.633 110.211  0.00  0.00     0.028 C 
ATOM      5  C   LIG d   1      -0.131  78.940 111.197  0.00  0.00    -0.047 C 
ATOM      6  C   LIG d   1      -0.369  79.876 112.404  0.00  0.00     0.091 C 
ENDROOT
BRANCH   1   7
ATOM      7  O   LIG d   1       0.761  81.490 113.861  0.00  0.00    -0.368 OA
BRANCH   7   8
ATOM      8  C   LIG d   1       1.153  82.745 113.253  0.00  0.00     0.119 C 
BRANCH   8   9
ATOM      9  C   LIG d   1       1.787  83.616 114.355  0.00  0.00     0.028 C 
ATOM     10  C   LIG d   1       3.323  83.638 114.273  0.00  0.00     0.006 C 
ENDBRANCH   8   9
BRANCH   8  11
ATOM     11  C   LIG d   1      -0.067  83.534 112.766  0.00  0.00     0.028 C 
ATOM     12  C   LIG d   1      -0.296  83.402 111.252  0.00  0.00     0.006 C 
ENDBRANCH   8  11
ENDBRANCH   7   8
ENDBRANCH   1   7
BRANCH   6  13
ATOM     13  N   LIG d   1      -1.205  79.242 113.456  0.00  0.00    -0.311 N 
ATOM     14  C   LIG d   1      -2.532  79.351 113.503  0.00  0.00     0.210 C 
ATOM     15  C   LIG d   1      -3.198  78.636 114.683  0.00  0.00     0.109 C 
ATOM     16  O   LIG d   1      -3.223  79.944 112.661  0.00  0.00    -0.276 OA
ATOM     17  H   LIG d   1      -0.729  78.716 114.162  0.00  0.00     0.149 HD
ENDBRANCH   6  13
BRANCH   5  18
ATOM     18  N   LIG d   1      -1.371  78.602 110.474  0.00  0.00     0.381 N 
ATOM     19  H   LIG d   1      -1.979  78.079 111.071  0.00  0.00    -0.090 HD
ATOM     20  H   LIG d   1      -1.139  78.030 109.681  0.00  0.00    -0.090 HD
ATOM     21  H   LIG d   1      -1.826  79.434 110.170  0.00  0.00    -0.090 HD
ENDBRANCH   5  18
BRANCH   3  22
ATOM     22  C   LIG d   1       3.128  80.184 110.035  0.00  0.00     0.382 C 
ATOM     23  O   LIG d   1       3.533  79.161 109.430  0.00  0.00    -0.241 OA
ATOM     24  O   LIG d   1       3.792  81.236 109.972  0.00  0.00    -0.241 OA
ENDBRANCH   3  22
TORSDOF 7
ENDMDL
MODEL 2
REMARK VINA RESULT:      -4.9      0.909      1.188
REMARK  7 active torsions:
REMARK  status: ('A' for Active; 'I' for Inactive)
REMARK    1  A    between atoms: C_2  and  C_3 
REMARK    2  A    between atoms: C_3  and  O_6 
REMARK    3  A    between atoms: C_3  and  C_4 
REMARK    4  A    between atoms: C_7  and  O_6 
REMARK    5  A    between atoms: C_9  and  C_10 
REMARK    6  A    between atoms: N_15  and  C_14 
REMARK    7  A    between atoms: N_20  and  C_19 
REMARK       I    between atoms: C_22  and  N_20 
ROOT
ATOM      1  C   LIG d   1       0.915  80.006 113.093  0.00  0.00     0.161 C 
ATOM      2  C   LIG d   1       1.921  80.227 112.138  0.00  0.00     0.016 C 
ATOM      3  C   LIG d   1       1.748  79.984 110.755  0.00  0.00     0.038 C 
ATOM      4  C   LIG d   1       0.499  79.646 110.213  0.00  0.00     0.028 C 
ATOM      5  C   LIG d   1      -0.414  78.924 111.198  0.00  0.00    -0.047 C 
ATOM      6  C   LIG d   1      -0.488  79.743 112.507  0.00  0.00     0.091 C 
ENDROOT
BRANCH   1   7
ATOM      7  O   LIG d   1       0.871  81.109 114.020  0.00  0.00    -0.368 OA
BRANCH   7   8
ATOM      8  C   LIG d   1       1.808  82.186 113.773  0.00  0.00     0.119 C 
BRANCH   8   9
ATOM      9  C   LIG d   1       2.437  82.573 115.126  0.00  0.00     0.028 C 
ATOM     10  C   LIG d   1       3.168  81.394 115.791  0.00  0.00     0.006 C 
ENDBRANCH   8   9
BRANCH   8  11
ATOM     11  C   LIG d   1       1.089  83.448 113.285  0.00  0.00     0.028 C 
ATOM     12  C   LIG d   1       1.720  84.040 112.015  0.00  0.00     0.006 C 
ENDBRANCH   8  11
ENDBRANCH   7   8
ENDBRANCH   1   7
BRANCH   6  13
ATOM     13  N   LIG d   1      -1.294  79.065 113.555  0.00  0.00    -0.311 N 
ATOM     14  C   LIG d   1      -2.560  79.378 113.823  0.00  0.00     0.210 C 
ATOM     15  C   LIG d   1      -3.200  78.570 114.956  0.00  0.00     0.109 C 
ATOM     16  O   LIG d   1      -3.224  80.227 113.209  0.00  0.00    -0.276 OA
ATOM     17  H   LIG d   1      -0.843  78.342 114.081  0.00  0.00     0.149 HD
ENDBRANCH   6  13
BRANCH   5  18
ATOM     18  N   LIG d   1      -1.727  78.754 110.547  0.00  0.00     0.381 N 
ATOM     19  H   LIG d   1      -1.809  77.824 110.187  0.00  0.00    -0.090 HD
ATOM     20  H   LIG d   1      -1.793  79.397 109.777  0.00  0.00    -0.090 HD
ATOM     21  H   LIG d   1      -2.457  78.931 111.201  0.00  0.00    -0.090 HD
ENDBRANCH   5  18
BRANCH   3  22
ATOM     22  C   LIG d   1       2.842  80.041 109.905  0.00  0.00     0.382 C 
ATOM     23  O   LIG d   1       3.321  81.153 109.574  0.00  0.00    -0.241 OA
ATOM     24  O   LIG d   1       3.328  78.998 109.430  0.00  0.00    -0.241 OA
ENDBRANCH   3  22
TORSDOF 7
ENDMDL
MODEL 3
REMARK VINA RESULT:      -4.8      2.461      4.979
REMARK  7 active torsions:
REMARK  status: ('A' for Active; 'I' for Inactive)
REMARK    1  A    between atoms: C_2  and  C_3 
REMARK    2  A    between atoms: C_3  and  O_6 
REMARK    3  A    between atoms: C_3  and  C_4 
REMARK    4  A    between atoms: C_7  and  O_6 
REMARK    5  A    between atoms: C_9  and  C_10 
REMARK    6  A    between atoms: N_15  and  C_14 
REMARK    7  A    between atoms: N_20  and  C_19 
REMARK       I    between atoms: C_22  and  N_20 
ROOT
ATOM      1  C   LIG d   1       0.273  79.268 112.108  0.00  0.00     0.161 C 
ATOM      2  C   LIG d   1      -0.924  78.888 111.478  0.00  0.00     0.016 C 
ATOM      3  C   LIG d   1      -2.091  78.517 112.185  0.00  0.00     0.038 C 
ATOM      4  C   LIG d   1      -2.187  78.646 113.579  0.00  0.00     0.028 C 
ATOM      5  C   LIG d   1      -0.841  78.544 114.290  0.00  0.00    -0.047 C 
ATOM      6  C   LIG d   1       0.154  79.522 113.625  0.00  0.00     0.091 C 
ENDROOT
BRANCH   1   7
ATOM      7  O   LIG d   1       0.826  80.424 111.448  0.00  0.00    -0.368 OA
BRANCH   7   8
ATOM      8  C   LIG d   1       0.736  80.437 110.002  0.00  0.00     0.119 C 
BRANCH   8   9
ATOM      9  C   LIG d   1       1.776  79.435 109.464  0.00  0.00     0.028 C 
ATOM     10  C   LIG d   1       3.218  79.845 109.809  0.00  0.00     0.006 C 
ENDBRANCH   8   9
BRANCH   8  11
ATOM     11  C   LIG d   1       1.148  81.796 109.430  0.00  0.00     0.028 C 
ATOM     12  C   LIG d   1       1.066  82.928 110.466  0.00  0.00     0.006 C 
ENDBRANCH   8  11
ENDBRANCH   7   8
ENDBRANCH   1   7
BRANCH   6  13
ATOM     13  N   LIG d   1       1.518  79.424 114.206  0.00  0.00    -0.311 N 
ATOM     14  C   LIG d   1       1.944  80.190 115.209  0.00  0.00     0.210 C 
ATOM     15  C   LIG d   1       3.392  79.940 115.643  0.00  0.00     0.109 C 
ATOM     16  O   LIG d   1       1.251  81.029 115.802  0.00  0.00    -0.276 OA
ATOM     17  H   LIG d   1       2.137  78.747 113.805  0.00  0.00     0.149 HD
ENDBRANCH   6  13
BRANCH   5  18
ATOM     18  N   LIG d   1      -1.069  78.833 115.719  0.00  0.00     0.381 N 
ATOM     19  H   LIG d   1      -0.593  78.157 116.281  0.00  0.00    -0.090 HD
ATOM     20  H   LIG d   1      -2.053  78.767 115.911  0.00  0.00    -0.090 HD
ATOM     21  H   LIG d   1      -0.742  79.748 115.938  0.00  0.00    -0.090 HD
ENDBRANCH   5  18
BRANCH   3  22
ATOM     22  C   LIG d   1      -3.166  77.972 111.499  0.00  0.00     0.382 C 
ATOM     23  O   LIG d   1      -3.023  77.586 110.314  0.00  0.00    -0.241 OA
ATOM     24  O   LIG d   1      -4.288  77.902 112.036  0.00  0.00    -0.241 OA
ENDBRANCH   3  22
TORSDOF 7
ENDMDL
MODEL 4
REMARK VINA RESULT:      -4.8      2.021      4.777
REMARK  7 active torsions:
REMARK  status: ('A' for Active; 'I' for Inactive)
REMARK    1  A    between atoms: C_2  and  C_3 
REMARK    2  A    between atoms: C_3  and  O_6 
REMARK    3  A    between atoms: C_3  and  C_4 
REMARK    4  A    between atoms: C_7  and  O_6 
REMARK    5  A    between atoms: C_9  and  C_10 
REMARK    6  A    between atoms: N_15  and  C_14 
REMARK    7  A    between atoms: N_20  and  C_19 
REMARK       I    between atoms: C_22  and  N_20 
ROOT
ATOM      1  C   LIG d   1      -0.181  81.497 111.972  0.00  0.00     0.161 C 
ATOM      2  C   LIG d   1      -1.138  80.535 112.334  0.00  0.00     0.016 C 
ATOM      3  C   LIG d   1      -1.177  79.232 111.786  0.00  0.00     0.038 C 
ATOM      4  C   LIG d   1      -0.163  78.750 110.945  0.00  0.00     0.028 C 
ATOM      5  C   LIG d   1       0.544  79.849 110.159  0.00  0.00    -0.047 C 
ATOM      6  C   LIG d   1       0.999  80.954 111.139  0.00  0.00     0.091 C 
ENDROOT
BRANCH   1   7
ATOM      7  O   LIG d   1       0.306  82.170 113.150  0.00  0.00    -0.368 OA
BRANCH   7   8
ATOM      8  C   LIG d   1       1.730  82.075 113.396  0.00  0.00     0.119 C 
BRANCH   8   9
ATOM      9  C   LIG d   1       1.920  81.350 114.742  0.00  0.00     0.028 C 
ATOM     10  C   LIG d   1       1.794  79.823 114.609  0.00  0.00     0.006 C 
ENDBRANCH   8   9
BRANCH   8  11
ATOM     11  C   LIG d   1       2.356  83.460 113.590  0.00  0.00     0.028 C 
ATOM     12  C   LIG d   1       1.450  84.598 113.093  0.00  0.00     0.006 C 
ENDBRANCH   8  11
ENDBRANCH   7   8
ENDBRANCH   1   7
BRANCH   6  13
ATOM     13  N   LIG d   1       1.626  82.107 110.442  0.00  0.00    -0.311 N 
ATOM     14  C   LIG d   1       2.920  82.161 110.130  0.00  0.00     0.210 C 
ATOM     15  C   LIG d   1       3.364  83.449 109.430  0.00  0.00     0.109 C 
ATOM     16  O   LIG d   1       3.735  81.250 110.337  0.00  0.00    -0.276 OA
ATOM     17  H   LIG d   1       1.030  82.877 110.208  0.00  0.00     0.149 HD
ENDBRANCH   6  13
BRANCH   5  18
ATOM     18  N   LIG d   1       1.665  79.225 109.430  0.00  0.00     0.381 N 
ATOM     19  H   LIG d   1       1.745  79.631 108.520  0.00  0.00    -0.090 HD
ATOM     20  H   LIG d   1       1.476  78.244 109.322  0.00  0.00    -0.090 HD
ATOM     21  H   LIG d   1       2.514  79.354 109.935  0.00  0.00    -0.090 HD
ENDBRANCH   5  18
BRANCH   3  22
ATOM     22  C   LIG d   1      -2.261  78.408 112.049  0.00  0.00     0.382 C 
ATOM     23  O   LIG d   1      -3.318  78.894 112.520  0.00  0.00    -0.241 OA
ATOM     24  O   LIG d   1      -2.181  77.180 111.861  0.00  0.00    -0.241 OA
ENDBRANCH   3  22
TORSDOF 7
ENDMDL
MODEL 5
REMARK VINA RESULT:      -4.7      2.418      4.811
REMARK  7 active torsions:
REMARK  status: ('A' for Active; 'I' for Inactive)
REMARK    1  A    between atoms: C_2  and  C_3 
REMARK    2  A    between atoms: C_3  and  O_6 
REMARK    3  A    between atoms: C_3  and  C_4 
REMARK    4  A    between atoms: C_7  and  O_6 
REMARK    5  A    between atoms: C_9  and  C_10 
REMARK    6  A    between atoms: N_15  and  C_14 
REMARK    7  A    between atoms: N_20  and  C_19 
REMARK       I    between atoms: C_22  and  N_20 
ROOT
ATOM      1  C   LIG d   1       0.472  80.539 111.333  0.00  0.00     0.161 C 
ATOM      2  C   LIG d   1      -0.415  79.461 111.176  0.00  0.00     0.016 C 
ATOM      3  C   LIG d   1      -0.884  78.676 112.254  0.00  0.00     0.038 C 
ATOM      4  C   LIG d   1      -0.615  79.013 113.589  0.00  0.00     0.028 C 
ATOM      5  C   LIG d   1       0.685  79.791 113.767  0.00  0.00    -0.047 C 
ATOM      6  C   LIG d   1       0.688  80.991 112.793  0.00  0.00     0.091 C 
ENDROOT
BRANCH   1   7
ATOM      7  O   LIG d   1       0.038  81.650 110.524  0.00  0.00    -0.368 OA
BRANCH   7   8
ATOM      8  C   LIG d   1       0.912  82.022 109.430  0.00  0.00     0.119 C 
BRANCH   8   9
ATOM      9  C   LIG d   1       2.152  81.110 109.498  0.00  0.00     0.028 C 
ATOM     10  C   LIG d   1       3.467  81.907 109.500  0.00  0.00     0.006 C 
ENDBRANCH   8   9
BRANCH   8  11
ATOM     11  C   LIG d   1       1.446  83.447 109.603  0.00  0.00     0.028 C 
ATOM     12  C   LIG d   1       0.410  84.402 110.216  0.00  0.00     0.006 C 
ENDBRANCH   8  11
ENDBRANCH   7   8
ENDBRANCH   1   7
BRANCH   6  13
ATOM     13  N   LIG d   1       1.961  81.757 112.842  0.00  0.00    -0.311 N 
ATOM     14  C   LIG d   1       2.039  83.024 113.247  0.00  0.00     0.210 C 
ATOM     15  C   LIG d   1       3.444  83.632 113.201  0.00  0.00     0.109 C 
ATOM     16  O   LIG d   1       1.083  83.691 113.671  0.00  0.00    -0.276 OA
ATOM     17  H   LIG d   1       2.791  81.283 112.545  0.00  0.00     0.149 HD
ENDBRANCH   6  13
BRANCH   5  18
ATOM     18  N   LIG d   1       0.771  80.196 115.183  0.00  0.00     0.381 N 
ATOM     19  H   LIG d   1       1.316  81.031 115.264  0.00  0.00    -0.090 HD
ATOM     20  H   LIG d   1       1.231  79.468 115.701  0.00  0.00    -0.090 HD
ATOM     21  H   LIG d   1      -0.142  80.349 115.550  0.00  0.00    -0.090 HD
ENDBRANCH   5  18
BRANCH   3  22
ATOM     22  C   LIG d   1      -1.599  77.515 111.999  0.00  0.00     0.382 C 
ATOM     23  O   LIG d   1      -2.507  77.153 112.786  0.00  0.00    -0.241 OA
ATOM     24  O   LIG d   1      -1.318  76.803 111.017  0.00  0.00    -0.241 OA
ENDBRANCH   3  22
TORSDOF 7
ENDMDL
MODEL 6
REMARK VINA RESULT:      -4.6      2.021      3.051
REMARK  7 active torsions:
REMARK  status: ('A' for Active; 'I' for Inactive)
REMARK    1  A    between atoms: C_2  and  C_3 
REMARK    2  A    between atoms: C_3  and  O_6 
REMARK    3  A    between atoms: C_3  and  C_4 
REMARK    4  A    between atoms: C_7  and  O_6 
REMARK    5  A    between atoms: C_9  and  C_10 
REMARK    6  A    between atoms: N_15  and  C_14 
REMARK    7  A    between atoms: N_20  and  C_19 
REMARK       I    between atoms: C_22  and  N_20 
ROOT
ATOM      1  C   LIG d   1       1.076  79.815 113.118  0.00  0.00     0.161 C 
ATOM      2  C   LIG d   1       1.886  80.625 112.306  0.00  0.00     0.016 C 
ATOM      3  C   LIG d   1       1.633  80.851 110.933  0.00  0.00     0.038 C 
ATOM      4  C   LIG d   1       0.459  80.400 110.312  0.00  0.00     0.028 C 
ATOM      5  C   LIG d   1      -0.133  79.156 110.966  0.00  0.00    -0.047 C 
ATOM      6  C   LIG d   1      -0.270  79.405 112.485  0.00  0.00     0.091 C 
ENDROOT
BRANCH   1   7
ATOM      7  O   LIG d   1       0.857  80.460 114.388  0.00  0.00    -0.368 OA
BRANCH   7   8
ATOM      8  C   LIG d   1       1.632  79.954 115.503  0.00  0.00     0.119 C 
BRANCH   8   9
ATOM      9  C   LIG d   1       0.659  79.226 116.450  0.00  0.00     0.028 C 
ATOM     10  C   LIG d   1       1.016  77.740 116.628  0.00  0.00     0.006 C 
ENDBRANCH   8   9
BRANCH   8  11
ATOM     11  C   LIG d   1       2.226  81.097 116.332  0.00  0.00     0.028 C 
ATOM     12  C   LIG d   1       3.749  80.982 116.499  0.00  0.00     0.006 C 
ENDBRANCH   8  11
ENDBRANCH   7   8
ENDBRANCH   1   7
BRANCH   6  13
ATOM     13  N   LIG d   1      -0.764  78.207 113.213  0.00  0.00    -0.311 N 
ATOM     14  C   LIG d   1      -1.850  78.213 113.983  0.00  0.00     0.210 C 
ATOM     15  C   LIG d   1      -2.172  76.876 114.658  0.00  0.00     0.109 C 
ATOM     16  O   LIG d   1      -2.597  79.190 114.145  0.00  0.00    -0.276 OA
ATOM     17  H   LIG d   1      -0.235  77.362 113.113  0.00  0.00     0.149 HD
ENDBRANCH   6  13
BRANCH   5  18
ATOM     18  N   LIG d   1      -1.423  78.878 110.307  0.00  0.00     0.381 N 
ATOM     19  H   LIG d   1      -2.005  78.339 110.916  0.00  0.00    -0.090 HD
ATOM     20  H   LIG d   1      -1.254  78.340 109.475  0.00  0.00    -0.090 HD
ATOM     21  H   LIG d   1      -1.877  79.733 110.071  0.00  0.00    -0.090 HD
ENDBRANCH   5  18
BRANCH   3  22
ATOM     22  C   LIG d   1       2.581  81.502 110.158  0.00  0.00     0.382 C 
ATOM     23  O   LIG d   1       2.241  82.466 109.430  0.00  0.00    -0.241 OA
ATOM     24  O   LIG d   1       3.763  81.109 110.143  0.00  0.00    -0.241 OA
ENDBRANCH   3  22
TORSDOF 7
ENDMDL
MODEL 7
REMARK VINA RESULT:      -4.4      2.743      5.264
REMARK  7 active torsions:
REMARK  status: ('A' for Active; 'I' for Inactive)
REMARK    1  A    between atoms: C_2  and  C_3 
REMARK    2  A    between atoms: C_3  and  O_6 
REMARK    3  A    between atoms: C_3  and  C_4 
REMARK    4  A    between atoms: C_7  and  O_6 
REMARK    5  A    between atoms: C_9  and  C_10 
REMARK    6  A    between atoms: N_15  and  C_14 
REMARK    7  A    between atoms: N_20  and  C_19 
REMARK       I    between atoms: C_22  and  N_20 
ROOT
ATOM      1  C   LIG d   1       1.291  80.804 112.921  0.00  0.00     0.161 C 
ATOM      2  C   LIG d   1       1.952  79.925 113.795  0.00  0.00     0.016 C 
ATOM      3  C   LIG d   1       2.613  80.348 114.971  0.00  0.00     0.038 C 
ATOM      4  C   LIG d   1       2.528  81.669 115.436  0.00  0.00     0.028 C 
ATOM      5  C   LIG d   1       2.296  82.687 114.325  0.00  0.00    -0.047 C 
ATOM      6  C   LIG d   1       1.092  82.232 113.469  0.00  0.00     0.091 C 
ENDROOT
BRANCH   1   7
ATOM      7  O   LIG d   1       0.025  80.239 112.525  0.00  0.00    -0.368 OA
BRANCH   7   8
ATOM      8  C   LIG d   1       0.065  79.291 111.430  0.00  0.00     0.119 C 
BRANCH   8   9
ATOM      9  C   LIG d   1       0.518  80.057 110.172  0.00  0.00     0.028 C 
ATOM     10  C   LIG d   1       1.665  79.346 109.433  0.00  0.00     0.006 C 
ENDBRANCH   8   9
BRANCH   8  11
ATOM     11  C   LIG d   1      -1.333  78.761 111.101  0.00  0.00     0.028 C 
ATOM     12  C   LIG d   1      -1.696  77.500 111.901  0.00  0.00     0.006 C 
ENDBRANCH   8  11
ENDBRANCH   7   8
ENDBRANCH   1   7
BRANCH   6  13
ATOM     13  N   LIG d   1       0.849  83.129 112.310  0.00  0.00    -0.311 N 
ATOM     14  C   LIG d   1      -0.366  83.500 111.911  0.00  0.00     0.210 C 
ATOM     15  C   LIG d   1      -0.393  84.413 110.681  0.00  0.00     0.109 C 
ATOM     16  O   LIG d   1      -1.423  83.186 112.479  0.00  0.00    -0.276 OA
ATOM     17  H   LIG d   1       1.653  83.457 111.810  0.00  0.00     0.149 HD
ENDBRANCH   6  13
BRANCH   5  18
ATOM     18  N   LIG d   1       2.090  84.002 114.962  0.00  0.00     0.381 N 
ATOM     19  H   LIG d   1       1.202  84.375 114.689  0.00  0.00    -0.090 HD
ATOM     20  H   LIG d   1       2.807  84.632 114.647  0.00  0.00    -0.090 HD
ATOM     21  H   LIG d   1       2.129  83.911 115.953  0.00  0.00    -0.090 HD
ENDBRANCH   5  18
BRANCH   3  22
ATOM     22  C   LIG d   1       3.404  79.452 115.675  0.00  0.00     0.382 C 
ATOM     23  O   LIG d   1       4.625  79.688 115.840  0.00  0.00    -0.241 OA
ATOM     24  O   LIG d   1       2.921  78.389 116.109  0.00  0.00    -0.241 OA
ENDBRANCH   3  22
TORSDOF 7
ENDMDL
MODEL 8
REMARK VINA RESULT:      -4.4      2.530      5.249
REMARK  7 active torsions:
REMARK  status: ('A' for Active; 'I' for Inactive)
REMARK    1  A    between atoms: C_2  and  C_3 
REMARK    2  A    between atoms: C_3  and  O_6 
REMARK    3  A    between atoms: C_3  and  C_4 
REMARK    4  A    between atoms: C_7  and  O_6 
REMARK    5  A    between atoms: C_9  and  C_10 
REMARK    6  A    between atoms: N_15  and  C_14 
REMARK    7  A    between atoms: N_20  and  C_19 
REMARK       I    between atoms: C_22  and  N_20 
ROOT
ATOM      1  C   LIG d   1       1.010  80.292 113.117  0.00  0.00     0.161 C 
ATOM      2  C   LIG d   1       0.030  79.445 113.660  0.00  0.00     0.016 C 
ATOM      3  C   LIG d   1      -0.917  78.747 112.876  0.00  0.00     0.038 C 
ATOM      4  C   LIG d   1      -0.852  78.731 111.475  0.00  0.00     0.028 C 
ATOM      5  C   LIG d   1      -0.193  79.973 110.885  0.00  0.00    -0.047 C 
ATOM      6  C   LIG d   1       1.167  80.200 111.585  0.00  0.00     0.091 C 
ENDROOT
BRANCH   1   7
ATOM      7  O   LIG d   1       2.276  80.054 113.765  0.00  0.00    -0.368 OA
BRANCH   7   8
ATOM      8  C   LIG d   1       2.218  79.730 115.176  0.00  0.00     0.119 C 
BRANCH   8   9
ATOM      9  C   LIG d   1       2.554  81.013 115.960  0.00  0.00     0.028 C 
ATOM     10  C   LIG d   1       1.505  81.334 117.038  0.00  0.00     0.006 C 
ENDBRANCH   8   9
BRANCH   8  11
ATOM     11  C   LIG d   1       3.306  78.723 115.561  0.00  0.00     0.028 C 
ATOM     12  C   LIG d   1       4.445  79.358 116.375  0.00  0.00     0.006 C 
ENDBRANCH   8  11
ENDBRANCH   7   8
ENDBRANCH   1   7
BRANCH   6  13
ATOM     13  N   LIG d   1       1.840  81.443 111.126  0.00  0.00    -0.311 N 
ATOM     14  C   LIG d   1       2.980  81.448 110.436  0.00  0.00     0.210 C 
ATOM     15  C   LIG d   1       3.514  82.839 110.080  0.00  0.00     0.109 C 
ATOM     16  O   LIG d   1       3.582  80.432 110.058  0.00  0.00    -0.276 OA
ATOM     17  H   LIG d   1       1.403  82.312 111.363  0.00  0.00     0.149 HD
ENDBRANCH   6  13
BRANCH   5  18
ATOM     18  N   LIG d   1      -0.067  79.763 109.431  0.00  0.00     0.381 N 
ATOM     19  H   LIG d   1       0.552  80.446 109.042  0.00  0.00    -0.090 HD
ATOM     20  H   LIG d   1      -0.970  79.879 109.006  0.00  0.00    -0.090 HD
ATOM     21  H   LIG d   1       0.280  78.847 109.247  0.00  0.00    -0.090 HD
ENDBRANCH   5  18
BRANCH   3  22
ATOM     22  C   LIG d   1      -1.968  78.087 113.494  0.00  0.00     0.382 C 
ATOM     23  O   LIG d   1      -1.902  76.849 113.691  0.00  0.00    -0.241 OA
ATOM     24  O   LIG d   1      -3.000  78.705 113.818  0.00  0.00    -0.241 OA
ENDBRANCH   3  22
TORSDOF 7
ENDMDL
MODEL 9
REMARK VINA RESULT:      -4.4      2.573      4.977
REMARK  7 active torsions:
REMARK  status: ('A' for Active; 'I' for Inactive)
REMARK    1  A    between atoms: C_2  and  C_3 
REMARK    2  A    between atoms: C_3  and  O_6 
REMARK    3  A    between atoms: C_3  and  C_4 
REMARK    4  A    between atoms: C_7  and  O_6 
REMARK    5  A    between atoms: C_9  and  C_10 
REMARK    6  A    between atoms: N_15  and  C_14 
REMARK    7  A    between atoms: N_20  and  C_19 
REMARK       I    between atoms: C_22  and  N_20 
ROOT
ATOM      1  C   LIG d   1       1.132  80.734 113.199  0.00  0.00     0.161 C 
ATOM      2  C   LIG d   1       0.333  79.586 113.333  0.00  0.00     0.016 C 
ATOM      3  C   LIG d   1      -0.400  79.018 112.265  0.00  0.00     0.038 C 
ATOM      4  C   LIG d   1      -0.262  79.476 110.946  0.00  0.00     0.028 C 
ATOM      5  C   LIG d   1       0.141  80.944 110.853  0.00  0.00    -0.047 C 
ATOM      6  C   LIG d   1       1.382  81.181 111.743  0.00  0.00     0.091 C 
ENDROOT
BRANCH   1   7
ATOM      7  O   LIG d   1       2.384  80.540 113.886  0.00  0.00    -0.368 OA
BRANCH   7   8
ATOM      8  C   LIG d   1       2.450  81.040 115.244  0.00  0.00     0.119 C 
BRANCH   8   9
ATOM      9  C   LIG d   1       2.943  82.498 115.177  0.00  0.00     0.028 C 
ATOM     10  C   LIG d   1       1.928  83.489 115.772  0.00  0.00     0.006 C 
ENDBRANCH   8   9
BRANCH   8  11
ATOM     11  C   LIG d   1       3.506  80.292 116.063  0.00  0.00     0.028 C 
ATOM     12  C   LIG d   1       2.897  79.458 117.201  0.00  0.00     0.006 C 
ENDBRANCH   8  11
ENDBRANCH   7   8
ENDBRANCH   1   7
BRANCH   6  13
ATOM     13  N   LIG d   1       1.792  82.609 111.776  0.00  0.00    -0.311 N 
ATOM     14  C   LIG d   1       2.911  83.064 111.216  0.00  0.00     0.210 C 
ATOM     15  C   LIG d   1       3.154  84.567 111.383  0.00  0.00     0.109 C 
ATOM     16  O   LIG d   1       3.710  82.370 110.568  0.00  0.00    -0.276 OA
ATOM     17  H   LIG d   1       1.186  83.247 112.254  0.00  0.00     0.149 HD
ENDBRANCH   6  13
BRANCH   5  18
ATOM     18  N   LIG d   1       0.383  81.250 109.430  0.00  0.00     0.381 N 
ATOM     19  H   LIG d   1       1.331  81.544 109.304  0.00  0.00    -0.090 HD
ATOM     20  H   LIG d   1      -0.220  82.004 109.153  0.00  0.00    -0.090 HD
ATOM     21  H   LIG d   1       0.199  80.446 108.872  0.00  0.00    -0.090 HD
ENDBRANCH   5  18
BRANCH   3  22
ATOM     22  C   LIG d   1      -1.312  78.006 112.519  0.00  0.00     0.382 C 
ATOM     23  O   LIG d   1      -1.976  78.013 113.584  0.00  0.00    -0.241 OA
ATOM     24  O   LIG d   1      -1.449  77.063 111.717  0.00  0.00    -0.241 OA
ENDBRANCH   3  22
TORSDOF 7
ENDMDL
