MODEL 1
REMARK VINA RESULT:      -5.7      0.000      0.000
REMARK  7 active torsions:
REMARK  status: ('A' for Active; 'I' for Inactive)
REMARK    1  A    between atoms: C_2  and  C_3 
REMARK    2  A    between atoms: C_3  and  O_6 
REMARK    3  A    between atoms: C_3  and  C_4 
REMARK    4  A    between atoms: C_7  and  O_6 
REMARK    5  A    between atoms: C_9  and  C_10 
REMARK    6  A    between atoms: N_15  and  C_14 
REMARK    7  A    between atoms: N_20  and  C_19 
REMARK       I    between atoms: C_22  and  N_20 
ROOT
ATOM      1  C   LIG d   1      -1.733  80.839 114.404  0.00  0.00     0.161 C 
ATOM      2  C   LIG d   1      -1.532  82.197 114.104  0.00  0.00     0.016 C 
ATOM      3  C   LIG d   1      -1.086  82.657 112.844  0.00  0.00     0.038 C 
ATOM      4  C   LIG d   1      -0.955  81.797 111.744  0.00  0.00     0.028 C 
ATOM      5  C   LIG d   1      -0.661  80.353 112.136  0.00  0.00    -0.047 C 
ATOM      6  C   LIG d   1      -1.702  79.896 113.183  0.00  0.00     0.091 C 
ENDROOT
BRANCH   1   7
ATOM      7  O   LIG d   1      -2.967  80.677 115.131  0.00  0.00    -0.368 OA
BRANCH   7   8
ATOM      8  C   LIG d   1      -2.841  80.362 116.539  0.00  0.00     0.119 C 
BRANCH   8   9
ATOM      9  C   LIG d   1      -3.926  79.321 116.880  0.00  0.00     0.028 C 
ATOM     10  C   LIG d   1      -3.345  77.911 117.078  0.00  0.00     0.006 C 
ENDBRANCH   8   9
BRANCH   8  11
ATOM     11  C   LIG d   1      -3.157  81.578 117.414  0.00  0.00     0.028 C 
ATOM     12  C   LIG d   1      -2.001  81.954 118.354  0.00  0.00     0.006 C 
ENDBRANCH   8  11
ENDBRANCH   7   8
ENDBRANCH   1   7
BRANCH   6  13
ATOM     13  N   LIG d   1      -1.437  78.522 113.684  0.00  0.00    -0.311 N 
ATOM     14  C   LIG d   1      -2.264  77.496 113.483  0.00  0.00     0.210 C 
ATOM     15  C   LIG d   1      -1.810  76.170 114.101  0.00  0.00     0.109 C 
ATOM     16  O   LIG d   1      -3.313  77.552 112.825  0.00  0.00    -0.276 OA
ATOM     17  H   LIG d   1      -0.592  78.380 114.202  0.00  0.00     0.149 HD
ENDBRANCH   6  13
BRANCH   5  18
ATOM     18  N   LIG d   1      -0.686  79.542 110.904  0.00  0.00     0.381 N 
ATOM     19  H   LIG d   1       0.104  79.768 110.334  0.00  0.00    -0.090 HD
ATOM     20  H   LIG d   1      -1.520  79.761 110.388  0.00  0.00    -0.090 HD
ATOM     21  H   LIG d   1      -0.673  78.573 111.133  0.00  0.00    -0.090 HD
ENDBRANCH   5  18
BRANCH   3  22
ATOM     22  C   LIG d   1      -0.727  83.987 112.686  0.00  0.00     0.382 C 
ATOM     23  O   LIG d   1      -0.043  84.561 113.568  0.00  0.00    -0.241 OA
ATOM     24  O   LIG d   1      -1.116  84.633 111.695  0.00  0.00    -0.241 OA
ENDBRANCH   3  22
TORSDOF 7
ENDMDL
MODEL 2
REMARK VINA RESULT:      -5.5      3.075      5.599
REMARK  7 active torsions:
REMARK  status: ('A' for Active; 'I' for Inactive)
REMARK    1  A    between atoms: C_2  and  C_3 
REMARK    2  A    between atoms: C_3  and  O_6 
REMARK    3  A    between atoms: C_3  and  C_4 
REMARK    4  A    between atoms: C_7  and  O_6 
REMARK    5  A    between atoms: C_9  and  C_10 
REMARK    6  A    between atoms: N_15  and  C_14 
REMARK    7  A    between atoms: N_20  and  C_19 
REMARK       I    between atoms: C_22  and  N_20 
ROOT
ATOM      1  C   LIG d   1      -0.072  83.324 112.164  0.00  0.00     0.161 C 
ATOM      2  C   LIG d   1      -1.236  82.733 112.682  0.00  0.00     0.016 C 
ATOM      3  C   LIG d   1      -1.563  81.369 112.500  0.00  0.00     0.038 C 
ATOM      4  C   LIG d   1      -0.667  80.464 111.912  0.00  0.00     0.028 C 
ATOM      5  C   LIG d   1       0.297  81.118 110.928  0.00  0.00    -0.047 C 
ATOM      6  C   LIG d   1       0.971  82.328 111.616  0.00  0.00     0.091 C 
ENDROOT
BRANCH   1   7
ATOM      7  O   LIG d   1       0.527  84.178 113.159  0.00  0.00    -0.368 OA
BRANCH   7   8
ATOM      8  C   LIG d   1       1.368  83.522 114.140  0.00  0.00     0.119 C 
BRANCH   8   9
ATOM      9  C   LIG d   1       0.779  83.825 115.531  0.00  0.00     0.028 C 
ATOM     10  C   LIG d   1       0.015  82.626 116.119  0.00  0.00     0.006 C 
ENDBRANCH   8   9
BRANCH   8  11
ATOM     11  C   LIG d   1       2.776  84.123 114.157  0.00  0.00     0.028 C 
ATOM     12  C   LIG d   1       3.468  83.981 115.522  0.00  0.00     0.006 C 
ENDBRANCH   8  11
ENDBRANCH   7   8
ENDBRANCH   1   7
BRANCH   6  13
ATOM     13  N   LIG d   1       1.867  83.075 110.696  0.00  0.00    -0.311 N 
ATOM     14  C   LIG d   1       3.154  82.779 110.524  0.00  0.00     0.210 C 
ATOM     15  C   LIG d   1       3.902  83.688 109.544  0.00  0.00     0.109 C 
ATOM     16  O   LIG d   1       3.739  81.829 111.065  0.00  0.00    -0.276 OA
ATOM     17  H   LIG d   1       1.466  83.843 110.192  0.00  0.00     0.149 HD
ENDBRANCH   6  13
BRANCH   5  18
ATOM     18  N   LIG d   1       1.260  80.088 110.496  0.00  0.00     0.381 N 
ATOM     19  H   LIG d   1       0.991  79.726 109.603  0.00  0.00    -0.090 HD
ATOM     20  H   LIG d   1       1.247  79.333 111.159  0.00  0.00    -0.090 HD
ATOM     21  H   LIG d   1       2.175  80.478 110.443  0.00  0.00    -0.090 HD
ENDBRANCH   5  18
BRANCH   3  22
ATOM     22  C   LIG d   1      -2.816  80.907 112.874  0.00  0.00     0.382 C 
ATOM     23  O   LIG d   1      -2.920  80.020 113.755  0.00  0.00    -0.241 OA
ATOM     24  O   LIG d   1      -3.841  81.335 112.309  0.00  0.00    -0.241 OA
ENDBRANCH   3  22
TORSDOF 7
ENDMDL
MODEL 3
REMARK VINA RESULT:      -5.4      2.003      2.894
REMARK  7 active torsions:
REMARK  status: ('A' for Active; 'I' for Inactive)
REMARK    1  A    between atoms: C_2  and  C_3 
REMARK    2  A    between atoms: C_3  and  O_6 
REMARK    3  A    between atoms: C_3  and  C_4 
REMARK    4  A    between atoms: C_7  and  O_6 
REMARK    5  A    between atoms: C_9  and  C_10 
REMARK    6  A    between atoms: N_15  and  C_14 
REMARK    7  A    between atoms: N_20  and  C_19 
REMARK       I    between atoms: C_22  and  N_20 
ROOT
ATOM      1  C   LIG d   1      -0.536  82.029 112.951  0.00  0.00     0.161 C 
ATOM      2  C   LIG d   1       0.111  83.101 112.314  0.00  0.00     0.016 C 
ATOM      3  C   LIG d   1       0.748  82.989 111.057  0.00  0.00     0.038 C 
ATOM      4  C   LIG d   1       0.651  81.827 110.277  0.00  0.00     0.028 C 
ATOM      5  C   LIG d   1       0.438  80.561 111.100  0.00  0.00    -0.047 C 
ATOM      6  C   LIG d   1      -0.749  80.783 112.065  0.00  0.00     0.091 C 
ENDROOT
BRANCH   1   7
ATOM      7  O   LIG d   1      -1.793  82.473 113.500  0.00  0.00    -0.368 OA
BRANCH   7   8
ATOM      8  C   LIG d   1      -1.789  82.810 114.909  0.00  0.00     0.119 C 
BRANCH   8   9
ATOM      9  C   LIG d   1      -0.680  81.978 115.581  0.00  0.00     0.028 C 
ATOM     10  C   LIG d   1       0.306  82.849 116.379  0.00  0.00     0.006 C 
ENDBRANCH   8   9
BRANCH   8  11
ATOM     11  C   LIG d   1      -3.090  82.376 115.589  0.00  0.00     0.028 C 
ATOM     12  C   LIG d   1      -2.946  81.058 116.365  0.00  0.00     0.006 C 
ENDBRANCH   8  11
ENDBRANCH   7   8
ENDBRANCH   1   7
BRANCH   6  13
ATOM     13  N   LIG d   1      -0.971  79.623 112.966  0.00  0.00    -0.311 N 
ATOM     14  C   LIG d   1      -2.179  79.149 113.267  0.00  0.00     0.210 C 
ATOM     15  C   LIG d   1      -2.186  77.959 114.232  0.00  0.00     0.109 C 
ATOM     16  O   LIG d   1      -3.245  79.582 112.802  0.00  0.00    -0.276 OA
ATOM     17  H   LIG d   1      -0.160  79.192 113.364  0.00  0.00     0.149 HD
ENDBRANCH   6  13
BRANCH   5  18
ATOM     18  N   LIG d   1       0.217  79.448 110.157  0.00  0.00     0.381 N 
ATOM     19  H   LIG d   1      -0.758  79.372 109.947  0.00  0.00    -0.090 HD
ATOM     20  H   LIG d   1       0.514  78.591 110.590  0.00  0.00    -0.090 HD
ATOM     21  H   LIG d   1       0.734  79.602 109.320  0.00  0.00    -0.090 HD
ENDBRANCH   5  18
BRANCH   3  22
ATOM     22  C   LIG d   1       1.527  84.035 110.586  0.00  0.00     0.382 C 
ATOM     23  O   LIG d   1       1.339  84.486 109.430  0.00  0.00    -0.241 OA
ATOM     24  O   LIG d   1       2.445  84.504 111.285  0.00  0.00    -0.241 OA
ENDBRANCH   3  22
TORSDOF 7
ENDMDL
MODEL 4
REMARK VINA RESULT:      -5.4      2.626      3.324
REMARK  7 active torsions:
REMARK  status: ('A' for Active; 'I' for Inactive)
REMARK    1  A    between atoms: C_2  and  C_3 
REMARK    2  A    between atoms: C_3  and  O_6 
REMARK    3  A    between atoms: C_3  and  C_4 
REMARK    4  A    between atoms: C_7  and  O_6 
REMARK    5  A    between atoms: C_9  and  C_10 
REMARK    6  A    between atoms: N_15  and  C_14 
REMARK    7  A    between atoms: N_20  and  C_19 
REMARK       I    between atoms: C_22  and  N_20 
ROOT
ATOM      1  C   LIG d   1       0.683  81.750 112.994  0.00  0.00     0.161 C 
ATOM      2  C   LIG d   1       1.623  82.707 112.579  0.00  0.00     0.016 C 
ATOM      3  C   LIG d   1       1.993  82.902 111.229  0.00  0.00     0.038 C 
ATOM      4  C   LIG d   1       1.331  82.249 110.178  0.00  0.00     0.028 C 
ATOM      5  C   LIG d   1       0.728  80.908 110.581  0.00  0.00    -0.047 C 
ATOM      6  C   LIG d   1      -0.131  81.106 111.851  0.00  0.00     0.091 C 
ENDROOT
BRANCH   1   7
ATOM      7  O   LIG d   1      -0.201  82.326 113.975  0.00  0.00    -0.368 OA
BRANCH   7   8
ATOM      8  C   LIG d   1      -0.107  81.782 115.315  0.00  0.00     0.119 C 
BRANCH   8   9
ATOM      9  C   LIG d   1      -1.544  81.575 115.833  0.00  0.00     0.028 C 
ATOM     10  C   LIG d   1      -2.540  82.571 115.214  0.00  0.00     0.006 C 
ENDBRANCH   8   9
BRANCH   8  11
ATOM     11  C   LIG d   1       0.531  82.785 116.280  0.00  0.00     0.028 C 
ATOM     12  C   LIG d   1       0.375  82.376 117.754  0.00  0.00     0.006 C 
ENDBRANCH   8  11
ENDBRANCH   7   8
ENDBRANCH   1   7
BRANCH   6  13
ATOM     13  N   LIG d   1      -0.690  79.827 112.362  0.00  0.00    -0.311 N 
ATOM     14  C   LIG d   1      -1.988  79.634 112.590  0.00  0.00     0.210 C 
ATOM     15  C   LIG d   1      -2.349  78.248 113.136  0.00  0.00     0.109 C 
ATOM     16  O   LIG d   1      -2.878  80.467 112.362  0.00  0.00    -0.276 OA
ATOM     17  H   LIG d   1      -0.041  79.087 112.545  0.00  0.00     0.149 HD
ENDBRANCH   6  13
BRANCH   5  18
ATOM     18  N   LIG d   1      -0.047  80.404 109.432  0.00  0.00     0.381 N 
ATOM     19  H   LIG d   1       0.365  79.559 109.090  0.00  0.00    -0.090 HD
ATOM     20  H   LIG d   1      -0.020  81.088 108.696  0.00  0.00    -0.090 HD
ATOM     21  H   LIG d   1      -0.991  80.236 109.704  0.00  0.00    -0.090 HD
ENDBRANCH   5  18
BRANCH   3  22
ATOM     22  C   LIG d   1       3.063  83.727 110.921  0.00  0.00     0.382 C 
ATOM     23  O   LIG d   1       4.143  83.616 111.551  0.00  0.00    -0.241 OA
ATOM     24  O   LIG d   1       2.949  84.613 110.052  0.00  0.00    -0.241 OA
ENDBRANCH   3  22
TORSDOF 7
ENDMDL
MODEL 5
REMARK VINA RESULT:      -5.2      3.307      5.412
REMARK  7 active torsions:
REMARK  status: ('A' for Active; 'I' for Inactive)
REMARK    1  A    between atoms: C_2  and  C_3 
REMARK    2  A    between atoms: C_3  and  O_6 
REMARK    3  A    between atoms: C_3  and  C_4 
REMARK    4  A    between atoms: C_7  and  O_6 
REMARK    5  A    between atoms: C_9  and  C_10 
REMARK    6  A    between atoms: N_15  and  C_14 
REMARK    7  A    between atoms: N_20  and  C_19 
REMARK       I    between atoms: C_22  and  N_20 
ROOT
ATOM      1  C   LIG d   1       0.859  81.827 112.889  0.00  0.00     0.161 C 
ATOM      2  C   LIG d   1      -0.340  81.401 113.484  0.00  0.00     0.016 C 
ATOM      3  C   LIG d   1      -1.291  80.589 112.823  0.00  0.00     0.038 C 
ATOM      4  C   LIG d   1      -1.035  80.021 111.566  0.00  0.00     0.028 C 
ATOM      5  C   LIG d   1      -0.059  80.833 110.722  0.00  0.00    -0.047 C 
ATOM      6  C   LIG d   1       1.206  81.126 111.559  0.00  0.00     0.091 C 
ENDROOT
BRANCH   1   7
ATOM      7  O   LIG d   1       1.945  81.691 113.827  0.00  0.00    -0.368 OA
BRANCH   7   8
ATOM      8  C   LIG d   1       1.631  81.979 115.212  0.00  0.00     0.119 C 
BRANCH   8   9
ATOM      9  C   LIG d   1       2.319  83.309 115.575  0.00  0.00     0.028 C 
ATOM     10  C   LIG d   1       1.374  84.515 115.441  0.00  0.00     0.006 C 
ENDBRANCH   8   9
BRANCH   8  11
ATOM     11  C   LIG d   1       2.244  80.936 116.150  0.00  0.00     0.028 C 
ATOM     12  C   LIG d   1       1.664  80.999 117.572  0.00  0.00     0.006 C 
ENDBRANCH   8  11
ENDBRANCH   7   8
ENDBRANCH   1   7
BRANCH   6  13
ATOM     13  N   LIG d   1       2.178  81.988 110.837  0.00  0.00    -0.311 N 
ATOM     14  C   LIG d   1       3.153  81.508 110.067  0.00  0.00     0.210 C 
ATOM     15  C   LIG d   1       4.056  82.569 109.430  0.00  0.00     0.109 C 
ATOM     16  O   LIG d   1       3.337  80.305 109.826  0.00  0.00    -0.276 OA
ATOM     17  H   LIG d   1       2.082  82.978 110.951  0.00  0.00     0.149 HD
ENDBRANCH   6  13
BRANCH   5  18
ATOM     18  N   LIG d   1       0.224  80.058 109.499  0.00  0.00     0.381 N 
ATOM     19  H   LIG d   1      -0.612  79.964 108.956  0.00  0.00    -0.090 HD
ATOM     20  H   LIG d   1       0.534  79.139 109.761  0.00  0.00    -0.090 HD
ATOM     21  H   LIG d   1       0.928  80.514 108.961  0.00  0.00    -0.090 HD
ENDBRANCH   5  18
BRANCH   3  22
ATOM     22  C   LIG d   1      -2.531  80.372 113.404  0.00  0.00     0.382 C 
ATOM     23  O   LIG d   1      -3.337  79.567 112.878  0.00  0.00    -0.241 OA
ATOM     24  O   LIG d   1      -2.871  81.003 114.423  0.00  0.00    -0.241 OA
ENDBRANCH   3  22
TORSDOF 7
ENDMDL
MODEL 6
REMARK VINA RESULT:      -4.8      2.259      4.004
REMARK  7 active torsions:
REMARK  status: ('A' for Active; 'I' for Inactive)
REMARK    1  A    between atoms: C_2  and  C_3 
REMARK    2  A    between atoms: C_3  and  O_6 
REMARK    3  A    between atoms: C_3  and  C_4 
REMARK    4  A    between atoms: C_7  and  O_6 
REMARK    5  A    between atoms: C_9  and  C_10 
REMARK    6  A    between atoms: N_15  and  C_14 
REMARK    7  A    between atoms: N_20  and  C_19 
REMARK       I    between atoms: C_22  and  N_20 
ROOT
ATOM      1  C   LIG d   1      -2.490  81.373 114.144  0.00  0.00     0.161 C 
ATOM      2  C   LIG d   1      -2.090  81.521 112.806  0.00  0.00     0.016 C 
ATOM      3  C   LIG d   1      -0.899  82.178 112.418  0.00  0.00     0.038 C 
ATOM      4  C   LIG d   1       0.053  82.602 113.356  0.00  0.00     0.028 C 
ATOM      5  C   LIG d   1      -0.545  82.926 114.722  0.00  0.00    -0.047 C 
ATOM      6  C   LIG d   1      -1.410  81.732 115.186  0.00  0.00     0.091 C 
ENDROOT
BRANCH   1   7
ATOM      7  O   LIG d   1      -2.974  80.034 114.365  0.00  0.00    -0.368 OA
BRANCH   7   8
ATOM      8  C   LIG d   1      -1.963  79.003 114.485  0.00  0.00     0.119 C 
BRANCH   8   9
ATOM      9  C   LIG d   1      -2.225  77.967 113.375  0.00  0.00     0.028 C 
ATOM     10  C   LIG d   1      -1.898  76.532 113.822  0.00  0.00     0.006 C 
ENDBRANCH   8   9
BRANCH   8  11
ATOM     11  C   LIG d   1      -2.106  78.232 115.801  0.00  0.00     0.028 C 
ATOM     12  C   LIG d   1      -3.407  78.564 116.547  0.00  0.00     0.006 C 
ENDBRANCH   8  11
ENDBRANCH   7   8
ENDBRANCH   1   7
BRANCH   6  13
ATOM     13  N   LIG d   1      -2.100  82.000 116.475  0.00  0.00    -0.311 N 
ATOM     14  C   LIG d   1      -1.619  81.617 117.657  0.00  0.00     0.210 C 
ATOM     15  C   LIG d   1      -2.497  81.976 118.859  0.00  0.00     0.109 C 
ATOM     16  O   LIG d   1      -0.533  81.043 117.826  0.00  0.00    -0.276 OA
ATOM     17  H   LIG d   1      -2.973  82.488 116.433  0.00  0.00     0.149 HD
ENDBRANCH   6  13
BRANCH   5  18
ATOM     18  N   LIG d   1       0.573  83.221 115.638  0.00  0.00     0.381 N 
ATOM     19  H   LIG d   1       1.405  83.396 115.112  0.00  0.00    -0.090 HD
ATOM     20  H   LIG d   1       0.733  82.420 116.224  0.00  0.00    -0.090 HD
ATOM     21  H   LIG d   1       0.353  84.014 116.200  0.00  0.00    -0.090 HD
ENDBRANCH   5  18
BRANCH   3  22
ATOM     22  C   LIG d   1      -0.671  82.451 111.078  0.00  0.00     0.382 C 
ATOM     23  O   LIG d   1      -0.029  81.637 110.372  0.00  0.00    -0.241 OA
ATOM     24  O   LIG d   1      -1.061  83.523 110.577  0.00  0.00    -0.241 OA
ENDBRANCH   3  22
TORSDOF 7
ENDMDL
MODEL 7
REMARK VINA RESULT:      -4.8      3.120      4.172
REMARK  7 active torsions:
REMARK  status: ('A' for Active; 'I' for Inactive)
REMARK    1  A    between atoms: C_2  and  C_3 
REMARK    2  A    between atoms: C_3  and  O_6 
REMARK    3  A    between atoms: C_3  and  C_4 
REMARK    4  A    between atoms: C_7  and  O_6 
REMARK    5  A    between atoms: C_9  and  C_10 
REMARK    6  A    between atoms: N_15  and  C_14 
REMARK    7  A    between atoms: N_20  and  C_19 
REMARK       I    between atoms: C_22  and  N_20 
ROOT
ATOM      1  C   LIG d   1      -1.428  78.626 116.004  0.00  0.00     0.161 C 
ATOM      2  C   LIG d   1      -1.942  79.298 114.882  0.00  0.00     0.016 C 
ATOM      3  C   LIG d   1      -2.282  78.647 113.674  0.00  0.00     0.038 C 
ATOM      4  C   LIG d   1      -2.273  77.249 113.556  0.00  0.00     0.028 C 
ATOM      5  C   LIG d   1      -1.282  76.569 114.495  0.00  0.00    -0.047 C 
ATOM      6  C   LIG d   1      -1.516  77.087 115.932  0.00  0.00     0.091 C 
ENDROOT
BRANCH   1   7
ATOM      7  O   LIG d   1      -2.071  79.109 117.200  0.00  0.00    -0.368 OA
BRANCH   7   8
ATOM      8  C   LIG d   1      -1.310  80.050 117.996  0.00  0.00     0.119 C 
BRANCH   8   9
ATOM      9  C   LIG d   1      -1.364  79.570 119.459  0.00  0.00     0.028 C 
ATOM     10  C   LIG d   1      -2.220  78.303 119.629  0.00  0.00     0.006 C 
ENDBRANCH   8   9
BRANCH   8  11
ATOM     11  C   LIG d   1      -1.964  81.435 118.000  0.00  0.00     0.028 C 
ATOM     12  C   LIG d   1      -2.023  82.063 119.401  0.00  0.00     0.006 C 
ENDBRANCH   8  11
ENDBRANCH   7   8
ENDBRANCH   1   7
BRANCH   6  13
ATOM     13  N   LIG d   1      -0.533  76.535 116.901  0.00  0.00    -0.311 N 
ATOM     14  C   LIG d   1      -0.714  75.390 117.557  0.00  0.00     0.210 C 
ATOM     15  C   LIG d   1       0.414  75.013 118.523  0.00  0.00     0.109 C 
ATOM     16  O   LIG d   1      -1.686  74.635 117.407  0.00  0.00    -0.276 OA
ATOM     17  H   LIG d   1       0.300  77.068 117.059  0.00  0.00     0.149 HD
ENDBRANCH   6  13
BRANCH   5  18
ATOM     18  N   LIG d   1      -1.476  75.112 114.367  0.00  0.00     0.381 N 
ATOM     19  H   LIG d   1      -2.025  74.913 113.554  0.00  0.00    -0.090 HD
ATOM     20  H   LIG d   1      -1.973  74.778 115.173  0.00  0.00    -0.090 HD
ATOM     21  H   LIG d   1      -0.593  74.655 114.300  0.00  0.00    -0.090 HD
ENDBRANCH   5  18
BRANCH   3  22
ATOM     22  C   LIG d   1      -2.599  79.400 112.553  0.00  0.00     0.382 C 
ATOM     23  O   LIG d   1      -2.073  79.130 111.447  0.00  0.00    -0.241 OA
ATOM     24  O   LIG d   1      -3.370  80.374 112.644  0.00  0.00    -0.241 OA
ENDBRANCH   3  22
TORSDOF 7
ENDMDL
MODEL 8
REMARK VINA RESULT:      -4.6      2.988      4.671
REMARK  7 active torsions:
REMARK  status: ('A' for Active; 'I' for Inactive)
REMARK    1  A    between atoms: C_2  and  C_3 
REMARK    2  A    between atoms: C_3  and  O_6 
REMARK    3  A    between atoms: C_3  and  C_4 
REMARK    4  A    between atoms: C_7  and  O_6 
REMARK    5  A    between atoms: C_9  and  C_10 
REMARK    6  A    between atoms: N_15  and  C_14 
REMARK    7  A    between atoms: N_20  and  C_19 
REMARK       I    between atoms: C_22  and  N_20 
ROOT
ATOM      1  C   LIG d   1       0.368  82.088 113.941  0.00  0.00     0.161 C 
ATOM      2  C   LIG d   1       1.268  81.929 112.874  0.00  0.00     0.016 C 
ATOM      3  C   LIG d   1       0.980  81.163 111.721  0.00  0.00     0.038 C 
ATOM      4  C   LIG d   1      -0.293  80.623 111.488  0.00  0.00     0.028 C 
ATOM      5  C   LIG d   1      -1.072  80.334 112.767  0.00  0.00    -0.047 C 
ATOM      6  C   LIG d   1      -1.068  81.599 113.655  0.00  0.00     0.091 C 
ENDROOT
BRANCH   1   7
ATOM      7  O   LIG d   1       0.352  83.465 114.366  0.00  0.00    -0.368 OA
BRANCH   7   8
ATOM      8  C   LIG d   1       0.719  83.710 115.746  0.00  0.00     0.119 C 
BRANCH   8   9
ATOM      9  C   LIG d   1       1.917  84.680 115.741  0.00  0.00     0.028 C 
ATOM     10  C   LIG d   1       3.252  83.962 115.476  0.00  0.00     0.006 C 
ENDBRANCH   8   9
BRANCH   8  11
ATOM     11  C   LIG d   1       1.233  82.435 116.421  0.00  0.00     0.028 C 
ATOM     12  C   LIG d   1       0.629  82.216 117.817  0.00  0.00     0.006 C 
ENDBRANCH   8  11
ENDBRANCH   7   8
ENDBRANCH   1   7
BRANCH   6  13
ATOM     13  N   LIG d   1      -1.736  81.376 114.963  0.00  0.00    -0.311 N 
ATOM     14  C   LIG d   1      -2.851  82.003 115.333  0.00  0.00     0.210 C 
ATOM     15  C   LIG d   1      -3.363  81.642 116.731  0.00  0.00     0.109 C 
ATOM     16  O   LIG d   1      -3.483  82.801 114.623  0.00  0.00    -0.276 OA
ATOM     17  H   LIG d   1      -1.308  80.721 115.588  0.00  0.00     0.149 HD
ENDBRANCH   6  13
BRANCH   5  18
ATOM     18  N   LIG d   1      -2.429  79.906 112.376  0.00  0.00     0.381 N 
ATOM     19  H   LIG d   1      -2.423  78.933 112.143  0.00  0.00    -0.090 HD
ATOM     20  H   LIG d   1      -2.710  80.424 111.562  0.00  0.00    -0.090 HD
ATOM     21  H   LIG d   1      -3.067  80.074 113.122  0.00  0.00    -0.090 HD
ENDBRANCH   5  18
BRANCH   3  22
ATOM     22  C   LIG d   1       1.987  80.896 110.805  0.00  0.00     0.382 C 
ATOM     23  O   LIG d   1       3.151  81.313 111.014  0.00  0.00    -0.241 OA
ATOM     24  O   LIG d   1       1.735  80.281 109.751  0.00  0.00    -0.241 OA
ENDBRANCH   3  22
TORSDOF 7
ENDMDL
MODEL 9
REMARK VINA RESULT:      -4.5      3.182      6.291
REMARK  7 active torsions:
REMARK  status: ('A' for Active; 'I' for Inactive)
REMARK    1  A    between atoms: C_2  and  C_3 
REMARK    2  A    between atoms: C_3  and  O_6 
REMARK    3  A    between atoms: C_3  and  C_4 
REMARK    4  A    between atoms: C_7  and  O_6 
REMARK    5  A    between atoms: C_9  and  C_10 
REMARK    6  A    between atoms: N_15  and  C_14 
REMARK    7  A    between atoms: N_20  and  C_19 
REMARK       I    between atoms: C_22  and  N_20 
ROOT
ATOM      1  C   LIG d   1       0.893  81.359 113.928  0.00  0.00     0.161 C 
ATOM      2  C   LIG d   1      -0.260  81.049 113.188  0.00  0.00     0.016 C 
ATOM      3  C   LIG d   1      -1.569  81.127 113.716  0.00  0.00     0.038 C 
ATOM      4  C   LIG d   1      -1.825  81.668 114.985  0.00  0.00     0.028 C 
ATOM      5  C   LIG d   1      -0.657  81.521 115.954  0.00  0.00    -0.047 C 
ATOM      6  C   LIG d   1       0.626  82.057 115.278  0.00  0.00     0.091 C 
ENDROOT
BRANCH   1   7
ATOM      7  O   LIG d   1       1.792  82.148 113.125  0.00  0.00    -0.368 OA
BRANCH   7   8
ATOM      8  C   LIG d   1       1.212  82.791 111.963  0.00  0.00     0.119 C 
BRANCH   8   9
ATOM      9  C   LIG d   1       2.248  82.712 110.825  0.00  0.00     0.028 C 
ATOM     10  C   LIG d   1       1.595  82.489 109.451  0.00  0.00     0.006 C 
ENDBRANCH   8   9
BRANCH   8  11
ATOM     11  C   LIG d   1       0.990  84.287 112.207  0.00  0.00     0.028 C 
ATOM     12  C   LIG d   1      -0.498  84.658 112.312  0.00  0.00     0.006 C 
ENDBRANCH   8  11
ENDBRANCH   7   8
ENDBRANCH   1   7
BRANCH   6  13
ATOM     13  N   LIG d   1       1.833  81.874 116.126  0.00  0.00    -0.311 N 
ATOM     14  C   LIG d   1       2.506  82.885 116.671  0.00  0.00     0.210 C 
ATOM     15  C   LIG d   1       3.733  82.476 117.494  0.00  0.00     0.109 C 
ATOM     16  O   LIG d   1       2.186  84.079 116.579  0.00  0.00    -0.276 OA
ATOM     17  H   LIG d   1       2.144  80.934 116.279  0.00  0.00     0.149 HD
ENDBRANCH   6  13
BRANCH   5  18
ATOM     18  N   LIG d   1      -1.007  82.247 117.189  0.00  0.00     0.381 N 
ATOM     19  H   LIG d   1      -0.525  81.844 117.967  0.00  0.00    -0.090 HD
ATOM     20  H   LIG d   1      -1.995  82.158 117.349  0.00  0.00    -0.090 HD
ATOM     21  H   LIG d   1      -0.763  83.209 117.099  0.00  0.00    -0.090 HD
ENDBRANCH   5  18
BRANCH   3  22
ATOM     22  C   LIG d   1      -2.635  80.622 112.988  0.00  0.00     0.382 C 
ATOM     23  O   LIG d   1      -3.377  81.400 112.341  0.00  0.00    -0.241 OA
ATOM     24  O   LIG d   1      -2.892  79.403 113.005  0.00  0.00    -0.241 OA
ENDBRANCH   3  22
TORSDOF 7
ENDMDL
