MODEL 1
REMARK VINA RESULT:      -5.5      0.000      0.000
REMARK  7 active torsions:
REMARK  status: ('A' for Active; 'I' for Inactive)
REMARK    1  A    between atoms: C_2  and  C_3 
REMARK    2  A    between atoms: C_3  and  O_6 
REMARK    3  A    between atoms: C_3  and  C_4 
REMARK    4  A    between atoms: C_7  and  O_6 
REMARK    5  A    between atoms: C_9  and  C_10 
REMARK    6  A    between atoms: N_15  and  C_14 
REMARK    7  A    between atoms: N_20  and  C_19 
REMARK       I    between atoms: C_22  and  N_20 
ROOT
ATOM      1  C   LIG d   1       0.744  80.645 111.063  0.00  0.00     0.161 C 
ATOM      2  C   LIG d   1      -0.037  79.609 110.525  0.00  0.00     0.016 C 
ATOM      3  C   LIG d   1      -1.022  78.914 111.263  0.00  0.00     0.038 C 
ATOM      4  C   LIG d   1      -1.401  79.312 112.554  0.00  0.00     0.028 C 
ATOM      5  C   LIG d   1      -0.291  80.028 113.317  0.00  0.00    -0.047 C 
ATOM      6  C   LIG d   1       0.268  81.168 112.435  0.00  0.00     0.091 C 
ENDROOT
BRANCH   1   7
ATOM      7  O   LIG d   1       0.835  81.729 110.118  0.00  0.00    -0.368 OA
BRANCH   7   8
ATOM      8  C   LIG d   1       2.108  81.882 109.443  0.00  0.00     0.119 C 
BRANCH   8   9
ATOM      9  C   LIG d   1       3.131  80.993 110.178  0.00  0.00     0.028 C 
ATOM     10  C   LIG d   1       4.570  81.229 109.691  0.00  0.00     0.006 C 
ENDBRANCH   8   9
BRANCH   8  11
ATOM     11  C   LIG d   1       2.643  83.311 109.578  0.00  0.00     0.028 C 
ATOM     12  C   LIG d   1       1.543  84.374 109.431  0.00  0.00     0.006 C 
ENDBRANCH   8  11
ENDBRANCH   7   8
ENDBRANCH   1   7
BRANCH   6  13
ATOM     13  N   LIG d   1       1.415  81.867 113.072  0.00  0.00    -0.311 N 
ATOM     14  C   LIG d   1       1.500  83.192 113.178  0.00  0.00     0.210 C 
ATOM     15  C   LIG d   1       2.775  83.707 113.852  0.00  0.00     0.109 C 
ATOM     16  O   LIG d   1       0.624  83.988 112.806  0.00  0.00    -0.276 OA
ATOM     17  H   LIG d   1       2.156  81.295 113.429  0.00  0.00     0.149 HD
ENDBRANCH   6  13
BRANCH   5  18
ATOM     18  N   LIG d   1      -0.863  80.509 114.589  0.00  0.00     0.381 N 
ATOM     19  H   LIG d   1      -0.130  80.669 115.250  0.00  0.00    -0.090 HD
ATOM     20  H   LIG d   1      -1.473  79.801 114.959  0.00  0.00    -0.090 HD
ATOM     21  H   LIG d   1      -1.373  81.351 114.437  0.00  0.00    -0.090 HD
ENDBRANCH   5  18
BRANCH   3  22
ATOM     22  C   LIG d   1      -1.613  77.781 110.724  0.00  0.00     0.382 C 
ATOM     23  O   LIG d   1      -0.962  76.710 110.649  0.00  0.00    -0.241 OA
ATOM     24  O   LIG d   1      -2.772  77.827 110.272  0.00  0.00    -0.241 OA
ENDBRANCH   3  22
TORSDOF 7
ENDMDL
MODEL 2
REMARK VINA RESULT:      -4.9      4.521      7.621
REMARK  7 active torsions:
REMARK  status: ('A' for Active; 'I' for Inactive)
REMARK    1  A    between atoms: C_2  and  C_3 
REMARK    2  A    between atoms: C_3  and  O_6 
REMARK    3  A    between atoms: C_3  and  C_4 
REMARK    4  A    between atoms: C_7  and  O_6 
REMARK    5  A    between atoms: C_9  and  C_10 
REMARK    6  A    between atoms: N_15  and  C_14 
REMARK    7  A    between atoms: N_20  and  C_19 
REMARK       I    between atoms: C_22  and  N_20 
ROOT
ATOM      1  C   LIG d   1      -2.130  78.522 115.238  0.00  0.00     0.161 C 
ATOM      2  C   LIG d   1      -2.452  79.777 114.696  0.00  0.00     0.016 C 
ATOM      3  C   LIG d   1      -2.329  80.086 113.322  0.00  0.00     0.038 C 
ATOM      4  C   LIG d   1      -2.017  79.107 112.367  0.00  0.00     0.028 C 
ATOM      5  C   LIG d   1      -1.194  77.952 112.930  0.00  0.00    -0.047 C 
ATOM      6  C   LIG d   1      -1.894  77.408 114.196  0.00  0.00     0.091 C 
ENDROOT
BRANCH   1   7
ATOM      7  O   LIG d   1      -3.146  78.121 116.179  0.00  0.00    -0.368 OA
BRANCH   7   8
ATOM      8  C   LIG d   1      -2.759  78.121 117.575  0.00  0.00     0.119 C 
BRANCH   8   9
ATOM      9  C   LIG d   1      -3.348  79.391 118.218  0.00  0.00     0.028 C 
ATOM     10  C   LIG d   1      -2.268  80.432 118.559  0.00  0.00     0.006 C 
ENDBRANCH   8   9
BRANCH   8  11
ATOM     11  C   LIG d   1      -1.241  78.254 117.732  0.00  0.00     0.028 C 
ATOM     12  C   LIG d   1      -0.605  77.038 118.423  0.00  0.00     0.006 C 
ENDBRANCH   8  11
ENDBRANCH   7   8
ENDBRANCH   1   7
BRANCH   6  13
ATOM     13  N   LIG d   1      -1.112  76.332 114.858  0.00  0.00    -0.311 N 
ATOM     14  C   LIG d   1      -1.631  75.155 115.203  0.00  0.00     0.210 C 
ATOM     15  C   LIG d   1      -0.656  74.195 115.892  0.00  0.00     0.109 C 
ATOM     16  O   LIG d   1      -2.798  74.802 114.975  0.00  0.00    -0.276 OA
ATOM     17  H   LIG d   1      -0.148  76.522 115.052  0.00  0.00     0.149 HD
ENDBRANCH   6  13
BRANCH   5  18
ATOM     18  N   LIG d   1      -1.059  76.941 111.865  0.00  0.00     0.381 N 
ATOM     19  H   LIG d   1      -1.659  77.173 111.099  0.00  0.00    -0.090 HD
ATOM     20  H   LIG d   1      -1.341  76.047 112.227  0.00  0.00    -0.090 HD
ATOM     21  H   LIG d   1      -0.113  76.898 111.554  0.00  0.00    -0.090 HD
ENDBRANCH   5  18
BRANCH   3  22
ATOM     22  C   LIG d   1      -2.481  81.397 112.895  0.00  0.00     0.382 C 
ATOM     23  O   LIG d   1      -1.605  81.925 112.169  0.00  0.00    -0.241 OA
ATOM     24  O   LIG d   1      -3.460  82.072 113.265  0.00  0.00    -0.241 OA
ENDBRANCH   3  22
TORSDOF 7
ENDMDL
MODEL 3
REMARK VINA RESULT:      -4.8      2.378      2.935
REMARK  7 active torsions:
REMARK  status: ('A' for Active; 'I' for Inactive)
REMARK    1  A    between atoms: C_2  and  C_3 
REMARK    2  A    between atoms: C_3  and  O_6 
REMARK    3  A    between atoms: C_3  and  C_4 
REMARK    4  A    between atoms: C_7  and  O_6 
REMARK    5  A    between atoms: C_9  and  C_10 
REMARK    6  A    between atoms: N_15  and  C_14 
REMARK    7  A    between atoms: N_20  and  C_19 
REMARK       I    between atoms: C_22  and  N_20 
ROOT
ATOM      1  C   LIG d   1      -0.414  80.356 113.206  0.00  0.00     0.161 C 
ATOM      2  C   LIG d   1      -1.373  79.734 112.389  0.00  0.00     0.016 C 
ATOM      3  C   LIG d   1      -2.298  78.777 112.866  0.00  0.00     0.038 C 
ATOM      4  C   LIG d   1      -2.426  78.486 114.233  0.00  0.00     0.028 C 
ATOM      5  C   LIG d   1      -1.142  78.714 115.023  0.00  0.00    -0.047 C 
ATOM      6  C   LIG d   1      -0.611  80.134 114.720  0.00  0.00     0.091 C 
ENDROOT
BRANCH   1   7
ATOM      7  O   LIG d   1      -0.359  81.765 112.909  0.00  0.00    -0.368 OA
BRANCH   7   8
ATOM      8  C   LIG d   1       0.423  82.143 111.749  0.00  0.00     0.119 C 
BRANCH   8   9
ATOM      9  C   LIG d   1       1.832  81.544 111.927  0.00  0.00     0.028 C 
ATOM     10  C   LIG d   1       2.327  80.822 110.663  0.00  0.00     0.006 C 
ENDBRANCH   8   9
BRANCH   8  11
ATOM     11  C   LIG d   1       0.632  83.659 111.687  0.00  0.00     0.028 C 
ATOM     12  C   LIG d   1      -0.519  84.390 110.977  0.00  0.00     0.006 C 
ENDBRANCH   8  11
ENDBRANCH   7   8
ENDBRANCH   1   7
BRANCH   6  13
ATOM     13  N   LIG d   1       0.688  80.408 115.388  0.00  0.00    -0.311 N 
ATOM     14  C   LIG d   1       0.790  80.996 116.579  0.00  0.00     0.210 C 
ATOM     15  C   LIG d   1       2.224  81.203 117.076  0.00  0.00     0.109 C 
ATOM     16  O   LIG d   1      -0.171  81.336 117.284  0.00  0.00    -0.276 OA
ATOM     17  H   LIG d   1       1.518  80.136 114.899  0.00  0.00     0.149 HD
ENDBRANCH   6  13
BRANCH   5  18
ATOM     18  N   LIG d   1      -1.454  78.506 116.450  0.00  0.00     0.381 N 
ATOM     19  H   LIG d   1      -0.717  77.988 116.886  0.00  0.00    -0.090 HD
ATOM     20  H   LIG d   1      -2.301  77.971 116.523  0.00  0.00    -0.090 HD
ATOM     21  H   LIG d   1      -1.566  79.385 116.906  0.00  0.00    -0.090 HD
ENDBRANCH   5  18
BRANCH   3  22
ATOM     22  C   LIG d   1      -3.080  78.069 111.966  0.00  0.00     0.382 C 
ATOM     23  O   LIG d   1      -4.234  77.701 112.293  0.00  0.00    -0.241 OA
ATOM     24  O   LIG d   1      -2.631  77.756 110.848  0.00  0.00    -0.241 OA
ENDBRANCH   3  22
TORSDOF 7
ENDMDL
MODEL 4
REMARK VINA RESULT:      -4.8      4.757      7.082
REMARK  7 active torsions:
REMARK  status: ('A' for Active; 'I' for Inactive)
REMARK    1  A    between atoms: C_2  and  C_3 
REMARK    2  A    between atoms: C_3  and  O_6 
REMARK    3  A    between atoms: C_3  and  C_4 
REMARK    4  A    between atoms: C_7  and  O_6 
REMARK    5  A    between atoms: C_9  and  C_10 
REMARK    6  A    between atoms: N_15  and  C_14 
REMARK    7  A    between atoms: N_20  and  C_19 
REMARK       I    between atoms: C_22  and  N_20 
ROOT
ATOM      1  C   LIG d   1      -2.367  77.287 115.992  0.00  0.00     0.161 C 
ATOM      2  C   LIG d   1      -2.903  77.143 114.701  0.00  0.00     0.016 C 
ATOM      3  C   LIG d   1      -2.498  77.931 113.599  0.00  0.00     0.038 C 
ATOM      4  C   LIG d   1      -1.415  78.818 113.680  0.00  0.00     0.028 C 
ATOM      5  C   LIG d   1      -1.179  79.359 115.086  0.00  0.00    -0.047 C 
ATOM      6  C   LIG d   1      -1.107  78.173 116.074  0.00  0.00     0.091 C 
ENDROOT
BRANCH   1   7
ATOM      7  O   LIG d   1      -2.105  75.988 116.559  0.00  0.00    -0.368 OA
BRANCH   7   8
ATOM      8  C   LIG d   1      -0.796  75.428 116.289  0.00  0.00     0.119 C 
BRANCH   8   9
ATOM      9  C   LIG d   1      -0.946  74.446 115.111  0.00  0.00     0.028 C 
ATOM     10  C   LIG d   1      -0.082  74.843 113.902  0.00  0.00     0.006 C 
ENDBRANCH   8   9
BRANCH   8  11
ATOM     11  C   LIG d   1      -0.300  74.578 117.464  0.00  0.00     0.028 C 
ATOM     12  C   LIG d   1      -0.593  75.221 118.829  0.00  0.00     0.006 C 
ENDBRANCH   8  11
ENDBRANCH   7   8
ENDBRANCH   1   7
BRANCH   6  13
ATOM     13  N   LIG d   1      -0.961  78.618 117.485  0.00  0.00    -0.311 N 
ATOM     14  C   LIG d   1       0.211  78.700 118.110  0.00  0.00     0.210 C 
ATOM     15  C   LIG d   1       0.135  79.163 119.569  0.00  0.00     0.109 C 
ATOM     16  O   LIG d   1       1.311  78.465 117.586  0.00  0.00    -0.276 OA
ATOM     17  H   LIG d   1      -1.800  78.859 117.976  0.00  0.00     0.149 HD
ENDBRANCH   6  13
BRANCH   5  18
ATOM     18  N   LIG d   1       0.060  80.160 115.053  0.00  0.00     0.381 N 
ATOM     19  H   LIG d   1      -0.061  80.945 114.444  0.00  0.00    -0.090 HD
ATOM     20  H   LIG d   1       0.805  79.592 114.691  0.00  0.00    -0.090 HD
ATOM     21  H   LIG d   1       0.287  80.474 115.971  0.00  0.00    -0.090 HD
ENDBRANCH   5  18
BRANCH   3  22
ATOM     22  C   LIG d   1      -3.207  77.863 112.409  0.00  0.00     0.382 C 
ATOM     23  O   LIG d   1      -4.439  77.629 112.425  0.00  0.00    -0.241 OA
ATOM     24  O   LIG d   1      -2.621  77.988 111.317  0.00  0.00    -0.241 OA
ENDBRANCH   3  22
TORSDOF 7
ENDMDL
MODEL 5
REMARK VINA RESULT:      -4.6      3.541      6.330
REMARK  7 active torsions:
REMARK  status: ('A' for Active; 'I' for Inactive)
REMARK    1  A    between atoms: C_2  and  C_3 
REMARK    2  A    between atoms: C_3  and  O_6 
REMARK    3  A    between atoms: C_3  and  C_4 
REMARK    4  A    between atoms: C_7  and  O_6 
REMARK    5  A    between atoms: C_9  and  C_10 
REMARK    6  A    between atoms: N_15  and  C_14 
REMARK    7  A    between atoms: N_20  and  C_19 
REMARK       I    between atoms: C_22  and  N_20 
ROOT
ATOM      1  C   LIG d   1      -2.241  78.644 114.306  0.00  0.00     0.161 C 
ATOM      2  C   LIG d   1      -2.318  78.222 112.969  0.00  0.00     0.016 C 
ATOM      3  C   LIG d   1      -1.464  78.705 111.950  0.00  0.00     0.038 C 
ATOM      4  C   LIG d   1      -0.369  79.535 112.232  0.00  0.00     0.028 C 
ATOM      5  C   LIG d   1      -0.560  80.384 113.485  0.00  0.00    -0.047 C 
ATOM      6  C   LIG d   1      -0.982  79.466 114.654  0.00  0.00     0.091 C 
ENDROOT
BRANCH   1   7
ATOM      7  O   LIG d   1      -2.356  77.508 115.185  0.00  0.00    -0.368 OA
BRANCH   7   8
ATOM      8  C   LIG d   1      -1.888  76.243 114.655  0.00  0.00     0.119 C 
BRANCH   8   9
ATOM      9  C   LIG d   1      -2.877  75.154 115.114  0.00  0.00     0.028 C 
ATOM     10  C   LIG d   1      -4.339  75.626 115.053  0.00  0.00     0.006 C 
ENDBRANCH   8   9
BRANCH   8  11
ATOM     11  C   LIG d   1      -0.539  75.849 115.264  0.00  0.00     0.028 C 
ATOM     12  C   LIG d   1      -0.614  74.555 116.090  0.00  0.00     0.006 C 
ENDBRANCH   8  11
ENDBRANCH   7   8
ENDBRANCH   1   7
BRANCH   6  13
ATOM     13  N   LIG d   1      -1.271  80.228 115.897  0.00  0.00    -0.311 N 
ATOM     14  C   LIG d   1      -0.694  79.966 117.068  0.00  0.00     0.210 C 
ATOM     15  C   LIG d   1      -1.149  80.858 118.228  0.00  0.00     0.109 C 
ATOM     16  O   LIG d   1       0.176  79.100 117.251  0.00  0.00    -0.276 OA
ATOM     17  H   LIG d   1      -1.942  80.968 115.833  0.00  0.00     0.149 HD
ENDBRANCH   6  13
BRANCH   5  18
ATOM     18  N   LIG d   1       0.707  81.097 113.737  0.00  0.00     0.381 N 
ATOM     19  H   LIG d   1       0.980  81.603 112.919  0.00  0.00    -0.090 HD
ATOM     20  H   LIG d   1       1.423  80.423 113.945  0.00  0.00    -0.090 HD
ATOM     21  H   LIG d   1       0.598  81.724 114.504  0.00  0.00    -0.090 HD
ENDBRANCH   5  18
BRANCH   3  22
ATOM     22  C   LIG d   1      -1.726  78.387 110.626  0.00  0.00     0.382 C 
ATOM     23  O   LIG d   1      -2.703  77.655 110.339  0.00  0.00    -0.241 OA
ATOM     24  O   LIG d   1      -0.972  78.788 109.719  0.00  0.00    -0.241 OA
ENDBRANCH   3  22
TORSDOF 7
ENDMDL
MODEL 6
REMARK VINA RESULT:      -4.6      2.503      5.152
REMARK  7 active torsions:
REMARK  status: ('A' for Active; 'I' for Inactive)
REMARK    1  A    between atoms: C_2  and  C_3 
REMARK    2  A    between atoms: C_3  and  O_6 
REMARK    3  A    between atoms: C_3  and  C_4 
REMARK    4  A    between atoms: C_7  and  O_6 
REMARK    5  A    between atoms: C_9  and  C_10 
REMARK    6  A    between atoms: N_15  and  C_14 
REMARK    7  A    between atoms: N_20  and  C_19 
REMARK       I    between atoms: C_22  and  N_20 
ROOT
ATOM      1  C   LIG d   1      -0.770  80.453 113.687  0.00  0.00     0.161 C 
ATOM      2  C   LIG d   1      -1.575  79.415 113.188  0.00  0.00     0.016 C 
ATOM      3  C   LIG d   1      -1.448  78.892 111.881  0.00  0.00     0.038 C 
ATOM      4  C   LIG d   1      -0.400  79.271 111.029  0.00  0.00     0.028 C 
ATOM      5  C   LIG d   1       0.127  80.675 111.305  0.00  0.00    -0.047 C 
ATOM      6  C   LIG d   1       0.451  80.802 112.811  0.00  0.00     0.091 C 
ENDROOT
BRANCH   1   7
ATOM      7  O   LIG d   1      -0.350  80.143 115.031  0.00  0.00    -0.368 OA
BRANCH   7   8
ATOM      8  C   LIG d   1      -1.174  79.195 115.753  0.00  0.00     0.119 C 
BRANCH   8   9
ATOM      9  C   LIG d   1      -1.846  79.955 116.913  0.00  0.00     0.028 C 
ATOM     10  C   LIG d   1      -3.319  79.556 117.100  0.00  0.00     0.006 C 
ENDBRANCH   8   9
BRANCH   8  11
ATOM     11  C   LIG d   1      -0.321  78.110 116.419  0.00  0.00     0.028 C 
ATOM     12  C   LIG d   1      -0.392  76.762 115.685  0.00  0.00     0.006 C 
ENDBRANCH   8  11
ENDBRANCH   7   8
ENDBRANCH   1   7
BRANCH   6  13
ATOM     13  N   LIG d   1       0.894  82.172 113.182  0.00  0.00    -0.311 N 
ATOM     14  C   LIG d   1       2.173  82.528 113.277  0.00  0.00     0.210 C 
ATOM     15  C   LIG d   1       2.410  83.984 113.693  0.00  0.00     0.109 C 
ATOM     16  O   LIG d   1       3.135  81.786 113.026  0.00  0.00    -0.276 OA
ATOM     17  H   LIG d   1       0.178  82.846 113.372  0.00  0.00     0.149 HD
ENDBRANCH   6  13
BRANCH   5  18
ATOM     18  N   LIG d   1       1.303  80.887 110.440  0.00  0.00     0.381 N 
ATOM     19  H   LIG d   1       2.136  80.880 110.994  0.00  0.00    -0.090 HD
ATOM     20  H   LIG d   1       1.225  81.787 110.000  0.00  0.00    -0.090 HD
ATOM     21  H   LIG d   1       1.350  80.173 109.747  0.00  0.00    -0.090 HD
ENDBRANCH   5  18
BRANCH   3  22
ATOM     22  C   LIG d   1      -2.401  78.007 111.400  0.00  0.00     0.382 C 
ATOM     23  O   LIG d   1      -2.380  77.657 110.195  0.00  0.00    -0.241 OA
ATOM     24  O   LIG d   1      -3.309  77.590 112.144  0.00  0.00    -0.241 OA
ENDBRANCH   3  22
TORSDOF 7
ENDMDL
MODEL 7
REMARK VINA RESULT:      -4.6      5.628      7.996
REMARK  7 active torsions:
REMARK  status: ('A' for Active; 'I' for Inactive)
REMARK    1  A    between atoms: C_2  and  C_3 
REMARK    2  A    between atoms: C_3  and  O_6 
REMARK    3  A    between atoms: C_3  and  C_4 
REMARK    4  A    between atoms: C_7  and  O_6 
REMARK    5  A    between atoms: C_9  and  C_10 
REMARK    6  A    between atoms: N_15  and  C_14 
REMARK    7  A    between atoms: N_20  and  C_19 
REMARK       I    between atoms: C_22  and  N_20 
ROOT
ATOM      1  C   LIG d   1      -0.683  77.934 116.168  0.00  0.00     0.161 C 
ATOM      2  C   LIG d   1      -1.478  78.227 115.048  0.00  0.00     0.016 C 
ATOM      3  C   LIG d   1      -1.792  77.280 114.046  0.00  0.00     0.038 C 
ATOM      4  C   LIG d   1      -1.455  75.925 114.176  0.00  0.00     0.028 C 
ATOM      5  C   LIG d   1      -0.221  75.688 115.040  0.00  0.00    -0.047 C 
ATOM      6  C   LIG d   1      -0.398  76.432 116.383  0.00  0.00     0.091 C 
ENDROOT
BRANCH   1   7
ATOM      7  O   LIG d   1      -1.274  78.506 117.351  0.00  0.00    -0.368 OA
BRANCH   7   8
ATOM      8  C   LIG d   1      -2.217  77.667 118.062  0.00  0.00     0.119 C 
BRANCH   8   9
ATOM      9  C   LIG d   1      -3.597  78.349 117.981  0.00  0.00     0.028 C 
ATOM     10  C   LIG d   1      -3.488  79.872 117.795  0.00  0.00     0.006 C 
ENDBRANCH   8   9
BRANCH   8  11
ATOM     11  C   LIG d   1      -1.886  77.598 119.556  0.00  0.00     0.028 C 
ATOM     12  C   LIG d   1      -0.646  78.426 119.930  0.00  0.00     0.006 C 
ENDBRANCH   8  11
ENDBRANCH   7   8
ENDBRANCH   1   7
BRANCH   6  13
ATOM     13  N   LIG d   1       0.800  76.322 117.255  0.00  0.00    -0.311 N 
ATOM     14  C   LIG d   1       0.904  75.445 118.252  0.00  0.00     0.210 C 
ATOM     15  C   LIG d   1       2.216  75.512 119.039  0.00  0.00     0.109 C 
ATOM     16  O   LIG d   1       0.047  74.596 118.538  0.00  0.00    -0.276 OA
ATOM     17  H   LIG d   1       1.557  76.953 117.072  0.00  0.00     0.149 HD
ENDBRANCH   6  13
BRANCH   5  18
ATOM     18  N   LIG d   1      -0.065  74.230 115.204  0.00  0.00     0.381 N 
ATOM     19  H   LIG d   1       0.452  74.036 116.038  0.00  0.00    -0.090 HD
ATOM     20  H   LIG d   1       0.452  73.869 114.421  0.00  0.00    -0.090 HD
ATOM     21  H   LIG d   1      -0.959  73.794 115.250  0.00  0.00    -0.090 HD
ENDBRANCH   5  18
BRANCH   3  22
ATOM     22  C   LIG d   1      -2.418  77.694 112.880  0.00  0.00     0.382 C 
ATOM     23  O   LIG d   1      -2.045  77.238 111.773  0.00  0.00    -0.241 OA
ATOM     24  O   LIG d   1      -3.321  78.552 112.918  0.00  0.00    -0.241 OA
ENDBRANCH   3  22
TORSDOF 7
ENDMDL
MODEL 8
REMARK VINA RESULT:      -4.5      5.555      7.711
REMARK  7 active torsions:
REMARK  status: ('A' for Active; 'I' for Inactive)
REMARK    1  A    between atoms: C_2  and  C_3 
REMARK    2  A    between atoms: C_3  and  O_6 
REMARK    3  A    between atoms: C_3  and  C_4 
REMARK    4  A    between atoms: C_7  and  O_6 
REMARK    5  A    between atoms: C_9  and  C_10 
REMARK    6  A    between atoms: N_15  and  C_14 
REMARK    7  A    between atoms: N_20  and  C_19 
REMARK       I    between atoms: C_22  and  N_20 
ROOT
ATOM      1  C   LIG d   1      -0.416  77.946 116.216  0.00  0.00     0.161 C 
ATOM      2  C   LIG d   1      -1.258  78.304 115.150  0.00  0.00     0.016 C 
ATOM      3  C   LIG d   1      -1.696  77.390 114.164  0.00  0.00     0.038 C 
ATOM      4  C   LIG d   1      -1.441  76.014 114.262  0.00  0.00     0.028 C 
ATOM      5  C   LIG d   1      -0.174  75.687 115.046  0.00  0.00    -0.047 C 
ATOM      6  C   LIG d   1      -0.219  76.427 116.403  0.00  0.00     0.091 C 
ENDROOT
BRANCH   1   7
ATOM      7  O   LIG d   1      -0.895  78.542 117.438  0.00  0.00    -0.368 OA
BRANCH   7   8
ATOM      8  C   LIG d   1      -2.265  79.011 117.425  0.00  0.00     0.119 C 
BRANCH   8   9
ATOM      9  C   LIG d   1      -2.330  80.278 118.299  0.00  0.00     0.028 C 
ATOM     10  C   LIG d   1      -0.985  81.022 118.356  0.00  0.00     0.006 C 
ENDBRANCH   8   9
BRANCH   8  11
ATOM     11  C   LIG d   1      -3.205  78.006 118.097  0.00  0.00     0.028 C 
ATOM     12  C   LIG d   1      -4.346  77.548 117.175  0.00  0.00     0.006 C 
ENDBRANCH   8  11
ENDBRANCH   7   8
ENDBRANCH   1   7
BRANCH   6  13
ATOM     13  N   LIG d   1       1.022  76.229 117.197  0.00  0.00    -0.311 N 
ATOM     14  C   LIG d   1       1.039  75.652 118.398  0.00  0.00     0.210 C 
ATOM     15  C   LIG d   1       2.421  75.565 119.053  0.00  0.00     0.109 C 
ATOM     16  O   LIG d   1       0.046  75.176 118.968  0.00  0.00    -0.276 OA
ATOM     17  H   LIG d   1       1.878  76.558 116.796  0.00  0.00     0.149 HD
ENDBRANCH   6  13
BRANCH   5  18
ATOM     18  N   LIG d   1      -0.104  74.221 115.189  0.00  0.00     0.381 N 
ATOM     19  H   LIG d   1      -0.994  73.817 114.975  0.00  0.00    -0.090 HD
ATOM     20  H   LIG d   1       0.122  73.998 116.142  0.00  0.00    -0.090 HD
ATOM     21  H   LIG d   1       0.592  73.852 114.579  0.00  0.00    -0.090 HD
ENDBRANCH   5  18
BRANCH   3  22
ATOM     22  C   LIG d   1      -2.363  77.858 113.042  0.00  0.00     0.382 C 
ATOM     23  O   LIG d   1      -3.147  78.833 113.140  0.00  0.00    -0.241 OA
ATOM     24  O   LIG d   1      -2.226  77.289 111.942  0.00  0.00    -0.241 OA
ENDBRANCH   3  22
TORSDOF 7
ENDMDL
MODEL 9
REMARK VINA RESULT:      -4.4      3.412      5.713
REMARK  7 active torsions:
REMARK  status: ('A' for Active; 'I' for Inactive)
REMARK    1  A    between atoms: C_2  and  C_3 
REMARK    2  A    between atoms: C_3  and  O_6 
REMARK    3  A    between atoms: C_3  and  C_4 
REMARK    4  A    between atoms: C_7  and  O_6 
REMARK    5  A    between atoms: C_9  and  C_10 
REMARK    6  A    between atoms: N_15  and  C_14 
REMARK    7  A    between atoms: N_20  and  C_19 
REMARK       I    between atoms: C_22  and  N_20 
ROOT
ATOM      1  C   LIG d   1      -1.658  80.024 114.585  0.00  0.00     0.161 C 
ATOM      2  C   LIG d   1      -2.454  78.925 114.947  0.00  0.00     0.016 C 
ATOM      3  C   LIG d   1      -2.822  77.901 114.045  0.00  0.00     0.038 C 
ATOM      4  C   LIG d   1      -2.290  77.827 112.749  0.00  0.00     0.028 C 
ATOM      5  C   LIG d   1      -1.884  79.184 112.183  0.00  0.00    -0.047 C 
ATOM      6  C   LIG d   1      -0.976  79.903 113.206  0.00  0.00     0.091 C 
ENDROOT
BRANCH   1   7
ATOM      7  O   LIG d   1      -0.675  80.273 115.610  0.00  0.00    -0.368 OA
BRANCH   7   8
ATOM      8  C   LIG d   1      -0.894  79.610 116.879  0.00  0.00     0.119 C 
BRANCH   8   9
ATOM      9  C   LIG d   1      -1.118  80.704 117.941  0.00  0.00     0.028 C 
ATOM     10  C   LIG d   1       0.056  81.694 118.019  0.00  0.00     0.006 C 
ENDBRANCH   8   9
BRANCH   8  11
ATOM     11  C   LIG d   1       0.356  78.851 117.335  0.00  0.00     0.028 C 
ATOM     12  C   LIG d   1       0.289  77.349 117.019  0.00  0.00     0.006 C 
ENDBRANCH   8  11
ENDBRANCH   7   8
ENDBRANCH   1   7
BRANCH   6  13
ATOM     13  N   LIG d   1      -0.602  81.273 112.768  0.00  0.00    -0.311 N 
ATOM     14  C   LIG d   1       0.490  81.542 112.055  0.00  0.00     0.210 C 
ATOM     15  C   LIG d   1       0.699  83.024 111.725  0.00  0.00     0.109 C 
ATOM     16  O   LIG d   1       1.289  80.691 111.637  0.00  0.00    -0.276 OA
ATOM     17  H   LIG d   1      -1.212  82.021 113.037  0.00  0.00     0.149 HD
ENDBRANCH   6  13
BRANCH   5  18
ATOM     18  N   LIG d   1      -1.220  78.946 110.888  0.00  0.00     0.381 N 
ATOM     19  H   LIG d   1      -1.343  79.741 110.293  0.00  0.00    -0.090 HD
ATOM     20  H   LIG d   1      -1.647  78.151 110.445  0.00  0.00    -0.090 HD
ATOM     21  H   LIG d   1      -0.249  78.775 111.029  0.00  0.00    -0.090 HD
ENDBRANCH   5  18
BRANCH   3  22
ATOM     22  C   LIG d   1      -3.764  76.957 114.424  0.00  0.00     0.382 C 
ATOM     23  O   LIG d   1      -4.364  77.075 115.520  0.00  0.00    -0.241 OA
ATOM     24  O   LIG d   1      -3.990  75.965 113.705  0.00  0.00    -0.241 OA
ENDBRANCH   3  22
TORSDOF 7
ENDMDL
