MODEL 1
REMARK VINA RESULT:      -4.9      0.000      0.000
REMARK  7 active torsions:
REMARK  status: ('A' for Active; 'I' for Inactive)
REMARK    1  A    between atoms: C_2  and  C_3 
REMARK    2  A    between atoms: C_3  and  O_6 
REMARK    3  A    between atoms: C_3  and  C_4 
REMARK    4  A    between atoms: C_7  and  O_6 
REMARK    5  A    between atoms: C_9  and  C_10 
REMARK    6  A    between atoms: N_15  and  C_14 
REMARK    7  A    between atoms: N_20  and  C_19 
REMARK       I    between atoms: C_22  and  N_20 
ROOT
ATOM      1  C   LIG d   1      -2.752  78.327 115.402  0.00  0.00     0.161 C 
ATOM      2  C   LIG d   1      -2.987  79.445 114.585  0.00  0.00     0.016 C 
ATOM      3  C   LIG d   1      -2.610  79.507 113.223  0.00  0.00     0.038 C 
ATOM      4  C   LIG d   1      -2.103  78.390 112.543  0.00  0.00     0.028 C 
ATOM      5  C   LIG d   1      -1.382  77.401 113.453  0.00  0.00    -0.047 C 
ATOM      6  C   LIG d   1      -2.301  77.058 114.648  0.00  0.00     0.091 C 
ENDROOT
BRANCH   1   7
ATOM      7  O   LIG d   1      -3.921  78.048 116.197  0.00  0.00    -0.368 OA
BRANCH   7   8
ATOM      8  C   LIG d   1      -3.871  78.482 117.579  0.00  0.00     0.119 C 
BRANCH   8   9
ATOM      9  C   LIG d   1      -2.386  78.621 117.966  0.00  0.00     0.028 C 
ATOM     10  C   LIG d   1      -2.141  79.783 118.945  0.00  0.00     0.006 C 
ENDBRANCH   8   9
BRANCH   8  11
ATOM     11  C   LIG d   1      -4.437  77.415 118.519  0.00  0.00     0.028 C 
ATOM     12  C   LIG d   1      -3.365  76.436 119.024  0.00  0.00     0.006 C 
ENDBRANCH   8  11
ENDBRANCH   7   8
ENDBRANCH   1   7
BRANCH   6  13
ATOM     13  N   LIG d   1      -1.640  76.162 115.632  0.00  0.00    -0.311 N 
ATOM     14  C   LIG d   1      -2.068  74.931 115.906  0.00  0.00     0.210 C 
ATOM     15  C   LIG d   1      -1.254  74.184 116.967  0.00  0.00     0.109 C 
ATOM     16  O   LIG d   1      -3.026  74.375 115.348  0.00  0.00    -0.276 OA
ATOM     17  H   LIG d   1      -0.836  76.521 116.109  0.00  0.00     0.149 HD
ENDBRANCH   6  13
BRANCH   5  18
ATOM     18  N   LIG d   1      -1.027  76.223 112.640  0.00  0.00     0.381 N 
ATOM     19  H   LIG d   1      -1.430  75.400 113.042  0.00  0.00    -0.090 HD
ATOM     20  H   LIG d   1      -0.028  76.117 112.640  0.00  0.00    -0.090 HD
ATOM     21  H   LIG d   1      -1.356  76.341 111.707  0.00  0.00    -0.090 HD
ENDBRANCH   5  18
BRANCH   3  22
ATOM     22  C   LIG d   1      -2.701  80.709 112.539  0.00  0.00     0.382 C 
ATOM     23  O   LIG d   1      -1.689  81.186 111.970  0.00  0.00    -0.241 OA
ATOM     24  O   LIG d   1      -3.771  81.346 112.520  0.00  0.00    -0.241 OA
ENDBRANCH   3  22
TORSDOF 7
ENDMDL
MODEL 2
REMARK VINA RESULT:      -4.3      2.548      4.856
REMARK  7 active torsions:
REMARK  status: ('A' for Active; 'I' for Inactive)
REMARK    1  A    between atoms: C_2  and  C_3 
REMARK    2  A    between atoms: C_3  and  O_6 
REMARK    3  A    between atoms: C_3  and  C_4 
REMARK    4  A    between atoms: C_7  and  O_6 
REMARK    5  A    between atoms: C_9  and  C_10 
REMARK    6  A    between atoms: N_15  and  C_14 
REMARK    7  A    between atoms: N_20  and  C_19 
REMARK       I    between atoms: C_22  and  N_20 
ROOT
ATOM      1  C   LIG d   1      -2.002  79.173 114.744  0.00  0.00     0.161 C 
ATOM      2  C   LIG d   1      -2.656  78.052 115.282  0.00  0.00     0.016 C 
ATOM      3  C   LIG d   1      -3.217  77.024 114.491  0.00  0.00     0.038 C 
ATOM      4  C   LIG d   1      -3.028  76.971 113.101  0.00  0.00     0.028 C 
ATOM      5  C   LIG d   1      -2.811  78.341 112.468  0.00  0.00    -0.047 C 
ATOM      6  C   LIG d   1      -1.690  79.077 113.236  0.00  0.00     0.091 C 
ENDROOT
BRANCH   1   7
ATOM      7  O   LIG d   1      -0.798  79.441 115.489  0.00  0.00    -0.368 OA
BRANCH   7   8
ATOM      8  C   LIG d   1      -0.776  78.965 116.858  0.00  0.00     0.119 C 
BRANCH   8   9
ATOM      9  C   LIG d   1      -0.209  80.099 117.733  0.00  0.00     0.028 C 
ATOM     10  C   LIG d   1       1.242  80.455 117.366  0.00  0.00     0.006 C 
ENDBRANCH   8   9
BRANCH   8  11
ATOM     11  C   LIG d   1       0.201  77.797 117.026  0.00  0.00     0.028 C 
ATOM     12  C   LIG d   1      -0.320  76.720 117.991  0.00  0.00     0.006 C 
ENDBRANCH   8  11
ENDBRANCH   7   8
ENDBRANCH   1   7
BRANCH   6  13
ATOM     13  N   LIG d   1      -1.471  80.459 112.734  0.00  0.00    -0.311 N 
ATOM     14  C   LIG d   1      -0.654  80.750 111.723  0.00  0.00     0.210 C 
ATOM     15  C   LIG d   1      -0.558  82.240 111.378  0.00  0.00     0.109 C 
ATOM     16  O   LIG d   1      -0.025  79.913 111.058  0.00  0.00    -0.276 OA
ATOM     17  H   LIG d   1      -1.966  81.196 113.196  0.00  0.00     0.149 HD
ENDBRANCH   6  13
BRANCH   5  18
ATOM     18  N   LIG d   1      -2.491  78.128 111.043  0.00  0.00     0.381 N 
ATOM     19  H   LIG d   1      -1.697  78.680 110.788  0.00  0.00    -0.090 HD
ATOM     20  H   LIG d   1      -3.273  78.424 110.487  0.00  0.00    -0.090 HD
ATOM     21  H   LIG d   1      -2.302  77.164 110.877  0.00  0.00    -0.090 HD
ENDBRANCH   5  18
BRANCH   3  22
ATOM     22  C   LIG d   1      -4.010  76.054 115.085  0.00  0.00     0.382 C 
ATOM     23  O   LIG d   1      -4.263  76.117 116.312  0.00  0.00    -0.241 OA
ATOM     24  O   LIG d   1      -4.440  75.094 114.418  0.00  0.00    -0.241 OA
ENDBRANCH   3  22
TORSDOF 7
ENDMDL
MODEL 3
REMARK VINA RESULT:      -4.2      2.450      2.883
REMARK  7 active torsions:
REMARK  status: ('A' for Active; 'I' for Inactive)
REMARK    1  A    between atoms: C_2  and  C_3 
REMARK    2  A    between atoms: C_3  and  O_6 
REMARK    3  A    between atoms: C_3  and  C_4 
REMARK    4  A    between atoms: C_7  and  O_6 
REMARK    5  A    between atoms: C_9  and  C_10 
REMARK    6  A    between atoms: N_15  and  C_14 
REMARK    7  A    between atoms: N_20  and  C_19 
REMARK       I    between atoms: C_22  and  N_20 
ROOT
ATOM      1  C   LIG d   1      -0.556  78.217 116.724  0.00  0.00     0.161 C 
ATOM      2  C   LIG d   1      -1.512  78.768 115.855  0.00  0.00     0.016 C 
ATOM      3  C   LIG d   1      -2.121  78.041 114.806  0.00  0.00     0.038 C 
ATOM      4  C   LIG d   1      -1.924  76.661 114.649  0.00  0.00     0.028 C 
ATOM      5  C   LIG d   1      -0.583  76.175 115.188  0.00  0.00    -0.047 C 
ATOM      6  C   LIG d   1      -0.412  76.683 116.638  0.00  0.00     0.091 C 
ENDROOT
BRANCH   1   7
ATOM      7  O   LIG d   1      -0.839  78.619 118.079  0.00  0.00    -0.368 OA
BRANCH   7   8
ATOM      8  C   LIG d   1      -2.239  78.685 118.445  0.00  0.00     0.119 C 
BRANCH   8   9
ATOM      9  C   LIG d   1      -2.432  79.946 119.310  0.00  0.00     0.028 C 
ATOM     10  C   LIG d   1      -3.911  80.346 119.443  0.00  0.00     0.006 C 
ENDBRANCH   8   9
BRANCH   8  11
ATOM     11  C   LIG d   1      -2.636  77.511 119.345  0.00  0.00     0.028 C 
ATOM     12  C   LIG d   1      -3.542  76.495 118.633  0.00  0.00     0.006 C 
ENDBRANCH   8  11
ENDBRANCH   7   8
ENDBRANCH   1   7
BRANCH   6  13
ATOM     13  N   LIG d   1       0.911  76.324 117.212  0.00  0.00    -0.311 N 
ATOM     14  C   LIG d   1       1.057  75.660 118.357  0.00  0.00     0.210 C 
ATOM     15  C   LIG d   1       2.509  75.409 118.779  0.00  0.00     0.109 C 
ATOM     16  O   LIG d   1       0.123  75.227 119.048  0.00  0.00    -0.276 OA
ATOM     17  H   LIG d   1       1.723  76.609 116.700  0.00  0.00     0.149 HD
ENDBRANCH   6  13
BRANCH   5  18
ATOM     18  N   LIG d   1      -0.569  74.704 115.086  0.00  0.00     0.381 N 
ATOM     19  H   LIG d   1      -1.481  74.372 114.846  0.00  0.00    -0.090 HD
ATOM     20  H   LIG d   1      -0.318  74.318 115.980  0.00  0.00    -0.090 HD
ATOM     21  H   LIG d   1       0.090  74.416 114.396  0.00  0.00    -0.090 HD
ENDBRANCH   5  18
BRANCH   3  22
ATOM     22  C   LIG d   1      -2.906  78.704 113.875  0.00  0.00     0.382 C 
ATOM     23  O   LIG d   1      -3.202  79.911 114.051  0.00  0.00    -0.241 OA
ATOM     24  O   LIG d   1      -3.360  78.099 112.885  0.00  0.00    -0.241 OA
ENDBRANCH   3  22
TORSDOF 7
ENDMDL
MODEL 4
REMARK VINA RESULT:      -4.1      2.770      4.730
REMARK  7 active torsions:
REMARK  status: ('A' for Active; 'I' for Inactive)
REMARK    1  A    between atoms: C_2  and  C_3 
REMARK    2  A    between atoms: C_3  and  O_6 
REMARK    3  A    between atoms: C_3  and  C_4 
REMARK    4  A    between atoms: C_7  and  O_6 
REMARK    5  A    between atoms: C_9  and  C_10 
REMARK    6  A    between atoms: N_15  and  C_14 
REMARK    7  A    between atoms: N_20  and  C_19 
REMARK       I    between atoms: C_22  and  N_20 
ROOT
ATOM      1  C   LIG d   1      -1.938  78.542 116.153  0.00  0.00     0.161 C 
ATOM      2  C   LIG d   1      -0.881  79.424 116.432  0.00  0.00     0.016 C 
ATOM      3  C   LIG d   1       0.356  79.009 116.975  0.00  0.00     0.038 C 
ATOM      4  C   LIG d   1       0.678  77.653 117.136  0.00  0.00     0.028 C 
ATOM      5  C   LIG d   1      -0.542  76.762 117.341  0.00  0.00    -0.047 C 
ATOM      6  C   LIG d   1      -1.566  77.046 116.218  0.00  0.00     0.091 C 
ENDROOT
BRANCH   1   7
ATOM      7  O   LIG d   1      -2.515  78.859 114.871  0.00  0.00    -0.368 OA
BRANCH   7   8
ATOM      8  C   LIG d   1      -1.759  78.435 113.710  0.00  0.00     0.119 C 
BRANCH   8   9
ATOM      9  C   LIG d   1      -1.566  79.669 112.807  0.00  0.00     0.028 C 
ATOM     10  C   LIG d   1      -2.812  80.571 112.772  0.00  0.00     0.006 C 
ENDBRANCH   8   9
BRANCH   8  11
ATOM     11  C   LIG d   1      -2.551  77.434 112.865  0.00  0.00     0.028 C 
ATOM     12  C   LIG d   1      -1.962  77.244 111.458  0.00  0.00     0.006 C 
ENDBRANCH   8  11
ENDBRANCH   7   8
ENDBRANCH   1   7
BRANCH   6  13
ATOM     13  N   LIG d   1      -2.825  76.276 116.391  0.00  0.00    -0.311 N 
ATOM     14  C   LIG d   1      -3.046  75.093 115.819  0.00  0.00     0.210 C 
ATOM     15  C   LIG d   1      -4.419  74.480 116.112  0.00  0.00     0.109 C 
ATOM     16  O   LIG d   1      -2.223  74.480 115.124  0.00  0.00    -0.276 OA
ATOM     17  H   LIG d   1      -3.535  76.686 116.966  0.00  0.00     0.149 HD
ENDBRANCH   6  13
BRANCH   5  18
ATOM     18  N   LIG d   1      -0.074  75.363 117.356  0.00  0.00     0.381 N 
ATOM     19  H   LIG d   1      -0.023  75.012 116.421  0.00  0.00    -0.090 HD
ATOM     20  H   LIG d   1      -0.735  74.804 117.867  0.00  0.00    -0.090 HD
ATOM     21  H   LIG d   1       0.822  75.308 117.789  0.00  0.00    -0.090 HD
ENDBRANCH   5  18
BRANCH   3  22
ATOM     22  C   LIG d   1       1.273  79.959 117.401  0.00  0.00     0.382 C 
ATOM     23  O   LIG d   1       2.108  79.669 118.291  0.00  0.00    -0.241 OA
ATOM     24  O   LIG d   1       1.246  81.115 116.937  0.00  0.00    -0.241 OA
ENDBRANCH   3  22
TORSDOF 7
ENDMDL
MODEL 5
REMARK VINA RESULT:      -4.1      3.164      3.978
REMARK  7 active torsions:
REMARK  status: ('A' for Active; 'I' for Inactive)
REMARK    1  A    between atoms: C_2  and  C_3 
REMARK    2  A    between atoms: C_3  and  O_6 
REMARK    3  A    between atoms: C_3  and  C_4 
REMARK    4  A    between atoms: C_7  and  O_6 
REMARK    5  A    between atoms: C_9  and  C_10 
REMARK    6  A    between atoms: N_15  and  C_14 
REMARK    7  A    between atoms: N_20  and  C_19 
REMARK       I    between atoms: C_22  and  N_20 
ROOT
ATOM      1  C   LIG d   1      -0.329  78.216 116.782  0.00  0.00     0.161 C 
ATOM      2  C   LIG d   1      -1.342  78.760 115.975  0.00  0.00     0.016 C 
ATOM      3  C   LIG d   1      -2.078  78.003 115.034  0.00  0.00     0.038 C 
ATOM      4  C   LIG d   1      -1.952  76.609 114.943  0.00  0.00     0.028 C 
ATOM      5  C   LIG d   1      -0.586  76.094 115.382  0.00  0.00    -0.047 C 
ATOM      6  C   LIG d   1      -0.255  76.675 116.775  0.00  0.00     0.091 C 
ENDROOT
BRANCH   1   7
ATOM      7  O   LIG d   1      -0.463  78.706 118.131  0.00  0.00    -0.368 OA
BRANCH   7   8
ATOM      8  C   LIG d   1       0.632  79.514 118.627  0.00  0.00     0.119 C 
BRANCH   8   9
ATOM      9  C   LIG d   1       0.061  80.900 118.983  0.00  0.00     0.028 C 
ATOM     10  C   LIG d   1       0.723  82.032 118.180  0.00  0.00     0.006 C 
ENDBRANCH   8   9
BRANCH   8  11
ATOM     11  C   LIG d   1       1.674  79.773 117.534  0.00  0.00     0.028 C 
ATOM     12  C   LIG d   1       3.075  79.270 117.915  0.00  0.00     0.006 C 
ENDBRANCH   8  11
ENDBRANCH   7   8
ENDBRANCH   1   7
BRANCH   6  13
ATOM     13  N   LIG d   1       1.102  76.288 117.243  0.00  0.00    -0.311 N 
ATOM     14  C   LIG d   1       1.336  75.714 118.422  0.00  0.00     0.210 C 
ATOM     15  C   LIG d   1       2.809  75.416 118.715  0.00  0.00     0.109 C 
ATOM     16  O   LIG d   1       0.459  75.395 119.239  0.00  0.00    -0.276 OA
ATOM     17  H   LIG d   1       1.869  76.483 116.629  0.00  0.00     0.149 HD
ENDBRANCH   6  13
BRANCH   5  18
ATOM     18  N   LIG d   1      -0.640  74.620 115.367  0.00  0.00     0.381 N 
ATOM     19  H   LIG d   1      -0.433  74.265 116.279  0.00  0.00    -0.090 HD
ATOM     20  H   LIG d   1       0.056  74.275 114.729  0.00  0.00    -0.090 HD
ATOM     21  H   LIG d   1      -1.544  74.315 115.082  0.00  0.00    -0.090 HD
ENDBRANCH   5  18
BRANCH   3  22
ATOM     22  C   LIG d   1      -2.923  78.648 114.143  0.00  0.00     0.382 C 
ATOM     23  O   LIG d   1      -3.298  78.063 113.099  0.00  0.00    -0.241 OA
ATOM     24  O   LIG d   1      -3.278  79.824 114.348  0.00  0.00    -0.241 OA
ENDBRANCH   3  22
TORSDOF 7
ENDMDL
MODEL 6
REMARK VINA RESULT:      -4.0      3.030      3.904
REMARK  7 active torsions:
REMARK  status: ('A' for Active; 'I' for Inactive)
REMARK    1  A    between atoms: C_2  and  C_3 
REMARK    2  A    between atoms: C_3  and  O_6 
REMARK    3  A    between atoms: C_3  and  C_4 
REMARK    4  A    between atoms: C_7  and  O_6 
REMARK    5  A    between atoms: C_9  and  C_10 
REMARK    6  A    between atoms: N_15  and  C_14 
REMARK    7  A    between atoms: N_20  and  C_19 
REMARK       I    between atoms: C_22  and  N_20 
ROOT
ATOM      1  C   LIG d   1      -0.378  78.302 116.723  0.00  0.00     0.161 C 
ATOM      2  C   LIG d   1      -1.383  78.825 115.894  0.00  0.00     0.016 C 
ATOM      3  C   LIG d   1      -2.101  78.049 114.955  0.00  0.00     0.038 C 
ATOM      4  C   LIG d   1      -1.964  76.654 114.888  0.00  0.00     0.028 C 
ATOM      5  C   LIG d   1      -0.600  76.156 115.353  0.00  0.00    -0.047 C 
ATOM      6  C   LIG d   1      -0.292  76.761 116.742  0.00  0.00     0.091 C 
ENDROOT
BRANCH   1   7
ATOM      7  O   LIG d   1      -0.534  78.811 118.062  0.00  0.00    -0.368 OA
BRANCH   7   8
ATOM      8  C   LIG d   1       0.286  79.954 118.409  0.00  0.00     0.119 C 
BRANCH   8   9
ATOM      9  C   LIG d   1       1.414  79.452 119.332  0.00  0.00     0.028 C 
ATOM     10  C   LIG d   1       2.766  79.350 118.605  0.00  0.00     0.006 C 
ENDBRANCH   8   9
BRANCH   8  11
ATOM     11  C   LIG d   1      -0.498  80.970 119.245  0.00  0.00     0.028 C 
ATOM     12  C   LIG d   1       0.078  82.392 119.148  0.00  0.00     0.006 C 
ENDBRANCH   8  11
ENDBRANCH   7   8
ENDBRANCH   1   7
BRANCH   6  13
ATOM     13  N   LIG d   1       1.061  76.392 117.234  0.00  0.00    -0.311 N 
ATOM     14  C   LIG d   1       1.275  75.772 118.393  0.00  0.00     0.210 C 
ATOM     15  C   LIG d   1       2.748  75.502 118.719  0.00  0.00     0.109 C 
ATOM     16  O   LIG d   1       0.384  75.391 119.167  0.00  0.00    -0.276 OA
ATOM     17  H   LIG d   1       1.839  76.636 116.654  0.00  0.00     0.149 HD
ENDBRANCH   6  13
BRANCH   5  18
ATOM     18  N   LIG d   1      -0.643  74.682 115.362  0.00  0.00     0.381 N 
ATOM     19  H   LIG d   1       0.181  74.316 114.927  0.00  0.00    -0.090 HD
ATOM     20  H   LIG d   1      -1.440  74.377 114.832  0.00  0.00    -0.090 HD
ATOM     21  H   LIG d   1      -0.709  74.348 116.298  0.00  0.00    -0.090 HD
ENDBRANCH   5  18
BRANCH   3  22
ATOM     22  C   LIG d   1      -2.937  78.673 114.043  0.00  0.00     0.382 C 
ATOM     23  O   LIG d   1      -3.376  78.036 113.055  0.00  0.00    -0.241 OA
ATOM     24  O   LIG d   1      -3.224  79.879 114.171  0.00  0.00    -0.241 OA
ENDBRANCH   3  22
TORSDOF 7
ENDMDL
MODEL 7
REMARK VINA RESULT:      -4.0      3.086      5.230
REMARK  7 active torsions:
REMARK  status: ('A' for Active; 'I' for Inactive)
REMARK    1  A    between atoms: C_2  and  C_3 
REMARK    2  A    between atoms: C_3  and  O_6 
REMARK    3  A    between atoms: C_3  and  C_4 
REMARK    4  A    between atoms: C_7  and  O_6 
REMARK    5  A    between atoms: C_9  and  C_10 
REMARK    6  A    between atoms: N_15  and  C_14 
REMARK    7  A    between atoms: N_20  and  C_19 
REMARK       I    between atoms: C_22  and  N_20 
ROOT
ATOM      1  C   LIG d   1      -1.477  77.759 117.592  0.00  0.00     0.161 C 
ATOM      2  C   LIG d   1      -2.256  76.710 117.076  0.00  0.00     0.016 C 
ATOM      3  C   LIG d   1      -2.578  76.581 115.706  0.00  0.00     0.038 C 
ATOM      4  C   LIG d   1      -2.013  77.416 114.730  0.00  0.00     0.028 C 
ATOM      5  C   LIG d   1      -1.626  78.792 115.260  0.00  0.00    -0.047 C 
ATOM      6  C   LIG d   1      -0.760  78.616 116.528  0.00  0.00     0.091 C 
ENDROOT
BRANCH   1   7
ATOM      7  O   LIG d   1      -0.526  77.240 118.542  0.00  0.00    -0.368 OA
BRANCH   7   8
ATOM      8  C   LIG d   1       0.282  76.126 118.090  0.00  0.00     0.119 C 
BRANCH   8   9
ATOM      9  C   LIG d   1       0.277  75.066 119.209  0.00  0.00     0.028 C 
ATOM     10  C   LIG d   1      -0.983  74.184 119.176  0.00  0.00     0.006 C 
ENDBRANCH   8   9
BRANCH   8  11
ATOM     11  C   LIG d   1       1.750  76.532 117.924  0.00  0.00     0.028 C 
ATOM     12  C   LIG d   1       2.716  75.586 118.653  0.00  0.00     0.006 C 
ENDBRANCH   8  11
ENDBRANCH   7   8
ENDBRANCH   1   7
BRANCH   6  13
ATOM     13  N   LIG d   1      -0.409  79.915 117.159  0.00  0.00    -0.311 N 
ATOM     14  C   LIG d   1       0.844  80.347 117.301  0.00  0.00     0.210 C 
ATOM     15  C   LIG d   1       0.985  81.704 117.997  0.00  0.00     0.109 C 
ATOM     16  O   LIG d   1       1.848  79.749 116.887  0.00  0.00    -0.276 OA
ATOM     17  H   LIG d   1      -1.165  80.479 117.496  0.00  0.00     0.149 HD
ENDBRANCH   6  13
BRANCH   5  18
ATOM     18  N   LIG d   1      -0.925  79.507 114.176  0.00  0.00     0.381 N 
ATOM     19  H   LIG d   1      -1.591  79.870 113.524  0.00  0.00    -0.090 HD
ATOM     20  H   LIG d   1      -0.330  78.859 113.691  0.00  0.00    -0.090 HD
ATOM     21  H   LIG d   1      -0.381  80.250 114.554  0.00  0.00    -0.090 HD
ENDBRANCH   5  18
BRANCH   3  22
ATOM     22  C   LIG d   1      -3.506  75.633 115.304  0.00  0.00     0.382 C 
ATOM     23  O   LIG d   1      -3.653  74.579 115.968  0.00  0.00    -0.241 OA
ATOM     24  O   LIG d   1      -4.167  75.798 114.261  0.00  0.00    -0.241 OA
ENDBRANCH   3  22
TORSDOF 7
ENDMDL
MODEL 8
REMARK VINA RESULT:      -3.9      2.518      5.832
REMARK  7 active torsions:
REMARK  status: ('A' for Active; 'I' for Inactive)
REMARK    1  A    between atoms: C_2  and  C_3 
REMARK    2  A    between atoms: C_3  and  O_6 
REMARK    3  A    between atoms: C_3  and  C_4 
REMARK    4  A    between atoms: C_7  and  O_6 
REMARK    5  A    between atoms: C_9  and  C_10 
REMARK    6  A    between atoms: N_15  and  C_14 
REMARK    7  A    between atoms: N_20  and  C_19 
REMARK       I    between atoms: C_22  and  N_20 
ROOT
ATOM      1  C   LIG d   1      -1.425  77.999 115.049  0.00  0.00     0.161 C 
ATOM      2  C   LIG d   1      -2.398  77.003 114.869  0.00  0.00     0.016 C 
ATOM      3  C   LIG d   1      -2.956  76.258 115.933  0.00  0.00     0.038 C 
ATOM      4  C   LIG d   1      -2.686  76.567 117.275  0.00  0.00     0.028 C 
ATOM      5  C   LIG d   1      -1.328  77.228 117.483  0.00  0.00    -0.047 C 
ATOM      6  C   LIG d   1      -1.200  78.426 116.514  0.00  0.00     0.091 C 
ENDROOT
BRANCH   1   7
ATOM      7  O   LIG d   1      -1.744  79.146 114.236  0.00  0.00    -0.368 OA
BRANCH   7   8
ATOM      8  C   LIG d   1      -1.444  79.030 112.824  0.00  0.00     0.119 C 
BRANCH   8   9
ATOM      9  C   LIG d   1      -0.758  80.339 112.386  0.00  0.00     0.028 C 
ATOM     10  C   LIG d   1      -0.147  80.240 110.979  0.00  0.00     0.006 C 
ENDBRANCH   8   9
BRANCH   8  11
ATOM     11  C   LIG d   1      -2.724  78.944 111.987  0.00  0.00     0.028 C 
ATOM     12  C   LIG d   1      -2.870  77.599 111.258  0.00  0.00     0.006 C 
ENDBRANCH   8  11
ENDBRANCH   7   8
ENDBRANCH   1   7
BRANCH   6  13
ATOM     13  N   LIG d   1       0.133  79.078 116.593  0.00  0.00    -0.311 N 
ATOM     14  C   LIG d   1       0.419  80.062 117.444  0.00  0.00     0.210 C 
ATOM     15  C   LIG d   1       1.847  80.607 117.347  0.00  0.00     0.109 C 
ATOM     16  O   LIG d   1      -0.365  80.513 118.293  0.00  0.00    -0.276 OA
ATOM     17  H   LIG d   1       0.839  78.753 115.961  0.00  0.00     0.149 HD
ENDBRANCH   6  13
BRANCH   5  18
ATOM     18  N   LIG d   1      -1.235  77.619 118.902  0.00  0.00     0.381 N 
ATOM     19  H   LIG d   1      -1.914  77.116 119.437  0.00  0.00    -0.090 HD
ATOM     20  H   LIG d   1      -1.435  78.601 118.982  0.00  0.00    -0.090 HD
ATOM     21  H   LIG d   1      -0.321  77.430 119.249  0.00  0.00    -0.090 HD
ENDBRANCH   5  18
BRANCH   3  22
ATOM     22  C   LIG d   1      -3.764  75.165 115.659  0.00  0.00     0.382 C 
ATOM     23  O   LIG d   1      -4.439  75.135 114.601  0.00  0.00    -0.241 OA
ATOM     24  O   LIG d   1      -3.861  74.230 116.475  0.00  0.00    -0.241 OA
ENDBRANCH   3  22
TORSDOF 7
ENDMDL
MODEL 9
REMARK VINA RESULT:      -3.9      1.802      2.624
REMARK  7 active torsions:
REMARK  status: ('A' for Active; 'I' for Inactive)
REMARK    1  A    between atoms: C_2  and  C_3 
REMARK    2  A    between atoms: C_3  and  O_6 
REMARK    3  A    between atoms: C_3  and  C_4 
REMARK    4  A    between atoms: C_7  and  O_6 
REMARK    5  A    between atoms: C_9  and  C_10 
REMARK    6  A    between atoms: N_15  and  C_14 
REMARK    7  A    between atoms: N_20  and  C_19 
REMARK       I    between atoms: C_22  and  N_20 
ROOT
ATOM      1  C   LIG d   1      -1.663  77.946 116.801  0.00  0.00     0.161 C 
ATOM      2  C   LIG d   1      -2.002  78.741 115.694  0.00  0.00     0.016 C 
ATOM      3  C   LIG d   1      -1.884  78.302 114.355  0.00  0.00     0.038 C 
ATOM      4  C   LIG d   1      -1.559  76.975 114.036  0.00  0.00     0.028 C 
ATOM      5  C   LIG d   1      -0.721  76.283 115.105  0.00  0.00    -0.047 C 
ATOM      6  C   LIG d   1      -1.413  76.458 116.477  0.00  0.00     0.091 C 
ENDROOT
BRANCH   1   7
ATOM      7  O   LIG d   1      -2.673  78.073 117.822  0.00  0.00    -0.368 OA
BRANCH   7   8
ATOM      8  C   LIG d   1      -2.257  78.712 119.054  0.00  0.00     0.119 C 
BRANCH   8   9
ATOM      9  C   LIG d   1      -3.110  79.983 119.227  0.00  0.00     0.028 C 
ATOM     10  C   LIG d   1      -4.419  79.926 118.422  0.00  0.00     0.006 C 
ENDBRANCH   8   9
BRANCH   8  11
ATOM     11  C   LIG d   1      -0.809  79.203 118.966  0.00  0.00     0.028 C 
ATOM     12  C   LIG d   1      -0.683  80.723 119.160  0.00  0.00     0.006 C 
ENDBRANCH   8  11
ENDBRANCH   7   8
ENDBRANCH   1   7
BRANCH   6  13
ATOM     13  N   LIG d   1      -0.615  75.883 117.591  0.00  0.00    -0.311 N 
ATOM     14  C   LIG d   1      -1.066  74.920 118.394  0.00  0.00     0.210 C 
ATOM     15  C   LIG d   1      -0.091  74.484 119.492  0.00  0.00     0.109 C 
ATOM     16  O   LIG d   1      -2.168  74.363 118.281  0.00  0.00    -0.276 OA
ATOM     17  H   LIG d   1       0.303  76.255 117.735  0.00  0.00     0.149 HD
ENDBRANCH   6  13
BRANCH   5  18
ATOM     18  N   LIG d   1      -0.573  74.869 114.709  0.00  0.00     0.381 N 
ATOM     19  H   LIG d   1      -1.429  74.537 114.312  0.00  0.00    -0.090 HD
ATOM     20  H   LIG d   1      -0.371  74.322 115.528  0.00  0.00    -0.090 HD
ATOM     21  H   LIG d   1       0.167  74.776 114.048  0.00  0.00    -0.090 HD
ENDBRANCH   5  18
BRANCH   3  22
ATOM     22  C   LIG d   1      -2.053  79.206 113.318  0.00  0.00     0.382 C 
ATOM     23  O   LIG d   1      -3.117  79.205 112.653  0.00  0.00    -0.241 OA
ATOM     24  O   LIG d   1      -1.139  79.994 113.011  0.00  0.00    -0.241 OA
ENDBRANCH   3  22
TORSDOF 7
ENDMDL
