MODEL 1
REMARK VINA RESULT:      -5.7      0.000      0.000
REMARK  7 active torsions:
REMARK  status: ('A' for Active; 'I' for Inactive)
REMARK    1  A    between atoms: C_2  and  C_3 
REMARK    2  A    between atoms: C_3  and  O_6 
REMARK    3  A    between atoms: C_3  and  C_4 
REMARK    4  A    between atoms: C_7  and  O_6 
REMARK    5  A    between atoms: C_9  and  C_10 
REMARK    6  A    between atoms: N_15  and  C_14 
REMARK    7  A    between atoms: N_20  and  C_19 
REMARK       I    between atoms: C_22  and  N_20 
ROOT
ATOM      1  C   LIG d   1       1.549  81.263 112.530  0.00  0.00     0.161 C 
ATOM      2  C   LIG d   1       2.617  81.819 111.806  0.00  0.00     0.016 C 
ATOM      3  C   LIG d   1       2.737  81.723 110.401  0.00  0.00     0.038 C 
ATOM      4  C   LIG d   1       1.714  81.190 109.603  0.00  0.00     0.028 C 
ATOM      5  C   LIG d   1       0.850  80.165 110.331  0.00  0.00    -0.047 C 
ATOM      6  C   LIG d   1       0.367  80.775 111.667  0.00  0.00     0.091 C 
ENDROOT
BRANCH   1   7
ATOM      7  O   LIG d   1       1.090  82.202 113.523  0.00  0.00    -0.368 OA
BRANCH   7   8
ATOM      8  C   LIG d   1       1.734  83.500 113.518  0.00  0.00     0.119 C 
BRANCH   8   9
ATOM      9  C   LIG d   1       2.274  83.754 114.939  0.00  0.00     0.028 C 
ATOM     10  C   LIG d   1       3.602  84.530 114.932  0.00  0.00     0.006 C 
ENDBRANCH   8   9
BRANCH   8  11
ATOM     11  C   LIG d   1       0.724  84.622 113.262  0.00  0.00     0.028 C 
ATOM     12  C   LIG d   1      -0.263  84.289 112.132  0.00  0.00     0.006 C 
ENDBRANCH   8  11
ENDBRANCH   7   8
ENDBRANCH   1   7
BRANCH   6  13
ATOM     13  N   LIG d   1      -0.415  79.808 112.481  0.00  0.00    -0.311 N 
ATOM     14  C   LIG d   1      -1.712  79.954 112.747  0.00  0.00     0.210 C 
ATOM     15  C   LIG d   1      -2.321  78.853 113.621  0.00  0.00     0.109 C 
ATOM     16  O   LIG d   1      -2.424  80.873 112.315  0.00  0.00    -0.276 OA
ATOM     17  H   LIG d   1       0.077  79.016 112.845  0.00  0.00     0.149 HD
ENDBRANCH   6  13
BRANCH   5  18
ATOM     18  N   LIG d   1      -0.258  79.796 109.430  0.00  0.00     0.381 N 
ATOM     19  H   LIG d   1      -0.625  80.616 108.990  0.00  0.00    -0.090 HD
ATOM     20  H   LIG d   1      -0.991  79.373 109.972  0.00  0.00    -0.090 HD
ATOM     21  H   LIG d   1       0.065  79.155 108.738  0.00  0.00    -0.090 HD
ENDBRANCH   5  18
BRANCH   3  22
ATOM     22  C   LIG d   1       3.911  82.127 109.783  0.00  0.00     0.382 C 
ATOM     23  O   LIG d   1       4.775  81.277 109.460  0.00  0.00    -0.241 OA
ATOM     24  O   LIG d   1       4.136  83.336 109.583  0.00  0.00    -0.241 OA
ENDBRANCH   3  22
TORSDOF 7
ENDMDL
MODEL 2
REMARK VINA RESULT:      -5.4      1.145      1.639
REMARK  7 active torsions:
REMARK  status: ('A' for Active; 'I' for Inactive)
REMARK    1  A    between atoms: C_2  and  C_3 
REMARK    2  A    between atoms: C_3  and  O_6 
REMARK    3  A    between atoms: C_3  and  C_4 
REMARK    4  A    between atoms: C_7  and  O_6 
REMARK    5  A    between atoms: C_9  and  C_10 
REMARK    6  A    between atoms: N_15  and  C_14 
REMARK    7  A    between atoms: N_20  and  C_19 
REMARK       I    between atoms: C_22  and  N_20 
ROOT
ATOM      1  C   LIG d   1       1.634  81.451 112.589  0.00  0.00     0.161 C 
ATOM      2  C   LIG d   1       2.700  82.041 111.891  0.00  0.00     0.016 C 
ATOM      3  C   LIG d   1       2.831  81.993 110.484  0.00  0.00     0.038 C 
ATOM      4  C   LIG d   1       1.817  81.478 109.662  0.00  0.00     0.028 C 
ATOM      5  C   LIG d   1       0.959  80.421 110.350  0.00  0.00    -0.047 C 
ATOM      6  C   LIG d   1       0.462  80.981 111.702  0.00  0.00     0.091 C 
ENDROOT
BRANCH   1   7
ATOM      7  O   LIG d   1       1.160  82.351 113.610  0.00  0.00    -0.368 OA
BRANCH   7   8
ATOM      8  C   LIG d   1       2.117  82.711 114.637  0.00  0.00     0.119 C 
BRANCH   8   9
ATOM      9  C   LIG d   1       2.200  81.531 115.625  0.00  0.00     0.028 C 
ATOM     10  C   LIG d   1       3.610  80.921 115.693  0.00  0.00     0.006 C 
ENDBRANCH   8   9
BRANCH   8  11
ATOM     11  C   LIG d   1       1.624  83.900 115.466  0.00  0.00     0.028 C 
ATOM     12  C   LIG d   1       1.207  83.501 116.891  0.00  0.00     0.006 C 
ENDBRANCH   8  11
ENDBRANCH   7   8
ENDBRANCH   1   7
BRANCH   6  13
ATOM     13  N   LIG d   1      -0.316  79.980 112.479  0.00  0.00    -0.311 N 
ATOM     14  C   LIG d   1      -1.627  80.075 112.692  0.00  0.00     0.210 C 
ATOM     15  C   LIG d   1      -2.229  78.946 113.535  0.00  0.00     0.109 C 
ATOM     16  O   LIG d   1      -2.354  80.970 112.236  0.00  0.00    -0.276 OA
ATOM     17  H   LIG d   1       0.190  79.204 112.859  0.00  0.00     0.149 HD
ENDBRANCH   6  13
BRANCH   5  18
ATOM     18  N   LIG d   1      -0.140  80.071 109.430  0.00  0.00     0.381 N 
ATOM     19  H   LIG d   1      -0.870  80.751 109.501  0.00  0.00    -0.090 HD
ATOM     20  H   LIG d   1      -0.514  79.177 109.696  0.00  0.00    -0.090 HD
ATOM     21  H   LIG d   1       0.199  80.032 108.494  0.00  0.00    -0.090 HD
ENDBRANCH   5  18
BRANCH   3  22
ATOM     22  C   LIG d   1       4.004  82.429 109.887  0.00  0.00     0.382 C 
ATOM     23  O   LIG d   1       4.925  81.612 109.644  0.00  0.00    -0.241 OA
ATOM     24  O   LIG d   1       4.171  83.636 109.628  0.00  0.00    -0.241 OA
ENDBRANCH   3  22
TORSDOF 7
ENDMDL
MODEL 3
REMARK VINA RESULT:      -5.4      2.360      5.301
REMARK  7 active torsions:
REMARK  status: ('A' for Active; 'I' for Inactive)
REMARK    1  A    between atoms: C_2  and  C_3 
REMARK    2  A    between atoms: C_3  and  O_6 
REMARK    3  A    between atoms: C_3  and  C_4 
REMARK    4  A    between atoms: C_7  and  O_6 
REMARK    5  A    between atoms: C_9  and  C_10 
REMARK    6  A    between atoms: N_15  and  C_14 
REMARK    7  A    between atoms: N_20  and  C_19 
REMARK       I    between atoms: C_22  and  N_20 
ROOT
ATOM      1  C   LIG d   1       0.254  80.390 111.249  0.00  0.00     0.161 C 
ATOM      2  C   LIG d   1      -0.698  79.434 110.857  0.00  0.00     0.016 C 
ATOM      3  C   LIG d   1      -1.457  78.671 111.773  0.00  0.00     0.038 C 
ATOM      4  C   LIG d   1      -1.424  78.921 113.153  0.00  0.00     0.028 C 
ATOM      5  C   LIG d   1      -0.107  79.528 113.627  0.00  0.00    -0.047 C 
ATOM      6  C   LIG d   1       0.225  80.755 112.748  0.00  0.00     0.091 C 
ENDROOT
BRANCH   1   7
ATOM      7  O   LIG d   1       0.117  81.576 110.441  0.00  0.00    -0.368 OA
BRANCH   7   8
ATOM      8  C   LIG d   1       1.158  81.802 109.459  0.00  0.00     0.119 C 
BRANCH   8   9
ATOM      9  C   LIG d   1       2.346  80.891 109.825  0.00  0.00     0.028 C 
ATOM     10  C   LIG d   1       3.646  81.684 110.045  0.00  0.00     0.006 C 
ENDBRANCH   8   9
BRANCH   8  11
ATOM     11  C   LIG d   1       1.701  83.231 109.541  0.00  0.00     0.028 C 
ATOM     12  C   LIG d   1       0.593  84.281 109.712  0.00  0.00     0.006 C 
ENDBRANCH   8  11
ENDBRANCH   7   8
ENDBRANCH   1   7
BRANCH   6  13
ATOM     13  N   LIG d   1       1.539  81.358 113.090  0.00  0.00    -0.311 N 
ATOM     14  C   LIG d   1       1.708  82.656 113.337  0.00  0.00     0.210 C 
ATOM     15  C   LIG d   1       3.149  83.073 113.650  0.00  0.00     0.109 C 
ATOM     16  O   LIG d   1       0.797  83.497 113.358  0.00  0.00    -0.276 OA
ATOM     17  H   LIG d   1       2.328  80.743 113.125  0.00  0.00     0.149 HD
ENDBRANCH   6  13
BRANCH   5  18
ATOM     18  N   LIG d   1      -0.260  79.864 115.055  0.00  0.00     0.381 N 
ATOM     19  H   LIG d   1      -0.791  79.152 115.516  0.00  0.00    -0.090 HD
ATOM     20  H   LIG d   1      -0.761  80.731 115.133  0.00  0.00    -0.090 HD
ATOM     21  H   LIG d   1       0.636  79.950 115.483  0.00  0.00    -0.090 HD
ENDBRANCH   5  18
BRANCH   3  22
ATOM     22  C   LIG d   1      -2.232  77.617 111.314  0.00  0.00     0.382 C 
ATOM     23  O   LIG d   1      -3.480  77.736 111.254  0.00  0.00    -0.241 OA
ATOM     24  O   LIG d   1      -1.703  76.534 110.999  0.00  0.00    -0.241 OA
ENDBRANCH   3  22
TORSDOF 7
ENDMDL
MODEL 4
REMARK VINA RESULT:      -4.7      2.938      6.186
REMARK  7 active torsions:
REMARK  status: ('A' for Active; 'I' for Inactive)
REMARK    1  A    between atoms: C_2  and  C_3 
REMARK    2  A    between atoms: C_3  and  O_6 
REMARK    3  A    between atoms: C_3  and  C_4 
REMARK    4  A    between atoms: C_7  and  O_6 
REMARK    5  A    between atoms: C_9  and  C_10 
REMARK    6  A    between atoms: N_15  and  C_14 
REMARK    7  A    between atoms: N_20  and  C_19 
REMARK       I    between atoms: C_22  and  N_20 
ROOT
ATOM      1  C   LIG d   1      -1.339  79.912 113.240  0.00  0.00     0.161 C 
ATOM      2  C   LIG d   1      -2.416  79.032 113.047  0.00  0.00     0.016 C 
ATOM      3  C   LIG d   1      -2.589  78.260 111.875  0.00  0.00     0.038 C 
ATOM      4  C   LIG d   1      -1.609  78.203 110.873  0.00  0.00     0.028 C 
ATOM      5  C   LIG d   1      -0.747  79.459 110.796  0.00  0.00    -0.047 C 
ATOM      6  C   LIG d   1      -0.201  79.780 112.206  0.00  0.00     0.091 C 
ENDROOT
BRANCH   1   7
ATOM      7  O   LIG d   1      -0.820  79.763 114.577  0.00  0.00    -0.368 OA
BRANCH   7   8
ATOM      8  C   LIG d   1      -1.434  78.731 115.387  0.00  0.00     0.119 C 
BRANCH   8   9
ATOM      9  C   LIG d   1      -1.854  79.378 116.721  0.00  0.00     0.028 C 
ATOM     10  C   LIG d   1      -3.289  79.004 117.129  0.00  0.00     0.006 C 
ENDBRANCH   8   9
BRANCH   8  11
ATOM     11  C   LIG d   1      -0.423  77.644 115.765  0.00  0.00     0.028 C 
ATOM     12  C   LIG d   1      -0.733  76.289 115.110  0.00  0.00     0.006 C 
ENDBRANCH   8  11
ENDBRANCH   7   8
ENDBRANCH   1   7
BRANCH   6  13
ATOM     13  N   LIG d   1       0.583  81.042 112.236  0.00  0.00    -0.311 N 
ATOM     14  C   LIG d   1       0.053  82.241 111.999  0.00  0.00     0.210 C 
ATOM     15  C   LIG d   1       1.042  83.409 112.061  0.00  0.00     0.109 C 
ATOM     16  O   LIG d   1      -1.148  82.451 111.774  0.00  0.00    -0.276 OA
ATOM     17  H   LIG d   1       1.560  80.967 112.442  0.00  0.00     0.149 HD
ENDBRANCH   6  13
BRANCH   5  18
ATOM     18  N   LIG d   1       0.317  79.210 109.806  0.00  0.00     0.381 N 
ATOM     19  H   LIG d   1      -0.015  79.430 108.888  0.00  0.00    -0.090 HD
ATOM     20  H   LIG d   1       0.560  78.235 109.829  0.00  0.00    -0.090 HD
ATOM     21  H   LIG d   1       1.117  79.764 110.019  0.00  0.00    -0.090 HD
ENDBRANCH   5  18
BRANCH   3  22
ATOM     22  C   LIG d   1      -3.772  77.565 111.678  0.00  0.00     0.382 C 
ATOM     23  O   LIG d   1      -4.201  77.372 110.515  0.00  0.00    -0.241 OA
ATOM     24  O   LIG d   1      -4.440  77.166 112.651  0.00  0.00    -0.241 OA
ENDBRANCH   3  22
TORSDOF 7
ENDMDL
MODEL 5
REMARK VINA RESULT:      -4.6      5.203      7.201
REMARK  7 active torsions:
REMARK  status: ('A' for Active; 'I' for Inactive)
REMARK    1  A    between atoms: C_2  and  C_3 
REMARK    2  A    between atoms: C_3  and  O_6 
REMARK    3  A    between atoms: C_3  and  C_4 
REMARK    4  A    between atoms: C_7  and  O_6 
REMARK    5  A    between atoms: C_9  and  C_10 
REMARK    6  A    between atoms: N_15  and  C_14 
REMARK    7  A    between atoms: N_20  and  C_19 
REMARK       I    between atoms: C_22  and  N_20 
ROOT
ATOM      1  C   LIG d   1      -2.254  78.413 116.032  0.00  0.00     0.161 C 
ATOM      2  C   LIG d   1      -2.608  79.271 114.977  0.00  0.00     0.016 C 
ATOM      3  C   LIG d   1      -2.215  79.058 113.636  0.00  0.00     0.038 C 
ATOM      4  C   LIG d   1      -1.563  77.884 113.231  0.00  0.00     0.028 C 
ATOM      5  C   LIG d   1      -0.745  77.232 114.341  0.00  0.00    -0.047 C 
ATOM      6  C   LIG d   1      -1.637  77.068 115.592  0.00  0.00     0.091 C 
ENDROOT
BRANCH   1   7
ATOM      7  O   LIG d   1      -3.395  78.187 116.882  0.00  0.00    -0.368 OA
BRANCH   7   8
ATOM      8  C   LIG d   1      -3.350  78.810 118.189  0.00  0.00     0.119 C 
BRANCH   8   9
ATOM      9  C   LIG d   1      -2.031  79.602 118.279  0.00  0.00     0.028 C 
ATOM     10  C   LIG d   1      -2.243  81.040 118.780  0.00  0.00     0.006 C 
ENDBRANCH   8   9
BRANCH   8  11
ATOM     11  C   LIG d   1      -3.270  77.762 119.304  0.00  0.00     0.028 C 
ATOM     12  C   LIG d   1      -1.870  77.663 119.930  0.00  0.00     0.006 C 
ENDBRANCH   8  11
ENDBRANCH   7   8
ENDBRANCH   1   7
BRANCH   6  13
ATOM     13  N   LIG d   1      -0.891  76.515 116.752  0.00  0.00    -0.311 N 
ATOM     14  C   LIG d   1      -0.841  75.215 117.040  0.00  0.00     0.210 C 
ATOM     15  C   LIG d   1      -0.032  74.861 118.291  0.00  0.00     0.109 C 
ATOM     16  O   LIG d   1      -1.363  74.320 116.359  0.00  0.00    -0.276 OA
ATOM     17  H   LIG d   1      -0.412  77.169 117.340  0.00  0.00     0.149 HD
ENDBRANCH   6  13
BRANCH   5  18
ATOM     18  N   LIG d   1      -0.234  75.949 113.823  0.00  0.00     0.381 N 
ATOM     19  H   LIG d   1      -0.658  75.191 114.319  0.00  0.00    -0.090 HD
ATOM     20  H   LIG d   1       0.758  75.910 113.974  0.00  0.00    -0.090 HD
ATOM     21  H   LIG d   1      -0.433  75.871 112.850  0.00  0.00    -0.090 HD
ENDBRANCH   5  18
BRANCH   3  22
ATOM     22  C   LIG d   1      -2.439  80.047 112.690  0.00  0.00     0.382 C 
ATOM     23  O   LIG d   1      -3.388  80.854 112.839  0.00  0.00    -0.241 OA
ATOM     24  O   LIG d   1      -1.732  80.114 111.666  0.00  0.00    -0.241 OA
ENDBRANCH   3  22
TORSDOF 7
ENDMDL
MODEL 6
REMARK VINA RESULT:      -4.5      3.320      6.583
REMARK  7 active torsions:
REMARK  status: ('A' for Active; 'I' for Inactive)
REMARK    1  A    between atoms: C_2  and  C_3 
REMARK    2  A    between atoms: C_3  and  O_6 
REMARK    3  A    between atoms: C_3  and  C_4 
REMARK    4  A    between atoms: C_7  and  O_6 
REMARK    5  A    between atoms: C_9  and  C_10 
REMARK    6  A    between atoms: N_15  and  C_14 
REMARK    7  A    between atoms: N_20  and  C_19 
REMARK       I    between atoms: C_22  and  N_20 
ROOT
ATOM      1  C   LIG d   1      -1.323  79.469 114.361  0.00  0.00     0.161 C 
ATOM      2  C   LIG d   1      -2.049  78.352 114.805  0.00  0.00     0.016 C 
ATOM      3  C   LIG d   1      -2.596  77.382 113.934  0.00  0.00     0.038 C 
ATOM      4  C   LIG d   1      -2.322  77.384 112.558  0.00  0.00     0.028 C 
ATOM      5  C   LIG d   1      -2.016  78.771 112.003  0.00  0.00    -0.047 C 
ATOM      6  C   LIG d   1      -0.920  79.428 112.872  0.00  0.00     0.091 C 
ENDROOT
BRANCH   1   7
ATOM      7  O   LIG d   1      -0.160  79.657 115.190  0.00  0.00    -0.368 OA
BRANCH   7   8
ATOM      8  C   LIG d   1      -0.222  79.078 116.517  0.00  0.00     0.119 C 
BRANCH   8   9
ATOM      9  C   LIG d   1      -0.250  80.240 117.528  0.00  0.00     0.028 C 
ATOM     10  C   LIG d   1      -1.660  80.500 118.084  0.00  0.00     0.006 C 
ENDBRANCH   8   9
BRANCH   8  11
ATOM     11  C   LIG d   1       1.050  78.289 116.840  0.00  0.00     0.028 C 
ATOM     12  C   LIG d   1       0.829  76.768 116.823  0.00  0.00     0.006 C 
ENDBRANCH   8  11
ENDBRANCH   7   8
ENDBRANCH   1   7
BRANCH   6  13
ATOM     13  N   LIG d   1      -0.621  80.821 112.449  0.00  0.00    -0.311 N 
ATOM     14  C   LIG d   1       0.285  81.127 111.522  0.00  0.00     0.210 C 
ATOM     15  C   LIG d   1       0.452  82.625 111.249  0.00  0.00     0.109 C 
ATOM     16  O   LIG d   1       0.944  80.298 110.876  0.00  0.00    -0.276 OA
ATOM     17  H   LIG d   1      -1.132  81.555 112.899  0.00  0.00     0.149 HD
ENDBRANCH   6  13
BRANCH   5  18
ATOM     18  N   LIG d   1      -1.615  78.608 110.592  0.00  0.00     0.381 N 
ATOM     19  H   LIG d   1      -1.419  79.503 110.191  0.00  0.00    -0.090 HD
ATOM     20  H   LIG d   1      -2.377  78.194 110.084  0.00  0.00    -0.090 HD
ATOM     21  H   LIG d   1      -0.810  78.025 110.532  0.00  0.00    -0.090 HD
ENDBRANCH   5  18
BRANCH   3  22
ATOM     22  C   LIG d   1      -3.459  76.418 114.432  0.00  0.00     0.382 C 
ATOM     23  O   LIG d   1      -3.233  75.891 115.548  0.00  0.00    -0.241 OA
ATOM     24  O   LIG d   1      -4.437  76.038 113.761  0.00  0.00    -0.241 OA
ENDBRANCH   3  22
TORSDOF 7
ENDMDL
MODEL 7
REMARK VINA RESULT:      -4.5      5.153      8.292
REMARK  7 active torsions:
REMARK  status: ('A' for Active; 'I' for Inactive)
REMARK    1  A    between atoms: C_2  and  C_3 
REMARK    2  A    between atoms: C_3  and  O_6 
REMARK    3  A    between atoms: C_3  and  C_4 
REMARK    4  A    between atoms: C_7  and  O_6 
REMARK    5  A    between atoms: C_9  and  C_10 
REMARK    6  A    between atoms: N_15  and  C_14 
REMARK    7  A    between atoms: N_20  and  C_19 
REMARK       I    between atoms: C_22  and  N_20 
ROOT
ATOM      1  C   LIG d   1      -1.640  78.103 116.648  0.00  0.00     0.161 C 
ATOM      2  C   LIG d   1      -2.553  77.184 116.103  0.00  0.00     0.016 C 
ATOM      3  C   LIG d   1      -2.736  77.002 114.713  0.00  0.00     0.038 C 
ATOM      4  C   LIG d   1      -1.905  77.622 113.768  0.00  0.00     0.028 C 
ATOM      5  C   LIG d   1      -1.309  78.938 114.256  0.00  0.00    -0.047 C 
ATOM      6  C   LIG d   1      -0.647  78.707 115.634  0.00  0.00     0.091 C 
ENDROOT
BRANCH   1   7
ATOM      7  O   LIG d   1      -0.929  77.493 117.744  0.00  0.00    -0.368 OA
BRANCH   7   8
ATOM      8  C   LIG d   1      -1.236  76.101 118.007  0.00  0.00     0.119 C 
BRANCH   8   9
ATOM      9  C   LIG d   1      -1.202  75.901 119.534  0.00  0.00     0.028 C 
ATOM     10  C   LIG d   1      -0.796  74.471 119.930  0.00  0.00     0.006 C 
ENDBRANCH   8   9
BRANCH   8  11
ATOM     11  C   LIG d   1      -0.148  75.176 117.452  0.00  0.00     0.028 C 
ATOM     12  C   LIG d   1      -0.658  74.269 116.321  0.00  0.00     0.006 C 
ENDBRANCH   8  11
ENDBRANCH   7   8
ENDBRANCH   1   7
BRANCH   6  13
ATOM     13  N   LIG d   1      -0.112  79.963 116.223  0.00  0.00    -0.311 N 
ATOM     14  C   LIG d   1       1.099  80.059 116.769  0.00  0.00     0.210 C 
ATOM     15  C   LIG d   1       1.446  81.439 117.335  0.00  0.00     0.109 C 
ATOM     16  O   LIG d   1       1.932  79.140 116.808  0.00  0.00    -0.276 OA
ATOM     17  H   LIG d   1      -0.709  80.766 116.205  0.00  0.00     0.149 HD
ENDBRANCH   6  13
BRANCH   5  18
ATOM     18  N   LIG d   1      -0.358  79.405 113.229  0.00  0.00     0.381 N 
ATOM     19  H   LIG d   1       0.110  80.228 113.551  0.00  0.00    -0.090 HD
ATOM     20  H   LIG d   1      -0.869  79.637 112.396  0.00  0.00    -0.090 HD
ATOM     21  H   LIG d   1       0.308  78.691 113.031  0.00  0.00    -0.090 HD
ENDBRANCH   5  18
BRANCH   3  22
ATOM     22  C   LIG d   1      -3.786  76.221 114.255  0.00  0.00     0.382 C 
ATOM     23  O   LIG d   1      -4.057  75.137 114.825  0.00  0.00    -0.241 OA
ATOM     24  O   LIG d   1      -4.439  76.566 113.251  0.00  0.00    -0.241 OA
ENDBRANCH   3  22
TORSDOF 7
ENDMDL
MODEL 8
REMARK VINA RESULT:      -4.4      5.975      8.580
REMARK  7 active torsions:
REMARK  status: ('A' for Active; 'I' for Inactive)
REMARK    1  A    between atoms: C_2  and  C_3 
REMARK    2  A    between atoms: C_3  and  O_6 
REMARK    3  A    between atoms: C_3  and  C_4 
REMARK    4  A    between atoms: C_7  and  O_6 
REMARK    5  A    between atoms: C_9  and  C_10 
REMARK    6  A    between atoms: N_15  and  C_14 
REMARK    7  A    between atoms: N_20  and  C_19 
REMARK       I    between atoms: C_22  and  N_20 
ROOT
ATOM      1  C   LIG d   1      -2.170  77.287 117.102  0.00  0.00     0.161 C 
ATOM      2  C   LIG d   1      -2.950  76.797 116.042  0.00  0.00     0.016 C 
ATOM      3  C   LIG d   1      -2.767  77.189 114.695  0.00  0.00     0.038 C 
ATOM      4  C   LIG d   1      -1.685  77.988 114.296  0.00  0.00     0.028 C 
ATOM      5  C   LIG d   1      -1.175  78.910 115.398  0.00  0.00    -0.047 C 
ATOM      6  C   LIG d   1      -0.915  78.074 116.672  0.00  0.00     0.091 C 
ENDROOT
BRANCH   1   7
ATOM      7  O   LIG d   1      -1.806  76.205 117.982  0.00  0.00    -0.368 OA
BRANCH   7   8
ATOM      8  C   LIG d   1      -0.531  75.570 117.717  0.00  0.00     0.119 C 
BRANCH   8   9
ATOM      9  C   LIG d   1      -0.822  74.183 117.111  0.00  0.00     0.028 C 
ATOM     10  C   LIG d   1      -0.732  74.182 115.576  0.00  0.00     0.006 C 
ENDBRANCH   8   9
BRANCH   8  11
ATOM     11  C   LIG d   1       0.234  75.293 119.014  0.00  0.00     0.028 C 
ATOM     12  C   LIG d   1       1.755  75.435 118.850  0.00  0.00     0.006 C 
ENDBRANCH   8  11
ENDBRANCH   7   8
ENDBRANCH   1   7
BRANCH   6  13
ATOM     13  N   LIG d   1      -0.493  78.913 117.824  0.00  0.00    -0.311 N 
ATOM     14  C   LIG d   1       0.782  79.130 118.145  0.00  0.00     0.210 C 
ATOM     15  C   LIG d   1       0.996  80.008 119.382  0.00  0.00     0.109 C 
ATOM     16  O   LIG d   1       1.755  78.705 117.504  0.00  0.00    -0.276 OA
ATOM     17  H   LIG d   1      -1.218  79.322 118.380  0.00  0.00     0.149 HD
ENDBRANCH   6  13
BRANCH   5  18
ATOM     18  N   LIG d   1       0.036  79.583 114.891  0.00  0.00     0.381 N 
ATOM     19  H   LIG d   1       0.263  79.232 113.982  0.00  0.00    -0.090 HD
ATOM     20  H   LIG d   1       0.803  79.381 115.508  0.00  0.00    -0.090 HD
ATOM     21  H   LIG d   1      -0.114  80.567 114.846  0.00  0.00    -0.090 HD
ENDBRANCH   5  18
BRANCH   3  22
ATOM     22  C   LIG d   1      -3.696  76.812 113.738  0.00  0.00     0.382 C 
ATOM     23  O   LIG d   1      -3.827  77.490 112.690  0.00  0.00    -0.241 OA
ATOM     24  O   LIG d   1      -4.436  75.828 113.928  0.00  0.00    -0.241 OA
ENDBRANCH   3  22
TORSDOF 7
ENDMDL
MODEL 9
REMARK VINA RESULT:      -4.4      6.011      7.812
REMARK  7 active torsions:
REMARK  status: ('A' for Active; 'I' for Inactive)
REMARK    1  A    between atoms: C_2  and  C_3 
REMARK    2  A    between atoms: C_3  and  O_6 
REMARK    3  A    between atoms: C_3  and  C_4 
REMARK    4  A    between atoms: C_7  and  O_6 
REMARK    5  A    between atoms: C_9  and  C_10 
REMARK    6  A    between atoms: N_15  and  C_14 
REMARK    7  A    between atoms: N_20  and  C_19 
REMARK       I    between atoms: C_22  and  N_20 
ROOT
ATOM      1  C   LIG d   1      -1.225  78.652 115.412  0.00  0.00     0.161 C 
ATOM      2  C   LIG d   1      -2.417  78.163 114.853  0.00  0.00     0.016 C 
ATOM      3  C   LIG d   1      -2.745  76.789 114.796  0.00  0.00     0.038 C 
ATOM      4  C   LIG d   1      -1.965  75.814 115.436  0.00  0.00     0.028 C 
ATOM      5  C   LIG d   1      -0.498  76.208 115.574  0.00  0.00    -0.047 C 
ATOM      6  C   LIG d   1      -0.413  77.613 116.213  0.00  0.00     0.091 C 
ENDROOT
BRANCH   1   7
ATOM      7  O   LIG d   1      -1.505  79.806 116.227  0.00  0.00    -0.368 OA
BRANCH   7   8
ATOM      8  C   LIG d   1      -1.680  79.559 117.644  0.00  0.00     0.119 C 
BRANCH   8   9
ATOM      9  C   LIG d   1      -3.188  79.652 117.947  0.00  0.00     0.028 C 
ATOM     10  C   LIG d   1      -3.805  78.283 118.283  0.00  0.00     0.006 C 
ENDBRANCH   8   9
BRANCH   8  11
ATOM     11  C   LIG d   1      -1.029  80.659 118.487  0.00  0.00     0.028 C 
ATOM     12  C   LIG d   1       0.147  81.342 117.770  0.00  0.00     0.006 C 
ENDBRANCH   8  11
ENDBRANCH   7   8
ENDBRANCH   1   7
BRANCH   6  13
ATOM     13  N   LIG d   1       0.984  78.109 116.307  0.00  0.00    -0.311 N 
ATOM     14  C   LIG d   1       1.734  77.987 117.402  0.00  0.00     0.210 C 
ATOM     15  C   LIG d   1       3.140  78.585 117.293  0.00  0.00     0.109 C 
ATOM     16  O   LIG d   1       1.379  77.410 118.441  0.00  0.00    -0.276 OA
ATOM     17  H   LIG d   1       1.363  78.562 115.499  0.00  0.00     0.149 HD
ENDBRANCH   6  13
BRANCH   5  18
ATOM     18  N   LIG d   1       0.169  75.166 116.378  0.00  0.00     0.381 N 
ATOM     19  H   LIG d   1      -0.315  74.296 116.274  0.00  0.00    -0.090 HD
ATOM     20  H   LIG d   1       0.136  75.432 117.347  0.00  0.00    -0.090 HD
ATOM     21  H   LIG d   1       1.116  75.064 116.086  0.00  0.00    -0.090 HD
ENDBRANCH   5  18
BRANCH   3  22
ATOM     22  C   LIG d   1      -3.844  76.374 114.060  0.00  0.00     0.382 C 
ATOM     23  O   LIG d   1      -4.388  75.272 114.313  0.00  0.00    -0.241 OA
ATOM     24  O   LIG d   1      -4.271  77.067 113.117  0.00  0.00    -0.241 OA
ENDBRANCH   3  22
TORSDOF 7
ENDMDL
