MODEL 1
REMARK VINA RESULT:      -4.9      0.000      0.000
REMARK  7 active torsions:
REMARK  status: ('A' for Active; 'I' for Inactive)
REMARK    1  A    between atoms: C_2  and  C_3 
REMARK    2  A    between atoms: C_3  and  O_6 
REMARK    3  A    between atoms: C_3  and  C_4 
REMARK    4  A    between atoms: C_7  and  O_6 
REMARK    5  A    between atoms: C_9  and  C_10 
REMARK    6  A    between atoms: N_15  and  C_14 
REMARK    7  A    between atoms: N_20  and  C_19 
REMARK       I    between atoms: C_22  and  N_20 
ROOT
ATOM      1  C   LIG d   1      -2.195  77.545 116.574  0.00  0.00     0.161 C 
ATOM      2  C   LIG d   1      -3.003  76.795 115.704  0.00  0.00     0.016 C 
ATOM      3  C   LIG d   1      -2.986  76.950 114.299  0.00  0.00     0.038 C 
ATOM      4  C   LIG d   1      -2.045  77.765 113.654  0.00  0.00     0.028 C 
ATOM      5  C   LIG d   1      -1.550  78.919 114.519  0.00  0.00    -0.047 C 
ATOM      6  C   LIG d   1      -1.083  78.360 115.882  0.00  0.00     0.091 C 
ENDROOT
BRANCH   1   7
ATOM      7  O   LIG d   1      -1.632  76.683 117.583  0.00  0.00    -0.368 OA
BRANCH   7   8
ATOM      8  C   LIG d   1      -1.528  75.280 117.237  0.00  0.00     0.119 C 
BRANCH   8   9
ATOM      9  C   LIG d   1      -1.668  74.471 118.541  0.00  0.00     0.028 C 
ATOM     10  C   LIG d   1      -0.311  74.189 119.205  0.00  0.00     0.006 C 
ENDBRANCH   8   9
BRANCH   8  11
ATOM     11  C   LIG d   1      -0.136  74.941 116.697  0.00  0.00     0.028 C 
ATOM     12  C   LIG d   1      -0.155  74.532 115.215  0.00  0.00     0.006 C 
ENDBRANCH   8  11
ENDBRANCH   7   8
ENDBRANCH   1   7
BRANCH   6  13
ATOM     13  N   LIG d   1      -0.661  79.433 116.821  0.00  0.00    -0.311 N 
ATOM     14  C   LIG d   1       0.431  79.357 117.579  0.00  0.00     0.210 C 
ATOM     15  C   LIG d   1       0.671  80.564 118.491  0.00  0.00     0.109 C 
ATOM     16  O   LIG d   1       1.241  78.418 117.559  0.00  0.00    -0.276 OA
ATOM     17  H   LIG d   1      -1.245  80.245 116.877  0.00  0.00     0.149 HD
ENDBRANCH   6  13
BRANCH   5  18
ATOM     18  N   LIG d   1      -0.475  79.604 113.776  0.00  0.00     0.381 N 
ATOM     19  H   LIG d   1       0.204  78.936 113.470  0.00  0.00    -0.090 HD
ATOM     20  H   LIG d   1      -0.020  80.257 114.390  0.00  0.00    -0.090 HD
ATOM     21  H   LIG d   1      -0.856  80.085 112.991  0.00  0.00    -0.090 HD
ENDBRANCH   5  18
BRANCH   3  22
ATOM     22  C   LIG d   1      -3.946  76.314 113.526  0.00  0.00     0.382 C 
ATOM     23  O   LIG d   1      -4.355  76.850 112.468  0.00  0.00    -0.241 OA
ATOM     24  O   LIG d   1      -4.440  75.232 113.896  0.00  0.00    -0.241 OA
ENDBRANCH   3  22
TORSDOF 7
ENDMDL
MODEL 2
REMARK VINA RESULT:      -4.6      2.473      4.037
REMARK  7 active torsions:
REMARK  status: ('A' for Active; 'I' for Inactive)
REMARK    1  A    between atoms: C_2  and  C_3 
REMARK    2  A    between atoms: C_3  and  O_6 
REMARK    3  A    between atoms: C_3  and  C_4 
REMARK    4  A    between atoms: C_7  and  O_6 
REMARK    5  A    between atoms: C_9  and  C_10 
REMARK    6  A    between atoms: N_15  and  C_14 
REMARK    7  A    between atoms: N_20  and  C_19 
REMARK       I    between atoms: C_22  and  N_20 
ROOT
ATOM      1  C   LIG d   1      -0.271  77.887 116.840  0.00  0.00     0.161 C 
ATOM      2  C   LIG d   1      -1.076  78.324 115.775  0.00  0.00     0.016 C 
ATOM      3  C   LIG d   1      -1.545  77.468 114.751  0.00  0.00     0.038 C 
ATOM      4  C   LIG d   1      -1.364  76.078 114.807  0.00  0.00     0.028 C 
ATOM      5  C   LIG d   1      -0.129  75.659 115.597  0.00  0.00    -0.047 C 
ATOM      6  C   LIG d   1      -0.156  76.354 116.977  0.00  0.00     0.091 C 
ENDROOT
BRANCH   1   7
ATOM      7  O   LIG d   1      -0.736  78.467 118.074  0.00  0.00    -0.368 OA
BRANCH   7   8
ATOM      8  C   LIG d   1      -2.144  78.808 118.127  0.00  0.00     0.119 C 
BRANCH   8   9
ATOM      9  C   LIG d   1      -2.266  80.154 118.868  0.00  0.00     0.028 C 
ATOM     10  C   LIG d   1      -1.028  81.046 118.674  0.00  0.00     0.006 C 
ENDBRANCH   8   9
BRANCH   8  11
ATOM     11  C   LIG d   1      -2.929  77.804 118.977  0.00  0.00     0.028 C 
ATOM     12  C   LIG d   1      -3.745  76.816 118.129  0.00  0.00     0.006 C 
ENDBRANCH   8  11
ENDBRANCH   7   8
ENDBRANCH   1   7
BRANCH   6  13
ATOM     13  N   LIG d   1       1.059  76.064 117.782  0.00  0.00    -0.311 N 
ATOM     14  C   LIG d   1       1.030  75.415 118.944  0.00  0.00     0.210 C 
ATOM     15  C   LIG d   1       2.394  75.239 119.620  0.00  0.00     0.109 C 
ATOM     16  O   LIG d   1       0.010  74.939 119.464  0.00  0.00    -0.276 OA
ATOM     17  H   LIG d   1       1.934  76.387 117.419  0.00  0.00     0.149 HD
ENDBRANCH   6  13
BRANCH   5  18
ATOM     18  N   LIG d   1      -0.139  74.187 115.691  0.00  0.00     0.381 N 
ATOM     19  H   LIG d   1       0.465  73.799 114.995  0.00  0.00    -0.090 HD
ATOM     20  H   LIG d   1      -1.072  73.856 115.517  0.00  0.00    -0.090 HD
ATOM     21  H   LIG d   1       0.159  73.901 116.597  0.00  0.00    -0.090 HD
ENDBRANCH   5  18
BRANCH   3  22
ATOM     22  C   LIG d   1      -2.168  78.008 113.637  0.00  0.00     0.382 C 
ATOM     23  O   LIG d   1      -2.763  79.109 113.723  0.00  0.00    -0.241 OA
ATOM     24  O   LIG d   1      -2.182  77.386 112.558  0.00  0.00    -0.241 OA
ENDBRANCH   3  22
TORSDOF 7
ENDMDL
MODEL 3
REMARK VINA RESULT:      -4.4      1.513      2.528
REMARK  7 active torsions:
REMARK  status: ('A' for Active; 'I' for Inactive)
REMARK    1  A    between atoms: C_2  and  C_3 
REMARK    2  A    between atoms: C_3  and  O_6 
REMARK    3  A    between atoms: C_3  and  C_4 
REMARK    4  A    between atoms: C_7  and  O_6 
REMARK    5  A    between atoms: C_9  and  C_10 
REMARK    6  A    between atoms: N_15  and  C_14 
REMARK    7  A    between atoms: N_20  and  C_19 
REMARK       I    between atoms: C_22  and  N_20 
ROOT
ATOM      1  C   LIG d   1      -2.311  76.866 115.690  0.00  0.00     0.161 C 
ATOM      2  C   LIG d   1      -2.606  76.954 114.320  0.00  0.00     0.016 C 
ATOM      3  C   LIG d   1      -2.031  77.917 113.460  0.00  0.00     0.038 C 
ATOM      4  C   LIG d   1      -0.998  78.767 113.884  0.00  0.00     0.028 C 
ATOM      5  C   LIG d   1      -1.026  79.053 115.382  0.00  0.00    -0.047 C 
ATOM      6  C   LIG d   1      -1.104  77.713 116.147  0.00  0.00     0.091 C 
ENDROOT
BRANCH   1   7
ATOM      7  O   LIG d   1      -2.124  75.486 116.062  0.00  0.00    -0.368 OA
BRANCH   7   8
ATOM      8  C   LIG d   1      -0.759  75.076 116.325  0.00  0.00     0.119 C 
BRANCH   8   9
ATOM      9  C   LIG d   1      -0.307  74.189 115.149  0.00  0.00     0.028 C 
ATOM     10  C   LIG d   1       0.536  74.962 114.121  0.00  0.00     0.006 C 
ENDBRANCH   8   9
BRANCH   8  11
ATOM     11  C   LIG d   1      -0.676  74.180 117.565  0.00  0.00     0.028 C 
ATOM     12  C   LIG d   1      -1.688  74.573 118.653  0.00  0.00     0.006 C 
ENDBRANCH   8  11
ENDBRANCH   7   8
ENDBRANCH   1   7
BRANCH   6  13
ATOM     13  N   LIG d   1      -1.220  77.905 117.616  0.00  0.00    -0.311 N 
ATOM     14  C   LIG d   1      -0.188  77.807 118.452  0.00  0.00     0.210 C 
ATOM     15  C   LIG d   1      -0.530  78.022 119.930  0.00  0.00     0.109 C 
ATOM     16  O   LIG d   1       0.984  77.595 118.107  0.00  0.00    -0.276 OA
ATOM     17  H   LIG d   1      -2.130  78.112 117.979  0.00  0.00     0.149 HD
ENDBRANCH   6  13
BRANCH   5  18
ATOM     18  N   LIG d   1       0.180  79.837 115.708  0.00  0.00     0.381 N 
ATOM     19  H   LIG d   1       0.828  79.795 114.947  0.00  0.00    -0.090 HD
ATOM     20  H   LIG d   1       0.619  79.435 116.518  0.00  0.00    -0.090 HD
ATOM     21  H   LIG d   1      -0.067  80.784 115.892  0.00  0.00    -0.090 HD
ENDBRANCH   5  18
BRANCH   3  22
ATOM     22  C   LIG d   1      -2.516  78.064 112.169  0.00  0.00     0.382 C 
ATOM     23  O   LIG d   1      -3.279  77.194 111.684  0.00  0.00    -0.241 OA
ATOM     24  O   LIG d   1      -2.165  79.032 111.468  0.00  0.00    -0.241 OA
ENDBRANCH   3  22
TORSDOF 7
ENDMDL
MODEL 4
REMARK VINA RESULT:      -4.3      2.319      4.302
REMARK  7 active torsions:
REMARK  status: ('A' for Active; 'I' for Inactive)
REMARK    1  A    between atoms: C_2  and  C_3 
REMARK    2  A    between atoms: C_3  and  O_6 
REMARK    3  A    between atoms: C_3  and  C_4 
REMARK    4  A    between atoms: C_7  and  O_6 
REMARK    5  A    between atoms: C_9  and  C_10 
REMARK    6  A    between atoms: N_15  and  C_14 
REMARK    7  A    between atoms: N_20  and  C_19 
REMARK       I    between atoms: C_22  and  N_20 
ROOT
ATOM      1  C   LIG d   1      -0.365  77.851 116.764  0.00  0.00     0.161 C 
ATOM      2  C   LIG d   1      -1.156  78.281 115.686  0.00  0.00     0.016 C 
ATOM      3  C   LIG d   1      -1.568  77.430 114.635  0.00  0.00     0.038 C 
ATOM      4  C   LIG d   1      -1.340  76.046 114.669  0.00  0.00     0.028 C 
ATOM      5  C   LIG d   1      -0.113  75.654 115.484  0.00  0.00    -0.047 C 
ATOM      6  C   LIG d   1      -0.200  76.321 116.876  0.00  0.00     0.091 C 
ENDROOT
BRANCH   1   7
ATOM      7  O   LIG d   1      -0.883  78.391 117.996  0.00  0.00    -0.368 OA
BRANCH   7   8
ATOM      8  C   LIG d   1      -0.096  79.440 118.613  0.00  0.00     0.119 C 
BRANCH   8   9
ATOM      9  C   LIG d   1      -0.862  80.764 118.425  0.00  0.00     0.028 C 
ATOM     10  C   LIG d   1       0.075  81.983 118.392  0.00  0.00     0.006 C 
ENDBRANCH   8   9
BRANCH   8  11
ATOM     11  C   LIG d   1       1.238  79.636 117.887  0.00  0.00     0.028 C 
ATOM     12  C   LIG d   1       2.447  79.218 118.739  0.00  0.00     0.006 C 
ENDBRANCH   8  11
ENDBRANCH   7   8
ENDBRANCH   1   7
BRANCH   6  13
ATOM     13  N   LIG d   1       1.003  76.057 117.708  0.00  0.00    -0.311 N 
ATOM     14  C   LIG d   1       0.952  75.483 118.908  0.00  0.00     0.210 C 
ATOM     15  C   LIG d   1       2.307  75.322 119.606  0.00  0.00     0.109 C 
ATOM     16  O   LIG d   1      -0.082  75.061 119.448  0.00  0.00    -0.276 OA
ATOM     17  H   LIG d   1       1.887  76.339 117.333  0.00  0.00     0.149 HD
ENDBRANCH   6  13
BRANCH   5  18
ATOM     18  N   LIG d   1      -0.074  74.181 115.551  0.00  0.00     0.381 N 
ATOM     19  H   LIG d   1       0.813  73.850 115.226  0.00  0.00    -0.090 HD
ATOM     20  H   LIG d   1      -0.788  73.809 114.950  0.00  0.00    -0.090 HD
ATOM     21  H   LIG d   1      -0.227  73.877 116.487  0.00  0.00    -0.090 HD
ENDBRANCH   5  18
BRANCH   3  22
ATOM     22  C   LIG d   1      -2.180  77.969 113.514  0.00  0.00     0.382 C 
ATOM     23  O   LIG d   1      -2.091  77.383 112.408  0.00  0.00    -0.241 OA
ATOM     24  O   LIG d   1      -2.784  79.056 113.585  0.00  0.00    -0.241 OA
ENDBRANCH   3  22
TORSDOF 7
ENDMDL
MODEL 5
REMARK VINA RESULT:      -4.3      2.343      4.168
REMARK  7 active torsions:
REMARK  status: ('A' for Active; 'I' for Inactive)
REMARK    1  A    between atoms: C_2  and  C_3 
REMARK    2  A    between atoms: C_3  and  O_6 
REMARK    3  A    between atoms: C_3  and  C_4 
REMARK    4  A    between atoms: C_7  and  O_6 
REMARK    5  A    between atoms: C_9  and  C_10 
REMARK    6  A    between atoms: N_15  and  C_14 
REMARK    7  A    between atoms: N_20  and  C_19 
REMARK       I    between atoms: C_22  and  N_20 
ROOT
ATOM      1  C   LIG d   1      -0.989  77.827 115.711  0.00  0.00     0.161 C 
ATOM      2  C   LIG d   1      -1.126  78.738 114.651  0.00  0.00     0.016 C 
ATOM      3  C   LIG d   1      -2.102  78.611 113.637  0.00  0.00     0.038 C 
ATOM      4  C   LIG d   1      -3.113  77.640 113.698  0.00  0.00     0.028 C 
ATOM      5  C   LIG d   1      -2.709  76.394 114.479  0.00  0.00    -0.047 C 
ATOM      6  C   LIG d   1      -2.152  76.824 115.856  0.00  0.00     0.091 C 
ENDROOT
BRANCH   1   7
ATOM      7  O   LIG d   1      -0.787  78.541 116.946  0.00  0.00    -0.368 OA
BRANCH   7   8
ATOM      8  C   LIG d   1       0.570  78.565 117.454  0.00  0.00     0.119 C 
BRANCH   8   9
ATOM      9  C   LIG d   1       0.570  77.831 118.809  0.00  0.00     0.028 C 
ATOM     10  C   LIG d   1       1.469  76.583 118.801  0.00  0.00     0.006 C 
ENDBRANCH   8   9
BRANCH   8  11
ATOM     11  C   LIG d   1       1.023  79.994 117.767  0.00  0.00     0.028 C 
ATOM     12  C   LIG d   1      -0.142  80.915 118.162  0.00  0.00     0.006 C 
ENDBRANCH   8  11
ENDBRANCH   7   8
ENDBRANCH   1   7
BRANCH   6  13
ATOM     13  N   LIG d   1      -1.656  75.671 116.651  0.00  0.00    -0.311 N 
ATOM     14  C   LIG d   1      -2.063  75.406 117.891  0.00  0.00     0.210 C 
ATOM     15  C   LIG d   1      -1.410  74.180 118.538  0.00  0.00     0.109 C 
ATOM     16  O   LIG d   1      -2.927  76.050 118.505  0.00  0.00    -0.276 OA
ATOM     17  H   LIG d   1      -0.976  75.077 116.218  0.00  0.00     0.149 HD
ENDBRANCH   6  13
BRANCH   5  18
ATOM     18  N   LIG d   1      -3.898  75.527 114.581  0.00  0.00     0.381 N 
ATOM     19  H   LIG d   1      -4.607  75.850 113.954  0.00  0.00    -0.090 HD
ATOM     20  H   LIG d   1      -4.259  75.579 115.518  0.00  0.00    -0.090 HD
ATOM     21  H   LIG d   1      -3.654  74.587 114.363  0.00  0.00    -0.090 HD
ENDBRANCH   5  18
BRANCH   3  22
ATOM     22  C   LIG d   1      -2.050  79.438 112.525  0.00  0.00     0.382 C 
ATOM     23  O   LIG d   1      -1.670  78.980 111.420  0.00  0.00    -0.241 OA
ATOM     24  O   LIG d   1      -2.336  80.647 112.622  0.00  0.00    -0.241 OA
ENDBRANCH   3  22
TORSDOF 7
ENDMDL
MODEL 6
REMARK VINA RESULT:      -4.2      2.220      2.909
REMARK  7 active torsions:
REMARK  status: ('A' for Active; 'I' for Inactive)
REMARK    1  A    between atoms: C_2  and  C_3 
REMARK    2  A    between atoms: C_3  and  O_6 
REMARK    3  A    between atoms: C_3  and  C_4 
REMARK    4  A    between atoms: C_7  and  O_6 
REMARK    5  A    between atoms: C_9  and  C_10 
REMARK    6  A    between atoms: N_15  and  C_14 
REMARK    7  A    between atoms: N_20  and  C_19 
REMARK       I    between atoms: C_22  and  N_20 
ROOT
ATOM      1  C   LIG d   1      -0.577  77.804 117.872  0.00  0.00     0.161 C 
ATOM      2  C   LIG d   1      -0.955  76.541 117.386  0.00  0.00     0.016 C 
ATOM      3  C   LIG d   1      -1.136  76.259 116.012  0.00  0.00     0.038 C 
ATOM      4  C   LIG d   1      -0.801  77.186 115.014  0.00  0.00     0.028 C 
ATOM      5  C   LIG d   1      -0.898  78.636 115.478  0.00  0.00    -0.047 C 
ATOM      6  C   LIG d   1      -0.100  78.797 116.792  0.00  0.00     0.091 C 
ENDROOT
BRANCH   1   7
ATOM      7  O   LIG d   1       0.429  77.653 118.893  0.00  0.00    -0.368 OA
BRANCH   7   8
ATOM      8  C   LIG d   1       1.482  76.697 118.614  0.00  0.00     0.119 C 
BRANCH   8   9
ATOM      9  C   LIG d   1       1.663  75.827 119.872  0.00  0.00     0.028 C 
ATOM     10  C   LIG d   1       0.911  74.488 119.773  0.00  0.00     0.006 C 
ENDBRANCH   8   9
BRANCH   8  11
ATOM     11  C   LIG d   1       2.829  77.397 118.408  0.00  0.00     0.028 C 
ATOM     12  C   LIG d   1       4.001  76.630 119.039  0.00  0.00     0.006 C 
ENDBRANCH   8  11
ENDBRANCH   7   8
ENDBRANCH   1   7
BRANCH   6  13
ATOM     13  N   LIG d   1      -0.212  80.166 117.359  0.00  0.00    -0.311 N 
ATOM     14  C   LIG d   1       0.841  80.927 117.651  0.00  0.00     0.210 C 
ATOM     15  C   LIG d   1       0.503  82.298 118.245  0.00  0.00     0.109 C 
ATOM     16  O   LIG d   1       2.022  80.610 117.444  0.00  0.00    -0.276 OA
ATOM     17  H   LIG d   1      -1.135  80.515 117.529  0.00  0.00     0.149 HD
ENDBRANCH   6  13
BRANCH   5  18
ATOM     18  N   LIG d   1      -0.391  79.488 114.385  0.00  0.00     0.381 N 
ATOM     19  H   LIG d   1       0.262  78.973 113.830  0.00  0.00    -0.090 HD
ATOM     20  H   LIG d   1       0.086  80.277 114.784  0.00  0.00    -0.090 HD
ATOM     21  H   LIG d   1      -1.148  79.800 113.817  0.00  0.00    -0.090 HD
ENDBRANCH   5  18
BRANCH   3  22
ATOM     22  C   LIG d   1      -1.694  75.049 115.627  0.00  0.00     0.382 C 
ATOM     23  O   LIG d   1      -1.164  74.378 114.709  0.00  0.00    -0.241 OA
ATOM     24  O   LIG d   1      -2.746  74.643 116.155  0.00  0.00    -0.241 OA
ENDBRANCH   3  22
TORSDOF 7
ENDMDL
MODEL 7
REMARK VINA RESULT:      -4.2      3.169      4.251
REMARK  7 active torsions:
REMARK  status: ('A' for Active; 'I' for Inactive)
REMARK    1  A    between atoms: C_2  and  C_3 
REMARK    2  A    between atoms: C_3  and  O_6 
REMARK    3  A    between atoms: C_3  and  C_4 
REMARK    4  A    between atoms: C_7  and  O_6 
REMARK    5  A    between atoms: C_9  and  C_10 
REMARK    6  A    between atoms: N_15  and  C_14 
REMARK    7  A    between atoms: N_20  and  C_19 
REMARK       I    between atoms: C_22  and  N_20 
ROOT
ATOM      1  C   LIG d   1      -1.177  79.852 113.375  0.00  0.00     0.161 C 
ATOM      2  C   LIG d   1      -2.086  78.864 112.961  0.00  0.00     0.016 C 
ATOM      3  C   LIG d   1      -2.143  78.364 111.640  0.00  0.00     0.038 C 
ATOM      4  C   LIG d   1      -1.187  78.712 110.673  0.00  0.00     0.028 C 
ATOM      5  C   LIG d   1      -0.563  80.083 110.906  0.00  0.00    -0.047 C 
ATOM      6  C   LIG d   1      -0.055  80.163 112.364  0.00  0.00     0.091 C 
ENDROOT
BRANCH   1   7
ATOM      7  O   LIG d   1      -0.615  79.494 114.653  0.00  0.00    -0.368 OA
BRANCH   7   8
ATOM      8  C   LIG d   1      -1.243  78.381 115.337  0.00  0.00     0.119 C 
BRANCH   8   9
ATOM      9  C   LIG d   1      -1.775  78.907 116.684  0.00  0.00     0.028 C 
ATOM     10  C   LIG d   1      -3.275  78.623 116.874  0.00  0.00     0.006 C 
ENDBRANCH   8   9
BRANCH   8  11
ATOM     11  C   LIG d   1      -0.221  77.300 115.699  0.00  0.00     0.028 C 
ATOM     12  C   LIG d   1      -0.699  75.884 115.341  0.00  0.00     0.006 C 
ENDBRANCH   8  11
ENDBRANCH   7   8
ENDBRANCH   1   7
BRANCH   6  13
ATOM     13  N   LIG d   1       0.495  81.502 112.700  0.00  0.00    -0.311 N 
ATOM     14  C   LIG d   1       1.753  81.863 112.448  0.00  0.00     0.210 C 
ATOM     15  C   LIG d   1       2.120  83.282 112.894  0.00  0.00     0.109 C 
ATOM     16  O   LIG d   1       2.589  81.154 111.869  0.00  0.00    -0.276 OA
ATOM     17  H   LIG d   1      -0.124  82.151 113.144  0.00  0.00     0.149 HD
ENDBRANCH   6  13
BRANCH   5  18
ATOM     18  N   LIG d   1       0.510  80.259 109.909  0.00  0.00     0.381 N 
ATOM     19  H   LIG d   1       0.722  81.232 109.808  0.00  0.00    -0.090 HD
ATOM     20  H   LIG d   1       0.190  79.913 109.022  0.00  0.00    -0.090 HD
ATOM     21  H   LIG d   1       1.325  79.762 110.194  0.00  0.00    -0.090 HD
ENDBRANCH   5  18
BRANCH   3  22
ATOM     22  C   LIG d   1      -3.188  77.535 111.263  0.00  0.00     0.382 C 
ATOM     23  O   LIG d   1      -3.924  77.017 112.137  0.00  0.00    -0.241 OA
ATOM     24  O   LIG d   1      -3.378  77.262 110.062  0.00  0.00    -0.241 OA
ENDBRANCH   3  22
TORSDOF 7
ENDMDL
MODEL 8
REMARK VINA RESULT:      -4.1      2.461      4.027
REMARK  7 active torsions:
REMARK  status: ('A' for Active; 'I' for Inactive)
REMARK    1  A    between atoms: C_2  and  C_3 
REMARK    2  A    between atoms: C_3  and  O_6 
REMARK    3  A    between atoms: C_3  and  C_4 
REMARK    4  A    between atoms: C_7  and  O_6 
REMARK    5  A    between atoms: C_9  and  C_10 
REMARK    6  A    between atoms: N_15  and  C_14 
REMARK    7  A    between atoms: N_20  and  C_19 
REMARK       I    between atoms: C_22  and  N_20 
ROOT
ATOM      1  C   LIG d   1      -1.662  79.137 114.489  0.00  0.00     0.161 C 
ATOM      2  C   LIG d   1      -2.445  78.041 114.889  0.00  0.00     0.016 C 
ATOM      3  C   LIG d   1      -3.037  77.135 113.980  0.00  0.00     0.038 C 
ATOM      4  C   LIG d   1      -2.760  77.176 112.605  0.00  0.00     0.028 C 
ATOM      5  C   LIG d   1      -2.383  78.566 112.105  0.00  0.00    -0.047 C 
ATOM      6  C   LIG d   1      -1.257  79.133 113.000  0.00  0.00     0.091 C 
ENDROOT
BRANCH   1   7
ATOM      7  O   LIG d   1      -0.492  79.233 115.326  0.00  0.00    -0.368 OA
BRANCH   7   8
ATOM      8  C   LIG d   1      -0.621  78.697 116.666  0.00  0.00     0.119 C 
BRANCH   8   9
ATOM      9  C   LIG d   1      -0.526  79.881 117.649  0.00  0.00     0.028 C 
ATOM     10  C   LIG d   1       0.843  80.580 117.594  0.00  0.00     0.006 C 
ENDBRANCH   8   9
BRANCH   8  11
ATOM     11  C   LIG d   1       0.556  77.783 117.016  0.00  0.00     0.028 C 
ATOM     12  C   LIG d   1       0.136  76.318 117.212  0.00  0.00     0.006 C 
ENDBRANCH   8  11
ENDBRANCH   7   8
ENDBRANCH   1   7
BRANCH   6  13
ATOM     13  N   LIG d   1      -0.887  80.524 112.632  0.00  0.00    -0.311 N 
ATOM     14  C   LIG d   1       0.004  80.820 111.686  0.00  0.00     0.210 C 
ATOM     15  C   LIG d   1       0.254  82.317 111.479  0.00  0.00     0.109 C 
ATOM     16  O   LIG d   1       0.587  79.985 110.978  0.00  0.00    -0.276 OA
ATOM     17  H   LIG d   1      -1.335  81.265 113.135  0.00  0.00     0.149 HD
ENDBRANCH   6  13
BRANCH   5  18
ATOM     18  N   LIG d   1      -1.987  78.438 110.690  0.00  0.00     0.381 N 
ATOM     19  H   LIG d   1      -1.061  78.064 110.630  0.00  0.00    -0.090 HD
ATOM     20  H   LIG d   1      -1.986  79.351 110.269  0.00  0.00    -0.090 HD
ATOM     21  H   LIG d   1      -2.626  77.843 110.210  0.00  0.00    -0.090 HD
ENDBRANCH   5  18
BRANCH   3  22
ATOM     22  C   LIG d   1      -3.950  76.198 114.440  0.00  0.00     0.382 C 
ATOM     23  O   LIG d   1      -4.255  76.165 115.657  0.00  0.00    -0.241 OA
ATOM     24  O   LIG d   1      -4.438  75.356 113.662  0.00  0.00    -0.241 OA
ENDBRANCH   3  22
TORSDOF 7
ENDMDL
MODEL 9
REMARK VINA RESULT:      -4.1      1.278      2.173
REMARK  7 active torsions:
REMARK  status: ('A' for Active; 'I' for Inactive)
REMARK    1  A    between atoms: C_2  and  C_3 
REMARK    2  A    between atoms: C_3  and  O_6 
REMARK    3  A    between atoms: C_3  and  C_4 
REMARK    4  A    between atoms: C_7  and  O_6 
REMARK    5  A    between atoms: C_9  and  C_10 
REMARK    6  A    between atoms: N_15  and  C_14 
REMARK    7  A    between atoms: N_20  and  C_19 
REMARK       I    between atoms: C_22  and  N_20 
ROOT
ATOM      1  C   LIG d   1      -1.813  77.852 116.658  0.00  0.00     0.161 C 
ATOM      2  C   LIG d   1      -2.639  76.993 115.915  0.00  0.00     0.016 C 
ATOM      3  C   LIG d   1      -2.723  77.022 114.504  0.00  0.00     0.038 C 
ATOM      4  C   LIG d   1      -1.868  77.817 113.726  0.00  0.00     0.028 C 
ATOM      5  C   LIG d   1      -1.374  79.064 114.451  0.00  0.00    -0.047 C 
ATOM      6  C   LIG d   1      -0.790  78.650 115.821  0.00  0.00     0.091 C 
ENDROOT
BRANCH   1   7
ATOM      7  O   LIG d   1      -1.141  77.110 117.695  0.00  0.00    -0.368 OA
BRANCH   7   8
ATOM      8  C   LIG d   1      -1.572  77.378 119.052  0.00  0.00     0.119 C 
BRANCH   8   9
ATOM      9  C   LIG d   1      -2.253  76.102 119.582  0.00  0.00     0.028 C 
ATOM     10  C   LIG d   1      -1.616  74.820 119.021  0.00  0.00     0.006 C 
ENDBRANCH   8   9
BRANCH   8  11
ATOM     11  C   LIG d   1      -2.654  78.461 119.089  0.00  0.00     0.028 C 
ATOM     12  C   LIG d   1      -2.215  79.716 119.860  0.00  0.00     0.006 C 
ENDBRANCH   8  11
ENDBRANCH   7   8
ENDBRANCH   1   7
BRANCH   6  13
ATOM     13  N   LIG d   1      -0.361  79.820 116.632  0.00  0.00    -0.311 N 
ATOM     14  C   LIG d   1       0.726  79.820 117.400  0.00  0.00     0.210 C 
ATOM     15  C   LIG d   1       0.976  81.122 118.167  0.00  0.00     0.109 C 
ATOM     16  O   LIG d   1       1.526  78.876 117.495  0.00  0.00    -0.276 OA
ATOM     17  H   LIG d   1      -0.935  80.639 116.590  0.00  0.00     0.149 HD
ENDBRANCH   6  13
BRANCH   5  18
ATOM     18  N   LIG d   1      -0.386  79.726 113.578  0.00  0.00     0.381 N 
ATOM     19  H   LIG d   1      -0.743  80.609 113.272  0.00  0.00    -0.090 HD
ATOM     20  H   LIG d   1      -0.231  79.150 112.769  0.00  0.00    -0.090 HD
ATOM     21  H   LIG d   1       0.470  79.858 114.070  0.00  0.00    -0.090 HD
ENDBRANCH   5  18
BRANCH   3  22
ATOM     22  C   LIG d   1      -3.699  76.278 113.858  0.00  0.00     0.382 C 
ATOM     23  O   LIG d   1      -4.194  76.693 112.782  0.00  0.00    -0.241 OA
ATOM     24  O   LIG d   1      -4.123  75.220 114.361  0.00  0.00    -0.241 OA
ENDBRANCH   3  22
TORSDOF 7
ENDMDL
