MODEL 1
REMARK VINA RESULT:      -5.3      0.000      0.000
REMARK  7 active torsions:
REMARK  status: ('A' for Active; 'I' for Inactive)
REMARK    1  A    between atoms: C_2  and  C_3 
REMARK    2  A    between atoms: C_3  and  O_6 
REMARK    3  A    between atoms: C_3  and  C_4 
REMARK    4  A    between atoms: C_7  and  O_6 
REMARK    5  A    between atoms: C_9  and  C_10 
REMARK    6  A    between atoms: N_15  and  C_14 
REMARK    7  A    between atoms: N_20  and  C_19 
REMARK       I    between atoms: C_22  and  N_20 
ROOT
ATOM      1  C   LIG d   1       1.427  80.995 112.392  0.00  0.00     0.161 C 
ATOM      2  C   LIG d   1       2.513  81.513 111.668  0.00  0.00     0.016 C 
ATOM      3  C   LIG d   1       2.757  81.210 110.309  0.00  0.00     0.038 C 
ATOM      4  C   LIG d   1       1.839  80.484 109.535  0.00  0.00     0.028 C 
ATOM      5  C   LIG d   1       0.985  79.521 110.352  0.00  0.00    -0.047 C 
ATOM      6  C   LIG d   1       0.354  80.292 111.535  0.00  0.00     0.091 C 
ENDROOT
BRANCH   1   7
ATOM      7  O   LIG d   1       0.828  82.039 113.186  0.00  0.00    -0.368 OA
BRANCH   7   8
ATOM      8  C   LIG d   1       1.159  83.398 112.807  0.00  0.00     0.119 C 
BRANCH   8   9
ATOM      9  C   LIG d   1       1.470  84.176 114.100  0.00  0.00     0.028 C 
ATOM     10  C   LIG d   1       2.979  84.397 114.303  0.00  0.00     0.006 C 
ENDBRANCH   8   9
BRANCH   8  11
ATOM     11  C   LIG d   1      -0.045  84.111 112.184  0.00  0.00     0.028 C 
ATOM     12  C   LIG d   1       0.126  84.364 110.678  0.00  0.00     0.006 C 
ENDBRANCH   8  11
ENDBRANCH   7   8
ENDBRANCH   1   7
BRANCH   6  13
ATOM     13  N   LIG d   1      -0.431  79.406 112.434  0.00  0.00    -0.311 N 
ATOM     14  C   LIG d   1      -1.711  79.616 112.736  0.00  0.00     0.210 C 
ATOM     15  C   LIG d   1      -2.324  78.594 113.698  0.00  0.00     0.109 C 
ATOM     16  O   LIG d   1      -2.405  80.534 112.274  0.00  0.00    -0.276 OA
ATOM     17  H   LIG d   1       0.046  78.619 112.829  0.00  0.00     0.149 HD
ENDBRANCH   6  13
BRANCH   5  18
ATOM     18  N   LIG d   1      -0.018  78.934 109.444  0.00  0.00     0.381 N 
ATOM     19  H   LIG d   1       0.028  79.384 108.552  0.00  0.00    -0.090 HD
ATOM     20  H   LIG d   1      -0.934  79.088 109.828  0.00  0.00    -0.090 HD
ATOM     21  H   LIG d   1       0.147  77.957 109.340  0.00  0.00    -0.090 HD
ENDBRANCH   5  18
BRANCH   3  22
ATOM     22  C   LIG d   1       3.950  81.601 109.720  0.00  0.00     0.382 C 
ATOM     23  O   LIG d   1       4.142  82.808 109.434  0.00  0.00    -0.241 OA
ATOM     24  O   LIG d   1       4.820  80.757 109.432  0.00  0.00    -0.241 OA
ENDBRANCH   3  22
TORSDOF 7
ENDMDL
MODEL 2
REMARK VINA RESULT:      -4.7      1.762      2.338
REMARK  7 active torsions:
REMARK  status: ('A' for Active; 'I' for Inactive)
REMARK    1  A    between atoms: C_2  and  C_3 
REMARK    2  A    between atoms: C_3  and  O_6 
REMARK    3  A    between atoms: C_3  and  C_4 
REMARK    4  A    between atoms: C_7  and  O_6 
REMARK    5  A    between atoms: C_9  and  C_10 
REMARK    6  A    between atoms: N_15  and  C_14 
REMARK    7  A    between atoms: N_20  and  C_19 
REMARK       I    between atoms: C_22  and  N_20 
ROOT
ATOM      1  C   LIG d   1       1.856  81.071 112.727  0.00  0.00     0.161 C 
ATOM      2  C   LIG d   1       2.791  81.940 112.140  0.00  0.00     0.016 C 
ATOM      3  C   LIG d   1       2.798  82.262 110.764  0.00  0.00     0.038 C 
ATOM      4  C   LIG d   1       1.771  81.851 109.901  0.00  0.00     0.028 C 
ATOM      5  C   LIG d   1       1.087  80.562 110.344  0.00  0.00    -0.047 C 
ATOM      6  C   LIG d   1       0.661  80.702 111.823  0.00  0.00     0.091 C 
ENDROOT
BRANCH   1   7
ATOM      7  O   LIG d   1       1.389  81.625 113.973  0.00  0.00    -0.368 OA
BRANCH   7   8
ATOM      8  C   LIG d   1       2.407  82.165 114.851  0.00  0.00     0.119 C 
BRANCH   8   9
ATOM      9  C   LIG d   1       2.280  81.443 116.206  0.00  0.00     0.028 C 
ATOM     10  C   LIG d   1       3.433  80.455 116.455  0.00  0.00     0.006 C 
ENDBRANCH   8   9
BRANCH   8  11
ATOM     11  C   LIG d   1       2.152  83.645 115.155  0.00  0.00     0.028 C 
ATOM     12  C   LIG d   1       1.549  83.871 116.551  0.00  0.00     0.006 C 
ENDBRANCH   8  11
ENDBRANCH   7   8
ENDBRANCH   1   7
BRANCH   6  13
ATOM     13  N   LIG d   1       0.060  79.453 112.361  0.00  0.00    -0.311 N 
ATOM     14  C   LIG d   1      -1.242  79.311 112.601  0.00  0.00     0.210 C 
ATOM     15  C   LIG d   1      -1.650  77.950 113.173  0.00  0.00     0.109 C 
ATOM     16  O   LIG d   1      -2.103  80.172 112.364  0.00  0.00    -0.276 OA
ATOM     17  H   LIG d   1       0.682  78.693 112.552  0.00  0.00     0.149 HD
ENDBRANCH   6  13
BRANCH   5  18
ATOM     18  N   LIG d   1      -0.050  80.325 109.434  0.00  0.00     0.381 N 
ATOM     19  H   LIG d   1      -0.310  81.181 108.988  0.00  0.00    -0.090 HD
ATOM     20  H   LIG d   1      -0.833  79.998 109.972  0.00  0.00    -0.090 HD
ATOM     21  H   LIG d   1       0.198  79.646 108.749  0.00  0.00    -0.090 HD
ENDBRANCH   5  18
BRANCH   3  22
ATOM     22  C   LIG d   1       3.864  82.969 110.228  0.00  0.00     0.382 C 
ATOM     23  O   LIG d   1       4.017  84.182 110.513  0.00  0.00    -0.241 OA
ATOM     24  O   LIG d   1       4.648  82.422 109.430  0.00  0.00    -0.241 OA
ENDBRANCH   3  22
TORSDOF 7
ENDMDL
MODEL 3
REMARK VINA RESULT:      -4.4      4.134      7.567
REMARK  7 active torsions:
REMARK  status: ('A' for Active; 'I' for Inactive)
REMARK    1  A    between atoms: C_2  and  C_3 
REMARK    2  A    between atoms: C_3  and  O_6 
REMARK    3  A    between atoms: C_3  and  C_4 
REMARK    4  A    between atoms: C_7  and  O_6 
REMARK    5  A    between atoms: C_9  and  C_10 
REMARK    6  A    between atoms: N_15  and  C_14 
REMARK    7  A    between atoms: N_20  and  C_19 
REMARK       I    between atoms: C_22  and  N_20 
ROOT
ATOM      1  C   LIG d   1      -0.650  77.802 114.829  0.00  0.00     0.161 C 
ATOM      2  C   LIG d   1      -1.764  76.947 114.797  0.00  0.00     0.016 C 
ATOM      3  C   LIG d   1      -2.254  76.264 115.934  0.00  0.00     0.038 C 
ATOM      4  C   LIG d   1      -1.751  76.511 117.221  0.00  0.00     0.028 C 
ATOM      5  C   LIG d   1      -0.301  76.983 117.224  0.00  0.00    -0.047 C 
ATOM      6  C   LIG d   1      -0.157  78.169 116.244  0.00  0.00     0.091 C 
ENDROOT
BRANCH   1   7
ATOM      7  O   LIG d   1      -0.928  78.995 114.070  0.00  0.00    -0.368 OA
BRANCH   7   8
ATOM      8  C   LIG d   1      -0.807  78.878 112.631  0.00  0.00     0.119 C 
BRANCH   8   9
ATOM      9  C   LIG d   1       0.066  80.050 112.142  0.00  0.00     0.028 C 
ATOM     10  C   LIG d   1       0.277  80.030 110.619  0.00  0.00     0.006 C 
ENDBRANCH   8   9
BRANCH   8  11
ATOM     11  C   LIG d   1      -2.161  79.065 111.940  0.00  0.00     0.028 C 
ATOM     12  C   LIG d   1      -2.660  77.785 111.250  0.00  0.00     0.006 C 
ENDBRANCH   8  11
ENDBRANCH   7   8
ENDBRANCH   1   7
BRANCH   6  13
ATOM     13  N   LIG d   1       1.248  78.638 116.124  0.00  0.00    -0.311 N 
ATOM     14  C   LIG d   1       1.652  79.851 116.498  0.00  0.00     0.210 C 
ATOM     15  C   LIG d   1       3.139  80.137 116.269  0.00  0.00     0.109 C 
ATOM     16  O   LIG d   1       0.926  80.705 117.028  0.00  0.00    -0.276 OA
ATOM     17  H   LIG d   1       1.911  77.997 115.732  0.00  0.00     0.149 HD
ENDBRANCH   6  13
BRANCH   5  18
ATOM     18  N   LIG d   1       0.050  77.334 118.613  0.00  0.00     0.381 N 
ATOM     19  H   LIG d   1       0.984  77.691 118.646  0.00  0.00    -0.090 HD
ATOM     20  H   LIG d   1       0.010  76.504 119.178  0.00  0.00    -0.090 HD
ATOM     21  H   LIG d   1      -0.586  78.014 118.964  0.00  0.00    -0.090 HD
ENDBRANCH   5  18
BRANCH   3  22
ATOM     22  C   LIG d   1      -3.232  75.293 115.785  0.00  0.00     0.382 C 
ATOM     23  O   LIG d   1      -3.468  74.810 114.651  0.00  0.00    -0.241 OA
ATOM     24  O   LIG d   1      -3.913  74.926 116.761  0.00  0.00    -0.241 OA
ENDBRANCH   3  22
TORSDOF 7
ENDMDL
MODEL 4
REMARK VINA RESULT:      -4.4      6.073      8.041
REMARK  7 active torsions:
REMARK  status: ('A' for Active; 'I' for Inactive)
REMARK    1  A    between atoms: C_2  and  C_3 
REMARK    2  A    between atoms: C_3  and  O_6 
REMARK    3  A    between atoms: C_3  and  C_4 
REMARK    4  A    between atoms: C_7  and  O_6 
REMARK    5  A    between atoms: C_9  and  C_10 
REMARK    6  A    between atoms: N_15  and  C_14 
REMARK    7  A    between atoms: N_20  and  C_19 
REMARK       I    between atoms: C_22  and  N_20 
ROOT
ATOM      1  C   LIG d   1      -1.486  77.466 116.316  0.00  0.00     0.161 C 
ATOM      2  C   LIG d   1      -2.311  78.053 115.342  0.00  0.00     0.016 C 
ATOM      3  C   LIG d   1      -2.226  77.748 113.964  0.00  0.00     0.038 C 
ATOM      4  C   LIG d   1      -1.405  76.718 113.482  0.00  0.00     0.028 C 
ATOM      5  C   LIG d   1      -0.190  76.448 114.363  0.00  0.00    -0.047 C 
ATOM      6  C   LIG d   1      -0.662  76.258 115.823  0.00  0.00     0.091 C 
ENDROOT
BRANCH   1   7
ATOM      7  O   LIG d   1      -2.273  77.099 117.466  0.00  0.00    -0.368 OA
BRANCH   7   8
ATOM      8  C   LIG d   1      -3.691  76.908 117.234  0.00  0.00     0.119 C 
BRANCH   8   9
ATOM      9  C   LIG d   1      -4.440  77.468 118.459  0.00  0.00     0.028 C 
ATOM     10  C   LIG d   1      -4.070  78.932 118.754  0.00  0.00     0.006 C 
ENDBRANCH   8   9
BRANCH   8  11
ATOM     11  C   LIG d   1      -4.052  75.420 117.184  0.00  0.00     0.028 C 
ATOM     12  C   LIG d   1      -4.232  74.900 115.749  0.00  0.00     0.006 C 
ENDBRANCH   8  11
ENDBRANCH   7   8
ENDBRANCH   1   7
BRANCH   6  13
ATOM     13  N   LIG d   1       0.473  76.074 116.766  0.00  0.00    -0.311 N 
ATOM     14  C   LIG d   1       0.514  75.108 117.682  0.00  0.00     0.210 C 
ATOM     15  C   LIG d   1       1.766  75.108 118.565  0.00  0.00     0.109 C 
ATOM     16  O   LIG d   1      -0.351  74.232 117.826  0.00  0.00    -0.276 OA
ATOM     17  H   LIG d   1       1.233  76.722 116.697  0.00  0.00     0.149 HD
ENDBRANCH   6  13
BRANCH   5  18
ATOM     18  N   LIG d   1       0.500  75.263 113.820  0.00  0.00     0.381 N 
ATOM     19  H   LIG d   1      -0.074  74.824 113.129  0.00  0.00    -0.090 HD
ATOM     20  H   LIG d   1       0.655  74.607 114.565  0.00  0.00    -0.090 HD
ATOM     21  H   LIG d   1       1.371  75.531 113.417  0.00  0.00    -0.090 HD
ENDBRANCH   5  18
BRANCH   3  22
ATOM     22  C   LIG d   1      -2.938  78.507 113.047  0.00  0.00     0.382 C 
ATOM     23  O   LIG d   1      -2.987  79.754 113.169  0.00  0.00    -0.241 OA
ATOM     24  O   LIG d   1      -3.568  77.956 112.125  0.00  0.00    -0.241 OA
ENDBRANCH   3  22
TORSDOF 7
ENDMDL
MODEL 5
REMARK VINA RESULT:      -4.4      6.300      7.869
REMARK  7 active torsions:
REMARK  status: ('A' for Active; 'I' for Inactive)
REMARK    1  A    between atoms: C_2  and  C_3 
REMARK    2  A    between atoms: C_3  and  O_6 
REMARK    3  A    between atoms: C_3  and  C_4 
REMARK    4  A    between atoms: C_7  and  O_6 
REMARK    5  A    between atoms: C_9  and  C_10 
REMARK    6  A    between atoms: N_15  and  C_14 
REMARK    7  A    between atoms: N_20  and  C_19 
REMARK       I    between atoms: C_22  and  N_20 
ROOT
ATOM      1  C   LIG d   1       0.031  77.842 116.385  0.00  0.00     0.161 C 
ATOM      2  C   LIG d   1      -1.004  78.265 115.534  0.00  0.00     0.016 C 
ATOM      3  C   LIG d   1      -1.649  77.412 114.609  0.00  0.00     0.038 C 
ATOM      4  C   LIG d   1      -1.403  76.031 114.578  0.00  0.00     0.028 C 
ATOM      5  C   LIG d   1      -0.009  75.653 115.068  0.00  0.00    -0.047 C 
ATOM      6  C   LIG d   1       0.236  76.314 116.444  0.00  0.00     0.091 C 
ENDROOT
BRANCH   1   7
ATOM      7  O   LIG d   1      -0.179  78.371 117.710  0.00  0.00    -0.368 OA
BRANCH   7   8
ATOM      8  C   LIG d   1      -1.551  78.670 118.067  0.00  0.00     0.119 C 
BRANCH   8   9
ATOM      9  C   LIG d   1      -1.538  79.957 118.913  0.00  0.00     0.028 C 
ATOM     10  C   LIG d   1      -2.907  80.256 119.548  0.00  0.00     0.006 C 
ENDBRANCH   8   9
BRANCH   8  11
ATOM     11  C   LIG d   1      -2.137  77.590 118.980  0.00  0.00     0.028 C 
ATOM     12  C   LIG d   1      -3.072  76.623 118.236  0.00  0.00     0.006 C 
ENDBRANCH   8  11
ENDBRANCH   7   8
ENDBRANCH   1   7
BRANCH   6  13
ATOM     13  N   LIG d   1       1.608  76.064 116.956  0.00  0.00    -0.311 N 
ATOM     14  C   LIG d   1       1.861  75.391 118.077  0.00  0.00     0.210 C 
ATOM     15  C   LIG d   1       3.345  75.264 118.435  0.00  0.00     0.109 C 
ATOM     16  O   LIG d   1       0.998  74.859 118.792  0.00  0.00    -0.276 OA
ATOM     17  H   LIG d   1       2.369  76.434 116.421  0.00  0.00     0.149 HD
ENDBRANCH   6  13
BRANCH   5  18
ATOM     18  N   LIG d   1       0.063  74.180 115.113  0.00  0.00     0.381 N 
ATOM     19  H   LIG d   1      -0.167  73.802 114.216  0.00  0.00    -0.090 HD
ATOM     20  H   LIG d   1      -0.609  73.842 115.779  0.00  0.00    -0.090 HD
ATOM     21  H   LIG d   1       0.979  73.892 115.378  0.00  0.00    -0.090 HD
ENDBRANCH   5  18
BRANCH   3  22
ATOM     22  C   LIG d   1      -2.523  77.947 113.675  0.00  0.00     0.382 C 
ATOM     23  O   LIG d   1      -2.867  77.267 112.678  0.00  0.00    -0.241 OA
ATOM     24  O   LIG d   1      -2.935  79.116 113.792  0.00  0.00    -0.241 OA
ENDBRANCH   3  22
TORSDOF 7
ENDMDL
MODEL 6
REMARK VINA RESULT:      -4.2      5.152      7.584
REMARK  7 active torsions:
REMARK  status: ('A' for Active; 'I' for Inactive)
REMARK    1  A    between atoms: C_2  and  C_3 
REMARK    2  A    between atoms: C_3  and  O_6 
REMARK    3  A    between atoms: C_3  and  C_4 
REMARK    4  A    between atoms: C_7  and  O_6 
REMARK    5  A    between atoms: C_9  and  C_10 
REMARK    6  A    between atoms: N_15  and  C_14 
REMARK    7  A    between atoms: N_20  and  C_19 
REMARK       I    between atoms: C_22  and  N_20 
ROOT
ATOM      1  C   LIG d   1      -1.239  77.629 116.569  0.00  0.00     0.161 C 
ATOM      2  C   LIG d   1      -0.809  76.912 117.699  0.00  0.00     0.016 C 
ATOM      3  C   LIG d   1      -0.006  75.751 117.624  0.00  0.00     0.038 C 
ATOM      4  C   LIG d   1       0.552  75.312 116.414  0.00  0.00     0.028 C 
ATOM      5  C   LIG d   1      -0.265  75.710 115.190  0.00  0.00    -0.047 C 
ATOM      6  C   LIG d   1      -0.548  77.229 115.249  0.00  0.00     0.091 C 
ENDROOT
BRANCH   1   7
ATOM      7  O   LIG d   1      -1.091  79.043 116.804  0.00  0.00    -0.368 OA
BRANCH   7   8
ATOM      8  C   LIG d   1      -0.080  79.428 117.767  0.00  0.00     0.119 C 
BRANCH   8   9
ATOM      9  C   LIG d   1      -0.645  80.603 118.588  0.00  0.00     0.028 C 
ATOM     10  C   LIG d   1      -1.923  80.223 119.354  0.00  0.00     0.006 C 
ENDBRANCH   8   9
BRANCH   8  11
ATOM     11  C   LIG d   1       1.169  79.981 117.074  0.00  0.00     0.028 C 
ATOM     12  C   LIG d   1       2.331  78.976 117.050  0.00  0.00     0.006 C 
ENDBRANCH   8  11
ENDBRANCH   7   8
ENDBRANCH   1   7
BRANCH   6  13
ATOM     13  N   LIG d   1      -1.415  77.687 114.131  0.00  0.00    -0.311 N 
ATOM     14  C   LIG d   1      -1.105  78.709 113.335  0.00  0.00     0.210 C 
ATOM     15  C   LIG d   1      -2.146  79.029 112.258  0.00  0.00     0.109 C 
ATOM     16  O   LIG d   1      -0.051  79.360 113.398  0.00  0.00    -0.276 OA
ATOM     17  H   LIG d   1      -2.275  77.195 113.990  0.00  0.00     0.149 HD
ENDBRANCH   6  13
BRANCH   5  18
ATOM     18  N   LIG d   1       0.499  75.310 113.994  0.00  0.00     0.381 N 
ATOM     19  H   LIG d   1      -0.007  74.613 113.485  0.00  0.00    -0.090 HD
ATOM     20  H   LIG d   1       1.375  74.913 114.286  0.00  0.00    -0.090 HD
ATOM     21  H   LIG d   1       0.663  76.103 113.413  0.00  0.00    -0.090 HD
ENDBRANCH   5  18
BRANCH   3  22
ATOM     22  C   LIG d   1       0.214  74.993 118.764  0.00  0.00     0.382 C 
ATOM     23  O   LIG d   1       1.317  75.061 119.359  0.00  0.00    -0.241 OA
ATOM     24  O   LIG d   1      -0.660  74.209 119.180  0.00  0.00    -0.241 OA
ENDBRANCH   3  22
TORSDOF 7
ENDMDL
MODEL 7
REMARK VINA RESULT:      -4.1      3.477      6.584
REMARK  7 active torsions:
REMARK  status: ('A' for Active; 'I' for Inactive)
REMARK    1  A    between atoms: C_2  and  C_3 
REMARK    2  A    between atoms: C_3  and  O_6 
REMARK    3  A    between atoms: C_3  and  C_4 
REMARK    4  A    between atoms: C_7  and  O_6 
REMARK    5  A    between atoms: C_9  and  C_10 
REMARK    6  A    between atoms: N_15  and  C_14 
REMARK    7  A    between atoms: N_20  and  C_19 
REMARK       I    between atoms: C_22  and  N_20 
ROOT
ATOM      1  C   LIG d   1      -0.721  78.315 113.897  0.00  0.00     0.161 C 
ATOM      2  C   LIG d   1      -1.919  77.822 113.355  0.00  0.00     0.016 C 
ATOM      3  C   LIG d   1      -2.882  77.115 114.111  0.00  0.00     0.038 C 
ATOM      4  C   LIG d   1      -2.781  76.984 115.504  0.00  0.00     0.028 C 
ATOM      5  C   LIG d   1      -1.344  77.026 116.014  0.00  0.00    -0.047 C 
ATOM      6  C   LIG d   1      -0.644  78.279 115.438  0.00  0.00     0.091 C 
ENDROOT
BRANCH   1   7
ATOM      7  O   LIG d   1      -0.480  79.652 113.415  0.00  0.00    -0.368 OA
BRANCH   7   8
ATOM      8  C   LIG d   1       0.520  79.784 112.376  0.00  0.00     0.119 C 
BRANCH   8   9
ATOM      9  C   LIG d   1       1.482  80.911 112.800  0.00  0.00     0.028 C 
ATOM     10  C   LIG d   1       2.184  81.567 111.599  0.00  0.00     0.006 C 
ENDBRANCH   8   9
BRANCH   8  11
ATOM     11  C   LIG d   1      -0.103  80.257 111.059  0.00  0.00     0.028 C 
ATOM     12  C   LIG d   1      -0.371  79.104 110.079  0.00  0.00     0.006 C 
ENDBRANCH   8  11
ENDBRANCH   7   8
ENDBRANCH   1   7
BRANCH   6  13
ATOM     13  N   LIG d   1       0.790  78.352 115.819  0.00  0.00    -0.311 N 
ATOM     14  C   LIG d   1       1.330  79.396 116.446  0.00  0.00     0.210 C 
ATOM     15  C   LIG d   1       2.831  79.276 116.728  0.00  0.00     0.109 C 
ATOM     16  O   LIG d   1       0.701  80.397 116.823  0.00  0.00    -0.276 OA
ATOM     17  H   LIG d   1       1.367  77.570 115.579  0.00  0.00     0.149 HD
ENDBRANCH   6  13
BRANCH   5  18
ATOM     18  N   LIG d   1      -1.394  77.018 117.488  0.00  0.00     0.381 N 
ATOM     19  H   LIG d   1      -1.783  77.878 117.819  0.00  0.00    -0.090 HD
ATOM     20  H   LIG d   1      -0.457  76.938 117.844  0.00  0.00    -0.090 HD
ATOM     21  H   LIG d   1      -1.945  76.252 117.806  0.00  0.00    -0.090 HD
ENDBRANCH   5  18
BRANCH   3  22
ATOM     22  C   LIG d   1      -3.942  76.495 113.467  0.00  0.00     0.382 C 
ATOM     23  O   LIG d   1      -4.440  77.013 112.438  0.00  0.00    -0.241 OA
ATOM     24  O   LIG d   1      -4.435  75.447 113.926  0.00  0.00    -0.241 OA
ENDBRANCH   3  22
TORSDOF 7
ENDMDL
MODEL 8
REMARK VINA RESULT:      -4.1      6.319      7.701
REMARK  7 active torsions:
REMARK  status: ('A' for Active; 'I' for Inactive)
REMARK    1  A    between atoms: C_2  and  C_3 
REMARK    2  A    between atoms: C_3  and  O_6 
REMARK    3  A    between atoms: C_3  and  C_4 
REMARK    4  A    between atoms: C_7  and  O_6 
REMARK    5  A    between atoms: C_9  and  C_10 
REMARK    6  A    between atoms: N_15  and  C_14 
REMARK    7  A    between atoms: N_20  and  C_19 
REMARK       I    between atoms: C_22  and  N_20 
ROOT
ATOM      1  C   LIG d   1      -1.384  77.262 115.851  0.00  0.00     0.161 C 
ATOM      2  C   LIG d   1      -1.854  77.698 114.600  0.00  0.00     0.016 C 
ATOM      3  C   LIG d   1      -2.977  77.133 113.952  0.00  0.00     0.038 C 
ATOM      4  C   LIG d   1      -3.801  76.190 114.583  0.00  0.00     0.028 C 
ATOM      5  C   LIG d   1      -3.075  75.359 115.636  0.00  0.00    -0.047 C 
ATOM      6  C   LIG d   1      -2.336  76.311 116.604  0.00  0.00     0.091 C 
ENDROOT
BRANCH   1   7
ATOM      7  O   LIG d   1      -1.058  78.400 116.673  0.00  0.00    -0.368 OA
BRANCH   7   8
ATOM      8  C   LIG d   1       0.328  78.822 116.658  0.00  0.00     0.119 C 
BRANCH   8   9
ATOM      9  C   LIG d   1       1.195  77.571 116.902  0.00  0.00     0.028 C 
ATOM     10  C   LIG d   1       1.829  77.560 118.303  0.00  0.00     0.006 C 
ENDBRANCH   8   9
BRANCH   8  11
ATOM     11  C   LIG d   1       0.637  79.763 117.826  0.00  0.00     0.028 C 
ATOM     12  C   LIG d   1      -0.630  80.296 118.513  0.00  0.00     0.006 C 
ENDBRANCH   8  11
ENDBRANCH   7   8
ENDBRANCH   1   7
BRANCH   6  13
ATOM     13  N   LIG d   1      -1.531  75.577 117.616  0.00  0.00    -0.311 N 
ATOM     14  C   LIG d   1      -1.508  75.898 118.908  0.00  0.00     0.210 C 
ATOM     15  C   LIG d   1      -0.596  75.025 119.775  0.00  0.00     0.109 C 
ATOM     16  O   LIG d   1      -2.181  76.804 119.424  0.00  0.00    -0.276 OA
ATOM     17  H   LIG d   1      -0.979  74.808 117.289  0.00  0.00     0.149 HD
ENDBRANCH   6  13
BRANCH   5  18
ATOM     18  N   LIG d   1      -4.081  74.516 116.309  0.00  0.00     0.381 N 
ATOM     19  H   LIG d   1      -4.748  74.186 115.641  0.00  0.00    -0.090 HD
ATOM     20  H   LIG d   1      -4.566  75.071 116.992  0.00  0.00    -0.090 HD
ATOM     21  H   LIG d   1      -3.635  73.743 116.754  0.00  0.00    -0.090 HD
ENDBRANCH   5  18
BRANCH   3  22
ATOM     22  C   LIG d   1      -3.261  77.484 112.641  0.00  0.00     0.382 C 
ATOM     23  O   LIG d   1      -4.342  77.124 112.116  0.00  0.00    -0.241 OA
ATOM     24  O   LIG d   1      -2.430  78.117 111.962  0.00  0.00    -0.241 OA
ENDBRANCH   3  22
TORSDOF 7
ENDMDL
MODEL 9
REMARK VINA RESULT:      -4.0      5.243      6.696
REMARK  7 active torsions:
REMARK  status: ('A' for Active; 'I' for Inactive)
REMARK    1  A    between atoms: C_2  and  C_3 
REMARK    2  A    between atoms: C_3  and  O_6 
REMARK    3  A    between atoms: C_3  and  C_4 
REMARK    4  A    between atoms: C_7  and  O_6 
REMARK    5  A    between atoms: C_9  and  C_10 
REMARK    6  A    between atoms: N_15  and  C_14 
REMARK    7  A    between atoms: N_20  and  C_19 
REMARK       I    between atoms: C_22  and  N_20 
ROOT
ATOM      1  C   LIG d   1      -0.799  77.890 115.131  0.00  0.00     0.161 C 
ATOM      2  C   LIG d   1      -1.135  78.276 113.823  0.00  0.00     0.016 C 
ATOM      3  C   LIG d   1      -2.278  77.801 113.140  0.00  0.00     0.038 C 
ATOM      4  C   LIG d   1      -3.250  77.017 113.779  0.00  0.00     0.028 C 
ATOM      5  C   LIG d   1      -2.699  76.193 114.937  0.00  0.00    -0.047 C 
ATOM      6  C   LIG d   1      -1.906  77.123 115.883  0.00  0.00     0.091 C 
ENDROOT
BRANCH   1   7
ATOM      7  O   LIG d   1      -0.383  79.043 115.890  0.00  0.00    -0.368 OA
BRANCH   7   8
ATOM      8  C   LIG d   1       0.901  78.941 116.553  0.00  0.00     0.119 C 
BRANCH   8   9
ATOM      9  C   LIG d   1       0.671  79.217 118.052  0.00  0.00     0.028 C 
ATOM     10  C   LIG d   1      -0.697  79.865 118.326  0.00  0.00     0.006 C 
ENDBRANCH   8   9
BRANCH   8  11
ATOM     11  C   LIG d   1       1.860  80.037 116.081  0.00  0.00     0.028 C 
ATOM     12  C   LIG d   1       3.019  80.277 117.062  0.00  0.00     0.006 C 
ENDBRANCH   8  11
ENDBRANCH   7   8
ENDBRANCH   1   7
BRANCH   6  13
ATOM     13  N   LIG d   1      -1.262  76.382 116.999  0.00  0.00    -0.311 N 
ATOM     14  C   LIG d   1      -1.808  76.257 118.208  0.00  0.00     0.210 C 
ATOM     15  C   LIG d   1      -0.967  75.470 119.218  0.00  0.00     0.109 C 
ATOM     16  O   LIG d   1      -2.922  76.695 118.529  0.00  0.00    -0.276 OA
ATOM     17  H   LIG d   1      -0.369  75.968 116.816  0.00  0.00     0.149 HD
ENDBRANCH   6  13
BRANCH   5  18
ATOM     18  N   LIG d   1      -3.841  75.533 115.598  0.00  0.00     0.381 N 
ATOM     19  H   LIG d   1      -3.790  75.678 116.587  0.00  0.00    -0.090 HD
ATOM     20  H   LIG d   1      -3.792  74.545 115.421  0.00  0.00    -0.090 HD
ATOM     21  H   LIG d   1      -4.697  75.899 115.245  0.00  0.00    -0.090 HD
ENDBRANCH   5  18
BRANCH   3  22
ATOM     22  C   LIG d   1      -2.436  78.076 111.790  0.00  0.00     0.382 C 
ATOM     23  O   LIG d   1      -1.810  79.029 111.267  0.00  0.00    -0.241 OA
ATOM     24  O   LIG d   1      -3.230  77.411 111.099  0.00  0.00    -0.241 OA
ENDBRANCH   3  22
TORSDOF 7
ENDMDL
