MODEL 1
REMARK VINA RESULT:      -4.9      0.000      0.000
REMARK  7 active torsions:
REMARK  status: ('A' for Active; 'I' for Inactive)
REMARK    1  A    between atoms: C_2  and  C_3 
REMARK    2  A    between atoms: C_3  and  O_6 
REMARK    3  A    between atoms: C_3  and  C_4 
REMARK    4  A    between atoms: C_7  and  O_6 
REMARK    5  A    between atoms: C_9  and  C_10 
REMARK    6  A    between atoms: N_15  and  C_14 
REMARK    7  A    between atoms: N_20  and  C_19 
REMARK       I    between atoms: C_22  and  N_20 
ROOT
ATOM      1  C   LIG d   1       1.822  81.680 112.561  0.00  0.00     0.161 C 
ATOM      2  C   LIG d   1       2.785  82.388 111.823  0.00  0.00     0.016 C 
ATOM      3  C   LIG d   1       2.776  82.474 110.412  0.00  0.00     0.038 C 
ATOM      4  C   LIG d   1       1.710  81.981 109.646  0.00  0.00     0.028 C 
ATOM      5  C   LIG d   1       0.973  80.821 110.309  0.00  0.00    -0.047 C 
ATOM      6  C   LIG d   1       0.590  81.229 111.750  0.00  0.00     0.091 C 
ENDROOT
BRANCH   1   7
ATOM      7  O   LIG d   1       1.413  82.458 113.703  0.00  0.00    -0.368 OA
BRANCH   7   8
ATOM      8  C   LIG d   1       2.463  82.835 114.627  0.00  0.00     0.119 C 
BRANCH   8   9
ATOM      9  C   LIG d   1       2.354  81.909 115.854  0.00  0.00     0.028 C 
ATOM     10  C   LIG d   1       3.478  80.860 115.899  0.00  0.00     0.006 C 
ENDBRANCH   8   9
BRANCH   8  11
ATOM     11  C   LIG d   1       2.248  84.252 115.168  0.00  0.00     0.028 C 
ATOM     12  C   LIG d   1       2.207  84.303 116.704  0.00  0.00     0.006 C 
ENDBRANCH   8  11
ENDBRANCH   7   8
ENDBRANCH   1   7
BRANCH   6  13
ATOM     13  N   LIG d   1      -0.060  80.122 112.498  0.00  0.00    -0.311 N 
ATOM     14  C   LIG d   1      -1.380  79.956 112.562  0.00  0.00     0.210 C 
ATOM     15  C   LIG d   1      -1.842  78.761 113.404  0.00  0.00     0.109 C 
ATOM     16  O   LIG d   1      -2.212  80.665 111.976  0.00  0.00    -0.276 OA
ATOM     17  H   LIG d   1       0.541  79.481 112.978  0.00  0.00     0.149 HD
ENDBRANCH   6  13
BRANCH   5  18
ATOM     18  N   LIG d   1      -0.195  80.497 109.469  0.00  0.00     0.381 N 
ATOM     19  H   LIG d   1       0.102  80.004 108.651  0.00  0.00    -0.090 HD
ATOM     20  H   LIG d   1      -0.635  81.352 109.180  0.00  0.00    -0.090 HD
ATOM     21  H   LIG d   1      -0.841  79.940 109.984  0.00  0.00    -0.090 HD
ENDBRANCH   5  18
BRANCH   3  22
ATOM     22  C   LIG d   1       3.863  83.025 109.750  0.00  0.00     0.382 C 
ATOM     23  O   LIG d   1       4.835  82.300 109.430  0.00  0.00    -0.241 OA
ATOM     24  O   LIG d   1       3.902  84.246 109.507  0.00  0.00    -0.241 OA
ENDBRANCH   3  22
TORSDOF 7
ENDMDL
MODEL 2
REMARK VINA RESULT:      -4.5      6.299      8.008
REMARK  7 active torsions:
REMARK  status: ('A' for Active; 'I' for Inactive)
REMARK    1  A    between atoms: C_2  and  C_3 
REMARK    2  A    between atoms: C_3  and  O_6 
REMARK    3  A    between atoms: C_3  and  C_4 
REMARK    4  A    between atoms: C_7  and  O_6 
REMARK    5  A    between atoms: C_9  and  C_10 
REMARK    6  A    between atoms: N_15  and  C_14 
REMARK    7  A    between atoms: N_20  and  C_19 
REMARK       I    between atoms: C_22  and  N_20 
ROOT
ATOM      1  C   LIG d   1      -0.901  78.061 116.902  0.00  0.00     0.161 C 
ATOM      2  C   LIG d   1      -1.686  78.568 115.853  0.00  0.00     0.016 C 
ATOM      3  C   LIG d   1      -2.138  77.782 114.769  0.00  0.00     0.038 C 
ATOM      4  C   LIG d   1      -1.961  76.390 114.738  0.00  0.00     0.028 C 
ATOM      5  C   LIG d   1      -0.741  75.917 115.522  0.00  0.00    -0.047 C 
ATOM      6  C   LIG d   1      -0.792  76.523 116.943  0.00  0.00     0.091 C 
ENDROOT
BRANCH   1   7
ATOM      7  O   LIG d   1      -1.388  78.562 118.163  0.00  0.00    -0.368 OA
BRANCH   7   8
ATOM      8  C   LIG d   1      -2.782  78.954 118.198  0.00  0.00     0.119 C 
BRANCH   8   9
ATOM      9  C   LIG d   1      -2.868  80.293 118.956  0.00  0.00     0.028 C 
ATOM     10  C   LIG d   1      -1.584  81.129 118.818  0.00  0.00     0.006 C 
ENDBRANCH   8   9
BRANCH   8  11
ATOM     11  C   LIG d   1      -3.617  77.969 119.020  0.00  0.00     0.028 C 
ATOM     12  C   LIG d   1      -4.249  76.861 118.161  0.00  0.00     0.006 C 
ENDBRANCH   8  11
ENDBRANCH   7   8
ENDBRANCH   1   7
BRANCH   6  13
ATOM     13  N   LIG d   1       0.408  76.178 117.749  0.00  0.00    -0.311 N 
ATOM     14  C   LIG d   1       0.346  75.579 118.937  0.00  0.00     0.210 C 
ATOM     15  C   LIG d   1       1.701  75.332 119.608  0.00  0.00     0.109 C 
ATOM     16  O   LIG d   1      -0.700  75.199 119.484  0.00  0.00    -0.276 OA
ATOM     17  H   LIG d   1       1.300  76.422 117.366  0.00  0.00     0.149 HD
ENDBRANCH   6  13
BRANCH   5  18
ATOM     18  N   LIG d   1      -0.756  74.442 115.521  0.00  0.00     0.381 N 
ATOM     19  H   LIG d   1      -0.112  74.097 116.204  0.00  0.00    -0.090 HD
ATOM     20  H   LIG d   1      -0.462  74.115 114.617  0.00  0.00    -0.090 HD
ATOM     21  H   LIG d   1      -1.673  74.110 115.720  0.00  0.00    -0.090 HD
ENDBRANCH   5  18
BRANCH   3  22
ATOM     22  C   LIG d   1      -2.741  78.393 113.681  0.00  0.00     0.382 C 
ATOM     23  O   LIG d   1      -3.285  77.695 112.792  0.00  0.00    -0.241 OA
ATOM     24  O   LIG d   1      -2.708  79.632 113.554  0.00  0.00    -0.241 OA
ENDBRANCH   3  22
TORSDOF 7
ENDMDL
MODEL 3
REMARK VINA RESULT:      -4.2      6.450      8.000
REMARK  7 active torsions:
REMARK  status: ('A' for Active; 'I' for Inactive)
REMARK    1  A    between atoms: C_2  and  C_3 
REMARK    2  A    between atoms: C_3  and  O_6 
REMARK    3  A    between atoms: C_3  and  C_4 
REMARK    4  A    between atoms: C_7  and  O_6 
REMARK    5  A    between atoms: C_9  and  C_10 
REMARK    6  A    between atoms: N_15  and  C_14 
REMARK    7  A    between atoms: N_20  and  C_19 
REMARK       I    between atoms: C_22  and  N_20 
ROOT
ATOM      1  C   LIG d   1      -2.114  77.434 116.920  0.00  0.00     0.161 C 
ATOM      2  C   LIG d   1      -2.186  77.885 115.592  0.00  0.00     0.016 C 
ATOM      3  C   LIG d   1      -2.884  77.196 114.573  0.00  0.00     0.038 C 
ATOM      4  C   LIG d   1      -3.689  76.081 114.850  0.00  0.00     0.028 C 
ATOM      5  C   LIG d   1      -3.241  75.300 116.080  0.00  0.00    -0.047 C 
ATOM      6  C   LIG d   1      -3.079  76.280 117.265  0.00  0.00     0.091 C 
ENDROOT
BRANCH   1   7
ATOM      7  O   LIG d   1      -2.314  78.540 117.823  0.00  0.00    -0.368 OA
BRANCH   7   8
ATOM      8  C   LIG d   1      -1.167  78.928 118.619  0.00  0.00     0.119 C 
BRANCH   8   9
ATOM      9  C   LIG d   1      -0.938  80.436 118.396  0.00  0.00     0.028 C 
ATOM     10  C   LIG d   1      -2.045  81.297 119.026  0.00  0.00     0.006 C 
ENDBRANCH   8   9
BRANCH   8  11
ATOM     11  C   LIG d   1       0.111  78.246 118.124  0.00  0.00     0.028 C 
ATOM     12  C   LIG d   1       1.077  79.221 117.432  0.00  0.00     0.006 C 
ENDBRANCH   8  11
ENDBRANCH   7   8
ENDBRANCH   1   7
BRANCH   6  13
ATOM     13  N   LIG d   1      -2.561  75.611 118.487  0.00  0.00    -0.311 N 
ATOM     14  C   LIG d   1      -1.452  74.873 118.505  0.00  0.00     0.210 C 
ATOM     15  C   LIG d   1      -1.108  74.256 119.864  0.00  0.00     0.109 C 
ATOM     16  O   LIG d   1      -0.704  74.697 117.532  0.00  0.00    -0.276 OA
ATOM     17  H   LIG d   1      -3.090  75.727 119.329  0.00  0.00     0.149 HD
ENDBRANCH   6  13
BRANCH   5  18
ATOM     18  N   LIG d   1      -4.246  74.250 116.332  0.00  0.00     0.381 N 
ATOM     19  H   LIG d   1      -4.448  74.202 117.310  0.00  0.00    -0.090 HD
ATOM     20  H   LIG d   1      -3.869  73.364 116.044  0.00  0.00    -0.090 HD
ATOM     21  H   LIG d   1      -5.079  74.446 115.822  0.00  0.00    -0.090 HD
ENDBRANCH   5  18
BRANCH   3  22
ATOM     22  C   LIG d   1      -2.748  77.599 113.253  0.00  0.00     0.382 C 
ATOM     23  O   LIG d   1      -2.056  76.918 112.458  0.00  0.00    -0.241 OA
ATOM     24  O   LIG d   1      -3.271  78.659 112.859  0.00  0.00    -0.241 OA
ENDBRANCH   3  22
TORSDOF 7
ENDMDL
MODEL 4
REMARK VINA RESULT:      -4.2      5.964      8.679
REMARK  7 active torsions:
REMARK  status: ('A' for Active; 'I' for Inactive)
REMARK    1  A    between atoms: C_2  and  C_3 
REMARK    2  A    between atoms: C_3  and  O_6 
REMARK    3  A    between atoms: C_3  and  C_4 
REMARK    4  A    between atoms: C_7  and  O_6 
REMARK    5  A    between atoms: C_9  and  C_10 
REMARK    6  A    between atoms: N_15  and  C_14 
REMARK    7  A    between atoms: N_20  and  C_19 
REMARK       I    between atoms: C_22  and  N_20 
ROOT
ATOM      1  C   LIG d   1      -2.215  77.524 117.859  0.00  0.00     0.161 C 
ATOM      2  C   LIG d   1      -2.975  76.493 117.281  0.00  0.00     0.016 C 
ATOM      3  C   LIG d   1      -3.123  76.324 115.885  0.00  0.00     0.038 C 
ATOM      4  C   LIG d   1      -2.392  77.090 114.964  0.00  0.00     0.028 C 
ATOM      5  C   LIG d   1      -2.005  78.467 115.493  0.00  0.00    -0.047 C 
ATOM      6  C   LIG d   1      -1.322  78.302 116.870  0.00  0.00     0.091 C 
ENDROOT
BRANCH   1   7
ATOM      7  O   LIG d   1      -1.424  77.000 118.943  0.00  0.00    -0.368 OA
BRANCH   7   8
ATOM      8  C   LIG d   1      -0.174  76.368 118.572  0.00  0.00     0.119 C 
BRANCH   8   9
ATOM      9  C   LIG d   1      -0.319  74.858 118.843  0.00  0.00     0.028 C 
ATOM     10  C   LIG d   1      -1.383  74.554 119.912  0.00  0.00     0.006 C 
ENDBRANCH   8   9
BRANCH   8  11
ATOM     11  C   LIG d   1       0.974  76.833 119.472  0.00  0.00     0.028 C 
ATOM     12  C   LIG d   1       2.299  76.115 119.168  0.00  0.00     0.006 C 
ENDBRANCH   8  11
ENDBRANCH   7   8
ENDBRANCH   1   7
BRANCH   6  13
ATOM     13  N   LIG d   1      -0.987  79.607 117.496  0.00  0.00    -0.311 N 
ATOM     14  C   LIG d   1       0.259  80.061 117.623  0.00  0.00     0.210 C 
ATOM     15  C   LIG d   1       0.383  81.421 118.317  0.00  0.00     0.109 C 
ATOM     16  O   LIG d   1       1.269  79.481 117.199  0.00  0.00    -0.276 OA
ATOM     17  H   LIG d   1      -1.750  80.157 117.840  0.00  0.00     0.149 HD
ENDBRANCH   6  13
BRANCH   5  18
ATOM     18  N   LIG d   1      -1.133  79.102 114.487  0.00  0.00     0.381 N 
ATOM     19  H   LIG d   1      -0.367  78.495 114.271  0.00  0.00    -0.090 HD
ATOM     20  H   LIG d   1      -0.762  79.954 114.869  0.00  0.00    -0.090 HD
ATOM     21  H   LIG d   1      -1.653  79.299 113.660  0.00  0.00    -0.090 HD
ENDBRANCH   5  18
BRANCH   3  22
ATOM     22  C   LIG d   1      -4.040  75.406 115.398  0.00  0.00     0.382 C 
ATOM     23  O   LIG d   1      -4.439  74.469 116.130  0.00  0.00    -0.241 OA
ATOM     24  O   LIG d   1      -4.439  75.476 114.220  0.00  0.00    -0.241 OA
ENDBRANCH   3  22
TORSDOF 7
ENDMDL
MODEL 5
REMARK VINA RESULT:      -3.9      5.740      7.679
REMARK  7 active torsions:
REMARK  status: ('A' for Active; 'I' for Inactive)
REMARK    1  A    between atoms: C_2  and  C_3 
REMARK    2  A    between atoms: C_3  and  O_6 
REMARK    3  A    between atoms: C_3  and  C_4 
REMARK    4  A    between atoms: C_7  and  O_6 
REMARK    5  A    between atoms: C_9  and  C_10 
REMARK    6  A    between atoms: N_15  and  C_14 
REMARK    7  A    between atoms: N_20  and  C_19 
REMARK       I    between atoms: C_22  and  N_20 
ROOT
ATOM      1  C   LIG d   1      -0.451  78.006 116.904  0.00  0.00     0.161 C 
ATOM      2  C   LIG d   1      -1.319  78.359 115.857  0.00  0.00     0.016 C 
ATOM      3  C   LIG d   1      -2.023  77.412 115.078  0.00  0.00     0.038 C 
ATOM      4  C   LIG d   1      -2.023  76.045 115.393  0.00  0.00     0.028 C 
ATOM      5  C   LIG d   1      -0.765  75.593 116.126  0.00  0.00    -0.047 C 
ATOM      6  C   LIG d   1      -0.524  76.526 117.334  0.00  0.00     0.091 C 
ENDROOT
BRANCH   1   7
ATOM      7  O   LIG d   1      -0.675  78.869 118.036  0.00  0.00    -0.368 OA
BRANCH   7   8
ATOM      8  C   LIG d   1       0.404  79.777 118.370  0.00  0.00     0.119 C 
BRANCH   8   9
ATOM      9  C   LIG d   1       1.549  79.523 117.369  0.00  0.00     0.028 C 
ATOM     10  C   LIG d   1       1.949  80.793 116.601  0.00  0.00     0.006 C 
ENDBRANCH   8   9
BRANCH   8  11
ATOM     11  C   LIG d   1       0.993  79.460 119.748  0.00  0.00     0.028 C 
ATOM     12  C   LIG d   1       2.452  78.984 119.678  0.00  0.00     0.006 C 
ENDBRANCH   8  11
ENDBRANCH   7   8
ENDBRANCH   1   7
BRANCH   6  13
ATOM     13  N   LIG d   1       0.734  76.205 118.057  0.00  0.00    -0.311 N 
ATOM     14  C   LIG d   1       0.782  75.423 119.134  0.00  0.00     0.210 C 
ATOM     15  C   LIG d   1       2.178  75.238 119.737  0.00  0.00     0.109 C 
ATOM     16  O   LIG d   1      -0.194  74.839 119.627  0.00  0.00    -0.276 OA
ATOM     17  H   LIG d   1       1.579  76.613 117.706  0.00  0.00     0.149 HD
ENDBRANCH   6  13
BRANCH   5  18
ATOM     18  N   LIG d   1      -0.958  74.183 116.514  0.00  0.00     0.381 N 
ATOM     19  H   LIG d   1      -1.002  73.609 115.696  0.00  0.00    -0.090 HD
ATOM     20  H   LIG d   1      -1.829  74.098 117.007  0.00  0.00    -0.090 HD
ATOM     21  H   LIG d   1      -0.207  73.884 117.098  0.00  0.00    -0.090 HD
ENDBRANCH   5  18
BRANCH   3  22
ATOM     22  C   LIG d   1      -2.706  77.827 113.945  0.00  0.00     0.382 C 
ATOM     23  O   LIG d   1      -2.971  79.042 113.782  0.00  0.00    -0.241 OA
ATOM     24  O   LIG d   1      -3.100  76.995 113.105  0.00  0.00    -0.241 OA
ENDBRANCH   3  22
TORSDOF 7
ENDMDL
MODEL 6
REMARK VINA RESULT:      -3.8      5.361      6.625
REMARK  7 active torsions:
REMARK  status: ('A' for Active; 'I' for Inactive)
REMARK    1  A    between atoms: C_2  and  C_3 
REMARK    2  A    between atoms: C_3  and  O_6 
REMARK    3  A    between atoms: C_3  and  C_4 
REMARK    4  A    between atoms: C_7  and  O_6 
REMARK    5  A    between atoms: C_9  and  C_10 
REMARK    6  A    between atoms: N_15  and  C_14 
REMARK    7  A    between atoms: N_20  and  C_19 
REMARK       I    between atoms: C_22  and  N_20 
ROOT
ATOM      1  C   LIG d   1       0.726  79.923 117.916  0.00  0.00     0.161 C 
ATOM      2  C   LIG d   1       1.522  81.039 117.609  0.00  0.00     0.016 C 
ATOM      3  C   LIG d   1       2.771  80.947 116.953  0.00  0.00     0.038 C 
ATOM      4  C   LIG d   1       3.241  79.737 116.421  0.00  0.00     0.028 C 
ATOM      5  C   LIG d   1       2.710  78.507 117.150  0.00  0.00    -0.047 C 
ATOM      6  C   LIG d   1       1.170  78.607 117.245  0.00  0.00     0.091 C 
ENDROOT
BRANCH   1   7
ATOM      7  O   LIG d   1      -0.653  80.205 117.602  0.00  0.00    -0.368 OA
BRANCH   7   8
ATOM      8  C   LIG d   1      -1.570  80.228 118.724  0.00  0.00     0.119 C 
BRANCH   8   9
ATOM      9  C   LIG d   1      -2.892  79.592 118.252  0.00  0.00     0.028 C 
ATOM     10  C   LIG d   1      -2.797  79.029 116.825  0.00  0.00     0.006 C 
ENDBRANCH   8   9
BRANCH   8  11
ATOM     11  C   LIG d   1      -1.929  81.663 119.121  0.00  0.00     0.028 C 
ATOM     12  C   LIG d   1      -3.388  81.807 119.579  0.00  0.00     0.006 C 
ENDBRANCH   8  11
ENDBRANCH   7   8
ENDBRANCH   1   7
BRANCH   6  13
ATOM     13  N   LIG d   1       0.576  77.485 118.018  0.00  0.00    -0.311 N 
ATOM     14  C   LIG d   1      -0.152  76.518 117.463  0.00  0.00     0.210 C 
ATOM     15  C   LIG d   1      -0.687  75.468 118.443  0.00  0.00     0.109 C 
ATOM     16  O   LIG d   1      -0.380  76.411 116.248  0.00  0.00    -0.276 OA
ATOM     17  H   LIG d   1       0.737  77.476 119.006  0.00  0.00     0.149 HD
ENDBRANCH   6  13
BRANCH   5  18
ATOM     18  N   LIG d   1       3.167  77.317 116.408  0.00  0.00     0.381 N 
ATOM     19  H   LIG d   1       3.706  77.599 115.613  0.00  0.00    -0.090 HD
ATOM     20  H   LIG d   1       2.364  76.810 116.080  0.00  0.00    -0.090 HD
ATOM     21  H   LIG d   1       3.717  76.736 117.001  0.00  0.00    -0.090 HD
ENDBRANCH   5  18
BRANCH   3  22
ATOM     22  C   LIG d   1       3.582  82.067 116.859  0.00  0.00     0.382 C 
ATOM     23  O   LIG d   1       4.552  82.074 116.063  0.00  0.00    -0.241 OA
ATOM     24  O   LIG d   1       3.384  83.054 117.593  0.00  0.00    -0.241 OA
ENDBRANCH   3  22
TORSDOF 7
ENDMDL
MODEL 7
REMARK VINA RESULT:      -3.8      5.710      7.517
REMARK  7 active torsions:
REMARK  status: ('A' for Active; 'I' for Inactive)
REMARK    1  A    between atoms: C_2  and  C_3 
REMARK    2  A    between atoms: C_3  and  O_6 
REMARK    3  A    between atoms: C_3  and  C_4 
REMARK    4  A    between atoms: C_7  and  O_6 
REMARK    5  A    between atoms: C_9  and  C_10 
REMARK    6  A    between atoms: N_15  and  C_14 
REMARK    7  A    between atoms: N_20  and  C_19 
REMARK       I    between atoms: C_22  and  N_20 
ROOT
ATOM      1  C   LIG d   1      -1.661  77.970 117.125  0.00  0.00     0.161 C 
ATOM      2  C   LIG d   1      -2.037  78.586 115.920  0.00  0.00     0.016 C 
ATOM      3  C   LIG d   1      -1.988  77.937 114.665  0.00  0.00     0.038 C 
ATOM      4  C   LIG d   1      -1.700  76.569 114.549  0.00  0.00     0.028 C 
ATOM      5  C   LIG d   1      -0.826  76.036 115.679  0.00  0.00    -0.047 C 
ATOM      6  C   LIG d   1      -1.450  76.444 117.033  0.00  0.00     0.091 C 
ENDROOT
BRANCH   1   7
ATOM      7  O   LIG d   1      -2.621  78.282 118.154  0.00  0.00    -0.368 OA
BRANCH   7   8
ATOM      8  C   LIG d   1      -2.204  79.260 119.139  0.00  0.00     0.119 C 
BRANCH   8   9
ATOM      9  C   LIG d   1      -3.052  80.528 118.919  0.00  0.00     0.028 C 
ATOM     10  C   LIG d   1      -4.440  80.212 118.335  0.00  0.00     0.006 C 
ENDBRANCH   8   9
BRANCH   8  11
ATOM     11  C   LIG d   1      -0.754  79.697 118.912  0.00  0.00     0.028 C 
ATOM     12  C   LIG d   1      -0.612  81.215 118.725  0.00  0.00     0.006 C 
ENDBRANCH   8  11
ENDBRANCH   7   8
ENDBRANCH   1   7
BRANCH   6  13
ATOM     13  N   LIG d   1      -0.613  76.034 118.190  0.00  0.00    -0.311 N 
ATOM     14  C   LIG d   1       0.658  76.403 118.342  0.00  0.00     0.210 C 
ATOM     15  C   LIG d   1       1.345  75.854 119.597  0.00  0.00     0.109 C 
ATOM     16  O   LIG d   1       1.272  77.160 117.575  0.00  0.00    -0.276 OA
ATOM     17  H   LIG d   1      -1.041  75.446 118.877  0.00  0.00     0.149 HD
ENDBRANCH   6  13
BRANCH   5  18
ATOM     18  N   LIG d   1      -0.719  74.575 115.508  0.00  0.00     0.381 N 
ATOM     19  H   LIG d   1      -1.280  74.282 114.733  0.00  0.00    -0.090 HD
ATOM     20  H   LIG d   1      -1.067  74.124 116.337  0.00  0.00    -0.090 HD
ATOM     21  H   LIG d   1       0.231  74.317 115.356  0.00  0.00    -0.090 HD
ENDBRANCH   5  18
BRANCH   3  22
ATOM     22  C   LIG d   1      -2.189  78.668 113.505  0.00  0.00     0.382 C 
ATOM     23  O   LIG d   1      -1.468  79.665 113.258  0.00  0.00    -0.241 OA
ATOM     24  O   LIG d   1      -3.113  78.371 112.723  0.00  0.00    -0.241 OA
ENDBRANCH   3  22
TORSDOF 7
ENDMDL
MODEL 8
REMARK VINA RESULT:      -3.7      6.664      7.955
REMARK  7 active torsions:
REMARK  status: ('A' for Active; 'I' for Inactive)
REMARK    1  A    between atoms: C_2  and  C_3 
REMARK    2  A    between atoms: C_3  and  O_6 
REMARK    3  A    between atoms: C_3  and  C_4 
REMARK    4  A    between atoms: C_7  and  O_6 
REMARK    5  A    between atoms: C_9  and  C_10 
REMARK    6  A    between atoms: N_15  and  C_14 
REMARK    7  A    between atoms: N_20  and  C_19 
REMARK       I    between atoms: C_22  and  N_20 
ROOT
ATOM      1  C   LIG d   1      -0.271  78.635 117.248  0.00  0.00     0.161 C 
ATOM      2  C   LIG d   1      -1.591  78.851 116.819  0.00  0.00     0.016 C 
ATOM      3  C   LIG d   1      -2.490  77.805 116.508  0.00  0.00     0.038 C 
ATOM      4  C   LIG d   1      -2.175  76.460 116.752  0.00  0.00     0.028 C 
ATOM      5  C   LIG d   1      -0.678  76.171 116.707  0.00  0.00    -0.047 C 
ATOM      6  C   LIG d   1       0.054  77.175 117.626  0.00  0.00     0.091 C 
ENDROOT
BRANCH   1   7
ATOM      7  O   LIG d   1       0.037  79.517 118.345  0.00  0.00    -0.368 OA
BRANCH   7   8
ATOM      8  C   LIG d   1       0.695  80.760 117.998  0.00  0.00     0.119 C 
BRANCH   8   9
ATOM      9  C   LIG d   1       2.173  80.634 118.417  0.00  0.00     0.028 C 
ATOM     10  C   LIG d   1       2.332  80.248 119.897  0.00  0.00     0.006 C 
ENDBRANCH   8   9
BRANCH   8  11
ATOM     11  C   LIG d   1       0.141  81.931 118.815  0.00  0.00     0.028 C 
ATOM     12  C   LIG d   1      -1.351  81.774 119.146  0.00  0.00     0.006 C 
ENDBRANCH   8  11
ENDBRANCH   7   8
ENDBRANCH   1   7
BRANCH   6  13
ATOM     13  N   LIG d   1       1.531  77.016 117.575  0.00  0.00    -0.311 N 
ATOM     14  C   LIG d   1       2.280  76.776 118.650  0.00  0.00     0.210 C 
ATOM     15  C   LIG d   1       3.784  76.667 118.380  0.00  0.00     0.109 C 
ATOM     16  O   LIG d   1       1.838  76.611 119.798  0.00  0.00    -0.276 OA
ATOM     17  H   LIG d   1       1.969  77.104 116.679  0.00  0.00     0.149 HD
ENDBRANCH   6  13
BRANCH   5  18
ATOM     18  N   LIG d   1      -0.483  74.766 117.113  0.00  0.00     0.381 N 
ATOM     19  H   LIG d   1      -0.695  74.662 118.085  0.00  0.00    -0.090 HD
ATOM     20  H   LIG d   1       0.480  74.518 116.971  0.00  0.00    -0.090 HD
ATOM     21  H   LIG d   1      -1.071  74.170 116.572  0.00  0.00    -0.090 HD
ENDBRANCH   5  18
BRANCH   3  22
ATOM     22  C   LIG d   1      -3.706  78.099 115.909  0.00  0.00     0.382 C 
ATOM     23  O   LIG d   1      -4.371  79.090 116.294  0.00  0.00    -0.241 OA
ATOM     24  O   LIG d   1      -4.167  77.359 115.019  0.00  0.00    -0.241 OA
ENDBRANCH   3  22
TORSDOF 7
ENDMDL
MODEL 9
REMARK VINA RESULT:      -3.7      3.897      6.273
REMARK  7 active torsions:
REMARK  status: ('A' for Active; 'I' for Inactive)
REMARK    1  A    between atoms: C_2  and  C_3 
REMARK    2  A    between atoms: C_3  and  O_6 
REMARK    3  A    between atoms: C_3  and  C_4 
REMARK    4  A    between atoms: C_7  and  O_6 
REMARK    5  A    between atoms: C_9  and  C_10 
REMARK    6  A    between atoms: N_15  and  C_14 
REMARK    7  A    between atoms: N_20  and  C_19 
REMARK       I    between atoms: C_22  and  N_20 
ROOT
ATOM      1  C   LIG d   1       2.683  80.589 116.271  0.00  0.00     0.161 C 
ATOM      2  C   LIG d   1       3.795  79.885 115.780  0.00  0.00     0.016 C 
ATOM      3  C   LIG d   1       4.189  78.616 116.265  0.00  0.00     0.038 C 
ATOM      4  C   LIG d   1       3.403  77.894 117.176  0.00  0.00     0.028 C 
ATOM      5  C   LIG d   1       2.545  78.781 118.072  0.00  0.00    -0.047 C 
ATOM      6  C   LIG d   1       1.751  79.769 117.187  0.00  0.00     0.091 C 
ENDROOT
BRANCH   1   7
ATOM      7  O   LIG d   1       1.939  81.154 115.174  0.00  0.00    -0.368 OA
BRANCH   7   8
ATOM      8  C   LIG d   1       2.687  81.995 114.262  0.00  0.00     0.119 C 
BRANCH   8   9
ATOM      9  C   LIG d   1       2.835  83.378 114.925  0.00  0.00     0.028 C 
ATOM     10  C   LIG d   1       1.920  84.437 114.286  0.00  0.00     0.006 C 
ENDBRANCH   8   9
BRANCH   8  11
ATOM     11  C   LIG d   1       1.906  82.247 112.969  0.00  0.00     0.028 C 
ATOM     12  C   LIG d   1       2.449  81.440 111.779  0.00  0.00     0.006 C 
ENDBRANCH   8  11
ENDBRANCH   7   8
ENDBRANCH   1   7
BRANCH   6  13
ATOM     13  N   LIG d   1       0.949  80.729 117.989  0.00  0.00    -0.311 N 
ATOM     14  C   LIG d   1      -0.338  80.546 118.280  0.00  0.00     0.210 C 
ATOM     15  C   LIG d   1      -0.981  81.668 119.101  0.00  0.00     0.109 C 
ATOM     16  O   LIG d   1      -0.999  79.546 117.964  0.00  0.00    -0.276 OA
ATOM     17  H   LIG d   1       1.415  81.554 118.312  0.00  0.00     0.149 HD
ENDBRANCH   6  13
BRANCH   5  18
ATOM     18  N   LIG d   1       1.678  77.898 118.874  0.00  0.00     0.381 N 
ATOM     19  H   LIG d   1       0.812  78.360 119.070  0.00  0.00    -0.090 HD
ATOM     20  H   LIG d   1       2.134  77.700 119.747  0.00  0.00    -0.090 HD
ATOM     21  H   LIG d   1       1.506  77.049 118.381  0.00  0.00    -0.090 HD
ENDBRANCH   5  18
BRANCH   3  22
ATOM     22  C   LIG d   1       5.402  78.075 115.868  0.00  0.00     0.382 C 
ATOM     23  O   LIG d   1       6.059  77.360 116.662  0.00  0.00    -0.241 OA
ATOM     24  O   LIG d   1       5.868  78.329 114.741  0.00  0.00    -0.241 OA
ENDBRANCH   3  22
TORSDOF 7
ENDMDL
