MODEL 1
REMARK VINA RESULT:      -6.0      0.000      0.000
REMARK  7 active torsions:
REMARK  status: ('A' for Active; 'I' for Inactive)
REMARK    1  A    between atoms: C_2  and  C_3 
REMARK    2  A    between atoms: C_3  and  O_6 
REMARK    3  A    between atoms: C_3  and  C_4 
REMARK    4  A    between atoms: C_7  and  O_6 
REMARK    5  A    between atoms: C_9  and  C_10 
REMARK    6  A    between atoms: N_15  and  C_14 
REMARK    7  A    between atoms: N_20  and  C_19 
REMARK       I    between atoms: C_22  and  N_20 
ROOT
ATOM      1  C   LIG d   1       0.437  82.934 112.147  0.00  0.00     0.161 C 
ATOM      2  C   LIG d   1      -0.789  82.643 112.768  0.00  0.00     0.016 C 
ATOM      3  C   LIG d   1      -1.385  81.361 112.752  0.00  0.00     0.038 C 
ATOM      4  C   LIG d   1      -0.716  80.239 112.239  0.00  0.00     0.028 C 
ATOM      5  C   LIG d   1       0.300  80.583 111.155  0.00  0.00    -0.047 C 
ATOM      6  C   LIG d   1       1.234  81.699 111.678  0.00  0.00     0.091 C 
ENDROOT
BRANCH   1   7
ATOM      7  O   LIG d   1       1.245  83.750 113.019  0.00  0.00    -0.368 OA
BRANCH   7   8
ATOM      8  C   LIG d   1       2.186  83.042 113.863  0.00  0.00     0.119 C 
BRANCH   8   9
ATOM      9  C   LIG d   1       1.526  82.862 115.243  0.00  0.00     0.028 C 
ATOM     10  C   LIG d   1       1.266  81.384 115.581  0.00  0.00     0.006 C 
ENDBRANCH   8   9
BRANCH   8  11
ATOM     11  C   LIG d   1       3.442  83.880 114.121  0.00  0.00     0.028 C 
ATOM     12  C   LIG d   1       4.073  84.421 112.828  0.00  0.00     0.006 C 
ENDBRANCH   8  11
ENDBRANCH   7   8
ENDBRANCH   1   7
BRANCH   6  13
ATOM     13  N   LIG d   1       2.205  82.154 110.650  0.00  0.00    -0.311 N 
ATOM     14  C   LIG d   1       3.443  81.674 110.548  0.00  0.00     0.210 C 
ATOM     15  C   LIG d   1       4.287  82.295 109.430  0.00  0.00     0.109 C 
ATOM     16  O   LIG d   1       3.913  80.771 111.257  0.00  0.00    -0.276 OA
ATOM     17  H   LIG d   1       1.897  82.862 110.013  0.00  0.00     0.149 HD
ENDBRANCH   6  13
BRANCH   5  18
ATOM     18  N   LIG d   1       1.019  79.343 110.808  0.00  0.00     0.381 N 
ATOM     19  H   LIG d   1       0.467  78.797 110.177  0.00  0.00    -0.090 HD
ATOM     20  H   LIG d   1       1.163  78.806 111.646  0.00  0.00    -0.090 HD
ATOM     21  H   LIG d   1       1.896  79.562 110.390  0.00  0.00    -0.090 HD
ENDBRANCH   5  18
BRANCH   3  22
ATOM     22  C   LIG d   1      -2.681  81.199 113.218  0.00  0.00     0.382 C 
ATOM     23  O   LIG d   1      -3.394  82.205 113.448  0.00  0.00    -0.241 OA
ATOM     24  O   LIG d   1      -3.130  80.062 113.454  0.00  0.00    -0.241 OA
ENDBRANCH   3  22
TORSDOF 7
ENDMDL
MODEL 2
REMARK VINA RESULT:      -5.3      0.807      1.687
REMARK  7 active torsions:
REMARK  status: ('A' for Active; 'I' for Inactive)
REMARK    1  A    between atoms: C_2  and  C_3 
REMARK    2  A    between atoms: C_3  and  O_6 
REMARK    3  A    between atoms: C_3  and  C_4 
REMARK    4  A    between atoms: C_7  and  O_6 
REMARK    5  A    between atoms: C_9  and  C_10 
REMARK    6  A    between atoms: N_15  and  C_14 
REMARK    7  A    between atoms: N_20  and  C_19 
REMARK       I    between atoms: C_22  and  N_20 
ROOT
ATOM      1  C   LIG d   1       0.564  82.810 112.420  0.00  0.00     0.161 C 
ATOM      2  C   LIG d   1      -0.670  82.516 113.022  0.00  0.00     0.016 C 
ATOM      3  C   LIG d   1      -1.345  81.286 112.853  0.00  0.00     0.038 C 
ATOM      4  C   LIG d   1      -0.755  80.202 112.187  0.00  0.00     0.028 C 
ATOM      5  C   LIG d   1       0.268  80.620 111.137  0.00  0.00    -0.047 C 
ATOM      6  C   LIG d   1       1.276  81.600 111.780  0.00  0.00     0.091 C 
ENDROOT
BRANCH   1   7
ATOM      7  O   LIG d   1       1.432  83.455 113.373  0.00  0.00    -0.368 OA
BRANCH   7   8
ATOM      8  C   LIG d   1       1.515  82.837 114.680  0.00  0.00     0.119 C 
BRANCH   8   9
ATOM      9  C   LIG d   1       1.930  83.930 115.684  0.00  0.00     0.028 C 
ATOM     10  C   LIG d   1       3.199  84.680 115.243  0.00  0.00     0.006 C 
ENDBRANCH   8   9
BRANCH   8  11
ATOM     11  C   LIG d   1       2.633  81.792 114.732  0.00  0.00     0.028 C 
ATOM     12  C   LIG d   1       2.640  80.991 116.044  0.00  0.00     0.006 C 
ENDBRANCH   8  11
ENDBRANCH   7   8
ENDBRANCH   1   7
BRANCH   6  13
ATOM     13  N   LIG d   1       2.262  82.124 110.800  0.00  0.00    -0.311 N 
ATOM     14  C   LIG d   1       3.484  81.616 110.645  0.00  0.00     0.210 C 
ATOM     15  C   LIG d   1       4.348  82.318 109.593  0.00  0.00     0.109 C 
ATOM     16  O   LIG d   1       3.922  80.629 111.256  0.00  0.00    -0.276 OA
ATOM     17  H   LIG d   1       1.978  82.904 110.240  0.00  0.00     0.149 HD
ENDBRANCH   6  13
BRANCH   5  18
ATOM     18  N   LIG d   1       0.903  79.394 110.619  0.00  0.00     0.381 N 
ATOM     19  H   LIG d   1       0.931  78.698 111.338  0.00  0.00    -0.090 HD
ATOM     20  H   LIG d   1       1.848  79.606 110.349  0.00  0.00    -0.090 HD
ATOM     21  H   LIG d   1       0.394  79.051 109.834  0.00  0.00    -0.090 HD
ENDBRANCH   5  18
BRANCH   3  22
ATOM     22  C   LIG d   1      -2.643  81.144 113.320  0.00  0.00     0.382 C 
ATOM     23  O   LIG d   1      -3.099  80.002 113.570  0.00  0.00    -0.241 OA
ATOM     24  O   LIG d   1      -3.379  82.141 113.452  0.00  0.00    -0.241 OA
ENDBRANCH   3  22
TORSDOF 7
ENDMDL
MODEL 3
REMARK VINA RESULT:      -5.2      1.923      5.035
REMARK  7 active torsions:
REMARK  status: ('A' for Active; 'I' for Inactive)
REMARK    1  A    between atoms: C_2  and  C_3 
REMARK    2  A    between atoms: C_3  and  O_6 
REMARK    3  A    between atoms: C_3  and  C_4 
REMARK    4  A    between atoms: C_7  and  O_6 
REMARK    5  A    between atoms: C_9  and  C_10 
REMARK    6  A    between atoms: N_15  and  C_14 
REMARK    7  A    between atoms: N_20  and  C_19 
REMARK       I    between atoms: C_22  and  N_20 
ROOT
ATOM      1  C   LIG d   1       1.537  82.378 113.259  0.00  0.00     0.161 C 
ATOM      2  C   LIG d   1       2.693  83.038 112.807  0.00  0.00     0.016 C 
ATOM      3  C   LIG d   1       3.003  83.214 111.439  0.00  0.00     0.038 C 
ATOM      4  C   LIG d   1       2.098  82.872 110.423  0.00  0.00     0.028 C 
ATOM      5  C   LIG d   1       1.145  81.748 110.814  0.00  0.00    -0.047 C 
ATOM      6  C   LIG d   1       0.484  82.098 112.167  0.00  0.00     0.091 C 
ENDROOT
BRANCH   1   7
ATOM      7  O   LIG d   1       0.947  83.118 114.346  0.00  0.00    -0.368 OA
BRANCH   7   8
ATOM      8  C   LIG d   1       1.258  82.646 115.681  0.00  0.00     0.119 C 
BRANCH   8   9
ATOM      9  C   LIG d   1       0.029  81.874 116.197  0.00  0.00     0.028 C 
ATOM     10  C   LIG d   1       0.245  80.351 116.186  0.00  0.00     0.006 C 
ENDBRANCH   8   9
BRANCH   8  11
ATOM     11  C   LIG d   1       1.443  83.813 116.655  0.00  0.00     0.028 C 
ATOM     12  C   LIG d   1       0.570  83.683 117.913  0.00  0.00     0.006 C 
ENDBRANCH   8  11
ENDBRANCH   7   8
ENDBRANCH   1   7
BRANCH   6  13
ATOM     13  N   LIG d   1      -0.400  81.011 112.664  0.00  0.00    -0.311 N 
ATOM     14  C   LIG d   1      -1.693  81.184 112.933  0.00  0.00     0.210 C 
ATOM     15  C   LIG d   1      -2.417  79.938 113.454  0.00  0.00     0.109 C 
ATOM     16  O   LIG d   1      -2.317  82.242 112.760  0.00  0.00    -0.276 OA
ATOM     17  H   LIG d   1       0.016  80.112 112.803  0.00  0.00     0.149 HD
ENDBRANCH   6  13
BRANCH   5  18
ATOM     18  N   LIG d   1       0.170  81.589 109.718  0.00  0.00     0.381 N 
ATOM     19  H   LIG d   1      -0.068  82.486 109.344  0.00  0.00    -0.090 HD
ATOM     20  H   LIG d   1      -0.666  81.169 110.085  0.00  0.00    -0.090 HD
ATOM     21  H   LIG d   1       0.553  81.013 109.002  0.00  0.00    -0.090 HD
ENDBRANCH   5  18
BRANCH   3  22
ATOM     22  C   LIG d   1       4.249  83.700 111.074  0.00  0.00     0.382 C 
ATOM     23  O   LIG d   1       4.536  83.843 109.861  0.00  0.00    -0.241 OA
ATOM     24  O   LIG d   1       5.106  83.956 111.941  0.00  0.00    -0.241 OA
ENDBRANCH   3  22
TORSDOF 7
ENDMDL
MODEL 4
REMARK VINA RESULT:      -5.1      2.414      4.042
REMARK  7 active torsions:
REMARK  status: ('A' for Active; 'I' for Inactive)
REMARK    1  A    between atoms: C_2  and  C_3 
REMARK    2  A    between atoms: C_3  and  O_6 
REMARK    3  A    between atoms: C_3  and  C_4 
REMARK    4  A    between atoms: C_7  and  O_6 
REMARK    5  A    between atoms: C_9  and  C_10 
REMARK    6  A    between atoms: N_15  and  C_14 
REMARK    7  A    between atoms: N_20  and  C_19 
REMARK       I    between atoms: C_22  and  N_20 
ROOT
ATOM      1  C   LIG d   1       0.001  80.465 111.856  0.00  0.00     0.161 C 
ATOM      2  C   LIG d   1      -0.983  79.468 111.752  0.00  0.00     0.016 C 
ATOM      3  C   LIG d   1      -1.753  79.017 112.849  0.00  0.00     0.038 C 
ATOM      4  C   LIG d   1      -1.695  79.644 114.103  0.00  0.00     0.028 C 
ATOM      5  C   LIG d   1      -0.356  80.318 114.382  0.00  0.00    -0.047 C 
ATOM      6  C   LIG d   1       0.001  81.238 113.192  0.00  0.00     0.091 C 
ENDROOT
BRANCH   1   7
ATOM      7  O   LIG d   1      -0.111  81.380 110.748  0.00  0.00    -0.368 OA
BRANCH   7   8
ATOM      8  C   LIG d   1       0.892  81.251 109.711  0.00  0.00     0.119 C 
BRANCH   8   9
ATOM      9  C   LIG d   1       2.001  80.329 110.252  0.00  0.00     0.028 C 
ATOM     10  C   LIG d   1       2.130  79.028 109.441  0.00  0.00     0.006 C 
ENDBRANCH   8   9
BRANCH   8  11
ATOM     11  C   LIG d   1       1.579  82.591 109.430  0.00  0.00     0.028 C 
ATOM     12  C   LIG d   1       3.101  82.533 109.631  0.00  0.00     0.006 C 
ENDBRANCH   8  11
ENDBRANCH   7   8
ENDBRANCH   1   7
BRANCH   6  13
ATOM     13  N   LIG d   1       1.336  81.872 113.346  0.00  0.00    -0.311 N 
ATOM     14  C   LIG d   1       1.576  83.152 113.068  0.00  0.00     0.210 C 
ATOM     15  C   LIG d   1       3.027  83.598 113.277  0.00  0.00     0.109 C 
ATOM     16  O   LIG d   1       0.719  83.968 112.699  0.00  0.00    -0.276 OA
ATOM     17  H   LIG d   1       2.083  81.289 113.670  0.00  0.00     0.149 HD
ENDBRANCH   6  13
BRANCH   5  18
ATOM     18  N   LIG d   1      -0.482  81.046 115.659  0.00  0.00     0.381 N 
ATOM     19  H   LIG d   1      -0.908  81.937 115.500  0.00  0.00    -0.090 HD
ATOM     20  H   LIG d   1       0.437  81.199 116.037  0.00  0.00    -0.090 HD
ATOM     21  H   LIG d   1      -1.030  80.517 116.301  0.00  0.00    -0.090 HD
ENDBRANCH   5  18
BRANCH   3  22
ATOM     22  C   LIG d   1      -2.563  77.901 112.707  0.00  0.00     0.382 C 
ATOM     23  O   LIG d   1      -3.608  77.969 112.016  0.00  0.00    -0.241 OA
ATOM     24  O   LIG d   1      -2.286  76.840 113.297  0.00  0.00    -0.241 OA
ENDBRANCH   3  22
TORSDOF 7
ENDMDL
MODEL 5
REMARK VINA RESULT:      -5.0      2.026      4.963
REMARK  7 active torsions:
REMARK  status: ('A' for Active; 'I' for Inactive)
REMARK    1  A    between atoms: C_2  and  C_3 
REMARK    2  A    between atoms: C_3  and  O_6 
REMARK    3  A    between atoms: C_3  and  C_4 
REMARK    4  A    between atoms: C_7  and  O_6 
REMARK    5  A    between atoms: C_9  and  C_10 
REMARK    6  A    between atoms: N_15  and  C_14 
REMARK    7  A    between atoms: N_20  and  C_19 
REMARK       I    between atoms: C_22  and  N_20 
ROOT
ATOM      1  C   LIG d   1       0.655  80.648 113.061  0.00  0.00     0.161 C 
ATOM      2  C   LIG d   1       1.681  81.533 112.691  0.00  0.00     0.016 C 
ATOM      3  C   LIG d   1       2.009  81.827 111.347  0.00  0.00     0.038 C 
ATOM      4  C   LIG d   1       1.228  81.367 110.276  0.00  0.00     0.028 C 
ATOM      5  C   LIG d   1       0.492  80.067 110.578  0.00  0.00    -0.047 C 
ATOM      6  C   LIG d   1      -0.279  80.223 111.908  0.00  0.00     0.091 C 
ENDROOT
BRANCH   1   7
ATOM      7  O   LIG d   1      -0.110  81.212 114.144  0.00  0.00    -0.368 OA
BRANCH   7   8
ATOM      8  C   LIG d   1       0.254  80.774 115.477  0.00  0.00     0.119 C 
BRANCH   8   9
ATOM      9  C   LIG d   1      -0.886  79.878 115.997  0.00  0.00     0.028 C 
ATOM     10  C   LIG d   1      -2.118  80.689 116.433  0.00  0.00     0.006 C 
ENDBRANCH   8   9
BRANCH   8  11
ATOM     11  C   LIG d   1       0.319  81.954 116.452  0.00  0.00     0.028 C 
ATOM     12  C   LIG d   1       1.244  83.080 115.963  0.00  0.00     0.006 C 
ENDBRANCH   8  11
ENDBRANCH   7   8
ENDBRANCH   1   7
BRANCH   6  13
ATOM     13  N   LIG d   1      -0.960  78.968 112.320  0.00  0.00    -0.311 N 
ATOM     14  C   LIG d   1      -2.216  78.926 112.760  0.00  0.00     0.210 C 
ATOM     15  C   LIG d   1      -2.717  77.532 113.152  0.00  0.00     0.109 C 
ATOM     16  O   LIG d   1      -2.973  79.905 112.833  0.00  0.00    -0.276 OA
ATOM     17  H   LIG d   1      -0.428  78.121 112.264  0.00  0.00     0.149 HD
ENDBRANCH   6  13
BRANCH   5  18
ATOM     18  N   LIG d   1      -0.388  79.776 109.430  0.00  0.00     0.381 N 
ATOM     19  H   LIG d   1      -1.120  80.457 109.384  0.00  0.00    -0.090 HD
ATOM     20  H   LIG d   1      -0.807  78.872 109.562  0.00  0.00    -0.090 HD
ATOM     21  H   LIG d   1       0.139  79.786 108.585  0.00  0.00    -0.090 HD
ENDBRANCH   5  18
BRANCH   3  22
ATOM     22  C   LIG d   1       3.153  82.556 111.063  0.00  0.00     0.382 C 
ATOM     23  O   LIG d   1       3.066  83.776 110.780  0.00  0.00    -0.241 OA
ATOM     24  O   LIG d   1       4.268  82.001 111.042  0.00  0.00    -0.241 OA
ENDBRANCH   3  22
TORSDOF 7
ENDMDL
MODEL 6
REMARK VINA RESULT:      -4.9      1.836      4.896
REMARK  7 active torsions:
REMARK  status: ('A' for Active; 'I' for Inactive)
REMARK    1  A    between atoms: C_2  and  C_3 
REMARK    2  A    between atoms: C_3  and  O_6 
REMARK    3  A    between atoms: C_3  and  C_4 
REMARK    4  A    between atoms: C_7  and  O_6 
REMARK    5  A    between atoms: C_9  and  C_10 
REMARK    6  A    between atoms: N_15  and  C_14 
REMARK    7  A    between atoms: N_20  and  C_19 
REMARK       I    between atoms: C_22  and  N_20 
ROOT
ATOM      1  C   LIG d   1       1.127  81.379 112.985  0.00  0.00     0.161 C 
ATOM      2  C   LIG d   1       2.111  81.082 112.027  0.00  0.00     0.016 C 
ATOM      3  C   LIG d   1       1.880  80.254 110.904  0.00  0.00     0.038 C 
ATOM      4  C   LIG d   1       0.598  79.786 110.580  0.00  0.00     0.028 C 
ATOM      5  C   LIG d   1      -0.319  79.643 111.790  0.00  0.00    -0.047 C 
ATOM      6  C   LIG d   1      -0.306  80.967 112.588  0.00  0.00     0.091 C 
ENDROOT
BRANCH   1   7
ATOM      7  O   LIG d   1       1.172  82.781 113.314  0.00  0.00    -0.368 OA
BRANCH   7   8
ATOM      8  C   LIG d   1       1.599  83.106 114.660  0.00  0.00     0.119 C 
BRANCH   8   9
ATOM      9  C   LIG d   1       2.945  83.850 114.552  0.00  0.00     0.028 C 
ATOM     10  C   LIG d   1       3.976  83.348 115.577  0.00  0.00     0.006 C 
ENDBRANCH   8   9
BRANCH   8  11
ATOM     11  C   LIG d   1       1.898  81.842 115.470  0.00  0.00     0.028 C 
ATOM     12  C   LIG d   1       0.939  81.654 116.657  0.00  0.00     0.006 C 
ENDBRANCH   8  11
ENDBRANCH   7   8
ENDBRANCH   1   7
BRANCH   6  13
ATOM     13  N   LIG d   1      -1.112  80.886 113.834  0.00  0.00    -0.311 N 
ATOM     14  C   LIG d   1      -2.367  81.325 113.926  0.00  0.00     0.210 C 
ATOM     15  C   LIG d   1      -3.008  81.163 115.307  0.00  0.00     0.109 C 
ATOM     16  O   LIG d   1      -3.019  81.803 112.986  0.00  0.00    -0.276 OA
ATOM     17  H   LIG d   1      -0.671  80.483 114.637  0.00  0.00     0.149 HD
ENDBRANCH   6  13
BRANCH   5  18
ATOM     18  N   LIG d   1      -1.660  79.281 111.293  0.00  0.00     0.381 N 
ATOM     19  H   LIG d   1      -2.003  80.000 110.688  0.00  0.00    -0.090 HD
ATOM     20  H   LIG d   1      -2.286  79.200 112.075  0.00  0.00    -0.090 HD
ATOM     21  H   LIG d   1      -1.618  78.415 110.801  0.00  0.00    -0.090 HD
ENDBRANCH   5  18
BRANCH   3  22
ATOM     22  C   LIG d   1       2.947  79.854 110.114  0.00  0.00     0.382 C 
ATOM     23  O   LIG d   1       3.921  80.625 109.940  0.00  0.00    -0.241 OA
ATOM     24  O   LIG d   1       2.927  78.750 109.538  0.00  0.00    -0.241 OA
ENDBRANCH   3  22
TORSDOF 7
ENDMDL
MODEL 7
REMARK VINA RESULT:      -4.7      3.317      5.537
REMARK  7 active torsions:
REMARK  status: ('A' for Active; 'I' for Inactive)
REMARK    1  A    between atoms: C_2  and  C_3 
REMARK    2  A    between atoms: C_3  and  O_6 
REMARK    3  A    between atoms: C_3  and  C_4 
REMARK    4  A    between atoms: C_7  and  O_6 
REMARK    5  A    between atoms: C_9  and  C_10 
REMARK    6  A    between atoms: N_15  and  C_14 
REMARK    7  A    between atoms: N_20  and  C_19 
REMARK       I    between atoms: C_22  and  N_20 
ROOT
ATOM      1  C   LIG d   1      -0.146  80.026 115.077  0.00  0.00     0.161 C 
ATOM      2  C   LIG d   1      -0.111  81.316 114.520  0.00  0.00     0.016 C 
ATOM      3  C   LIG d   1      -0.689  81.639 113.271  0.00  0.00     0.038 C 
ATOM      4  C   LIG d   1      -1.476  80.723 112.558  0.00  0.00     0.028 C 
ATOM      5  C   LIG d   1      -1.115  79.268 112.837  0.00  0.00    -0.047 C 
ATOM      6  C   LIG d   1      -1.096  79.040 114.366  0.00  0.00     0.091 C 
ENDROOT
BRANCH   1   7
ATOM      7  O   LIG d   1      -0.466  80.108 116.479  0.00  0.00    -0.368 OA
BRANCH   7   8
ATOM      8  C   LIG d   1      -1.107  81.332 116.917  0.00  0.00     0.119 C 
BRANCH   8   9
ATOM      9  C   LIG d   1      -0.284  81.890 118.094  0.00  0.00     0.028 C 
ATOM     10  C   LIG d   1       0.382  83.235 117.759  0.00  0.00     0.006 C 
ENDBRANCH   8   9
BRANCH   8  11
ATOM     11  C   LIG d   1      -2.500  81.058 117.490  0.00  0.00     0.028 C 
ATOM     12  C   LIG d   1      -3.569  80.882 116.399  0.00  0.00     0.006 C 
ENDBRANCH   8  11
ENDBRANCH   7   8
ENDBRANCH   1   7
BRANCH   6  13
ATOM     13  N   LIG d   1      -0.669  77.664 114.729  0.00  0.00    -0.311 N 
ATOM     14  C   LIG d   1      -1.521  76.655 114.906  0.00  0.00     0.210 C 
ATOM     15  C   LIG d   1      -0.872  75.323 115.296  0.00  0.00     0.109 C 
ATOM     16  O   LIG d   1      -2.748  76.729 114.746  0.00  0.00    -0.276 OA
ATOM     17  H   LIG d   1       0.313  77.507 114.848  0.00  0.00     0.149 HD
ENDBRANCH   6  13
BRANCH   5  18
ATOM     18  N   LIG d   1      -2.100  78.422 112.138  0.00  0.00     0.381 N 
ATOM     19  H   LIG d   1      -2.959  78.409 112.651  0.00  0.00    -0.090 HD
ATOM     20  H   LIG d   1      -1.747  77.483 112.091  0.00  0.00    -0.090 HD
ATOM     21  H   LIG d   1      -2.259  78.772 111.219  0.00  0.00    -0.090 HD
ENDBRANCH   5  18
BRANCH   3  22
ATOM     22  C   LIG d   1      -0.446  82.881 112.703  0.00  0.00     0.382 C 
ATOM     23  O   LIG d   1      -1.164  83.289 111.758  0.00  0.00    -0.241 OA
ATOM     24  O   LIG d   1       0.509  83.579 113.093  0.00  0.00    -0.241 OA
ENDBRANCH   3  22
TORSDOF 7
ENDMDL
MODEL 8
REMARK VINA RESULT:      -4.5      2.029      4.930
REMARK  7 active torsions:
REMARK  status: ('A' for Active; 'I' for Inactive)
REMARK    1  A    between atoms: C_2  and  C_3 
REMARK    2  A    between atoms: C_3  and  O_6 
REMARK    3  A    between atoms: C_3  and  C_4 
REMARK    4  A    between atoms: C_7  and  O_6 
REMARK    5  A    between atoms: C_9  and  C_10 
REMARK    6  A    between atoms: N_15  and  C_14 
REMARK    7  A    between atoms: N_20  and  C_19 
REMARK       I    between atoms: C_22  and  N_20 
ROOT
ATOM      1  C   LIG d   1       0.802  81.189 113.979  0.00  0.00     0.161 C 
ATOM      2  C   LIG d   1       1.801  81.250 112.993  0.00  0.00     0.016 C 
ATOM      3  C   LIG d   1       1.646  80.714 111.694  0.00  0.00     0.038 C 
ATOM      4  C   LIG d   1       0.417  80.210 111.241  0.00  0.00     0.028 C 
ATOM      5  C   LIG d   1      -0.466  79.670 112.361  0.00  0.00    -0.047 C 
ATOM      6  C   LIG d   1      -0.584  80.743 113.468  0.00  0.00     0.091 C 
ENDROOT
BRANCH   1   7
ATOM      7  O   LIG d   1       0.703  82.459 114.653  0.00  0.00    -0.368 OA
BRANCH   7   8
ATOM      8  C   LIG d   1       1.359  82.550 115.941  0.00  0.00     0.119 C 
BRANCH   8   9
ATOM      9  C   LIG d   1       0.261  82.544 117.022  0.00  0.00     0.028 C 
ATOM     10  C   LIG d   1       0.367  83.747 117.974  0.00  0.00     0.006 C 
ENDBRANCH   8   9
BRANCH   8  11
ATOM     11  C   LIG d   1       2.082  83.891 116.105  0.00  0.00     0.028 C 
ATOM     12  C   LIG d   1       3.458  83.913 115.421  0.00  0.00     0.006 C 
ENDBRANCH   8  11
ENDBRANCH   7   8
ENDBRANCH   1   7
BRANCH   6  13
ATOM     13  N   LIG d   1      -1.363  80.264 114.640  0.00  0.00    -0.311 N 
ATOM     14  C   LIG d   1      -2.588  80.696 114.932  0.00  0.00     0.210 C 
ATOM     15  C   LIG d   1      -3.204  80.088 116.196  0.00  0.00     0.109 C 
ATOM     16  O   LIG d   1      -3.237  81.501 114.246  0.00  0.00    -0.276 OA
ATOM     17  H   LIG d   1      -0.924  79.587 115.233  0.00  0.00     0.149 HD
ENDBRANCH   6  13
BRANCH   5  18
ATOM     18  N   LIG d   1      -1.766  79.306 111.767  0.00  0.00     0.381 N 
ATOM     19  H   LIG d   1      -1.909  79.823 110.923  0.00  0.00    -0.090 HD
ATOM     20  H   LIG d   1      -2.497  79.548 112.413  0.00  0.00    -0.090 HD
ATOM     21  H   LIG d   1      -1.792  78.329 111.576  0.00  0.00    -0.090 HD
ENDBRANCH   5  18
BRANCH   3  22
ATOM     22  C   LIG d   1       2.740  80.641 110.846  0.00  0.00     0.382 C 
ATOM     23  O   LIG d   1       3.901  80.750 111.309  0.00  0.00    -0.241 OA
ATOM     24  O   LIG d   1       2.580  80.513 109.617  0.00  0.00    -0.241 OA
ENDBRANCH   3  22
TORSDOF 7
ENDMDL
MODEL 9
REMARK VINA RESULT:      -4.4      2.694      4.031
REMARK  7 active torsions:
REMARK  status: ('A' for Active; 'I' for Inactive)
REMARK    1  A    between atoms: C_2  and  C_3 
REMARK    2  A    between atoms: C_3  and  O_6 
REMARK    3  A    between atoms: C_3  and  C_4 
REMARK    4  A    between atoms: C_7  and  O_6 
REMARK    5  A    between atoms: C_9  and  C_10 
REMARK    6  A    between atoms: N_15  and  C_14 
REMARK    7  A    between atoms: N_20  and  C_19 
REMARK       I    between atoms: C_22  and  N_20 
ROOT
ATOM      1  C   LIG d   1      -2.127  80.788 114.388  0.00  0.00     0.161 C 
ATOM      2  C   LIG d   1      -2.584  79.530 114.815  0.00  0.00     0.016 C 
ATOM      3  C   LIG d   1      -2.433  78.348 114.054  0.00  0.00     0.038 C 
ATOM      4  C   LIG d   1      -1.675  78.318 112.874  0.00  0.00     0.028 C 
ATOM      5  C   LIG d   1      -1.626  79.660 112.151  0.00  0.00    -0.047 C 
ATOM      6  C   LIG d   1      -1.201  80.756 113.155  0.00  0.00     0.091 C 
ENDROOT
BRANCH   1   7
ATOM      7  O   LIG d   1      -1.482  81.471 115.482  0.00  0.00    -0.368 OA
BRANCH   7   8
ATOM      8  C   LIG d   1      -0.829  80.628 116.463  0.00  0.00     0.119 C 
BRANCH   8   9
ATOM      9  C   LIG d   1      -1.102  81.237 117.852  0.00  0.00     0.028 C 
ATOM     10  C   LIG d   1      -2.605  81.375 118.147  0.00  0.00     0.006 C 
ENDBRANCH   8   9
BRANCH   8  11
ATOM     11  C   LIG d   1       0.693  80.658 116.298  0.00  0.00     0.028 C 
ATOM     12  C   LIG d   1       1.203  81.986 115.715  0.00  0.00     0.006 C 
ENDBRANCH   8  11
ENDBRANCH   7   8
ENDBRANCH   1   7
BRANCH   6  13
ATOM     13  N   LIG d   1      -1.209  82.113 112.550  0.00  0.00    -0.311 N 
ATOM     14  C   LIG d   1      -0.123  82.701 112.052  0.00  0.00     0.210 C 
ATOM     15  C   LIG d   1      -0.348  84.109 111.494  0.00  0.00     0.109 C 
ATOM     16  O   LIG d   1       0.999  82.176 111.990  0.00  0.00    -0.276 OA
ATOM     17  H   LIG d   1      -2.085  82.598 112.531  0.00  0.00     0.149 HD
ENDBRANCH   6  13
BRANCH   5  18
ATOM     18  N   LIG d   1      -0.694  79.522 111.017  0.00  0.00     0.381 N 
ATOM     19  H   LIG d   1      -0.854  78.651 110.551  0.00  0.00    -0.090 HD
ATOM     20  H   LIG d   1       0.248  79.524 111.368  0.00  0.00    -0.090 HD
ATOM     21  H   LIG d   1      -0.820  80.276 110.378  0.00  0.00    -0.090 HD
ENDBRANCH   5  18
BRANCH   3  22
ATOM     22  C   LIG d   1      -3.077  77.187 114.452  0.00  0.00     0.382 C 
ATOM     23  O   LIG d   1      -4.081  77.253 115.203  0.00  0.00    -0.241 OA
ATOM     24  O   LIG d   1      -2.642  76.072 114.107  0.00  0.00    -0.241 OA
ENDBRANCH   3  22
TORSDOF 7
ENDMDL
