MODEL 1
REMARK VINA RESULT:      -5.7      0.000      0.000
REMARK  7 active torsions:
REMARK  status: ('A' for Active; 'I' for Inactive)
REMARK    1  A    between atoms: C_2  and  C_3 
REMARK    2  A    between atoms: C_3  and  O_6 
REMARK    3  A    between atoms: C_3  and  C_4 
REMARK    4  A    between atoms: C_7  and  O_6 
REMARK    5  A    between atoms: C_9  and  C_10 
REMARK    6  A    between atoms: N_15  and  C_14 
REMARK    7  A    between atoms: N_20  and  C_19 
REMARK       I    between atoms: C_22  and  N_20 
ROOT
ATOM      1  C   LIG d   1       1.328  81.064 112.112  0.00  0.00     0.161 C 
ATOM      2  C   LIG d   1       2.533  80.935 111.401  0.00  0.00     0.016 C 
ATOM      3  C   LIG d   1       2.651  80.204 110.197  0.00  0.00     0.038 C 
ATOM      4  C   LIG d   1       1.532  79.673 109.539  0.00  0.00     0.028 C 
ATOM      5  C   LIG d   1       0.375  79.347 110.477  0.00  0.00    -0.047 C 
ATOM      6  C   LIG d   1       0.074  80.586 111.351  0.00  0.00     0.091 C 
ENDROOT
BRANCH   1   7
ATOM      7  O   LIG d   1       1.160  82.428 112.547  0.00  0.00    -0.368 OA
BRANCH   7   8
ATOM      8  C   LIG d   1       1.845  83.435 111.763  0.00  0.00     0.119 C 
BRANCH   8   9
ATOM      9  C   LIG d   1       2.867  84.126 112.688  0.00  0.00     0.028 C 
ATOM     10  C   LIG d   1       4.226  84.345 112.001  0.00  0.00     0.006 C 
ENDBRANCH   8   9
BRANCH   8  11
ATOM     11  C   LIG d   1       0.886  84.544 111.320  0.00  0.00     0.028 C 
ATOM     12  C   LIG d   1       0.157  84.211 110.009  0.00  0.00     0.006 C 
ENDBRANCH   8  11
ENDBRANCH   7   8
ENDBRANCH   1   7
BRANCH   6  13
ATOM     13  N   LIG d   1      -0.990  80.325 112.356  0.00  0.00    -0.311 N 
ATOM     14  C   LIG d   1      -1.834  81.259 112.790  0.00  0.00     0.210 C 
ATOM     15  C   LIG d   1      -2.841  80.784 113.842  0.00  0.00     0.109 C 
ATOM     16  O   LIG d   1      -1.866  82.429 112.379  0.00  0.00    -0.276 OA
ATOM     17  H   LIG d   1      -1.056  79.394 112.720  0.00  0.00     0.149 HD
ENDBRANCH   6  13
BRANCH   5  18
ATOM     18  N   LIG d   1      -0.771  78.934 109.645  0.00  0.00     0.381 N 
ATOM     19  H   LIG d   1      -0.501  78.177 109.049  0.00  0.00    -0.090 HD
ATOM     20  H   LIG d   1      -1.048  79.707 109.067  0.00  0.00    -0.090 HD
ATOM     21  H   LIG d   1      -1.530  78.654 110.226  0.00  0.00    -0.090 HD
ENDBRANCH   5  18
BRANCH   3  22
ATOM     22  C   LIG d   1       3.907  79.963 109.661  0.00  0.00     0.382 C 
ATOM     23  O   LIG d   1       4.279  78.785 109.442  0.00  0.00    -0.241 OA
ATOM     24  O   LIG d   1       4.689  80.905 109.434  0.00  0.00    -0.241 OA
ENDBRANCH   3  22
TORSDOF 7
ENDMDL
MODEL 2
REMARK VINA RESULT:      -5.4      2.913      5.632
REMARK  7 active torsions:
REMARK  status: ('A' for Active; 'I' for Inactive)
REMARK    1  A    between atoms: C_2  and  C_3 
REMARK    2  A    between atoms: C_3  and  O_6 
REMARK    3  A    between atoms: C_3  and  C_4 
REMARK    4  A    between atoms: C_7  and  O_6 
REMARK    5  A    between atoms: C_9  and  C_10 
REMARK    6  A    between atoms: N_15  and  C_14 
REMARK    7  A    between atoms: N_20  and  C_19 
REMARK       I    between atoms: C_22  and  N_20 
ROOT
ATOM      1  C   LIG d   1      -1.279  80.694 112.591  0.00  0.00     0.161 C 
ATOM      2  C   LIG d   1      -2.235  79.722 112.931  0.00  0.00     0.016 C 
ATOM      3  C   LIG d   1      -2.240  78.414 112.393  0.00  0.00     0.038 C 
ATOM      4  C   LIG d   1      -1.193  77.939 111.589  0.00  0.00     0.028 C 
ATOM      5  C   LIG d   1      -0.476  79.041 110.816  0.00  0.00    -0.047 C 
ATOM      6  C   LIG d   1      -0.066  80.160 111.801  0.00  0.00     0.091 C 
ENDROOT
BRANCH   1   7
ATOM      7  O   LIG d   1      -0.840  81.383 113.779  0.00  0.00    -0.368 OA
BRANCH   7   8
ATOM      8  C   LIG d   1      -0.016  80.617 114.692  0.00  0.00     0.119 C 
BRANCH   8   9
ATOM      9  C   LIG d   1      -0.646  80.735 116.093  0.00  0.00     0.028 C 
ATOM     10  C   LIG d   1      -1.362  79.444 116.526  0.00  0.00     0.006 C 
ENDBRANCH   8   9
BRANCH   8  11
ATOM     11  C   LIG d   1       1.383  81.225 114.823  0.00  0.00     0.028 C 
ATOM     12  C   LIG d   1       1.956  81.100 116.244  0.00  0.00     0.006 C 
ENDBRANCH   8  11
ENDBRANCH   7   8
ENDBRANCH   1   7
BRANCH   6  13
ATOM     13  N   LIG d   1       0.567  81.316 111.115  0.00  0.00    -0.311 N 
ATOM     14  C   LIG d   1       1.885  81.495 111.046  0.00  0.00     0.210 C 
ATOM     15  C   LIG d   1       2.328  82.763 110.309  0.00  0.00     0.109 C 
ATOM     16  O   LIG d   1       2.731  80.708 111.498  0.00  0.00    -0.276 OA
ATOM     17  H   LIG d   1      -0.044  81.987 110.693  0.00  0.00     0.149 HD
ENDBRANCH   6  13
BRANCH   5  18
ATOM     18  N   LIG d   1       0.676  78.426 110.129  0.00  0.00     0.381 N 
ATOM     19  H   LIG d   1       1.491  78.989 110.265  0.00  0.00    -0.090 HD
ATOM     20  H   LIG d   1       0.482  78.384 109.144  0.00  0.00    -0.090 HD
ATOM     21  H   LIG d   1       0.834  77.508 110.483  0.00  0.00    -0.090 HD
ENDBRANCH   5  18
BRANCH   3  22
ATOM     22  C   LIG d   1      -3.322  77.579 112.628  0.00  0.00     0.382 C 
ATOM     23  O   LIG d   1      -4.440  77.845 112.125  0.00  0.00    -0.241 OA
ATOM     24  O   LIG d   1      -3.204  76.587 113.371  0.00  0.00    -0.241 OA
ENDBRANCH   3  22
TORSDOF 7
ENDMDL
MODEL 3
REMARK VINA RESULT:      -5.3      4.552      7.539
REMARK  7 active torsions:
REMARK  status: ('A' for Active; 'I' for Inactive)
REMARK    1  A    between atoms: C_2  and  C_3 
REMARK    2  A    between atoms: C_3  and  O_6 
REMARK    3  A    between atoms: C_3  and  C_4 
REMARK    4  A    between atoms: C_7  and  O_6 
REMARK    5  A    between atoms: C_9  and  C_10 
REMARK    6  A    between atoms: N_15  and  C_14 
REMARK    7  A    between atoms: N_20  and  C_19 
REMARK       I    between atoms: C_22  and  N_20 
ROOT
ATOM      1  C   LIG d   1      -1.842  78.814 115.297  0.00  0.00     0.161 C 
ATOM      2  C   LIG d   1      -2.339  79.640 114.275  0.00  0.00     0.016 C 
ATOM      3  C   LIG d   1      -1.598  80.697 113.698  0.00  0.00     0.038 C 
ATOM      4  C   LIG d   1      -0.244  80.905 114.003  0.00  0.00     0.028 C 
ATOM      5  C   LIG d   1       0.146  80.416 115.394  0.00  0.00    -0.047 C 
ATOM      6  C   LIG d   1      -0.329  78.955 115.564  0.00  0.00     0.091 C 
ENDROOT
BRANCH   1   7
ATOM      7  O   LIG d   1      -2.177  77.440 115.020  0.00  0.00    -0.368 OA
BRANCH   7   8
ATOM      8  C   LIG d   1      -3.548  77.052 115.282  0.00  0.00     0.119 C 
BRANCH   8   9
ATOM      9  C   LIG d   1      -3.537  76.099 116.493  0.00  0.00     0.028 C 
ATOM     10  C   LIG d   1      -2.422  75.043 116.398  0.00  0.00     0.006 C 
ENDBRANCH   8   9
BRANCH   8  11
ATOM     11  C   LIG d   1      -4.125  76.231 114.125  0.00  0.00     0.028 C 
ATOM     12  C   LIG d   1      -4.440  77.086 112.887  0.00  0.00     0.006 C 
ENDBRANCH   8  11
ENDBRANCH   7   8
ENDBRANCH   1   7
BRANCH   6  13
ATOM     13  N   LIG d   1      -0.062  78.428 116.927  0.00  0.00    -0.311 N 
ATOM     14  C   LIG d   1       0.447  77.219 117.159  0.00  0.00     0.210 C 
ATOM     15  C   LIG d   1       0.624  76.864 118.639  0.00  0.00     0.109 C 
ATOM     16  O   LIG d   1       0.798  76.418 116.279  0.00  0.00    -0.276 OA
ATOM     17  H   LIG d   1      -0.288  79.023 117.699  0.00  0.00     0.149 HD
ENDBRANCH   6  13
BRANCH   5  18
ATOM     18  N   LIG d   1       1.607  80.568 115.526  0.00  0.00     0.381 N 
ATOM     19  H   LIG d   1       1.973  81.036 114.721  0.00  0.00    -0.090 HD
ATOM     20  H   LIG d   1       2.025  79.656 115.578  0.00  0.00    -0.090 HD
ATOM     21  H   LIG d   1       1.823  81.088 116.348  0.00  0.00    -0.090 HD
ENDBRANCH   5  18
BRANCH   3  22
ATOM     22  C   LIG d   1      -2.223  81.584 112.835  0.00  0.00     0.382 C 
ATOM     23  O   LIG d   1      -1.537  82.388 112.158  0.00  0.00    -0.241 OA
ATOM     24  O   LIG d   1      -3.465  81.621 112.758  0.00  0.00    -0.241 OA
ENDBRANCH   3  22
TORSDOF 7
ENDMDL
MODEL 4
REMARK VINA RESULT:      -5.2      2.624      3.987
REMARK  7 active torsions:
REMARK  status: ('A' for Active; 'I' for Inactive)
REMARK    1  A    between atoms: C_2  and  C_3 
REMARK    2  A    between atoms: C_3  and  O_6 
REMARK    3  A    between atoms: C_3  and  C_4 
REMARK    4  A    between atoms: C_7  and  O_6 
REMARK    5  A    between atoms: C_9  and  C_10 
REMARK    6  A    between atoms: N_15  and  C_14 
REMARK    7  A    between atoms: N_20  and  C_19 
REMARK       I    between atoms: C_22  and  N_20 
ROOT
ATOM      1  C   LIG d   1       1.000  81.132 113.042  0.00  0.00     0.161 C 
ATOM      2  C   LIG d   1       1.913  82.134 112.672  0.00  0.00     0.016 C 
ATOM      3  C   LIG d   1       2.119  82.544 111.335  0.00  0.00     0.038 C 
ATOM      4  C   LIG d   1       1.311  82.082 110.285  0.00  0.00     0.028 C 
ATOM      5  C   LIG d   1       0.719  80.700 110.540  0.00  0.00    -0.047 C 
ATOM      6  C   LIG d   1       0.031  80.696 111.924  0.00  0.00     0.091 C 
ENDROOT
BRANCH   1   7
ATOM      7  O   LIG d   1       0.264  81.549 114.209  0.00  0.00    -0.368 OA
BRANCH   7   8
ATOM      8  C   LIG d   1       0.603  80.881 115.449  0.00  0.00     0.119 C 
BRANCH   8   9
ATOM      9  C   LIG d   1      -0.642  80.097 115.908  0.00  0.00     0.028 C 
ATOM     10  C   LIG d   1      -0.347  78.604 116.128  0.00  0.00     0.006 C 
ENDBRANCH   8   9
BRANCH   8  11
ATOM     11  C   LIG d   1       0.882  81.890 116.567  0.00  0.00     0.028 C 
ATOM     12  C   LIG d   1       2.231  82.607 116.400  0.00  0.00     0.006 C 
ENDBRANCH   8  11
ENDBRANCH   7   8
ENDBRANCH   1   7
BRANCH   6  13
ATOM     13  N   LIG d   1      -0.502  79.357 112.288  0.00  0.00    -0.311 N 
ATOM     14  C   LIG d   1      -1.787  79.126 112.550  0.00  0.00     0.210 C 
ATOM     15  C   LIG d   1      -2.121  77.679 112.924  0.00  0.00     0.109 C 
ATOM     16  O   LIG d   1      -2.688  79.976 112.477  0.00  0.00    -0.276 OA
ATOM     17  H   LIG d   1       0.155  78.603 112.340  0.00  0.00     0.149 HD
ENDBRANCH   6  13
BRANCH   5  18
ATOM     18  N   LIG d   1      -0.208  80.402 109.432  0.00  0.00     0.381 N 
ATOM     19  H   LIG d   1       0.089  79.574 108.955  0.00  0.00    -0.090 HD
ATOM     20  H   LIG d   1      -0.191  81.165 108.779  0.00  0.00    -0.090 HD
ATOM     21  H   LIG d   1      -1.132  80.277 109.785  0.00  0.00    -0.090 HD
ENDBRANCH   5  18
BRANCH   3  22
ATOM     22  C   LIG d   1       3.170  83.396 111.032  0.00  0.00     0.382 C 
ATOM     23  O   LIG d   1       4.327  83.134 111.439  0.00  0.00    -0.241 OA
ATOM     24  O   LIG d   1       2.967  84.447 110.393  0.00  0.00    -0.241 OA
ENDBRANCH   3  22
TORSDOF 7
ENDMDL
MODEL 5
REMARK VINA RESULT:      -5.1      2.812      5.096
REMARK  7 active torsions:
REMARK  status: ('A' for Active; 'I' for Inactive)
REMARK    1  A    between atoms: C_2  and  C_3 
REMARK    2  A    between atoms: C_3  and  O_6 
REMARK    3  A    between atoms: C_3  and  C_4 
REMARK    4  A    between atoms: C_7  and  O_6 
REMARK    5  A    between atoms: C_9  and  C_10 
REMARK    6  A    between atoms: N_15  and  C_14 
REMARK    7  A    between atoms: N_20  and  C_19 
REMARK       I    between atoms: C_22  and  N_20 
ROOT
ATOM      1  C   LIG d   1      -0.267  81.357 112.224  0.00  0.00     0.161 C 
ATOM      2  C   LIG d   1      -1.015  80.167 112.209  0.00  0.00     0.016 C 
ATOM      3  C   LIG d   1      -0.734  79.083 111.346  0.00  0.00     0.038 C 
ATOM      4  C   LIG d   1       0.414  79.055 110.540  0.00  0.00     0.028 C 
ATOM      5  C   LIG d   1       0.917  80.441 110.153  0.00  0.00    -0.047 C 
ATOM      6  C   LIG d   1       1.055  81.300 111.431  0.00  0.00     0.091 C 
ENDROOT
BRANCH   1   7
ATOM      7  O   LIG d   1      -0.018  81.759 113.585  0.00  0.00    -0.368 OA
BRANCH   7   8
ATOM      8  C   LIG d   1       0.375  80.706 114.500  0.00  0.00     0.119 C 
BRANCH   8   9
ATOM      9  C   LIG d   1      -0.730  80.584 115.567  0.00  0.00     0.028 C 
ATOM     10  C   LIG d   1      -1.179  79.129 115.784  0.00  0.00     0.006 C 
ENDBRANCH   8   9
BRANCH   8  11
ATOM     11  C   LIG d   1       1.644  81.082 115.271  0.00  0.00     0.028 C 
ATOM     12  C   LIG d   1       1.357  81.963 116.497  0.00  0.00     0.006 C 
ENDBRANCH   8  11
ENDBRANCH   7   8
ENDBRANCH   1   7
BRANCH   6  13
ATOM     13  N   LIG d   1       1.462  82.698 111.133  0.00  0.00    -0.311 N 
ATOM     14  C   LIG d   1       2.731  83.100 111.094  0.00  0.00     0.210 C 
ATOM     15  C   LIG d   1       2.929  84.588 110.789  0.00  0.00     0.109 C 
ATOM     16  O   LIG d   1       3.713  82.358 111.251  0.00  0.00    -0.276 OA
ATOM     17  H   LIG d   1       0.730  83.359 110.963  0.00  0.00     0.149 HD
ENDBRANCH   6  13
BRANCH   5  18
ATOM     18  N   LIG d   1       2.192  80.268 109.432  0.00  0.00     0.381 N 
ATOM     19  H   LIG d   1       2.796  81.043 109.620  0.00  0.00    -0.090 HD
ATOM     20  H   LIG d   1       2.006  80.246 108.444  0.00  0.00    -0.090 HD
ATOM     21  H   LIG d   1       2.630  79.419 109.714  0.00  0.00    -0.090 HD
ENDBRANCH   5  18
BRANCH   3  22
ATOM     22  C   LIG d   1      -1.629  78.028 111.254  0.00  0.00     0.382 C 
ATOM     23  O   LIG d   1      -1.580  77.090 112.086  0.00  0.00    -0.241 OA
ATOM     24  O   LIG d   1      -2.457  77.981 110.324  0.00  0.00    -0.241 OA
ENDBRANCH   3  22
TORSDOF 7
ENDMDL
MODEL 6
REMARK VINA RESULT:      -5.1      3.639      6.297
REMARK  7 active torsions:
REMARK  status: ('A' for Active; 'I' for Inactive)
REMARK    1  A    between atoms: C_2  and  C_3 
REMARK    2  A    between atoms: C_3  and  O_6 
REMARK    3  A    between atoms: C_3  and  C_4 
REMARK    4  A    between atoms: C_7  and  O_6 
REMARK    5  A    between atoms: C_9  and  C_10 
REMARK    6  A    between atoms: N_15  and  C_14 
REMARK    7  A    between atoms: N_20  and  C_19 
REMARK       I    between atoms: C_22  and  N_20 
ROOT
ATOM      1  C   LIG d   1      -2.287  80.435 114.338  0.00  0.00     0.161 C 
ATOM      2  C   LIG d   1      -2.044  81.126 113.140  0.00  0.00     0.016 C 
ATOM      3  C   LIG d   1      -0.753  81.521 112.717  0.00  0.00     0.038 C 
ATOM      4  C   LIG d   1       0.405  81.117 113.397  0.00  0.00     0.028 C 
ATOM      5  C   LIG d   1       0.175  80.850 114.880  0.00  0.00    -0.047 C 
ATOM      6  C   LIG d   1      -1.025  79.888 115.037  0.00  0.00     0.091 C 
ENDROOT
BRANCH   1   7
ATOM      7  O   LIG d   1      -3.232  79.372 114.106  0.00  0.00    -0.368 OA
BRANCH   7   8
ATOM      8  C   LIG d   1      -2.683  78.132 113.595  0.00  0.00     0.119 C 
BRANCH   8   9
ATOM      9  C   LIG d   1      -2.983  78.082 112.084  0.00  0.00     0.028 C 
ATOM     10  C   LIG d   1      -1.703  78.104 111.231  0.00  0.00     0.006 C 
ENDBRANCH   8   9
BRANCH   8  11
ATOM     11  C   LIG d   1      -3.401  76.918 114.192  0.00  0.00     0.028 C 
ATOM     12  C   LIG d   1      -2.459  76.001 114.988  0.00  0.00     0.006 C 
ENDBRANCH   8  11
ENDBRANCH   7   8
ENDBRANCH   1   7
BRANCH   6  13
ATOM     13  N   LIG d   1      -1.371  79.641 116.461  0.00  0.00    -0.311 N 
ATOM     14  C   LIG d   1      -0.868  78.634 117.174  0.00  0.00     0.210 C 
ATOM     15  C   LIG d   1      -1.372  78.549 118.618  0.00  0.00     0.109 C 
ATOM     16  O   LIG d   1      -0.029  77.823 116.756  0.00  0.00    -0.276 OA
ATOM     17  H   LIG d   1      -2.022  80.271 116.889  0.00  0.00     0.149 HD
ENDBRANCH   6  13
BRANCH   5  18
ATOM     18  N   LIG d   1       1.429  80.305 115.435  0.00  0.00     0.381 N 
ATOM     19  H   LIG d   1       2.202  80.869 115.143  0.00  0.00    -0.090 HD
ATOM     20  H   LIG d   1       1.565  79.375 115.078  0.00  0.00    -0.090 HD
ATOM     21  H   LIG d   1       1.381  80.283 116.430  0.00  0.00    -0.090 HD
ENDBRANCH   5  18
BRANCH   3  22
ATOM     22  C   LIG d   1      -0.616  82.364 111.625  0.00  0.00     0.382 C 
ATOM     23  O   LIG d   1      -0.126  81.929 110.555  0.00  0.00    -0.241 OA
ATOM     24  O   LIG d   1      -0.935  83.565 111.709  0.00  0.00    -0.241 OA
ENDBRANCH   3  22
TORSDOF 7
ENDMDL
MODEL 7
REMARK VINA RESULT:      -4.9      2.974      4.971
REMARK  7 active torsions:
REMARK  status: ('A' for Active; 'I' for Inactive)
REMARK    1  A    between atoms: C_2  and  C_3 
REMARK    2  A    between atoms: C_3  and  O_6 
REMARK    3  A    between atoms: C_3  and  C_4 
REMARK    4  A    between atoms: C_7  and  O_6 
REMARK    5  A    between atoms: C_9  and  C_10 
REMARK    6  A    between atoms: N_15  and  C_14 
REMARK    7  A    between atoms: N_20  and  C_19 
REMARK       I    between atoms: C_22  and  N_20 
ROOT
ATOM      1  C   LIG d   1       0.093  80.268 112.865  0.00  0.00     0.161 C 
ATOM      2  C   LIG d   1      -0.923  79.662 112.106  0.00  0.00     0.016 C 
ATOM      3  C   LIG d   1      -2.023  78.985 112.680  0.00  0.00     0.038 C 
ATOM      4  C   LIG d   1      -2.264  78.999 114.062  0.00  0.00     0.028 C 
ATOM      5  C   LIG d   1      -0.998  79.166 114.896  0.00  0.00    -0.047 C 
ATOM      6  C   LIG d   1      -0.210  80.389 114.373  0.00  0.00     0.091 C 
ENDROOT
BRANCH   1   7
ATOM      7  O   LIG d   1       0.410  81.561 112.312  0.00  0.00    -0.368 OA
BRANCH   7   8
ATOM      8  C   LIG d   1       0.890  81.569 110.945  0.00  0.00     0.119 C 
BRANCH   8   9
ATOM      9  C   LIG d   1       2.379  81.172 110.974  0.00  0.00     0.028 C 
ATOM     10  C   LIG d   1       2.720  80.099 109.927  0.00  0.00     0.006 C 
ENDBRANCH   8   9
BRANCH   8  11
ATOM     11  C   LIG d   1       0.859  82.981 110.352  0.00  0.00     0.028 C 
ATOM     12  C   LIG d   1      -0.389  83.775 110.770  0.00  0.00     0.006 C 
ENDBRANCH   8  11
ENDBRANCH   7   8
ENDBRANCH   1   7
BRANCH   6  13
ATOM     13  N   LIG d   1       1.084  80.574 115.079  0.00  0.00    -0.311 N 
ATOM     14  C   LIG d   1       1.244  81.397 116.113  0.00  0.00     0.210 C 
ATOM     15  C   LIG d   1       2.666  81.453 116.682  0.00  0.00     0.109 C 
ATOM     16  O   LIG d   1       0.337  82.062 116.634  0.00  0.00    -0.276 OA
ATOM     17  H   LIG d   1       1.867  80.048 114.741  0.00  0.00     0.149 HD
ENDBRANCH   6  13
BRANCH   5  18
ATOM     18  N   LIG d   1      -1.408  79.302 116.306  0.00  0.00     0.381 N 
ATOM     19  H   LIG d   1      -1.344  78.415 116.764  0.00  0.00    -0.090 HD
ATOM     20  H   LIG d   1      -2.365  79.605 116.339  0.00  0.00    -0.090 HD
ATOM     21  H   LIG d   1      -0.825  79.965 116.768  0.00  0.00    -0.090 HD
ENDBRANCH   5  18
BRANCH   3  22
ATOM     22  C   LIG d   1      -2.876  78.251 111.870  0.00  0.00     0.382 C 
ATOM     23  O   LIG d   1      -2.570  78.030 110.674  0.00  0.00    -0.241 OA
ATOM     24  O   LIG d   1      -3.969  77.844 112.308  0.00  0.00    -0.241 OA
ENDBRANCH   3  22
TORSDOF 7
ENDMDL
MODEL 8
REMARK VINA RESULT:      -4.8      4.770      7.913
REMARK  7 active torsions:
REMARK  status: ('A' for Active; 'I' for Inactive)
REMARK    1  A    between atoms: C_2  and  C_3 
REMARK    2  A    between atoms: C_3  and  O_6 
REMARK    3  A    between atoms: C_3  and  C_4 
REMARK    4  A    between atoms: C_7  and  O_6 
REMARK    5  A    between atoms: C_9  and  C_10 
REMARK    6  A    between atoms: N_15  and  C_14 
REMARK    7  A    between atoms: N_20  and  C_19 
REMARK       I    between atoms: C_22  and  N_20 
ROOT
ATOM      1  C   LIG d   1      -1.018  78.236 114.693  0.00  0.00     0.161 C 
ATOM      2  C   LIG d   1      -1.411  78.620 115.985  0.00  0.00     0.016 C 
ATOM      3  C   LIG d   1      -2.207  79.758 116.251  0.00  0.00     0.038 C 
ATOM      4  C   LIG d   1      -2.793  80.510 115.222  0.00  0.00     0.028 C 
ATOM      5  C   LIG d   1      -2.011  80.458 113.913  0.00  0.00    -0.047 C 
ATOM      6  C   LIG d   1      -1.740  78.980 113.549  0.00  0.00     0.091 C 
ENDROOT
BRANCH   1   7
ATOM      7  O   LIG d   1      -1.171  76.811 114.538  0.00  0.00    -0.368 OA
BRANCH   7   8
ATOM      8  C   LIG d   1      -1.903  76.131 115.588  0.00  0.00     0.119 C 
BRANCH   8   9
ATOM      9  C   LIG d   1      -1.103  74.870 115.967  0.00  0.00     0.028 C 
ATOM     10  C   LIG d   1      -1.150  74.578 117.477  0.00  0.00     0.006 C 
ENDBRANCH   8   9
BRANCH   8  11
ATOM     11  C   LIG d   1      -3.254  75.618 115.082  0.00  0.00     0.028 C 
ATOM     12  C   LIG d   1      -4.440  76.444 115.605  0.00  0.00     0.006 C 
ENDBRANCH   8  11
ENDBRANCH   7   8
ENDBRANCH   1   7
BRANCH   6  13
ATOM     13  N   LIG d   1      -0.907  78.841 112.326  0.00  0.00    -0.311 N 
ATOM     14  C   LIG d   1      -1.357  78.314 111.189  0.00  0.00     0.210 C 
ATOM     15  C   LIG d   1      -0.329  78.246 110.056  0.00  0.00     0.109 C 
ATOM     16  O   LIG d   1      -2.520  77.925 111.001  0.00  0.00    -0.276 OA
ATOM     17  H   LIG d   1       0.040  79.160 112.381  0.00  0.00     0.149 HD
ENDBRANCH   6  13
BRANCH   5  18
ATOM     18  N   LIG d   1      -2.804  81.168 112.892  0.00  0.00     0.381 N 
ATOM     19  H   LIG d   1      -2.198  81.716 112.314  0.00  0.00    -0.090 HD
ATOM     20  H   LIG d   1      -3.446  81.789 113.353  0.00  0.00    -0.090 HD
ATOM     21  H   LIG d   1      -3.306  80.514 112.334  0.00  0.00    -0.090 HD
ENDBRANCH   5  18
BRANCH   3  22
ATOM     22  C   LIG d   1      -2.390  80.178 117.560  0.00  0.00     0.382 C 
ATOM     23  O   LIG d   1      -3.207  79.581 118.301  0.00  0.00    -0.241 OA
ATOM     24  O   LIG d   1      -1.782  81.175 117.994  0.00  0.00    -0.241 OA
ENDBRANCH   3  22
TORSDOF 7
ENDMDL
MODEL 9
REMARK VINA RESULT:      -4.8      4.184      6.735
REMARK  7 active torsions:
REMARK  status: ('A' for Active; 'I' for Inactive)
REMARK    1  A    between atoms: C_2  and  C_3 
REMARK    2  A    between atoms: C_3  and  O_6 
REMARK    3  A    between atoms: C_3  and  C_4 
REMARK    4  A    between atoms: C_7  and  O_6 
REMARK    5  A    between atoms: C_9  and  C_10 
REMARK    6  A    between atoms: N_15  and  C_14 
REMARK    7  A    between atoms: N_20  and  C_19 
REMARK       I    between atoms: C_22  and  N_20 
ROOT
ATOM      1  C   LIG d   1      -0.825  79.372 114.889  0.00  0.00     0.161 C 
ATOM      2  C   LIG d   1      -1.493  78.611 113.915  0.00  0.00     0.016 C 
ATOM      3  C   LIG d   1      -1.507  78.945 112.541  0.00  0.00     0.038 C 
ATOM      4  C   LIG d   1      -0.722  79.985 112.023  0.00  0.00     0.028 C 
ATOM      5  C   LIG d   1      -0.431  81.088 113.036  0.00  0.00    -0.047 C 
ATOM      6  C   LIG d   1       0.129  80.448 114.327  0.00  0.00     0.091 C 
ENDROOT
BRANCH   1   7
ATOM      7  O   LIG d   1      -0.118  78.499 115.791  0.00  0.00    -0.368 OA
BRANCH   7   8
ATOM      8  C   LIG d   1      -0.876  77.384 116.324  0.00  0.00     0.119 C 
BRANCH   8   9
ATOM      9  C   LIG d   1      -1.065  77.632 117.833  0.00  0.00     0.028 C 
ATOM     10  C   LIG d   1      -1.519  76.368 118.582  0.00  0.00     0.006 C 
ENDBRANCH   8   9
BRANCH   8  11
ATOM     11  C   LIG d   1      -0.087  76.075 116.223  0.00  0.00     0.028 C 
ATOM     12  C   LIG d   1      -0.551  75.188 115.057  0.00  0.00     0.006 C 
ENDBRANCH   8  11
ENDBRANCH   7   8
ENDBRANCH   1   7
BRANCH   6  13
ATOM     13  N   LIG d   1       0.361  81.448 115.401  0.00  0.00    -0.311 N 
ATOM     14  C   LIG d   1       1.548  81.654 115.968  0.00  0.00     0.210 C 
ATOM     15  C   LIG d   1       1.564  82.718 117.069  0.00  0.00     0.109 C 
ATOM     16  O   LIG d   1       2.597  81.078 115.640  0.00  0.00    -0.276 OA
ATOM     17  H   LIG d   1      -0.430  81.982 115.706  0.00  0.00     0.149 HD
ENDBRANCH   6  13
BRANCH   5  18
ATOM     18  N   LIG d   1       0.507  82.036 112.407  0.00  0.00     0.381 N 
ATOM     19  H   LIG d   1       0.006  82.662 111.809  0.00  0.00    -0.090 HD
ATOM     20  H   LIG d   1       1.162  81.521 111.845  0.00  0.00    -0.090 HD
ATOM     21  H   LIG d   1       0.992  82.551 113.107  0.00  0.00    -0.090 HD
ENDBRANCH   5  18
BRANCH   3  22
ATOM     22  C   LIG d   1      -2.344  78.257 111.675  0.00  0.00     0.382 C 
ATOM     23  O   LIG d   1      -2.028  78.128 110.468  0.00  0.00    -0.241 OA
ATOM     24  O   LIG d   1      -3.432  77.803 112.077  0.00  0.00    -0.241 OA
ENDBRANCH   3  22
TORSDOF 7
ENDMDL
