MODEL 1
REMARK VINA RESULT:      -5.5      0.000      0.000
REMARK  7 active torsions:
REMARK  status: ('A' for Active; 'I' for Inactive)
REMARK    1  A    between atoms: C_2  and  C_3 
REMARK    2  A    between atoms: C_3  and  O_6 
REMARK    3  A    between atoms: C_3  and  C_4 
REMARK    4  A    between atoms: C_7  and  O_6 
REMARK    5  A    between atoms: C_9  and  C_10 
REMARK    6  A    between atoms: N_15  and  C_14 
REMARK    7  A    between atoms: N_20  and  C_19 
REMARK       I    between atoms: C_22  and  N_20 
ROOT
ATOM      1  C   LIG d   1      -1.119  81.601 112.029  0.00  0.00     0.161 C 
ATOM      2  C   LIG d   1      -2.060  80.598 112.317  0.00  0.00     0.016 C 
ATOM      3  C   LIG d   1      -2.050  79.324 111.705  0.00  0.00     0.038 C 
ATOM      4  C   LIG d   1      -1.002  78.910 110.869  0.00  0.00     0.028 C 
ATOM      5  C   LIG d   1      -0.303  80.064 110.157  0.00  0.00    -0.047 C 
ATOM      6  C   LIG d   1       0.096  81.130 111.203  0.00  0.00     0.091 C 
ENDROOT
BRANCH   1   7
ATOM      7  O   LIG d   1      -0.682  82.227 113.251  0.00  0.00    -0.368 OA
BRANCH   7   8
ATOM      8  C   LIG d   1       0.567  81.742 113.804  0.00  0.00     0.119 C 
BRANCH   8   9
ATOM      9  C   LIG d   1       0.228  80.929 115.069  0.00  0.00     0.028 C 
ATOM     10  C   LIG d   1       0.777  81.580 116.350  0.00  0.00     0.006 C 
ENDBRANCH   8   9
BRANCH   8  11
ATOM     11  C   LIG d   1       1.447  82.898 114.289  0.00  0.00     0.028 C 
ATOM     12  C   LIG d   1       1.024  84.255 113.705  0.00  0.00     0.006 C 
ENDBRANCH   8  11
ENDBRANCH   7   8
ENDBRANCH   1   7
BRANCH   6  13
ATOM     13  N   LIG d   1       0.711  82.332 110.581  0.00  0.00    -0.311 N 
ATOM     14  C   LIG d   1       2.026  82.531 110.513  0.00  0.00     0.210 C 
ATOM     15  C   LIG d   1       2.447  83.846 109.848  0.00  0.00     0.109 C 
ATOM     16  O   LIG d   1       2.884  81.730 110.911  0.00  0.00    -0.276 OA
ATOM     17  H   LIG d   1       0.087  83.019 110.204  0.00  0.00     0.149 HD
ENDBRANCH   6  13
BRANCH   5  18
ATOM     18  N   LIG d   1       0.852  79.505 109.430  0.00  0.00     0.381 N 
ATOM     19  H   LIG d   1       1.694  79.690 109.939  0.00  0.00    -0.090 HD
ATOM     20  H   LIG d   1       0.920  79.954 108.534  0.00  0.00    -0.090 HD
ATOM     21  H   LIG d   1       0.737  78.523 109.310  0.00  0.00    -0.090 HD
ENDBRANCH   5  18
BRANCH   3  22
ATOM     22  C   LIG d   1      -3.119  78.461 111.896  0.00  0.00     0.382 C 
ATOM     23  O   LIG d   1      -3.453  78.125 113.058  0.00  0.00    -0.241 OA
ATOM     24  O   LIG d   1      -3.726  77.981 110.920  0.00  0.00    -0.241 OA
ENDBRANCH   3  22
TORSDOF 7
ENDMDL
MODEL 2
REMARK VINA RESULT:      -5.4      1.569      2.176
REMARK  7 active torsions:
REMARK  status: ('A' for Active; 'I' for Inactive)
REMARK    1  A    between atoms: C_2  and  C_3 
REMARK    2  A    between atoms: C_3  and  O_6 
REMARK    3  A    between atoms: C_3  and  C_4 
REMARK    4  A    between atoms: C_7  and  O_6 
REMARK    5  A    between atoms: C_9  and  C_10 
REMARK    6  A    between atoms: N_15  and  C_14 
REMARK    7  A    between atoms: N_20  and  C_19 
REMARK       I    between atoms: C_22  and  N_20 
ROOT
ATOM      1  C   LIG d   1       0.199  83.021 111.985  0.00  0.00     0.161 C 
ATOM      2  C   LIG d   1      -1.017  82.457 112.405  0.00  0.00     0.016 C 
ATOM      3  C   LIG d   1      -1.465  81.180 111.993  0.00  0.00     0.038 C 
ATOM      4  C   LIG d   1      -0.652  80.313 111.249  0.00  0.00     0.028 C 
ATOM      5  C   LIG d   1       0.373  81.038 110.384  0.00  0.00    -0.047 C 
ATOM      6  C   LIG d   1       1.150  82.045 111.263  0.00  0.00     0.091 C 
ENDROOT
BRANCH   1   7
ATOM      7  O   LIG d   1       0.866  83.633 113.107  0.00  0.00    -0.368 OA
BRANCH   7   8
ATOM      8  C   LIG d   1       0.333  83.316 114.416  0.00  0.00     0.119 C 
BRANCH   8   9
ATOM      9  C   LIG d   1       0.382  84.604 115.260  0.00  0.00     0.028 C 
ATOM     10  C   LIG d   1       0.090  84.342 116.748  0.00  0.00     0.006 C 
ENDBRANCH   8   9
BRANCH   8  11
ATOM     11  C   LIG d   1       1.227  82.314 115.153  0.00  0.00     0.028 C 
ATOM     12  C   LIG d   1       0.638  80.894 115.174  0.00  0.00     0.006 C 
ENDBRANCH   8  11
ENDBRANCH   7   8
ENDBRANCH   1   7
BRANCH   6  13
ATOM     13  N   LIG d   1       2.115  82.856 110.477  0.00  0.00    -0.311 N 
ATOM     14  C   LIG d   1       3.373  82.481 110.247  0.00  0.00     0.210 C 
ATOM     15  C   LIG d   1       4.205  83.474 109.431  0.00  0.00     0.109 C 
ATOM     16  O   LIG d   1       3.868  81.405 110.614  0.00  0.00    -0.276 OA
ATOM     17  H   LIG d   1       1.788  83.731 110.114  0.00  0.00     0.149 HD
ENDBRANCH   6  13
BRANCH   5  18
ATOM     18  N   LIG d   1       1.242  80.015 109.771  0.00  0.00     0.381 N 
ATOM     19  H   LIG d   1       0.884  79.103 109.971  0.00  0.00    -0.090 HD
ATOM     20  H   LIG d   1       2.161  80.088 110.170  0.00  0.00    -0.090 HD
ATOM     21  H   LIG d   1       1.288  80.153 108.785  0.00  0.00    -0.090 HD
ENDBRANCH   5  18
BRANCH   3  22
ATOM     22  C   LIG d   1      -2.757  80.776 112.294  0.00  0.00     0.382 C 
ATOM     23  O   LIG d   1      -3.024  79.554 112.394  0.00  0.00    -0.241 OA
ATOM     24  O   LIG d   1      -3.669  81.615 112.422  0.00  0.00    -0.241 OA
ENDBRANCH   3  22
TORSDOF 7
ENDMDL
MODEL 3
REMARK VINA RESULT:      -5.1      2.318      5.461
REMARK  7 active torsions:
REMARK  status: ('A' for Active; 'I' for Inactive)
REMARK    1  A    between atoms: C_2  and  C_3 
REMARK    2  A    between atoms: C_3  and  O_6 
REMARK    3  A    between atoms: C_3  and  C_4 
REMARK    4  A    between atoms: C_7  and  O_6 
REMARK    5  A    between atoms: C_9  and  C_10 
REMARK    6  A    between atoms: N_15  and  C_14 
REMARK    7  A    between atoms: N_20  and  C_19 
REMARK       I    between atoms: C_22  and  N_20 
ROOT
ATOM      1  C   LIG d   1       0.079  80.712 113.911  0.00  0.00     0.161 C 
ATOM      2  C   LIG d   1       0.869  81.715 114.496  0.00  0.00     0.016 C 
ATOM      3  C   LIG d   1       1.012  83.011 113.948  0.00  0.00     0.038 C 
ATOM      4  C   LIG d   1       0.250  83.441 112.852  0.00  0.00     0.028 C 
ATOM      5  C   LIG d   1      -0.180  82.304 111.930  0.00  0.00    -0.047 C 
ATOM      6  C   LIG d   1      -0.847  81.196 112.777  0.00  0.00     0.091 C 
ENDROOT
BRANCH   1   7
ATOM      7  O   LIG d   1      -0.686  80.037 114.930  0.00  0.00    -0.368 OA
BRANCH   7   8
ATOM      8  C   LIG d   1      -0.073  78.862 115.515  0.00  0.00     0.119 C 
BRANCH   8   9
ATOM      9  C   LIG d   1      -1.068  77.695 115.361  0.00  0.00     0.028 C 
ATOM     10  C   LIG d   1      -0.815  76.873 114.086  0.00  0.00     0.006 C 
ENDBRANCH   8   9
BRANCH   8  11
ATOM     11  C   LIG d   1       0.125  79.030 117.024  0.00  0.00     0.028 C 
ATOM     12  C   LIG d   1      -0.657  80.221 117.599  0.00  0.00     0.006 C 
ENDBRANCH   8  11
ENDBRANCH   7   8
ENDBRANCH   1   7
BRANCH   6  13
ATOM     13  N   LIG d   1      -1.222  80.010 111.964  0.00  0.00    -0.311 N 
ATOM     14  C   LIG d   1      -2.454  79.504 111.929  0.00  0.00     0.210 C 
ATOM     15  C   LIG d   1      -2.620  78.266 111.042  0.00  0.00     0.109 C 
ATOM     16  O   LIG d   1      -3.432  79.983 112.523  0.00  0.00    -0.276 OA
ATOM     17  H   LIG d   1      -0.496  79.578 111.427  0.00  0.00     0.149 HD
ENDBRANCH   6  13
BRANCH   5  18
ATOM     18  N   LIG d   1      -1.080  82.874 110.910  0.00  0.00     0.381 N 
ATOM     19  H   LIG d   1      -1.539  83.684 111.277  0.00  0.00    -0.090 HD
ATOM     20  H   LIG d   1      -1.782  82.192 110.678  0.00  0.00    -0.090 HD
ATOM     21  H   LIG d   1      -0.562  83.118 110.095  0.00  0.00    -0.090 HD
ENDBRANCH   5  18
BRANCH   3  22
ATOM     22  C   LIG d   1       1.957  83.879 114.474  0.00  0.00     0.382 C 
ATOM     23  O   LIG d   1       1.634  84.679 115.386  0.00  0.00    -0.241 OA
ATOM     24  O   LIG d   1       3.116  83.904 114.018  0.00  0.00    -0.241 OA
ENDBRANCH   3  22
TORSDOF 7
ENDMDL
MODEL 4
REMARK VINA RESULT:      -4.7      1.364      2.180
REMARK  7 active torsions:
REMARK  status: ('A' for Active; 'I' for Inactive)
REMARK    1  A    between atoms: C_2  and  C_3 
REMARK    2  A    between atoms: C_3  and  O_6 
REMARK    3  A    between atoms: C_3  and  C_4 
REMARK    4  A    between atoms: C_7  and  O_6 
REMARK    5  A    between atoms: C_9  and  C_10 
REMARK    6  A    between atoms: N_15  and  C_14 
REMARK    7  A    between atoms: N_20  and  C_19 
REMARK       I    between atoms: C_22  and  N_20 
ROOT
ATOM      1  C   LIG d   1      -0.079  81.125 113.246  0.00  0.00     0.161 C 
ATOM      2  C   LIG d   1      -1.030  80.092 113.188  0.00  0.00     0.016 C 
ATOM      3  C   LIG d   1      -1.421  79.461 111.985  0.00  0.00     0.038 C 
ATOM      4  C   LIG d   1      -0.772  79.718 110.768  0.00  0.00     0.028 C 
ATOM      5  C   LIG d   1      -0.157  81.111 110.692  0.00  0.00    -0.047 C 
ATOM      6  C   LIG d   1       0.720  81.342 111.943  0.00  0.00     0.091 C 
ENDROOT
BRANCH   1   7
ATOM      7  O   LIG d   1       0.818  80.902 114.352  0.00  0.00    -0.368 OA
BRANCH   7   8
ATOM      8  C   LIG d   1       0.223  80.942 115.673  0.00  0.00     0.119 C 
BRANCH   8   9
ATOM      9  C   LIG d   1       0.801  82.169 116.404  0.00  0.00     0.028 C 
ATOM     10  C   LIG d   1       1.914  82.861 115.599  0.00  0.00     0.006 C 
ENDBRANCH   8   9
BRANCH   8  11
ATOM     11  C   LIG d   1       0.646  79.733 116.512  0.00  0.00     0.028 C 
ATOM     12  C   LIG d   1      -0.385  78.594 116.478  0.00  0.00     0.006 C 
ENDBRANCH   8  11
ENDBRANCH   7   8
ENDBRANCH   1   7
BRANCH   6  13
ATOM     13  N   LIG d   1       1.292  82.713 111.990  0.00  0.00    -0.311 N 
ATOM     14  C   LIG d   1       2.505  83.016 111.532  0.00  0.00     0.210 C 
ATOM     15  C   LIG d   1       2.909  84.485 111.695  0.00  0.00     0.109 C 
ATOM     16  O   LIG d   1       3.273  82.216 110.977  0.00  0.00    -0.276 OA
ATOM     17  H   LIG d   1       0.724  83.430 112.396  0.00  0.00     0.149 HD
ENDBRANCH   6  13
BRANCH   5  18
ATOM     18  N   LIG d   1       0.602  81.195 109.430  0.00  0.00     0.381 N 
ATOM     19  H   LIG d   1      -0.016  81.419 108.677  0.00  0.00    -0.090 HD
ATOM     20  H   LIG d   1       1.018  80.299 109.241  0.00  0.00    -0.090 HD
ATOM     21  H   LIG d   1       1.313  81.889 109.505  0.00  0.00    -0.090 HD
ENDBRANCH   5  18
BRANCH   3  22
ATOM     22  C   LIG d   1      -2.500  78.590 111.986  0.00  0.00     0.382 C 
ATOM     23  O   LIG d   1      -3.114  78.353 113.054  0.00  0.00    -0.241 OA
ATOM     24  O   LIG d   1      -2.838  78.003 110.940  0.00  0.00    -0.241 OA
ENDBRANCH   3  22
TORSDOF 7
ENDMDL
MODEL 5
REMARK VINA RESULT:      -4.6      2.882      5.060
REMARK  7 active torsions:
REMARK  status: ('A' for Active; 'I' for Inactive)
REMARK    1  A    between atoms: C_2  and  C_3 
REMARK    2  A    between atoms: C_3  and  O_6 
REMARK    3  A    between atoms: C_3  and  C_4 
REMARK    4  A    between atoms: C_7  and  O_6 
REMARK    5  A    between atoms: C_9  and  C_10 
REMARK    6  A    between atoms: N_15  and  C_14 
REMARK    7  A    between atoms: N_20  and  C_19 
REMARK       I    between atoms: C_22  and  N_20 
ROOT
ATOM      1  C   LIG d   1      -0.320  79.748 114.360  0.00  0.00     0.161 C 
ATOM      2  C   LIG d   1      -0.562  81.042 113.869  0.00  0.00     0.016 C 
ATOM      3  C   LIG d   1      -1.233  81.299 112.651  0.00  0.00     0.038 C 
ATOM      4  C   LIG d   1      -1.845  80.276 111.912  0.00  0.00     0.028 C 
ATOM      5  C   LIG d   1      -1.192  78.912 112.108  0.00  0.00    -0.047 C 
ATOM      6  C   LIG d   1      -1.078  78.624 113.623  0.00  0.00     0.091 C 
ENDROOT
BRANCH   1   7
ATOM      7  O   LIG d   1      -0.604  79.701 115.772  0.00  0.00    -0.368 OA
BRANCH   7   8
ATOM      8  C   LIG d   1       0.527  79.893 116.657  0.00  0.00     0.119 C 
BRANCH   8   9
ATOM      9  C   LIG d   1       0.677  78.613 117.502  0.00  0.00     0.028 C 
ATOM     10  C   LIG d   1       1.773  77.678 116.962  0.00  0.00     0.006 C 
ENDBRANCH   8   9
BRANCH   8  11
ATOM     11  C   LIG d   1       0.263  81.016 117.664  0.00  0.00     0.028 C 
ATOM     12  C   LIG d   1       0.587  82.409 117.103  0.00  0.00     0.006 C 
ENDBRANCH   8  11
ENDBRANCH   7   8
ENDBRANCH   1   7
BRANCH   6  13
ATOM     13  N   LIG d   1      -0.374  77.346 113.905  0.00  0.00    -0.311 N 
ATOM     14  C   LIG d   1      -0.961  76.296 114.476  0.00  0.00     0.210 C 
ATOM     15  C   LIG d   1      -0.049  75.085 114.696  0.00  0.00     0.109 C 
ATOM     16  O   LIG d   1      -2.159  76.241 114.793  0.00  0.00    -0.276 OA
ATOM     17  H   LIG d   1       0.594  77.293 113.652  0.00  0.00     0.149 HD
ENDBRANCH   6  13
BRANCH   5  18
ATOM     18  N   LIG d   1      -2.012  77.918 111.391  0.00  0.00     0.381 N 
ATOM     19  H   LIG d   1      -2.694  78.385 110.827  0.00  0.00    -0.090 HD
ATOM     20  H   LIG d   1      -2.495  77.348 112.063  0.00  0.00    -0.090 HD
ATOM     21  H   LIG d   1      -1.431  77.347 110.817  0.00  0.00    -0.090 HD
ENDBRANCH   5  18
BRANCH   3  22
ATOM     22  C   LIG d   1      -1.262  82.588 112.141  0.00  0.00     0.382 C 
ATOM     23  O   LIG d   1      -1.372  82.771 110.905  0.00  0.00    -0.241 OA
ATOM     24  O   LIG d   1      -1.134  83.570 112.898  0.00  0.00    -0.241 OA
ENDBRANCH   3  22
TORSDOF 7
ENDMDL
MODEL 6
REMARK VINA RESULT:      -4.5      2.703      5.680
REMARK  7 active torsions:
REMARK  status: ('A' for Active; 'I' for Inactive)
REMARK    1  A    between atoms: C_2  and  C_3 
REMARK    2  A    between atoms: C_3  and  O_6 
REMARK    3  A    between atoms: C_3  and  C_4 
REMARK    4  A    between atoms: C_7  and  O_6 
REMARK    5  A    between atoms: C_9  and  C_10 
REMARK    6  A    between atoms: N_15  and  C_14 
REMARK    7  A    between atoms: N_20  and  C_19 
REMARK       I    between atoms: C_22  and  N_20 
ROOT
ATOM      1  C   LIG d   1       0.210  81.229 113.289  0.00  0.00     0.161 C 
ATOM      2  C   LIG d   1       1.117  81.832 114.177  0.00  0.00     0.016 C 
ATOM      3  C   LIG d   1       1.360  81.353 115.485  0.00  0.00     0.038 C 
ATOM      4  C   LIG d   1       0.819  80.143 115.944  0.00  0.00     0.028 C 
ATOM      5  C   LIG d   1      -0.494  79.769 115.264  0.00  0.00    -0.047 C 
ATOM      6  C   LIG d   1      -0.305  79.844 113.732  0.00  0.00     0.091 C 
ENDROOT
BRANCH   1   7
ATOM      7  O   LIG d   1       0.794  81.150 111.973  0.00  0.00    -0.368 OA
BRANCH   7   8
ATOM      8  C   LIG d   1       1.376  82.373 111.459  0.00  0.00     0.119 C 
BRANCH   8   9
ATOM      9  C   LIG d   1       0.407  82.937 110.401  0.00  0.00     0.028 C 
ATOM     10  C   LIG d   1      -0.537  84.004 110.980  0.00  0.00     0.006 C 
ENDBRANCH   8   9
BRANCH   8  11
ATOM     11  C   LIG d   1       2.681  82.096 110.707  0.00  0.00     0.028 C 
ATOM     12  C   LIG d   1       3.466  83.378 110.386  0.00  0.00     0.006 C 
ENDBRANCH   8  11
ENDBRANCH   7   8
ENDBRANCH   1   7
BRANCH   6  13
ATOM     13  N   LIG d   1      -1.565  79.575 112.992  0.00  0.00    -0.311 N 
ATOM     14  C   LIG d   1      -1.902  78.372 112.530  0.00  0.00     0.210 C 
ATOM     15  C   LIG d   1      -3.235  78.318 111.777  0.00  0.00     0.109 C 
ATOM     16  O   LIG d   1      -1.240  77.338 112.701  0.00  0.00    -0.276 OA
ATOM     17  H   LIG d   1      -2.177  80.352 112.835  0.00  0.00     0.149 HD
ENDBRANCH   6  13
BRANCH   5  18
ATOM     18  N   LIG d   1      -0.873  78.424 115.735  0.00  0.00     0.381 N 
ATOM     19  H   LIG d   1      -0.103  78.004 116.217  0.00  0.00    -0.090 HD
ATOM     20  H   LIG d   1      -1.096  77.852 114.940  0.00  0.00    -0.090 HD
ATOM     21  H   LIG d   1      -1.661  78.484 116.342  0.00  0.00    -0.090 HD
ENDBRANCH   5  18
BRANCH   3  22
ATOM     22  C   LIG d   1       2.120  82.110 116.364  0.00  0.00     0.382 C 
ATOM     23  O   LIG d   1       1.792  82.185 117.572  0.00  0.00    -0.241 OA
ATOM     24  O   LIG d   1       3.103  82.755 115.954  0.00  0.00    -0.241 OA
ENDBRANCH   3  22
TORSDOF 7
ENDMDL
MODEL 7
REMARK VINA RESULT:      -4.3      4.020      6.100
REMARK  7 active torsions:
REMARK  status: ('A' for Active; 'I' for Inactive)
REMARK    1  A    between atoms: C_2  and  C_3 
REMARK    2  A    between atoms: C_3  and  O_6 
REMARK    3  A    between atoms: C_3  and  C_4 
REMARK    4  A    between atoms: C_7  and  O_6 
REMARK    5  A    between atoms: C_9  and  C_10 
REMARK    6  A    between atoms: N_15  and  C_14 
REMARK    7  A    between atoms: N_20  and  C_19 
REMARK       I    between atoms: C_22  and  N_20 
ROOT
ATOM      1  C   LIG d   1      -1.211  77.814 115.265  0.00  0.00     0.161 C 
ATOM      2  C   LIG d   1      -1.857  77.626 114.032  0.00  0.00     0.016 C 
ATOM      3  C   LIG d   1      -1.699  78.498 112.929  0.00  0.00     0.038 C 
ATOM      4  C   LIG d   1      -0.759  79.540 112.937  0.00  0.00     0.028 C 
ATOM      5  C   LIG d   1      -0.455  80.071 114.334  0.00  0.00    -0.047 C 
ATOM      6  C   LIG d   1      -0.098  78.882 115.256  0.00  0.00     0.091 C 
ENDROOT
BRANCH   1   7
ATOM      7  O   LIG d   1      -0.695  76.556 115.743  0.00  0.00    -0.368 OA
BRANCH   7   8
ATOM      8  C   LIG d   1      -1.393  75.369 115.294  0.00  0.00     0.119 C 
BRANCH   8   9
ATOM      9  C   LIG d   1      -2.384  74.966 116.403  0.00  0.00     0.028 C 
ATOM     10  C   LIG d   1      -3.850  75.137 115.971  0.00  0.00     0.006 C 
ENDBRANCH   8   9
BRANCH   8  11
ATOM     11  C   LIG d   1      -0.437  74.181 115.152  0.00  0.00     0.028 C 
ATOM     12  C   LIG d   1       0.520  74.325 113.959  0.00  0.00     0.006 C 
ENDBRANCH   8  11
ENDBRANCH   7   8
ENDBRANCH   1   7
BRANCH   6  13
ATOM     13  N   LIG d   1       0.132  79.305 116.662  0.00  0.00    -0.311 N 
ATOM     14  C   LIG d   1       1.215  78.968 117.361  0.00  0.00     0.210 C 
ATOM     15  C   LIG d   1       1.244  79.492 118.800  0.00  0.00     0.109 C 
ATOM     16  O   LIG d   1       2.169  78.313 116.916  0.00  0.00    -0.276 OA
ATOM     17  H   LIG d   1      -0.578  79.866 117.091  0.00  0.00     0.149 HD
ENDBRANCH   6  13
BRANCH   5  18
ATOM     18  N   LIG d   1       0.637  81.054 114.209  0.00  0.00     0.381 N 
ATOM     19  H   LIG d   1       0.337  81.823 113.643  0.00  0.00    -0.090 HD
ATOM     20  H   LIG d   1       1.419  80.615 113.755  0.00  0.00    -0.090 HD
ATOM     21  H   LIG d   1       0.907  81.381 115.110  0.00  0.00    -0.090 HD
ENDBRANCH   5  18
BRANCH   3  22
ATOM     22  C   LIG d   1      -2.514  78.354 111.817  0.00  0.00     0.382 C 
ATOM     23  O   LIG d   1      -2.108  78.726 110.690  0.00  0.00    -0.241 OA
ATOM     24  O   LIG d   1      -3.668  77.899 111.934  0.00  0.00    -0.241 OA
ENDBRANCH   3  22
TORSDOF 7
ENDMDL
MODEL 8
REMARK VINA RESULT:      -4.3      3.337      6.230
REMARK  7 active torsions:
REMARK  status: ('A' for Active; 'I' for Inactive)
REMARK    1  A    between atoms: C_2  and  C_3 
REMARK    2  A    between atoms: C_3  and  O_6 
REMARK    3  A    between atoms: C_3  and  C_4 
REMARK    4  A    between atoms: C_7  and  O_6 
REMARK    5  A    between atoms: C_9  and  C_10 
REMARK    6  A    between atoms: N_15  and  C_14 
REMARK    7  A    between atoms: N_20  and  C_19 
REMARK       I    between atoms: C_22  and  N_20 
ROOT
ATOM      1  C   LIG d   1      -0.239  79.137 115.129  0.00  0.00     0.161 C 
ATOM      2  C   LIG d   1       0.580  79.798 116.060  0.00  0.00     0.016 C 
ATOM      3  C   LIG d   1       1.041  81.123 115.888  0.00  0.00     0.038 C 
ATOM      4  C   LIG d   1       0.587  81.936 114.839  0.00  0.00     0.028 C 
ATOM      5  C   LIG d   1       0.158  81.149 113.605  0.00  0.00    -0.047 C 
ATOM      6  C   LIG d   1      -0.836  80.045 114.033  0.00  0.00     0.091 C 
ENDROOT
BRANCH   1   7
ATOM      7  O   LIG d   1      -1.288  78.428 115.818  0.00  0.00    -0.368 OA
BRANCH   7   8
ATOM      8  C   LIG d   1      -0.998  77.056 116.182  0.00  0.00     0.119 C 
BRANCH   8   9
ATOM      9  C   LIG d   1      -1.100  76.206 114.901  0.00  0.00     0.028 C 
ATOM     10  C   LIG d   1       0.249  75.588 114.498  0.00  0.00     0.006 C 
ENDBRANCH   8   9
BRANCH   8  11
ATOM     11  C   LIG d   1      -2.062  76.494 117.129  0.00  0.00     0.028 C 
ATOM     12  C   LIG d   1      -3.304  75.973 116.387  0.00  0.00     0.006 C 
ENDBRANCH   8  11
ENDBRANCH   7   8
ENDBRANCH   1   7
BRANCH   6  13
ATOM     13  N   LIG d   1      -1.240  79.175 112.899  0.00  0.00    -0.311 N 
ATOM     14  C   LIG d   1      -2.376  79.333 112.222  0.00  0.00     0.210 C 
ATOM     15  C   LIG d   1      -2.609  78.315 111.102  0.00  0.00     0.109 C 
ATOM     16  O   LIG d   1      -3.198  80.241 112.422  0.00  0.00    -0.276 OA
ATOM     17  H   LIG d   1      -0.617  78.432 112.649  0.00  0.00     0.149 HD
ENDBRANCH   6  13
BRANCH   5  18
ATOM     18  N   LIG d   1      -0.421  82.107 112.644  0.00  0.00     0.381 N 
ATOM     19  H   LIG d   1      -0.426  81.706 111.727  0.00  0.00    -0.090 HD
ATOM     20  H   LIG d   1       0.150  82.933 112.624  0.00  0.00    -0.090 HD
ATOM     21  H   LIG d   1      -1.350  82.343 112.916  0.00  0.00    -0.090 HD
ENDBRANCH   5  18
BRANCH   3  22
ATOM     22  C   LIG d   1       1.998  81.635 116.750  0.00  0.00     0.382 C 
ATOM     23  O   LIG d   1       1.671  81.998 117.906  0.00  0.00    -0.241 OA
ATOM     24  O   LIG d   1       3.176  81.780 116.372  0.00  0.00    -0.241 OA
ENDBRANCH   3  22
TORSDOF 7
ENDMDL
MODEL 9
REMARK VINA RESULT:      -4.2      2.193      4.955
REMARK  7 active torsions:
REMARK  status: ('A' for Active; 'I' for Inactive)
REMARK    1  A    between atoms: C_2  and  C_3 
REMARK    2  A    between atoms: C_3  and  O_6 
REMARK    3  A    between atoms: C_3  and  C_4 
REMARK    4  A    between atoms: C_7  and  O_6 
REMARK    5  A    between atoms: C_9  and  C_10 
REMARK    6  A    between atoms: N_15  and  C_14 
REMARK    7  A    between atoms: N_20  and  C_19 
REMARK       I    between atoms: C_22  and  N_20 
ROOT
ATOM      1  C   LIG d   1       0.207  81.329 112.719  0.00  0.00     0.161 C 
ATOM      2  C   LIG d   1       0.052  80.644 113.936  0.00  0.00     0.016 C 
ATOM      3  C   LIG d   1       0.286  81.236 115.198  0.00  0.00     0.038 C 
ATOM      4  C   LIG d   1       0.548  82.607 115.337  0.00  0.00     0.028 C 
ATOM      5  C   LIG d   1       1.210  83.225 114.110  0.00  0.00    -0.047 C 
ATOM      6  C   LIG d   1       0.384  82.856 112.856  0.00  0.00     0.091 C 
ENDROOT
BRANCH   1   7
ATOM      7  O   LIG d   1      -0.898  81.029 111.845  0.00  0.00    -0.368 OA
BRANCH   7   8
ATOM      8  C   LIG d   1      -1.227  79.627 111.692  0.00  0.00     0.119 C 
BRANCH   8   9
ATOM      9  C   LIG d   1      -1.039  79.266 110.205  0.00  0.00     0.028 C 
ATOM     10  C   LIG d   1       0.124  80.036 109.558  0.00  0.00     0.006 C 
ENDBRANCH   8   9
BRANCH   8  11
ATOM     11  C   LIG d   1      -2.707  79.366 111.988  0.00  0.00     0.028 C 
ATOM     12  C   LIG d   1      -2.968  77.946 112.514  0.00  0.00     0.006 C 
ENDBRANCH   8  11
ENDBRANCH   7   8
ENDBRANCH   1   7
BRANCH   6  13
ATOM     13  N   LIG d   1       1.009  83.350 111.601  0.00  0.00    -0.311 N 
ATOM     14  C   LIG d   1       0.346  84.041 110.675  0.00  0.00     0.210 C 
ATOM     15  C   LIG d   1       1.174  84.437 109.448  0.00  0.00     0.109 C 
ATOM     16  O   LIG d   1      -0.840  84.391 110.768  0.00  0.00    -0.276 OA
ATOM     17  H   LIG d   1       1.977  83.138 111.459  0.00  0.00     0.149 HD
ENDBRANCH   6  13
BRANCH   5  18
ATOM     18  N   LIG d   1       1.299  84.679 114.336  0.00  0.00     0.381 N 
ATOM     19  H   LIG d   1       1.624  85.132 113.506  0.00  0.00    -0.090 HD
ATOM     20  H   LIG d   1       1.962  84.854 115.071  0.00  0.00    -0.090 HD
ATOM     21  H   LIG d   1       0.406  85.040 114.592  0.00  0.00    -0.090 HD
ENDBRANCH   5  18
BRANCH   3  22
ATOM     22  C   LIG d   1       0.299  80.444 116.337  0.00  0.00     0.382 C 
ATOM     23  O   LIG d   1       1.364  80.289 116.981  0.00  0.00    -0.241 OA
ATOM     24  O   LIG d   1      -0.731  79.847 116.703  0.00  0.00    -0.241 OA
ENDBRANCH   3  22
TORSDOF 7
ENDMDL
