MODEL 1
REMARK VINA RESULT:      -5.1      0.000      0.000
REMARK  7 active torsions:
REMARK  status: ('A' for Active; 'I' for Inactive)
REMARK    1  A    between atoms: C_2  and  C_3 
REMARK    2  A    between atoms: C_3  and  O_6 
REMARK    3  A    between atoms: C_3  and  C_4 
REMARK    4  A    between atoms: C_7  and  O_6 
REMARK    5  A    between atoms: C_9  and  C_10 
REMARK    6  A    between atoms: N_15  and  C_14 
REMARK    7  A    between atoms: N_20  and  C_19 
REMARK       I    between atoms: C_22  and  N_20 
ROOT
ATOM      1  C   LIG d   1      -2.842  78.647 115.447  0.00  0.00     0.161 C 
ATOM      2  C   LIG d   1      -3.165  79.833 114.768  0.00  0.00     0.016 C 
ATOM      3  C   LIG d   1      -2.928  80.029 113.388  0.00  0.00     0.038 C 
ATOM      4  C   LIG d   1      -2.488  78.988 112.556  0.00  0.00     0.028 C 
ATOM      5  C   LIG d   1      -1.674  77.929 113.291  0.00  0.00    -0.047 C 
ATOM      6  C   LIG d   1      -2.465  77.461 114.534  0.00  0.00     0.091 C 
ENDROOT
BRANCH   1   7
ATOM      7  O   LIG d   1      -3.923  78.278 116.326  0.00  0.00    -0.368 OA
BRANCH   7   8
ATOM      8  C   LIG d   1      -3.658  78.392 117.746  0.00  0.00     0.119 C 
BRANCH   8   9
ATOM      9  C   LIG d   1      -4.331  77.193 118.441  0.00  0.00     0.028 C 
ATOM     10  C   LIG d   1      -3.326  76.323 119.215  0.00  0.00     0.006 C 
ENDBRANCH   8   9
BRANCH   8  11
ATOM     11  C   LIG d   1      -4.328  79.634 118.340  0.00  0.00     0.028 C 
ATOM     12  C   LIG d   1      -3.325  80.748 118.680  0.00  0.00     0.006 C 
ENDBRANCH   8  11
ENDBRANCH   7   8
ENDBRANCH   1   7
BRANCH   6  13
ATOM     13  N   LIG d   1      -1.703  76.486 115.357  0.00  0.00    -0.311 N 
ATOM     14  C   LIG d   1      -2.204  75.321 115.763  0.00  0.00     0.210 C 
ATOM     15  C   LIG d   1      -1.257  74.473 116.618  0.00  0.00     0.109 C 
ATOM     16  O   LIG d   1      -3.331  74.894 115.470  0.00  0.00    -0.276 OA
ATOM     17  H   LIG d   1      -0.768  76.737 115.614  0.00  0.00     0.149 HD
ENDBRANCH   6  13
BRANCH   5  18
ATOM     18  N   LIG d   1      -1.399  76.838 112.337  0.00  0.00     0.381 N 
ATOM     19  H   LIG d   1      -1.998  76.060 112.530  0.00  0.00    -0.090 HD
ATOM     20  H   LIG d   1      -0.446  76.538 112.452  0.00  0.00    -0.090 HD
ATOM     21  H   LIG d   1      -1.544  77.155 111.404  0.00  0.00    -0.090 HD
ENDBRANCH   5  18
BRANCH   3  22
ATOM     22  C   LIG d   1      -3.094  81.289 112.834  0.00  0.00     0.382 C 
ATOM     23  O   LIG d   1      -2.209  81.765 112.082  0.00  0.00    -0.241 OA
ATOM     24  O   LIG d   1      -4.097  81.974 113.111  0.00  0.00    -0.241 OA
ENDBRANCH   3  22
TORSDOF 7
ENDMDL
MODEL 2
REMARK VINA RESULT:      -4.6      3.519      6.229
REMARK  7 active torsions:
REMARK  status: ('A' for Active; 'I' for Inactive)
REMARK    1  A    between atoms: C_2  and  C_3 
REMARK    2  A    between atoms: C_3  and  O_6 
REMARK    3  A    between atoms: C_3  and  C_4 
REMARK    4  A    between atoms: C_7  and  O_6 
REMARK    5  A    between atoms: C_9  and  C_10 
REMARK    6  A    between atoms: N_15  and  C_14 
REMARK    7  A    between atoms: N_20  and  C_19 
REMARK       I    between atoms: C_22  and  N_20 
ROOT
ATOM      1  C   LIG d   1      -0.532  80.234 113.456  0.00  0.00     0.161 C 
ATOM      2  C   LIG d   1      -1.393  79.487 112.634  0.00  0.00     0.016 C 
ATOM      3  C   LIG d   1      -2.154  78.389 113.097  0.00  0.00     0.038 C 
ATOM      4  C   LIG d   1      -2.221  78.056 114.458  0.00  0.00     0.028 C 
ATOM      5  C   LIG d   1      -0.980  78.464 115.244  0.00  0.00    -0.047 C 
ATOM      6  C   LIG d   1      -0.678  79.954 114.967  0.00  0.00     0.091 C 
ENDROOT
BRANCH   1   7
ATOM      7  O   LIG d   1      -0.699  81.640 113.188  0.00  0.00    -0.368 OA
BRANCH   7   8
ATOM      8  C   LIG d   1      -0.336  82.083 111.858  0.00  0.00     0.119 C 
BRANCH   8   9
ATOM      9  C   LIG d   1       1.191  82.294 111.841  0.00  0.00     0.028 C 
ATOM     10  C   LIG d   1       1.916  81.268 110.954  0.00  0.00     0.006 C 
ENDBRANCH   8   9
BRANCH   8  11
ATOM     11  C   LIG d   1      -0.938  83.455 111.543  0.00  0.00     0.028 C 
ATOM     12  C   LIG d   1      -0.556  83.968 110.146  0.00  0.00     0.006 C 
ENDBRANCH   8  11
ENDBRANCH   7   8
ENDBRANCH   1   7
BRANCH   6  13
ATOM     13  N   LIG d   1       0.569  80.413 115.631  0.00  0.00    -0.311 N 
ATOM     14  C   LIG d   1       0.596  80.950 116.850  0.00  0.00     0.210 C 
ATOM     15  C   LIG d   1       1.985  81.373 117.340  0.00  0.00     0.109 C 
ATOM     16  O   LIG d   1      -0.393  81.085 117.585  0.00  0.00    -0.276 OA
ATOM     17  H   LIG d   1       1.423  80.311 115.119  0.00  0.00     0.149 HD
ENDBRANCH   6  13
BRANCH   5  18
ATOM     18  N   LIG d   1      -1.242  78.182 116.668  0.00  0.00     0.381 N 
ATOM     19  H   LIG d   1      -0.850  77.296 116.916  0.00  0.00    -0.090 HD
ATOM     20  H   LIG d   1      -2.236  78.140 116.814  0.00  0.00    -0.090 HD
ATOM     21  H   LIG d   1      -0.846  78.899 117.236  0.00  0.00    -0.090 HD
ENDBRANCH   5  18
BRANCH   3  22
ATOM     22  C   LIG d   1      -2.826  77.587 112.188  0.00  0.00     0.382 C 
ATOM     23  O   LIG d   1      -4.075  77.662 112.090  0.00  0.00    -0.241 OA
ATOM     24  O   LIG d   1      -2.206  76.757 111.497  0.00  0.00    -0.241 OA
ENDBRANCH   3  22
TORSDOF 7
ENDMDL
MODEL 3
REMARK VINA RESULT:      -4.6      4.853      6.223
REMARK  7 active torsions:
REMARK  status: ('A' for Active; 'I' for Inactive)
REMARK    1  A    between atoms: C_2  and  C_3 
REMARK    2  A    between atoms: C_3  and  O_6 
REMARK    3  A    between atoms: C_3  and  C_4 
REMARK    4  A    between atoms: C_7  and  O_6 
REMARK    5  A    between atoms: C_9  and  C_10 
REMARK    6  A    between atoms: N_15  and  C_14 
REMARK    7  A    between atoms: N_20  and  C_19 
REMARK       I    between atoms: C_22  and  N_20 
ROOT
ATOM      1  C   LIG d   1       1.419  81.324 112.892  0.00  0.00     0.161 C 
ATOM      2  C   LIG d   1       2.385  82.268 112.507  0.00  0.00     0.016 C 
ATOM      3  C   LIG d   1       2.464  82.815 111.205  0.00  0.00     0.038 C 
ATOM      4  C   LIG d   1       1.480  82.566 110.236  0.00  0.00     0.028 C 
ATOM      5  C   LIG d   1       0.771  81.229 110.422  0.00  0.00    -0.047 C 
ATOM      6  C   LIG d   1       0.270  81.125 111.881  0.00  0.00     0.091 C 
ENDROOT
BRANCH   1   7
ATOM      7  O   LIG d   1       0.891  81.667 114.189  0.00  0.00    -0.368 OA
BRANCH   7   8
ATOM      8  C   LIG d   1       1.532  81.037 115.325  0.00  0.00     0.119 C 
BRANCH   8   9
ATOM      9  C   LIG d   1       0.441  80.766 116.380  0.00  0.00     0.028 C 
ATOM     10  C   LIG d   1      -0.631  79.786 115.877  0.00  0.00     0.006 C 
ENDBRANCH   8   9
BRANCH   8  11
ATOM     11  C   LIG d   1       2.525  81.986 116.003  0.00  0.00     0.028 C 
ATOM     12  C   LIG d   1       2.154  82.294 117.462  0.00  0.00     0.006 C 
ENDBRANCH   8  11
ENDBRANCH   7   8
ENDBRANCH   1   7
BRANCH   6  13
ATOM     13  N   LIG d   1      -0.362  79.812 112.172  0.00  0.00    -0.311 N 
ATOM     14  C   LIG d   1      -1.663  79.662 112.416  0.00  0.00     0.210 C 
ATOM     15  C   LIG d   1      -2.104  78.225 112.712  0.00  0.00     0.109 C 
ATOM     16  O   LIG d   1      -2.498  80.578 112.385  0.00  0.00    -0.276 OA
ATOM     17  H   LIG d   1       0.238  79.010 112.186  0.00  0.00     0.149 HD
ENDBRANCH   6  13
BRANCH   5  18
ATOM     18  N   LIG d   1      -0.319  81.161 109.431  0.00  0.00     0.381 N 
ATOM     19  H   LIG d   1      -0.953  81.922 109.572  0.00  0.00    -0.090 HD
ATOM     20  H   LIG d   1      -0.824  80.302 109.561  0.00  0.00    -0.090 HD
ATOM     21  H   LIG d   1       0.056  81.198 108.509  0.00  0.00    -0.090 HD
ENDBRANCH   5  18
BRANCH   3  22
ATOM     22  C   LIG d   1       3.557  83.589 110.850  0.00  0.00     0.382 C 
ATOM     23  O   LIG d   1       4.638  83.473 111.477  0.00  0.00    -0.241 OA
ATOM     24  O   LIG d   1       3.464  84.434 109.939  0.00  0.00    -0.241 OA
ENDBRANCH   3  22
TORSDOF 7
ENDMDL
MODEL 4
REMARK VINA RESULT:      -4.5      1.789      2.455
REMARK  7 active torsions:
REMARK  status: ('A' for Active; 'I' for Inactive)
REMARK    1  A    between atoms: C_2  and  C_3 
REMARK    2  A    between atoms: C_3  and  O_6 
REMARK    3  A    between atoms: C_3  and  C_4 
REMARK    4  A    between atoms: C_7  and  O_6 
REMARK    5  A    between atoms: C_9  and  C_10 
REMARK    6  A    between atoms: N_15  and  C_14 
REMARK    7  A    between atoms: N_20  and  C_19 
REMARK       I    between atoms: C_22  and  N_20 
ROOT
ATOM      1  C   LIG d   1      -0.707  78.945 114.913  0.00  0.00     0.161 C 
ATOM      2  C   LIG d   1      -0.742  80.207 114.297  0.00  0.00     0.016 C 
ATOM      3  C   LIG d   1      -1.573  80.511 113.194  0.00  0.00     0.038 C 
ATOM      4  C   LIG d   1      -2.542  79.612 112.725  0.00  0.00     0.028 C 
ATOM      5  C   LIG d   1      -2.193  78.151 112.991  0.00  0.00    -0.047 C 
ATOM      6  C   LIG d   1      -1.837  77.985 114.487  0.00  0.00     0.091 C 
ENDROOT
BRANCH   1   7
ATOM      7  O   LIG d   1      -0.696  79.101 116.346  0.00  0.00    -0.368 OA
BRANCH   7   8
ATOM      8  C   LIG d   1      -1.480  80.200 116.873  0.00  0.00     0.119 C 
BRANCH   8   9
ATOM      9  C   LIG d   1      -0.629  80.900 117.950  0.00  0.00     0.028 C 
ATOM     10  C   LIG d   1      -1.490  81.580 119.028  0.00  0.00     0.006 C 
ENDBRANCH   8   9
BRANCH   8  11
ATOM     11  C   LIG d   1      -2.726  79.695 117.606  0.00  0.00     0.028 C 
ATOM     12  C   LIG d   1      -4.019  79.922 116.808  0.00  0.00     0.006 C 
ENDBRANCH   8  11
ENDBRANCH   7   8
ENDBRANCH   1   7
BRANCH   6  13
ATOM     13  N   LIG d   1      -1.401  76.602 114.815  0.00  0.00    -0.311 N 
ATOM     14  C   LIG d   1      -1.971  75.859 115.762  0.00  0.00     0.210 C 
ATOM     15  C   LIG d   1      -1.355  74.470 115.952  0.00  0.00     0.109 C 
ATOM     16  O   LIG d   1      -2.949  76.207 116.441  0.00  0.00    -0.276 OA
ATOM     17  H   LIG d   1      -0.634  76.230 114.291  0.00  0.00     0.149 HD
ENDBRANCH   6  13
BRANCH   5  18
ATOM     18  N   LIG d   1      -3.348  77.333 112.577  0.00  0.00     0.381 N 
ATOM     19  H   LIG d   1      -3.050  76.624 111.938  0.00  0.00    -0.090 HD
ATOM     20  H   LIG d   1      -4.012  77.923 112.106  0.00  0.00    -0.090 HD
ATOM     21  H   LIG d   1      -3.773  76.915 113.375  0.00  0.00    -0.090 HD
ENDBRANCH   5  18
BRANCH   3  22
ATOM     22  C   LIG d   1      -1.411  81.713 112.523  0.00  0.00     0.382 C 
ATOM     23  O   LIG d   1      -0.268  82.217 112.406  0.00  0.00    -0.241 OA
ATOM     24  O   LIG d   1      -2.399  82.323 112.071  0.00  0.00    -0.241 OA
ENDBRANCH   3  22
TORSDOF 7
ENDMDL
MODEL 5
REMARK VINA RESULT:      -4.5      3.249      5.291
REMARK  7 active torsions:
REMARK  status: ('A' for Active; 'I' for Inactive)
REMARK    1  A    between atoms: C_2  and  C_3 
REMARK    2  A    between atoms: C_3  and  O_6 
REMARK    3  A    between atoms: C_3  and  C_4 
REMARK    4  A    between atoms: C_7  and  O_6 
REMARK    5  A    between atoms: C_9  and  C_10 
REMARK    6  A    between atoms: N_15  and  C_14 
REMARK    7  A    between atoms: N_20  and  C_19 
REMARK       I    between atoms: C_22  and  N_20 
ROOT
ATOM      1  C   LIG d   1      -1.149  80.242 113.604  0.00  0.00     0.161 C 
ATOM      2  C   LIG d   1      -2.096  79.205 113.644  0.00  0.00     0.016 C 
ATOM      3  C   LIG d   1      -2.401  78.387 112.532  0.00  0.00     0.038 C 
ATOM      4  C   LIG d   1      -1.667  78.453 111.339  0.00  0.00     0.028 C 
ATOM      5  C   LIG d   1      -1.045  79.823 111.086  0.00  0.00    -0.047 C 
ATOM      6  C   LIG d   1      -0.259  80.257 112.344  0.00  0.00     0.091 C 
ENDROOT
BRANCH   1   7
ATOM      7  O   LIG d   1      -0.335  80.206 114.793  0.00  0.00    -0.368 OA
BRANCH   7   8
ATOM      8  C   LIG d   1      -0.935  79.590 115.959  0.00  0.00     0.119 C 
BRANCH   8   9
ATOM      9  C   LIG d   1      -0.623  80.489 117.170  0.00  0.00     0.028 C 
ATOM     10  C   LIG d   1      -1.816  80.611 118.133  0.00  0.00     0.006 C 
ENDBRANCH   8   9
BRANCH   8  11
ATOM     11  C   LIG d   1      -0.280  78.241 116.275  0.00  0.00     0.028 C 
ATOM     12  C   LIG d   1      -1.300  77.163 116.673  0.00  0.00     0.006 C 
ENDBRANCH   8  11
ENDBRANCH   7   8
ENDBRANCH   1   7
BRANCH   6  13
ATOM     13  N   LIG d   1       0.311  81.623 112.213  0.00  0.00    -0.311 N 
ATOM     14  C   LIG d   1       1.530  81.866 111.732  0.00  0.00     0.210 C 
ATOM     15  C   LIG d   1       1.930  83.344 111.701  0.00  0.00     0.109 C 
ATOM     16  O   LIG d   1       2.305  81.000 111.300  0.00  0.00    -0.276 OA
ATOM     17  H   LIG d   1      -0.262  82.388 112.511  0.00  0.00     0.149 HD
ENDBRANCH   6  13
BRANCH   5  18
ATOM     18  N   LIG d   1      -0.197  79.712 109.884  0.00  0.00     0.381 N 
ATOM     19  H   LIG d   1      -0.144  80.599 109.424  0.00  0.00    -0.090 HD
ATOM     20  H   LIG d   1      -0.615  79.053 109.251  0.00  0.00    -0.090 HD
ATOM     21  H   LIG d   1       0.716  79.406 110.138  0.00  0.00    -0.090 HD
ENDBRANCH   5  18
BRANCH   3  22
ATOM     22  C   LIG d   1      -3.479  77.517 112.595  0.00  0.00     0.382 C 
ATOM     23  O   LIG d   1      -4.323  77.496 111.666  0.00  0.00    -0.241 OA
ATOM     24  O   LIG d   1      -3.643  76.784 113.589  0.00  0.00    -0.241 OA
ENDBRANCH   3  22
TORSDOF 7
ENDMDL
MODEL 6
REMARK VINA RESULT:      -4.3      2.228      2.549
REMARK  7 active torsions:
REMARK  status: ('A' for Active; 'I' for Inactive)
REMARK    1  A    between atoms: C_2  and  C_3 
REMARK    2  A    between atoms: C_3  and  O_6 
REMARK    3  A    between atoms: C_3  and  C_4 
REMARK    4  A    between atoms: C_7  and  O_6 
REMARK    5  A    between atoms: C_9  and  C_10 
REMARK    6  A    between atoms: N_15  and  C_14 
REMARK    7  A    between atoms: N_20  and  C_19 
REMARK       I    between atoms: C_22  and  N_20 
ROOT
ATOM      1  C   LIG d   1      -1.262  79.159 114.832  0.00  0.00     0.161 C 
ATOM      2  C   LIG d   1      -0.733  80.253 114.127  0.00  0.00     0.016 C 
ATOM      3  C   LIG d   1      -0.880  80.423 112.731  0.00  0.00     0.038 C 
ATOM      4  C   LIG d   1      -1.701  79.583 111.964  0.00  0.00     0.028 C 
ATOM      5  C   LIG d   1      -1.843  78.180 112.545  0.00  0.00    -0.047 C 
ATOM      6  C   LIG d   1      -2.254  78.291 114.031  0.00  0.00     0.091 C 
ENDROOT
BRANCH   1   7
ATOM      7  O   LIG d   1      -1.871  79.616 116.056  0.00  0.00    -0.368 OA
BRANCH   7   8
ATOM      8  C   LIG d   1      -1.031  79.583 117.237  0.00  0.00     0.119 C 
BRANCH   8   9
ATOM      9  C   LIG d   1      -1.392  78.309 118.026  0.00  0.00     0.028 C 
ATOM     10  C   LIG d   1      -0.346  77.196 117.854  0.00  0.00     0.006 C 
ENDBRANCH   8   9
BRANCH   8  11
ATOM     11  C   LIG d   1      -1.349  80.748 118.179  0.00  0.00     0.028 C 
ATOM     12  C   LIG d   1      -0.178  81.732 118.326  0.00  0.00     0.006 C 
ENDBRANCH   8  11
ENDBRANCH   7   8
ENDBRANCH   1   7
BRANCH   6  13
ATOM     13  N   LIG d   1      -2.332  76.965 114.698  0.00  0.00    -0.311 N 
ATOM     14  C   LIG d   1      -3.386  76.562 115.405  0.00  0.00     0.210 C 
ATOM     15  C   LIG d   1      -3.253  75.168 116.026  0.00  0.00     0.109 C 
ATOM     16  O   LIG d   1      -4.432  77.213 115.550  0.00  0.00    -0.276 OA
ATOM     17  H   LIG d   1      -1.540  76.361 114.606  0.00  0.00     0.149 HD
ENDBRANCH   6  13
BRANCH   5  18
ATOM     18  N   LIG d   1      -2.831  77.455 111.724  0.00  0.00     0.381 N 
ATOM     19  H   LIG d   1      -3.553  77.086 112.310  0.00  0.00    -0.090 HD
ATOM     20  H   LIG d   1      -2.373  76.687 111.266  0.00  0.00    -0.090 HD
ATOM     21  H   LIG d   1      -3.226  78.068 111.045  0.00  0.00    -0.090 HD
ENDBRANCH   5  18
BRANCH   3  22
ATOM     22  C   LIG d   1      -0.170  81.421 112.081  0.00  0.00     0.382 C 
ATOM     23  O   LIG d   1       0.647  82.127 112.721  0.00  0.00    -0.241 OA
ATOM     24  O   LIG d   1      -0.367  81.653 110.874  0.00  0.00    -0.241 OA
ENDBRANCH   3  22
TORSDOF 7
ENDMDL
MODEL 7
REMARK VINA RESULT:      -4.3      2.363      3.254
REMARK  7 active torsions:
REMARK  status: ('A' for Active; 'I' for Inactive)
REMARK    1  A    between atoms: C_2  and  C_3 
REMARK    2  A    between atoms: C_3  and  O_6 
REMARK    3  A    between atoms: C_3  and  C_4 
REMARK    4  A    between atoms: C_7  and  O_6 
REMARK    5  A    between atoms: C_9  and  C_10 
REMARK    6  A    between atoms: N_15  and  C_14 
REMARK    7  A    between atoms: N_20  and  C_19 
REMARK       I    between atoms: C_22  and  N_20 
ROOT
ATOM      1  C   LIG d   1      -1.256  79.114 114.492  0.00  0.00     0.161 C 
ATOM      2  C   LIG d   1      -0.647  80.151 113.765  0.00  0.00     0.016 C 
ATOM      3  C   LIG d   1      -0.679  80.235 112.354  0.00  0.00     0.038 C 
ATOM      4  C   LIG d   1      -1.456  79.363 111.577  0.00  0.00     0.028 C 
ATOM      5  C   LIG d   1      -1.677  78.003 112.230  0.00  0.00    -0.047 C 
ATOM      6  C   LIG d   1      -2.202  78.216 113.668  0.00  0.00     0.091 C 
ENDROOT
BRANCH   1   7
ATOM      7  O   LIG d   1      -1.949  79.659 115.632  0.00  0.00    -0.368 OA
BRANCH   7   8
ATOM      8  C   LIG d   1      -1.426  79.289 116.932  0.00  0.00     0.119 C 
BRANCH   8   9
ATOM      9  C   LIG d   1      -1.005  80.586 117.648  0.00  0.00     0.028 C 
ATOM     10  C   LIG d   1       0.428  81.016 117.290  0.00  0.00     0.006 C 
ENDBRANCH   8   9
BRANCH   8  11
ATOM     11  C   LIG d   1      -0.143  78.462 116.802  0.00  0.00     0.028 C 
ATOM     12  C   LIG d   1      -0.260  77.075 117.453  0.00  0.00     0.006 C 
ENDBRANCH   8  11
ENDBRANCH   7   8
ENDBRANCH   1   7
BRANCH   6  13
ATOM     13  N   LIG d   1      -2.364  76.937 114.407  0.00  0.00    -0.311 N 
ATOM     14  C   LIG d   1      -3.422  76.659 115.167  0.00  0.00     0.210 C 
ATOM     15  C   LIG d   1      -3.381  75.292 115.857  0.00  0.00     0.109 C 
ATOM     16  O   LIG d   1      -4.406  77.401 115.309  0.00  0.00    -0.276 OA
ATOM     17  H   LIG d   1      -1.627  76.264 114.323  0.00  0.00     0.149 HD
ENDBRANCH   6  13
BRANCH   5  18
ATOM     18  N   LIG d   1      -2.614  77.246 111.378  0.00  0.00     0.381 N 
ATOM     19  H   LIG d   1      -2.136  76.904 110.569  0.00  0.00    -0.090 HD
ATOM     20  H   LIG d   1      -3.347  77.863 111.074  0.00  0.00    -0.090 HD
ATOM     21  H   LIG d   1      -3.002  76.485 111.890  0.00  0.00    -0.090 HD
ENDBRANCH   5  18
BRANCH   3  22
ATOM     22  C   LIG d   1       0.105  81.176 111.703  0.00  0.00     0.382 C 
ATOM     23  O   LIG d   1      -0.388  81.877 110.787  0.00  0.00    -0.241 OA
ATOM     24  O   LIG d   1       1.310  81.302 111.991  0.00  0.00    -0.241 OA
ENDBRANCH   3  22
TORSDOF 7
ENDMDL
MODEL 8
REMARK VINA RESULT:      -4.2      2.634      3.809
REMARK  7 active torsions:
REMARK  status: ('A' for Active; 'I' for Inactive)
REMARK    1  A    between atoms: C_2  and  C_3 
REMARK    2  A    between atoms: C_3  and  O_6 
REMARK    3  A    between atoms: C_3  and  C_4 
REMARK    4  A    between atoms: C_7  and  O_6 
REMARK    5  A    between atoms: C_9  and  C_10 
REMARK    6  A    between atoms: N_15  and  C_14 
REMARK    7  A    between atoms: N_20  and  C_19 
REMARK       I    between atoms: C_22  and  N_20 
ROOT
ATOM      1  C   LIG d   1      -2.386  76.715 115.318  0.00  0.00     0.161 C 
ATOM      2  C   LIG d   1      -2.777  76.839 113.975  0.00  0.00     0.016 C 
ATOM      3  C   LIG d   1      -2.323  77.874 113.125  0.00  0.00     0.038 C 
ATOM      4  C   LIG d   1      -1.322  78.774 113.521  0.00  0.00     0.028 C 
ATOM      5  C   LIG d   1      -1.269  78.995 115.029  0.00  0.00    -0.047 C 
ATOM      6  C   LIG d   1      -1.209  77.622 115.736  0.00  0.00     0.091 C 
ENDROOT
BRANCH   1   7
ATOM      7  O   LIG d   1      -2.086  75.337 115.614  0.00  0.00    -0.368 OA
BRANCH   7   8
ATOM      8  C   LIG d   1      -2.994  74.667 116.524  0.00  0.00     0.119 C 
BRANCH   8   9
ATOM      9  C   LIG d   1      -4.151  75.640 116.822  0.00  0.00     0.028 C 
ATOM     10  C   LIG d   1      -4.325  75.901 118.327  0.00  0.00     0.006 C 
ENDBRANCH   8   9
BRANCH   8  11
ATOM     11  C   LIG d   1      -2.329  74.400 117.878  0.00  0.00     0.028 C 
ATOM     12  C   LIG d   1      -0.812  74.181 117.764  0.00  0.00     0.006 C 
ENDBRANCH   8  11
ENDBRANCH   7   8
ENDBRANCH   1   7
BRANCH   6  13
ATOM     13  N   LIG d   1      -1.240  77.745 117.217  0.00  0.00    -0.311 N 
ATOM     14  C   LIG d   1      -0.143  77.809 117.970  0.00  0.00     0.210 C 
ATOM     15  C   LIG d   1      -0.399  77.913 119.477  0.00  0.00     0.109 C 
ATOM     16  O   LIG d   1       1.016  77.823 117.531  0.00  0.00    -0.276 OA
ATOM     17  H   LIG d   1      -2.141  77.772 117.654  0.00  0.00     0.149 HD
ENDBRANCH   6  13
BRANCH   5  18
ATOM     18  N   LIG d   1      -0.097  79.844 115.314  0.00  0.00     0.381 N 
ATOM     19  H   LIG d   1       0.318  80.147 114.456  0.00  0.00    -0.090 HD
ATOM     20  H   LIG d   1       0.582  79.301 115.818  0.00  0.00    -0.090 HD
ATOM     21  H   LIG d   1      -0.371  80.633 115.856  0.00  0.00    -0.090 HD
ENDBRANCH   5  18
BRANCH   3  22
ATOM     22  C   LIG d   1      -2.901  78.041 111.875  0.00  0.00     0.382 C 
ATOM     23  O   LIG d   1      -4.046  77.581 111.648  0.00  0.00    -0.241 OA
ATOM     24  O   LIG d   1      -2.275  78.606 110.960  0.00  0.00    -0.241 OA
ENDBRANCH   3  22
TORSDOF 7
ENDMDL
MODEL 9
REMARK VINA RESULT:      -4.1      2.872      5.617
REMARK  7 active torsions:
REMARK  status: ('A' for Active; 'I' for Inactive)
REMARK    1  A    between atoms: C_2  and  C_3 
REMARK    2  A    between atoms: C_3  and  O_6 
REMARK    3  A    between atoms: C_3  and  C_4 
REMARK    4  A    between atoms: C_7  and  O_6 
REMARK    5  A    between atoms: C_9  and  C_10 
REMARK    6  A    between atoms: N_15  and  C_14 
REMARK    7  A    between atoms: N_20  and  C_19 
REMARK       I    between atoms: C_22  and  N_20 
ROOT
ATOM      1  C   LIG d   1      -0.797  76.757 115.481  0.00  0.00     0.161 C 
ATOM      2  C   LIG d   1      -2.047  76.128 115.358  0.00  0.00     0.016 C 
ATOM      3  C   LIG d   1      -2.718  75.511 116.439  0.00  0.00     0.038 C 
ATOM      4  C   LIG d   1      -2.250  75.613 117.757  0.00  0.00     0.028 C 
ATOM      5  C   LIG d   1      -0.739  75.802 117.851  0.00  0.00    -0.047 C 
ATOM      6  C   LIG d   1      -0.323  76.975 116.933  0.00  0.00     0.091 C 
ENDROOT
BRANCH   1   7
ATOM      7  O   LIG d   1      -0.806  78.007 114.764  0.00  0.00    -0.368 OA
BRANCH   7   8
ATOM      8  C   LIG d   1      -2.111  78.548 114.441  0.00  0.00     0.119 C 
BRANCH   8   9
ATOM      9  C   LIG d   1      -2.043  79.094 113.002  0.00  0.00     0.028 C 
ATOM     10  C   LIG d   1      -2.887  78.265 112.019  0.00  0.00     0.006 C 
ENDBRANCH   8   9
BRANCH   8  11
ATOM     11  C   LIG d   1      -2.446  79.757 115.319  0.00  0.00     0.028 C 
ATOM     12  C   LIG d   1      -3.674  79.524 116.212  0.00  0.00     0.006 C 
ENDBRANCH   8  11
ENDBRANCH   7   8
ENDBRANCH   1   7
BRANCH   6  13
ATOM     13  N   LIG d   1       1.149  77.174 116.901  0.00  0.00    -0.311 N 
ATOM     14  C   LIG d   1       1.800  77.968 117.749  0.00  0.00     0.210 C 
ATOM     15  C   LIG d   1       3.314  78.046 117.528  0.00  0.00     0.109 C 
ATOM     16  O   LIG d   1       1.272  78.589 118.684  0.00  0.00    -0.276 OA
ATOM     17  H   LIG d   1       1.660  76.683 116.193  0.00  0.00     0.149 HD
ENDBRANCH   6  13
BRANCH   5  18
ATOM     18  N   LIG d   1      -0.406  76.032 119.269  0.00  0.00     0.381 N 
ATOM     19  H   LIG d   1       0.419  76.594 119.337  0.00  0.00    -0.090 HD
ATOM     20  H   LIG d   1      -0.221  75.146 119.707  0.00  0.00    -0.090 HD
ATOM     21  H   LIG d   1      -1.164  76.486 119.729  0.00  0.00    -0.090 HD
ENDBRANCH   5  18
BRANCH   3  22
ATOM     22  C   LIG d   1      -3.850  74.747 116.199  0.00  0.00     0.382 C 
ATOM     23  O   LIG d   1      -4.313  74.661 115.036  0.00  0.00    -0.241 OA
ATOM     24  O   LIG d   1      -4.440  74.180 117.138  0.00  0.00    -0.241 OA
ENDBRANCH   3  22
TORSDOF 7
ENDMDL
