MODEL 1
REMARK VINA RESULT:      -4.8      0.000      0.000
REMARK  7 active torsions:
REMARK  status: ('A' for Active; 'I' for Inactive)
REMARK    1  A    between atoms: C_2  and  C_3 
REMARK    2  A    between atoms: C_3  and  O_6 
REMARK    3  A    between atoms: C_3  and  C_4 
REMARK    4  A    between atoms: C_7  and  O_6 
REMARK    5  A    between atoms: C_9  and  C_10 
REMARK    6  A    between atoms: N_15  and  C_14 
REMARK    7  A    between atoms: N_20  and  C_19 
REMARK       I    between atoms: C_22  and  N_20 
ROOT
ATOM      1  C   LIG d   1      -2.408  78.319 114.941  0.00  0.00     0.161 C 
ATOM      2  C   LIG d   1      -2.767  79.548 114.362  0.00  0.00     0.016 C 
ATOM      3  C   LIG d   1      -2.505  79.878 113.012  0.00  0.00     0.038 C 
ATOM      4  C   LIG d   1      -1.997  78.937 112.104  0.00  0.00     0.028 C 
ATOM      5  C   LIG d   1      -1.155  77.851 112.764  0.00  0.00    -0.047 C 
ATOM      6  C   LIG d   1      -1.954  77.239 113.937  0.00  0.00     0.091 C 
ENDROOT
BRANCH   1   7
ATOM      7  O   LIG d   1      -3.493  77.826 115.752  0.00  0.00    -0.368 OA
BRANCH   7   8
ATOM      8  C   LIG d   1      -3.213  77.666 117.164  0.00  0.00     0.119 C 
BRANCH   8   9
ATOM      9  C   LIG d   1      -4.353  78.351 117.943  0.00  0.00     0.028 C 
ATOM     10  C   LIG d   1      -3.981  78.622 119.410  0.00  0.00     0.006 C 
ENDBRANCH   8   9
BRANCH   8  11
ATOM     11  C   LIG d   1      -1.939  78.416 117.567  0.00  0.00     0.028 C 
ATOM     12  C   LIG d   1      -0.819  77.476 118.040  0.00  0.00     0.006 C 
ENDBRANCH   8  11
ENDBRANCH   7   8
ENDBRANCH   1   7
BRANCH   6  13
ATOM     13  N   LIG d   1      -1.170  76.226 114.691  0.00  0.00    -0.311 N 
ATOM     14  C   LIG d   1      -1.681  75.074 115.120  0.00  0.00     0.210 C 
ATOM     15  C   LIG d   1      -0.705  74.182 115.894  0.00  0.00     0.109 C 
ATOM     16  O   LIG d   1      -2.841  74.691 114.906  0.00  0.00    -0.276 OA
ATOM     17  H   LIG d   1      -0.211  76.442 114.881  0.00  0.00     0.149 HD
ENDBRANCH   6  13
BRANCH   5  18
ATOM     18  N   LIG d   1      -0.806  76.864 111.725  0.00  0.00     0.381 N 
ATOM     19  H   LIG d   1      -0.633  75.974 112.148  0.00  0.00    -0.090 HD
ATOM     20  H   LIG d   1       0.036  77.162 111.263  0.00  0.00    -0.090 HD
ATOM     21  H   LIG d   1      -1.547  76.788 111.064  0.00  0.00    -0.090 HD
ENDBRANCH   5  18
BRANCH   3  22
ATOM     22  C   LIG d   1      -2.714  81.175 112.569  0.00  0.00     0.382 C 
ATOM     23  O   LIG d   1      -1.784  81.803 112.007  0.00  0.00    -0.241 OA
ATOM     24  O   LIG d   1      -3.807  81.740 112.763  0.00  0.00    -0.241 OA
ENDBRANCH   3  22
TORSDOF 7
ENDMDL
MODEL 2
REMARK VINA RESULT:      -4.4      2.691      3.877
REMARK  7 active torsions:
REMARK  status: ('A' for Active; 'I' for Inactive)
REMARK    1  A    between atoms: C_2  and  C_3 
REMARK    2  A    between atoms: C_3  and  O_6 
REMARK    3  A    between atoms: C_3  and  C_4 
REMARK    4  A    between atoms: C_7  and  O_6 
REMARK    5  A    between atoms: C_9  and  C_10 
REMARK    6  A    between atoms: N_15  and  C_14 
REMARK    7  A    between atoms: N_20  and  C_19 
REMARK       I    between atoms: C_22  and  N_20 
ROOT
ATOM      1  C   LIG d   1      -1.542  76.622 115.717  0.00  0.00     0.161 C 
ATOM      2  C   LIG d   1      -2.141  76.997 114.503  0.00  0.00     0.016 C 
ATOM      3  C   LIG d   1      -1.921  78.247 113.880  0.00  0.00     0.038 C 
ATOM      4  C   LIG d   1      -0.962  79.153 114.356  0.00  0.00     0.028 C 
ATOM      5  C   LIG d   1      -0.704  79.032 115.854  0.00  0.00    -0.047 C 
ATOM      6  C   LIG d   1      -0.408  77.553 116.193  0.00  0.00     0.091 C 
ENDROOT
BRANCH   1   7
ATOM      7  O   LIG d   1      -1.071  75.263 115.631  0.00  0.00    -0.368 OA
BRANCH   7   8
ATOM      8  C   LIG d   1      -1.655  74.325 116.568  0.00  0.00     0.119 C 
BRANCH   8   9
ATOM      9  C   LIG d   1      -2.986  74.927 117.057  0.00  0.00     0.028 C 
ATOM     10  C   LIG d   1      -4.209  74.180 116.497  0.00  0.00     0.006 C 
ENDBRANCH   8   9
BRANCH   8  11
ATOM     11  C   LIG d   1      -0.790  74.180 117.823  0.00  0.00     0.028 C 
ATOM     12  C   LIG d   1      -1.605  74.280 119.123  0.00  0.00     0.006 C 
ENDBRANCH   8  11
ENDBRANCH   7   8
ENDBRANCH   1   7
BRANCH   6  13
ATOM     13  N   LIG d   1      -0.227  77.332 117.652  0.00  0.00    -0.311 N 
ATOM     14  C   LIG d   1       0.965  77.308 118.247  0.00  0.00     0.210 C 
ATOM     15  C   LIG d   1       0.928  77.046 119.756  0.00  0.00     0.109 C 
ATOM     16  O   LIG d   1       2.046  77.511 117.675  0.00  0.00    -0.276 OA
ATOM     17  H   LIG d   1      -1.054  77.190 118.198  0.00  0.00     0.149 HD
ENDBRANCH   6  13
BRANCH   5  18
ATOM     18  N   LIG d   1       0.412  79.937 116.188  0.00  0.00     0.381 N 
ATOM     19  H   LIG d   1       0.536  80.606 115.455  0.00  0.00    -0.090 HD
ATOM     20  H   LIG d   1       1.255  79.397 116.269  0.00  0.00    -0.090 HD
ATOM     21  H   LIG d   1       0.225  80.405 117.048  0.00  0.00    -0.090 HD
ENDBRANCH   5  18
BRANCH   3  22
ATOM     22  C   LIG d   1      -2.694  78.617 112.790  0.00  0.00     0.382 C 
ATOM     23  O   LIG d   1      -3.457  79.609 112.871  0.00  0.00    -0.241 OA
ATOM     24  O   LIG d   1      -2.671  77.944 111.742  0.00  0.00    -0.241 OA
ENDBRANCH   3  22
TORSDOF 7
ENDMDL
MODEL 3
REMARK VINA RESULT:      -4.4      2.578      4.870
REMARK  7 active torsions:
REMARK  status: ('A' for Active; 'I' for Inactive)
REMARK    1  A    between atoms: C_2  and  C_3 
REMARK    2  A    between atoms: C_3  and  O_6 
REMARK    3  A    between atoms: C_3  and  C_4 
REMARK    4  A    between atoms: C_7  and  O_6 
REMARK    5  A    between atoms: C_9  and  C_10 
REMARK    6  A    between atoms: N_15  and  C_14 
REMARK    7  A    between atoms: N_20  and  C_19 
REMARK       I    between atoms: C_22  and  N_20 
ROOT
ATOM      1  C   LIG d   1      -1.921  78.332 115.980  0.00  0.00     0.161 C 
ATOM      2  C   LIG d   1      -0.883  79.208 116.338  0.00  0.00     0.016 C 
ATOM      3  C   LIG d   1       0.312  78.783 116.963  0.00  0.00     0.038 C 
ATOM      4  C   LIG d   1       0.616  77.425 117.136  0.00  0.00     0.028 C 
ATOM      5  C   LIG d   1      -0.618  76.537 117.249  0.00  0.00    -0.047 C 
ATOM      6  C   LIG d   1      -1.560  76.834 116.060  0.00  0.00     0.091 C 
ENDROOT
BRANCH   1   7
ATOM      7  O   LIG d   1      -2.406  78.661 114.663  0.00  0.00    -0.368 OA
BRANCH   7   8
ATOM      8  C   LIG d   1      -1.429  78.613 113.594  0.00  0.00     0.119 C 
BRANCH   8   9
ATOM      9  C   LIG d   1      -1.535  79.935 112.810  0.00  0.00     0.028 C 
ATOM     10  C   LIG d   1      -2.897  80.623 113.001  0.00  0.00     0.006 C 
ENDBRANCH   8   9
BRANCH   8  11
ATOM     11  C   LIG d   1      -1.764  77.513 112.582  0.00  0.00     0.028 C 
ATOM     12  C   LIG d   1      -1.451  77.920 111.134  0.00  0.00     0.006 C 
ENDBRANCH   8  11
ENDBRANCH   7   8
ENDBRANCH   1   7
BRANCH   6  13
ATOM     13  N   LIG d   1      -2.832  76.068 116.139  0.00  0.00    -0.311 N 
ATOM     14  C   LIG d   1      -3.014  74.887 115.550  0.00  0.00     0.210 C 
ATOM     15  C   LIG d   1      -4.407  74.279 115.741  0.00  0.00     0.109 C 
ATOM     16  O   LIG d   1      -2.145  74.272 114.915  0.00  0.00    -0.276 OA
ATOM     17  H   LIG d   1      -3.580  76.480 116.661  0.00  0.00     0.149 HD
ENDBRANCH   6  13
BRANCH   5  18
ATOM     18  N   LIG d   1      -0.158  75.136 117.286  0.00  0.00     0.381 N 
ATOM     19  H   LIG d   1      -0.884  74.550 117.648  0.00  0.00    -0.090 HD
ATOM     20  H   LIG d   1       0.635  75.070 117.900  0.00  0.00    -0.090 HD
ATOM     21  H   LIG d   1       0.096  74.836 116.371  0.00  0.00    -0.090 HD
ENDBRANCH   5  18
BRANCH   3  22
ATOM     22  C   LIG d   1       1.201  79.725 117.459  0.00  0.00     0.382 C 
ATOM     23  O   LIG d   1       1.126  80.918 117.078  0.00  0.00    -0.241 OA
ATOM     24  O   LIG d   1       2.104  79.388 118.248  0.00  0.00    -0.241 OA
ENDBRANCH   3  22
TORSDOF 7
ENDMDL
MODEL 4
REMARK VINA RESULT:      -4.4      2.008      2.644
REMARK  7 active torsions:
REMARK  status: ('A' for Active; 'I' for Inactive)
REMARK    1  A    between atoms: C_2  and  C_3 
REMARK    2  A    between atoms: C_3  and  O_6 
REMARK    3  A    between atoms: C_3  and  C_4 
REMARK    4  A    between atoms: C_7  and  O_6 
REMARK    5  A    between atoms: C_9  and  C_10 
REMARK    6  A    between atoms: N_15  and  C_14 
REMARK    7  A    between atoms: N_20  and  C_19 
REMARK       I    between atoms: C_22  and  N_20 
ROOT
ATOM      1  C   LIG d   1      -1.463  77.948 116.611  0.00  0.00     0.161 C 
ATOM      2  C   LIG d   1      -2.101  78.658 115.579  0.00  0.00     0.016 C 
ATOM      3  C   LIG d   1      -2.031  78.282 114.218  0.00  0.00     0.038 C 
ATOM      4  C   LIG d   1      -1.440  77.077 113.811  0.00  0.00     0.028 C 
ATOM      5  C   LIG d   1      -0.349  76.587 114.757  0.00  0.00    -0.047 C 
ATOM      6  C   LIG d   1      -0.906  76.569 116.199  0.00  0.00     0.091 C 
ENDROOT
BRANCH   1   7
ATOM      7  O   LIG d   1      -2.355  77.813 117.735  0.00  0.00    -0.368 OA
BRANCH   7   8
ATOM      8  C   LIG d   1      -3.771  77.816 117.429  0.00  0.00     0.119 C 
BRANCH   8   9
ATOM      9  C   LIG d   1      -4.440  78.860 118.344  0.00  0.00     0.028 C 
ATOM     10  C   LIG d   1      -3.451  79.485 119.342  0.00  0.00     0.006 C 
ENDBRANCH   8   9
BRANCH   8  11
ATOM     11  C   LIG d   1      -4.423  76.479 117.794  0.00  0.00     0.028 C 
ATOM     12  C   LIG d   1      -4.327  75.441 116.665  0.00  0.00     0.006 C 
ENDBRANCH   8  11
ENDBRANCH   7   8
ENDBRANCH   1   7
BRANCH   6  13
ATOM     13  N   LIG d   1       0.123  76.182 117.199  0.00  0.00    -0.311 N 
ATOM     14  C   LIG d   1      -0.078  75.259 118.138  0.00  0.00     0.210 C 
ATOM     15  C   LIG d   1       1.106  75.027 119.080  0.00  0.00     0.109 C 
ATOM     16  O   LIG d   1      -1.114  74.587 118.259  0.00  0.00    -0.276 OA
ATOM     17  H   LIG d   1       1.004  76.655 117.153  0.00  0.00     0.149 HD
ENDBRANCH   6  13
BRANCH   5  18
ATOM     18  N   LIG d   1       0.084  75.257 114.287  0.00  0.00     0.381 N 
ATOM     19  H   LIG d   1      -0.127  75.156 113.315  0.00  0.00    -0.090 HD
ATOM     20  H   LIG d   1      -0.422  74.553 114.795  0.00  0.00    -0.090 HD
ATOM     21  H   LIG d   1       1.063  75.146 114.436  0.00  0.00    -0.090 HD
ENDBRANCH   5  18
BRANCH   3  22
ATOM     22  C   LIG d   1      -2.523  79.137 113.244  0.00  0.00     0.382 C 
ATOM     23  O   LIG d   1      -2.122  79.035 112.059  0.00  0.00    -0.241 OA
ATOM     24  O   LIG d   1      -3.329  80.038 113.542  0.00  0.00    -0.241 OA
ENDBRANCH   3  22
TORSDOF 7
ENDMDL
MODEL 5
REMARK VINA RESULT:      -4.1      2.414      3.267
REMARK  7 active torsions:
REMARK  status: ('A' for Active; 'I' for Inactive)
REMARK    1  A    between atoms: C_2  and  C_3 
REMARK    2  A    between atoms: C_3  and  O_6 
REMARK    3  A    between atoms: C_3  and  C_4 
REMARK    4  A    between atoms: C_7  and  O_6 
REMARK    5  A    between atoms: C_9  and  C_10 
REMARK    6  A    between atoms: N_15  and  C_14 
REMARK    7  A    between atoms: N_20  and  C_19 
REMARK       I    between atoms: C_22  and  N_20 
ROOT
ATOM      1  C   LIG d   1      -0.542  78.424 116.075  0.00  0.00     0.161 C 
ATOM      2  C   LIG d   1      -1.372  78.681 114.971  0.00  0.00     0.016 C 
ATOM      3  C   LIG d   1      -1.832  77.673 114.092  0.00  0.00     0.038 C 
ATOM      4  C   LIG d   1      -1.614  76.311 114.347  0.00  0.00     0.028 C 
ATOM      5  C   LIG d   1      -0.358  76.042 115.169  0.00  0.00    -0.047 C 
ATOM      6  C   LIG d   1      -0.386  76.931 116.433  0.00  0.00     0.091 C 
ENDROOT
BRANCH   1   7
ATOM      7  O   LIG d   1      -1.007  79.167 117.219  0.00  0.00    -0.368 OA
BRANCH   7   8
ATOM      8  C   LIG d   1      -1.920  78.472 118.103  0.00  0.00     0.119 C 
BRANCH   8   9
ATOM      9  C   LIG d   1      -3.352  78.877 117.702  0.00  0.00     0.028 C 
ATOM     10  C   LIG d   1      -4.204  77.671 117.271  0.00  0.00     0.006 C 
ENDBRANCH   8   9
BRANCH   8  11
ATOM     11  C   LIG d   1      -1.758  78.940 119.553  0.00  0.00     0.028 C 
ATOM     12  C   LIG d   1      -2.739  80.061 119.930  0.00  0.00     0.006 C 
ENDBRANCH   8  11
ENDBRANCH   7   8
ENDBRANCH   1   7
BRANCH   6  13
ATOM     13  N   LIG d   1       0.847  76.792 117.251  0.00  0.00    -0.311 N 
ATOM     14  C   LIG d   1       0.945  75.972 118.296  0.00  0.00     0.210 C 
ATOM     15  C   LIG d   1       2.299  75.997 119.013  0.00  0.00     0.109 C 
ATOM     16  O   LIG d   1       0.050  75.203 118.678  0.00  0.00    -0.276 OA
ATOM     17  H   LIG d   1       1.633  77.356 116.992  0.00  0.00     0.149 HD
ENDBRANCH   6  13
BRANCH   5  18
ATOM     18  N   LIG d   1      -0.328  74.600 115.477  0.00  0.00     0.381 N 
ATOM     19  H   LIG d   1      -1.172  74.335 115.944  0.00  0.00    -0.090 HD
ATOM     20  H   LIG d   1       0.444  74.415 116.093  0.00  0.00    -0.090 HD
ATOM     21  H   LIG d   1      -0.225  74.074 114.638  0.00  0.00    -0.090 HD
ENDBRANCH   5  18
BRANCH   3  22
ATOM     22  C   LIG d   1      -2.484  78.028 112.921  0.00  0.00     0.382 C 
ATOM     23  O   LIG d   1      -2.170  77.479 111.838  0.00  0.00    -0.241 OA
ATOM     24  O   LIG d   1      -3.352  78.922 112.928  0.00  0.00    -0.241 OA
ENDBRANCH   3  22
TORSDOF 7
ENDMDL
MODEL 6
REMARK VINA RESULT:      -4.1      2.608      5.928
REMARK  7 active torsions:
REMARK  status: ('A' for Active; 'I' for Inactive)
REMARK    1  A    between atoms: C_2  and  C_3 
REMARK    2  A    between atoms: C_3  and  O_6 
REMARK    3  A    between atoms: C_3  and  C_4 
REMARK    4  A    between atoms: C_7  and  O_6 
REMARK    5  A    between atoms: C_9  and  C_10 
REMARK    6  A    between atoms: N_15  and  C_14 
REMARK    7  A    between atoms: N_20  and  C_19 
REMARK       I    between atoms: C_22  and  N_20 
ROOT
ATOM      1  C   LIG d   1      -0.733  77.577 115.236  0.00  0.00     0.161 C 
ATOM      2  C   LIG d   1      -1.770  76.664 114.982  0.00  0.00     0.016 C 
ATOM      3  C   LIG d   1      -2.527  76.042 116.001  0.00  0.00     0.038 C 
ATOM      4  C   LIG d   1      -2.397  76.408 117.349  0.00  0.00     0.028 C 
ATOM      5  C   LIG d   1      -1.017  76.955 117.698  0.00  0.00    -0.047 C 
ATOM      6  C   LIG d   1      -0.652  78.073 116.695  0.00  0.00     0.091 C 
ENDROOT
BRANCH   1   7
ATOM      7  O   LIG d   1      -0.834  78.695 114.332  0.00  0.00    -0.368 OA
BRANCH   7   8
ATOM      8  C   LIG d   1      -1.858  78.600 113.312  0.00  0.00     0.119 C 
BRANCH   8   9
ATOM      9  C   LIG d   1      -1.201  78.950 111.963  0.00  0.00     0.028 C 
ATOM     10  C   LIG d   1      -1.423  77.860 110.901  0.00  0.00     0.006 C 
ENDBRANCH   8   9
BRANCH   8  11
ATOM     11  C   LIG d   1      -2.949  79.654 113.517  0.00  0.00     0.028 C 
ATOM     12  C   LIG d   1      -2.680  80.950 112.736  0.00  0.00     0.006 C 
ENDBRANCH   8  11
ENDBRANCH   7   8
ENDBRANCH   1   7
BRANCH   6  13
ATOM     13  N   LIG d   1       0.719  78.604 116.914  0.00  0.00    -0.311 N 
ATOM     14  C   LIG d   1       0.972  79.722 117.592  0.00  0.00     0.210 C 
ATOM     15  C   LIG d   1       2.454  80.102 117.683  0.00  0.00     0.109 C 
ATOM     16  O   LIG d   1       0.114  80.417 118.156  0.00  0.00    -0.276 OA
ATOM     17  H   LIG d   1       1.478  78.085 116.518  0.00  0.00     0.149 HD
ENDBRANCH   6  13
BRANCH   5  18
ATOM     18  N   LIG d   1      -1.064  77.424 119.096  0.00  0.00     0.381 N 
ATOM     19  H   LIG d   1      -1.734  76.889 119.611  0.00  0.00    -0.090 HD
ATOM     20  H   LIG d   1      -1.354  78.386 119.106  0.00  0.00    -0.090 HD
ATOM     21  H   LIG d   1      -0.165  77.337 119.516  0.00  0.00    -0.090 HD
ENDBRANCH   5  18
BRANCH   3  22
ATOM     22  C   LIG d   1      -3.398  75.012 115.679  0.00  0.00     0.382 C 
ATOM     23  O   LIG d   1      -3.884  74.940 114.525  0.00  0.00    -0.241 OA
ATOM     24  O   LIG d   1      -3.739  74.181 116.542  0.00  0.00    -0.241 OA
ENDBRANCH   3  22
TORSDOF 7
ENDMDL
MODEL 7
REMARK VINA RESULT:      -4.1      3.119      4.261
REMARK  7 active torsions:
REMARK  status: ('A' for Active; 'I' for Inactive)
REMARK    1  A    between atoms: C_2  and  C_3 
REMARK    2  A    between atoms: C_3  and  O_6 
REMARK    3  A    between atoms: C_3  and  C_4 
REMARK    4  A    between atoms: C_7  and  O_6 
REMARK    5  A    between atoms: C_9  and  C_10 
REMARK    6  A    between atoms: N_15  and  C_14 
REMARK    7  A    between atoms: N_20  and  C_19 
REMARK       I    between atoms: C_22  and  N_20 
ROOT
ATOM      1  C   LIG d   1      -0.262  78.336 116.396  0.00  0.00     0.161 C 
ATOM      2  C   LIG d   1      -1.203  78.698 115.417  0.00  0.00     0.016 C 
ATOM      3  C   LIG d   1      -1.813  77.769 114.543  0.00  0.00     0.038 C 
ATOM      4  C   LIG d   1      -1.635  76.386 114.690  0.00  0.00     0.028 C 
ATOM      5  C   LIG d   1      -0.306  76.011 115.337  0.00  0.00    -0.047 C 
ATOM      6  C   LIG d   1      -0.140  76.818 116.645  0.00  0.00     0.091 C 
ENDROOT
BRANCH   1   7
ATOM      7  O   LIG d   1      -0.551  79.024 117.629  0.00  0.00    -0.368 OA
BRANCH   7   8
ATOM      8  C   LIG d   1       0.072  80.322 117.796  0.00  0.00     0.119 C 
BRANCH   8   9
ATOM      9  C   LIG d   1       1.596  80.100 117.852  0.00  0.00     0.028 C 
ATOM     10  C   LIG d   1       2.363  81.067 116.935  0.00  0.00     0.006 C 
ENDBRANCH   8   9
BRANCH   8  11
ATOM     11  C   LIG d   1      -0.297  80.947 119.144  0.00  0.00     0.028 C 
ATOM     12  C   LIG d   1      -0.229  82.483 119.127  0.00  0.00     0.006 C 
ENDBRANCH   8  11
ENDBRANCH   7   8
ENDBRANCH   1   7
BRANCH   6  13
ATOM     13  N   LIG d   1       1.173  76.574 117.298  0.00  0.00    -0.311 N 
ATOM     14  C   LIG d   1       1.299  76.160 118.558  0.00  0.00     0.210 C 
ATOM     15  C   LIG d   1       2.743  75.990 119.041  0.00  0.00     0.109 C 
ATOM     16  O   LIG d   1       0.352  75.886 119.310  0.00  0.00    -0.276 OA
ATOM     17  H   LIG d   1       1.994  76.742 116.750  0.00  0.00     0.149 HD
ENDBRANCH   6  13
BRANCH   5  18
ATOM     18  N   LIG d   1      -0.312  74.552 115.555  0.00  0.00     0.381 N 
ATOM     19  H   LIG d   1      -0.961  74.119 114.929  0.00  0.00    -0.090 HD
ATOM     20  H   LIG d   1      -0.609  74.365 116.496  0.00  0.00    -0.090 HD
ATOM     21  H   LIG d   1       0.601  74.182 115.406  0.00  0.00    -0.090 HD
ENDBRANCH   5  18
BRANCH   3  22
ATOM     22  C   LIG d   1      -2.580  78.226 113.482  0.00  0.00     0.382 C 
ATOM     23  O   LIG d   1      -3.072  79.380 113.515  0.00  0.00    -0.241 OA
ATOM     24  O   LIG d   1      -2.824  77.483 112.513  0.00  0.00    -0.241 OA
ENDBRANCH   3  22
TORSDOF 7
ENDMDL
MODEL 8
REMARK VINA RESULT:      -4.1      2.648      3.645
REMARK  7 active torsions:
REMARK  status: ('A' for Active; 'I' for Inactive)
REMARK    1  A    between atoms: C_2  and  C_3 
REMARK    2  A    between atoms: C_3  and  O_6 
REMARK    3  A    between atoms: C_3  and  C_4 
REMARK    4  A    between atoms: C_7  and  O_6 
REMARK    5  A    between atoms: C_9  and  C_10 
REMARK    6  A    between atoms: N_15  and  C_14 
REMARK    7  A    between atoms: N_20  and  C_19 
REMARK       I    between atoms: C_22  and  N_20 
ROOT
ATOM      1  C   LIG d   1      -0.730  78.385 116.049  0.00  0.00     0.161 C 
ATOM      2  C   LIG d   1      -1.275  79.098 114.969  0.00  0.00     0.016 C 
ATOM      3  C   LIG d   1      -2.221  78.549 114.073  0.00  0.00     0.038 C 
ATOM      4  C   LIG d   1      -2.803  77.291 114.288  0.00  0.00     0.028 C 
ATOM      5  C   LIG d   1      -1.913  76.339 115.078  0.00  0.00    -0.047 C 
ATOM      6  C   LIG d   1      -1.436  77.049 116.365  0.00  0.00     0.091 C 
ENDROOT
BRANCH   1   7
ATOM      7  O   LIG d   1      -0.697  79.224 117.221  0.00  0.00    -0.368 OA
BRANCH   7   8
ATOM      8  C   LIG d   1       0.574  79.850 117.521  0.00  0.00     0.119 C 
BRANCH   8   9
ATOM      9  C   LIG d   1       1.320  78.933 118.510  0.00  0.00     0.028 C 
ATOM     10  C   LIG d   1       2.515  78.216 117.858  0.00  0.00     0.006 C 
ENDBRANCH   8   9
BRANCH   8  11
ATOM     11  C   LIG d   1       0.381  81.175 118.265  0.00  0.00     0.028 C 
ATOM     12  C   LIG d   1       1.433  82.229 117.886  0.00  0.00     0.006 C 
ENDBRANCH   8  11
ENDBRANCH   7   8
ENDBRANCH   1   7
BRANCH   6  13
ATOM     13  N   LIG d   1      -0.491  76.218 117.155  0.00  0.00    -0.311 N 
ATOM     14  C   LIG d   1      -0.864  75.469 118.192  0.00  0.00     0.210 C 
ATOM     15  C   LIG d   1       0.271  74.705 118.879  0.00  0.00     0.109 C 
ATOM     16  O   LIG d   1      -2.033  75.339 118.587  0.00  0.00    -0.276 OA
ATOM     17  H   LIG d   1       0.472  76.239 116.884  0.00  0.00     0.149 HD
ENDBRANCH   6  13
BRANCH   5  18
ATOM     18  N   LIG d   1      -2.695  75.117 115.348  0.00  0.00     0.381 N 
ATOM     19  H   LIG d   1      -3.509  75.102 114.767  0.00  0.00    -0.090 HD
ATOM     20  H   LIG d   1      -2.991  75.127 116.308  0.00  0.00    -0.090 HD
ATOM     21  H   LIG d   1      -2.138  74.310 115.173  0.00  0.00    -0.090 HD
ENDBRANCH   5  18
BRANCH   3  22
ATOM     22  C   LIG d   1      -2.565  79.246 112.924  0.00  0.00     0.382 C 
ATOM     23  O   LIG d   1      -3.471  80.113 112.964  0.00  0.00    -0.241 OA
ATOM     24  O   LIG d   1      -2.011  78.988 111.839  0.00  0.00    -0.241 OA
ENDBRANCH   3  22
TORSDOF 7
ENDMDL
MODEL 9
REMARK VINA RESULT:      -3.7      2.186      2.947
REMARK  7 active torsions:
REMARK  status: ('A' for Active; 'I' for Inactive)
REMARK    1  A    between atoms: C_2  and  C_3 
REMARK    2  A    between atoms: C_3  and  O_6 
REMARK    3  A    between atoms: C_3  and  C_4 
REMARK    4  A    between atoms: C_7  and  O_6 
REMARK    5  A    between atoms: C_9  and  C_10 
REMARK    6  A    between atoms: N_15  and  C_14 
REMARK    7  A    between atoms: N_20  and  C_19 
REMARK       I    between atoms: C_22  and  N_20 
ROOT
ATOM      1  C   LIG d   1      -1.250  78.235 115.842  0.00  0.00     0.161 C 
ATOM      2  C   LIG d   1      -1.086  79.053 114.712  0.00  0.00     0.016 C 
ATOM      3  C   LIG d   1      -1.846  78.907 113.529  0.00  0.00     0.038 C 
ATOM      4  C   LIG d   1      -2.933  78.023 113.450  0.00  0.00     0.028 C 
ATOM      5  C   LIG d   1      -2.811  76.828 114.389  0.00  0.00    -0.047 C 
ATOM      6  C   LIG d   1      -2.506  77.339 115.815  0.00  0.00     0.091 C 
ENDROOT
BRANCH   1   7
ATOM      7  O   LIG d   1      -1.236  79.042 117.036  0.00  0.00    -0.368 OA
BRANCH   7   8
ATOM      8  C   LIG d   1      -0.158  78.783 117.968  0.00  0.00     0.119 C 
BRANCH   8   9
ATOM      9  C   LIG d   1       0.517  80.133 118.283  0.00  0.00     0.028 C 
ATOM     10  C   LIG d   1       1.510  80.561 117.190  0.00  0.00     0.006 C 
ENDBRANCH   8   9
BRANCH   8  11
ATOM     11  C   LIG d   1       0.936  77.922 117.330  0.00  0.00     0.028 C 
ATOM     12  C   LIG d   1       1.447  76.816 118.267  0.00  0.00     0.006 C 
ENDBRANCH   8  11
ENDBRANCH   7   8
ENDBRANCH   1   7
BRANCH   6  13
ATOM     13  N   LIG d   1      -2.287  76.229 116.780  0.00  0.00    -0.311 N 
ATOM     14  C   LIG d   1      -1.430  75.232 116.569  0.00  0.00     0.210 C 
ATOM     15  C   LIG d   1      -1.374  74.181 117.682  0.00  0.00     0.109 C 
ATOM     16  O   LIG d   1      -0.688  75.135 115.580  0.00  0.00    -0.276 OA
ATOM     17  H   LIG d   1      -2.826  76.246 117.624  0.00  0.00     0.149 HD
ENDBRANCH   6  13
BRANCH   5  18
ATOM     18  N   LIG d   1      -4.070  76.065 114.305  0.00  0.00     0.381 N 
ATOM     19  H   LIG d   1      -4.452  76.142 113.383  0.00  0.00    -0.090 HD
ATOM     20  H   LIG d   1      -4.731  76.455 114.954  0.00  0.00    -0.090 HD
ATOM     21  H   LIG d   1      -3.904  75.107 114.524  0.00  0.00    -0.090 HD
ENDBRANCH   5  18
BRANCH   3  22
ATOM     22  C   LIG d   1      -1.495  79.622 112.394  0.00  0.00     0.382 C 
ATOM     23  O   LIG d   1      -1.134  79.015 111.357  0.00  0.00    -0.241 OA
ATOM     24  O   LIG d   1      -1.493  80.868 112.408  0.00  0.00    -0.241 OA
ENDBRANCH   3  22
TORSDOF 7
ENDMDL
