MODEL 1
REMARK VINA RESULT:      -5.5      0.000      0.000
REMARK  7 active torsions:
REMARK  status: ('A' for Active; 'I' for Inactive)
REMARK    1  A    between atoms: C_2  and  C_3 
REMARK    2  A    between atoms: C_3  and  O_6 
REMARK    3  A    between atoms: C_3  and  C_4 
REMARK    4  A    between atoms: C_7  and  O_6 
REMARK    5  A    between atoms: C_9  and  C_10 
REMARK    6  A    between atoms: N_15  and  C_14 
REMARK    7  A    between atoms: N_20  and  C_19 
REMARK       I    between atoms: C_22  and  N_20 
ROOT
ATOM      1  C   LIG d   1       0.227  82.409 112.141  0.00  0.00     0.161 C 
ATOM      2  C   LIG d   1      -1.049  82.030 112.590  0.00  0.00     0.016 C 
ATOM      3  C   LIG d   1      -1.703  80.848 112.172  0.00  0.00     0.038 C 
ATOM      4  C   LIG d   1      -1.057  79.882 111.387  0.00  0.00     0.028 C 
ATOM      5  C   LIG d   1       0.042  80.458 110.500  0.00  0.00    -0.047 C 
ATOM      6  C   LIG d   1       0.992  81.313 111.370  0.00  0.00     0.091 C 
ENDROOT
BRANCH   1   7
ATOM      7  O   LIG d   1       1.015  82.885 113.250  0.00  0.00    -0.368 OA
BRANCH   7   8
ATOM      8  C   LIG d   1       0.548  82.512 114.570  0.00  0.00     0.119 C 
BRANCH   8   9
ATOM      9  C   LIG d   1       0.683  83.751 115.476  0.00  0.00     0.028 C 
ATOM     10  C   LIG d   1       1.439  83.445 116.780  0.00  0.00     0.006 C 
ENDBRANCH   8   9
BRANCH   8  11
ATOM     11  C   LIG d   1       1.451  81.448 115.200  0.00  0.00     0.028 C 
ATOM     12  C   LIG d   1       0.868  80.030 115.091  0.00  0.00     0.006 C 
ENDBRANCH   8  11
ENDBRANCH   7   8
ENDBRANCH   1   7
BRANCH   6  13
ATOM     13  N   LIG d   1       2.048  81.982 110.567  0.00  0.00    -0.311 N 
ATOM     14  C   LIG d   1       3.205  81.403 110.249  0.00  0.00     0.210 C 
ATOM     15  C   LIG d   1       4.162  82.277 109.431  0.00  0.00     0.109 C 
ATOM     16  O   LIG d   1       3.516  80.238 110.539  0.00  0.00    -0.276 OA
ATOM     17  H   LIG d   1       1.866  82.919 110.263  0.00  0.00     0.149 HD
ENDBRANCH   6  13
BRANCH   5  18
ATOM     18  N   LIG d   1       0.722  79.327 109.841  0.00  0.00     0.381 N 
ATOM     19  H   LIG d   1       0.266  78.470 110.083  0.00  0.00    -0.090 HD
ATOM     20  H   LIG d   1       1.671  79.283 110.169  0.00  0.00    -0.090 HD
ATOM     21  H   LIG d   1       0.710  79.451 108.853  0.00  0.00    -0.090 HD
ENDBRANCH   5  18
BRANCH   3  22
ATOM     22  C   LIG d   1      -3.032  80.643 112.508  0.00  0.00     0.382 C 
ATOM     23  O   LIG d   1      -3.915  81.426 112.082  0.00  0.00    -0.241 OA
ATOM     24  O   LIG d   1      -3.354  79.710 113.268  0.00  0.00    -0.241 OA
ENDBRANCH   3  22
TORSDOF 7
ENDMDL
MODEL 2
REMARK VINA RESULT:      -5.3      2.715      4.858
REMARK  7 active torsions:
REMARK  status: ('A' for Active; 'I' for Inactive)
REMARK    1  A    between atoms: C_2  and  C_3 
REMARK    2  A    between atoms: C_3  and  O_6 
REMARK    3  A    between atoms: C_3  and  C_4 
REMARK    4  A    between atoms: C_7  and  O_6 
REMARK    5  A    between atoms: C_9  and  C_10 
REMARK    6  A    between atoms: N_15  and  C_14 
REMARK    7  A    between atoms: N_20  and  C_19 
REMARK       I    between atoms: C_22  and  N_20 
ROOT
ATOM      1  C   LIG d   1       1.186  80.473 112.955  0.00  0.00     0.161 C 
ATOM      2  C   LIG d   1      -0.024  81.048 112.531  0.00  0.00     0.016 C 
ATOM      3  C   LIG d   1      -1.089  81.356 113.409  0.00  0.00     0.038 C 
ATOM      4  C   LIG d   1      -0.958  81.246 114.801  0.00  0.00     0.028 C 
ATOM      5  C   LIG d   1       0.060  80.197 115.233  0.00  0.00    -0.047 C 
ATOM      6  C   LIG d   1       1.389  80.449 114.485  0.00  0.00     0.091 C 
ENDROOT
BRANCH   1   7
ATOM      7  O   LIG d   1       2.293  81.134 112.312  0.00  0.00    -0.368 OA
BRANCH   7   8
ATOM      8  C   LIG d   1       2.081  81.543 110.939  0.00  0.00     0.119 C 
BRANCH   8   9
ATOM      9  C   LIG d   1       2.821  80.537 110.037  0.00  0.00     0.028 C 
ATOM     10  C   LIG d   1       1.876  79.486 109.430  0.00  0.00     0.006 C 
ENDBRANCH   8   9
BRANCH   8  11
ATOM     11  C   LIG d   1       2.734  82.899 110.654  0.00  0.00     0.028 C 
ATOM     12  C   LIG d   1       3.966  82.788 109.743  0.00  0.00     0.006 C 
ENDBRANCH   8  11
ENDBRANCH   7   8
ENDBRANCH   1   7
BRANCH   6  13
ATOM     13  N   LIG d   1       2.415  79.417 114.786  0.00  0.00    -0.311 N 
ATOM     14  C   LIG d   1       3.380  79.583 115.689  0.00  0.00     0.210 C 
ATOM     15  C   LIG d   1       4.345  78.402 115.829  0.00  0.00     0.109 C 
ATOM     16  O   LIG d   1       3.509  80.584 116.409  0.00  0.00    -0.276 OA
ATOM     17  H   LIG d   1       2.365  78.560 114.269  0.00  0.00     0.149 HD
ENDBRANCH   6  13
BRANCH   5  18
ATOM     18  N   LIG d   1       0.197  80.285 116.699  0.00  0.00     0.381 N 
ATOM     19  H   LIG d   1      -0.366  79.582 117.134  0.00  0.00    -0.090 HD
ATOM     20  H   LIG d   1      -0.132  81.185 117.003  0.00  0.00    -0.090 HD
ATOM     21  H   LIG d   1       1.151  80.166 116.961  0.00  0.00    -0.090 HD
ENDBRANCH   5  18
BRANCH   3  22
ATOM     22  C   LIG d   1      -2.317  81.740 112.891  0.00  0.00     0.382 C 
ATOM     23  O   LIG d   1      -3.289  81.934 113.660  0.00  0.00    -0.241 OA
ATOM     24  O   LIG d   1      -2.476  81.852 111.660  0.00  0.00    -0.241 OA
ENDBRANCH   3  22
TORSDOF 7
ENDMDL
MODEL 3
REMARK VINA RESULT:      -5.3      2.594      3.593
REMARK  7 active torsions:
REMARK  status: ('A' for Active; 'I' for Inactive)
REMARK    1  A    between atoms: C_2  and  C_3 
REMARK    2  A    between atoms: C_3  and  O_6 
REMARK    3  A    between atoms: C_3  and  C_4 
REMARK    4  A    between atoms: C_7  and  O_6 
REMARK    5  A    between atoms: C_9  and  C_10 
REMARK    6  A    between atoms: N_15  and  C_14 
REMARK    7  A    between atoms: N_20  and  C_19 
REMARK       I    between atoms: C_22  and  N_20 
ROOT
ATOM      1  C   LIG d   1      -2.617  81.386 112.583  0.00  0.00     0.161 C 
ATOM      2  C   LIG d   1      -2.976  80.189 113.224  0.00  0.00     0.016 C 
ATOM      3  C   LIG d   1      -2.213  79.001 113.140  0.00  0.00     0.038 C 
ATOM      4  C   LIG d   1      -0.952  78.973 112.527  0.00  0.00     0.028 C 
ATOM      5  C   LIG d   1      -0.784  80.024 111.435  0.00  0.00    -0.047 C 
ATOM      6  C   LIG d   1      -1.188  81.405 112.002  0.00  0.00     0.091 C 
ENDROOT
BRANCH   1   7
ATOM      7  O   LIG d   1      -2.808  82.497 113.480  0.00  0.00    -0.368 OA
BRANCH   7   8
ATOM      8  C   LIG d   1      -2.445  82.269 114.864  0.00  0.00     0.119 C 
BRANCH   8   9
ATOM      9  C   LIG d   1      -3.642  82.700 115.734  0.00  0.00     0.028 C 
ATOM     10  C   LIG d   1      -4.144  81.568 116.645  0.00  0.00     0.006 C 
ENDBRANCH   8   9
BRANCH   8  11
ATOM     11  C   LIG d   1      -1.285  83.172 115.293  0.00  0.00     0.028 C 
ATOM     12  C   LIG d   1      -0.456  82.574 116.440  0.00  0.00     0.006 C 
ENDBRANCH   8  11
ENDBRANCH   7   8
ENDBRANCH   1   7
BRANCH   6  13
ATOM     13  N   LIG d   1      -1.134  82.477 110.974  0.00  0.00    -0.311 N 
ATOM     14  C   LIG d   1      -0.505  83.637 111.157  0.00  0.00     0.210 C 
ATOM     15  C   LIG d   1      -0.589  84.611 109.978  0.00  0.00     0.109 C 
ATOM     16  O   LIG d   1       0.141  83.939 112.172  0.00  0.00    -0.276 OA
ATOM     17  H   LIG d   1      -1.606  82.303 110.109  0.00  0.00     0.149 HD
ENDBRANCH   6  13
BRANCH   5  18
ATOM     18  N   LIG d   1       0.617  79.974 110.979  0.00  0.00     0.381 N 
ATOM     19  H   LIG d   1       1.059  80.857 111.143  0.00  0.00    -0.090 HD
ATOM     20  H   LIG d   1       0.631  79.793 109.990  0.00  0.00    -0.090 HD
ATOM     21  H   LIG d   1       1.108  79.254 111.462  0.00  0.00    -0.090 HD
ENDBRANCH   5  18
BRANCH   3  22
ATOM     22  C   LIG d   1      -2.730  77.815 113.638  0.00  0.00     0.382 C 
ATOM     23  O   LIG d   1      -2.241  76.718 113.278  0.00  0.00    -0.241 OA
ATOM     24  O   LIG d   1      -3.709  77.827 114.408  0.00  0.00    -0.241 OA
ENDBRANCH   3  22
TORSDOF 7
ENDMDL
MODEL 4
REMARK VINA RESULT:      -5.2      2.296      4.856
REMARK  7 active torsions:
REMARK  status: ('A' for Active; 'I' for Inactive)
REMARK    1  A    between atoms: C_2  and  C_3 
REMARK    2  A    between atoms: C_3  and  O_6 
REMARK    3  A    between atoms: C_3  and  C_4 
REMARK    4  A    between atoms: C_7  and  O_6 
REMARK    5  A    between atoms: C_9  and  C_10 
REMARK    6  A    between atoms: N_15  and  C_14 
REMARK    7  A    between atoms: N_20  and  C_19 
REMARK       I    between atoms: C_22  and  N_20 
ROOT
ATOM      1  C   LIG d   1      -0.346  82.320 112.836  0.00  0.00     0.161 C 
ATOM      2  C   LIG d   1       0.585  83.097 112.128  0.00  0.00     0.016 C 
ATOM      3  C   LIG d   1       1.235  82.655 110.953  0.00  0.00     0.038 C 
ATOM      4  C   LIG d   1       0.882  81.456 110.317  0.00  0.00     0.028 C 
ATOM      5  C   LIG d   1       0.311  80.411 111.270  0.00  0.00    -0.047 C 
ATOM      6  C   LIG d   1      -0.827  81.054 112.096  0.00  0.00     0.091 C 
ENDROOT
BRANCH   1   7
ATOM      7  O   LIG d   1      -1.472  83.134 113.218  0.00  0.00    -0.368 OA
BRANCH   7   8
ATOM      8  C   LIG d   1      -1.423  83.706 114.549  0.00  0.00     0.119 C 
BRANCH   8   9
ATOM      9  C   LIG d   1      -0.783  82.658 115.479  0.00  0.00     0.028 C 
ATOM     10  C   LIG d   1       0.308  83.260 116.380  0.00  0.00     0.006 C 
ENDBRANCH   8   9
BRANCH   8  11
ATOM     11  C   LIG d   1      -2.830  83.939 115.107  0.00  0.00     0.028 C 
ATOM     12  C   LIG d   1      -3.494  82.647 115.607  0.00  0.00     0.006 C 
ENDBRANCH   8  11
ENDBRANCH   7   8
ENDBRANCH   1   7
BRANCH   6  13
ATOM     13  N   LIG d   1      -1.385  80.124 113.112  0.00  0.00    -0.311 N 
ATOM     14  C   LIG d   1      -2.690  79.931 113.291  0.00  0.00     0.210 C 
ATOM     15  C   LIG d   1      -3.052  78.944 114.406  0.00  0.00     0.109 C 
ATOM     16  O   LIG d   1      -3.583  80.459 112.611  0.00  0.00    -0.276 OA
ATOM     17  H   LIG d   1      -0.730  79.630 113.687  0.00  0.00     0.149 HD
ENDBRANCH   6  13
BRANCH   5  18
ATOM     18  N   LIG d   1      -0.142  79.266 110.456  0.00  0.00     0.381 N 
ATOM     19  H   LIG d   1      -0.749  78.685 110.998  0.00  0.00    -0.090 HD
ATOM     20  H   LIG d   1       0.659  78.722 110.187  0.00  0.00    -0.090 HD
ATOM     21  H   LIG d   1      -0.619  79.592 109.644  0.00  0.00    -0.090 HD
ENDBRANCH   5  18
BRANCH   3  22
ATOM     22  C   LIG d   1       2.279  83.399 110.424  0.00  0.00     0.382 C 
ATOM     23  O   LIG d   1       3.409  83.370 110.969  0.00  0.00    -0.241 OA
ATOM     24  O   LIG d   1       2.094  84.132 109.434  0.00  0.00    -0.241 OA
ENDBRANCH   3  22
TORSDOF 7
ENDMDL
MODEL 5
REMARK VINA RESULT:      -5.0      1.874      2.190
REMARK  7 active torsions:
REMARK  status: ('A' for Active; 'I' for Inactive)
REMARK    1  A    between atoms: C_2  and  C_3 
REMARK    2  A    between atoms: C_3  and  O_6 
REMARK    3  A    between atoms: C_3  and  C_4 
REMARK    4  A    between atoms: C_7  and  O_6 
REMARK    5  A    between atoms: C_9  and  C_10 
REMARK    6  A    between atoms: N_15  and  C_14 
REMARK    7  A    between atoms: N_20  and  C_19 
REMARK       I    between atoms: C_22  and  N_20 
ROOT
ATOM      1  C   LIG d   1      -1.453  82.327 112.054  0.00  0.00     0.161 C 
ATOM      2  C   LIG d   1      -2.290  81.343 112.606  0.00  0.00     0.016 C 
ATOM      3  C   LIG d   1      -2.017  79.958 112.531  0.00  0.00     0.038 C 
ATOM      4  C   LIG d   1      -0.803  79.468 112.028  0.00  0.00     0.028 C 
ATOM      5  C   LIG d   1      -0.154  80.394 111.004  0.00  0.00    -0.047 C 
ATOM      6  C   LIG d   1      -0.069  81.818 111.599  0.00  0.00     0.091 C 
ENDROOT
BRANCH   1   7
ATOM      7  O   LIG d   1      -1.304  83.419 112.983  0.00  0.00    -0.368 OA
BRANCH   7   8
ATOM      8  C   LIG d   1      -0.290  83.253 114.005  0.00  0.00     0.119 C 
BRANCH   8   9
ATOM      9  C   LIG d   1      -1.005  82.823 115.301  0.00  0.00     0.028 C 
ATOM     10  C   LIG d   1      -0.086  82.899 116.531  0.00  0.00     0.006 C 
ENDBRANCH   8   9
BRANCH   8  11
ATOM     11  C   LIG d   1       0.388  84.585 114.339  0.00  0.00     0.028 C 
ATOM     12  C   LIG d   1       1.822  84.677 113.792  0.00  0.00     0.006 C 
ENDBRANCH   8  11
ENDBRANCH   7   8
ENDBRANCH   1   7
BRANCH   6  13
ATOM     13  N   LIG d   1       0.477  82.805 110.631  0.00  0.00    -0.311 N 
ATOM     14  C   LIG d   1       1.768  83.125 110.559  0.00  0.00     0.210 C 
ATOM     15  C   LIG d   1       2.115  84.179 109.504  0.00  0.00     0.109 C 
ATOM     16  O   LIG d   1       2.662  82.611 111.248  0.00  0.00    -0.276 OA
ATOM     17  H   LIG d   1      -0.176  83.246 110.013  0.00  0.00     0.149 HD
ENDBRANCH   6  13
BRANCH   5  18
ATOM     18  N   LIG d   1       1.167  79.829 110.667  0.00  0.00     0.381 N 
ATOM     19  H   LIG d   1       1.645  80.440 110.036  0.00  0.00    -0.090 HD
ATOM     20  H   LIG d   1       1.034  78.944 110.210  0.00  0.00    -0.090 HD
ATOM     21  H   LIG d   1       1.707  79.706 111.495  0.00  0.00    -0.090 HD
ENDBRANCH   5  18
BRANCH   3  22
ATOM     22  C   LIG d   1      -2.982  79.045 112.928  0.00  0.00     0.382 C 
ATOM     23  O   LIG d   1      -3.513  78.287 112.081  0.00  0.00    -0.241 OA
ATOM     24  O   LIG d   1      -3.361  79.000 114.114  0.00  0.00    -0.241 OA
ENDBRANCH   3  22
TORSDOF 7
ENDMDL
MODEL 6
REMARK VINA RESULT:      -4.9      2.881      4.846
REMARK  7 active torsions:
REMARK  status: ('A' for Active; 'I' for Inactive)
REMARK    1  A    between atoms: C_2  and  C_3 
REMARK    2  A    between atoms: C_3  and  O_6 
REMARK    3  A    between atoms: C_3  and  C_4 
REMARK    4  A    between atoms: C_7  and  O_6 
REMARK    5  A    between atoms: C_9  and  C_10 
REMARK    6  A    between atoms: N_15  and  C_14 
REMARK    7  A    between atoms: N_20  and  C_19 
REMARK       I    between atoms: C_22  and  N_20 
ROOT
ATOM      1  C   LIG d   1      -1.824  80.715 113.706  0.00  0.00     0.161 C 
ATOM      2  C   LIG d   1      -1.646  82.058 113.334  0.00  0.00     0.016 C 
ATOM      3  C   LIG d   1      -1.013  82.457 112.135  0.00  0.00     0.038 C 
ATOM      4  C   LIG d   1      -0.645  81.530 111.147  0.00  0.00     0.028 C 
ATOM      5  C   LIG d   1      -0.347  80.141 111.700  0.00  0.00    -0.047 C 
ATOM      6  C   LIG d   1      -1.529  79.691 112.589  0.00  0.00     0.091 C 
ENDROOT
BRANCH   1   7
ATOM      7  O   LIG d   1      -3.155  80.523 114.223  0.00  0.00    -0.368 OA
BRANCH   7   8
ATOM      8  C   LIG d   1      -3.279  80.490 115.666  0.00  0.00     0.119 C 
BRANCH   8   9
ATOM      9  C   LIG d   1      -1.857  80.397 116.251  0.00  0.00     0.028 C 
ATOM     10  C   LIG d   1      -1.532  81.568 117.194  0.00  0.00     0.006 C 
ENDBRANCH   8   9
BRANCH   8  11
ATOM     11  C   LIG d   1      -3.995  79.220 116.136  0.00  0.00     0.028 C 
ATOM     12  C   LIG d   1      -3.069  78.262 116.901  0.00  0.00     0.006 C 
ENDBRANCH   8  11
ENDBRANCH   7   8
ENDBRANCH   1   7
BRANCH   6  13
ATOM     13  N   LIG d   1      -1.282  78.377 113.238  0.00  0.00    -0.311 N 
ATOM     14  C   LIG d   1      -2.214  77.434 113.363  0.00  0.00     0.210 C 
ATOM     15  C   LIG d   1      -1.755  76.162 114.083  0.00  0.00     0.109 C 
ATOM     16  O   LIG d   1      -3.369  77.518 112.918  0.00  0.00    -0.276 OA
ATOM     17  H   LIG d   1      -0.363  78.213 113.600  0.00  0.00     0.149 HD
ENDBRANCH   6  13
BRANCH   5  18
ATOM     18  N   LIG d   1      -0.113  79.245 110.553  0.00  0.00     0.381 N 
ATOM     19  H   LIG d   1       0.675  79.567 110.027  0.00  0.00    -0.090 HD
ATOM     20  H   LIG d   1      -0.920  79.265 109.955  0.00  0.00    -0.090 HD
ATOM     21  H   LIG d   1       0.049  78.316 110.873  0.00  0.00    -0.090 HD
ENDBRANCH   5  18
BRANCH   3  22
ATOM     22  C   LIG d   1      -0.704  83.793 111.931  0.00  0.00     0.382 C 
ATOM     23  O   LIG d   1      -1.131  84.387 110.912  0.00  0.00    -0.241 OA
ATOM     24  O   LIG d   1       0.032  84.400 112.732  0.00  0.00    -0.241 OA
ENDBRANCH   3  22
TORSDOF 7
ENDMDL
MODEL 7
REMARK VINA RESULT:      -4.4      4.555      6.935
REMARK  7 active torsions:
REMARK  status: ('A' for Active; 'I' for Inactive)
REMARK    1  A    between atoms: C_2  and  C_3 
REMARK    2  A    between atoms: C_3  and  O_6 
REMARK    3  A    between atoms: C_3  and  C_4 
REMARK    4  A    between atoms: C_7  and  O_6 
REMARK    5  A    between atoms: C_9  and  C_10 
REMARK    6  A    between atoms: N_15  and  C_14 
REMARK    7  A    between atoms: N_20  and  C_19 
REMARK       I    between atoms: C_22  and  N_20 
ROOT
ATOM      1  C   LIG d   1      -2.359  78.354 114.625  0.00  0.00     0.161 C 
ATOM      2  C   LIG d   1      -2.537  79.172 113.497  0.00  0.00     0.016 C 
ATOM      3  C   LIG d   1      -2.534  80.585 113.553  0.00  0.00     0.038 C 
ATOM      4  C   LIG d   1      -2.200  81.280 114.724  0.00  0.00     0.028 C 
ATOM      5  C   LIG d   1      -2.510  80.503 115.999  0.00  0.00    -0.047 C 
ATOM      6  C   LIG d   1      -1.882  79.094 115.892  0.00  0.00     0.091 C 
ENDROOT
BRANCH   1   7
ATOM      7  O   LIG d   1      -1.459  77.274 114.307  0.00  0.00    -0.368 OA
BRANCH   7   8
ATOM      8  C   LIG d   1      -2.056  75.958 114.196  0.00  0.00     0.119 C 
BRANCH   8   9
ATOM      9  C   LIG d   1      -3.560  76.106 114.495  0.00  0.00     0.028 C 
ATOM     10  C   LIG d   1      -4.440  75.666 113.313  0.00  0.00     0.006 C 
ENDBRANCH   8   9
BRANCH   8  11
ATOM     11  C   LIG d   1      -1.520  75.010 115.273  0.00  0.00     0.028 C 
ATOM     12  C   LIG d   1      -2.606  74.553 116.259  0.00  0.00     0.006 C 
ENDBRANCH   8  11
ENDBRANCH   7   8
ENDBRANCH   1   7
BRANCH   6  13
ATOM     13  N   LIG d   1      -2.209  78.238 117.062  0.00  0.00    -0.311 N 
ATOM     14  C   LIG d   1      -1.286  77.711 117.865  0.00  0.00     0.210 C 
ATOM     15  C   LIG d   1      -1.837  76.843 119.001  0.00  0.00     0.109 C 
ATOM     16  O   LIG d   1      -0.066  77.906 117.764  0.00  0.00    -0.276 OA
ATOM     17  H   LIG d   1      -3.177  78.054 117.237  0.00  0.00     0.149 HD
ENDBRANCH   6  13
BRANCH   5  18
ATOM     18  N   LIG d   1      -1.986  81.284 117.136  0.00  0.00     0.381 N 
ATOM     19  H   LIG d   1      -2.167  82.257 116.990  0.00  0.00    -0.090 HD
ATOM     20  H   LIG d   1      -0.991  81.153 117.190  0.00  0.00    -0.090 HD
ATOM     21  H   LIG d   1      -2.415  80.982 117.983  0.00  0.00    -0.090 HD
ENDBRANCH   5  18
BRANCH   3  22
ATOM     22  C   LIG d   1      -2.908  81.317 112.436  0.00  0.00     0.382 C 
ATOM     23  O   LIG d   1      -2.047  81.969 111.797  0.00  0.00    -0.241 OA
ATOM     24  O   LIG d   1      -4.102  81.370 112.085  0.00  0.00    -0.241 OA
ENDBRANCH   3  22
TORSDOF 7
ENDMDL
MODEL 8
REMARK VINA RESULT:      -4.4      4.144      6.427
REMARK  7 active torsions:
REMARK  status: ('A' for Active; 'I' for Inactive)
REMARK    1  A    between atoms: C_2  and  C_3 
REMARK    2  A    between atoms: C_3  and  O_6 
REMARK    3  A    between atoms: C_3  and  C_4 
REMARK    4  A    between atoms: C_7  and  O_6 
REMARK    5  A    between atoms: C_9  and  C_10 
REMARK    6  A    between atoms: N_15  and  C_14 
REMARK    7  A    between atoms: N_20  and  C_19 
REMARK       I    between atoms: C_22  and  N_20 
ROOT
ATOM      1  C   LIG d   1      -2.000  78.535 114.611  0.00  0.00     0.161 C 
ATOM      2  C   LIG d   1      -2.436  79.332 113.539  0.00  0.00     0.016 C 
ATOM      3  C   LIG d   1      -1.980  80.652 113.316  0.00  0.00     0.038 C 
ATOM      4  C   LIG d   1      -0.937  81.213 114.067  0.00  0.00     0.028 C 
ATOM      5  C   LIG d   1      -0.822  80.632 115.473  0.00  0.00    -0.047 C 
ATOM      6  C   LIG d   1      -0.781  79.090 115.376  0.00  0.00     0.091 C 
ENDROOT
BRANCH   1   7
ATOM      7  O   LIG d   1      -1.734  77.196 114.147  0.00  0.00    -0.368 OA
BRANCH   7   8
ATOM      8  C   LIG d   1      -2.269  76.122 114.959  0.00  0.00     0.119 C 
BRANCH   8   9
ATOM      9  C   LIG d   1      -1.737  74.796 114.382  0.00  0.00     0.028 C 
ATOM     10  C   LIG d   1      -0.514  74.270 115.152  0.00  0.00     0.006 C 
ENDBRANCH   8   9
BRANCH   8  11
ATOM     11  C   LIG d   1      -3.793  76.036 114.834  0.00  0.00     0.028 C 
ATOM     12  C   LIG d   1      -4.249  75.463 113.483  0.00  0.00     0.006 C 
ENDBRANCH   8  11
ENDBRANCH   7   8
ENDBRANCH   1   7
BRANCH   6  13
ATOM     13  N   LIG d   1      -0.753  78.439 116.712  0.00  0.00    -0.311 N 
ATOM     14  C   LIG d   1       0.322  77.829 117.208  0.00  0.00     0.210 C 
ATOM     15  C   LIG d   1       0.129  77.206 118.595  0.00  0.00     0.109 C 
ATOM     16  O   LIG d   1       1.426  77.773 116.646  0.00  0.00    -0.276 OA
ATOM     17  H   LIG d   1      -1.598  78.465 117.249  0.00  0.00     0.149 HD
ENDBRANCH   6  13
BRANCH   5  18
ATOM     18  N   LIG d   1       0.387  81.205 116.094  0.00  0.00     0.381 N 
ATOM     19  H   LIG d   1       1.146  81.181 115.444  0.00  0.00    -0.090 HD
ATOM     20  H   LIG d   1       0.637  80.648 116.892  0.00  0.00    -0.090 HD
ATOM     21  H   LIG d   1       0.212  82.144 116.378  0.00  0.00    -0.090 HD
ENDBRANCH   5  18
BRANCH   3  22
ATOM     22  C   LIG d   1      -2.598  81.439 112.356  0.00  0.00     0.382 C 
ATOM     23  O   LIG d   1      -3.834  81.342 112.167  0.00  0.00    -0.241 OA
ATOM     24  O   LIG d   1      -1.927  82.212 111.646  0.00  0.00    -0.241 OA
ENDBRANCH   3  22
TORSDOF 7
ENDMDL
MODEL 9
REMARK VINA RESULT:      -4.4      3.808      5.777
REMARK  7 active torsions:
REMARK  status: ('A' for Active; 'I' for Inactive)
REMARK    1  A    between atoms: C_2  and  C_3 
REMARK    2  A    between atoms: C_3  and  O_6 
REMARK    3  A    between atoms: C_3  and  C_4 
REMARK    4  A    between atoms: C_7  and  O_6 
REMARK    5  A    between atoms: C_9  and  C_10 
REMARK    6  A    between atoms: N_15  and  C_14 
REMARK    7  A    between atoms: N_20  and  C_19 
REMARK       I    between atoms: C_22  and  N_20 
ROOT
ATOM      1  C   LIG d   1      -1.602  79.125 113.665  0.00  0.00     0.161 C 
ATOM      2  C   LIG d   1      -1.564  77.732 113.487  0.00  0.00     0.016 C 
ATOM      3  C   LIG d   1      -2.408  76.836 114.183  0.00  0.00     0.038 C 
ATOM      4  C   LIG d   1      -3.457  77.286 114.998  0.00  0.00     0.028 C 
ATOM      5  C   LIG d   1      -3.208  78.666 115.599  0.00  0.00    -0.047 C 
ATOM      6  C   LIG d   1      -2.814  79.642 114.467  0.00  0.00     0.091 C 
ENDROOT
BRANCH   1   7
ATOM      7  O   LIG d   1      -1.530  79.784 112.385  0.00  0.00    -0.368 OA
BRANCH   7   8
ATOM      8  C   LIG d   1      -0.217  80.239 111.975  0.00  0.00     0.119 C 
BRANCH   8   9
ATOM      9  C   LIG d   1       0.625  80.433 113.251  0.00  0.00     0.028 C 
ATOM     10  C   LIG d   1       0.822  81.917 113.603  0.00  0.00     0.006 C 
ENDBRANCH   8   9
BRANCH   8  11
ATOM     11  C   LIG d   1      -0.286  81.622 111.320  0.00  0.00     0.028 C 
ATOM     12  C   LIG d   1       0.477  81.689 109.988  0.00  0.00     0.006 C 
ENDBRANCH   8  11
ENDBRANCH   7   8
ENDBRANCH   1   7
BRANCH   6  13
ATOM     13  N   LIG d   1      -2.471  80.995 114.979  0.00  0.00    -0.311 N 
ATOM     14  C   LIG d   1      -2.874  82.123 114.397  0.00  0.00     0.210 C 
ATOM     15  C   LIG d   1      -2.392  83.409 115.076  0.00  0.00     0.109 C 
ATOM     16  O   LIG d   1      -3.611  82.181 113.401  0.00  0.00    -0.276 OA
ATOM     17  H   LIG d   1      -1.902  81.040 115.801  0.00  0.00     0.149 HD
ENDBRANCH   6  13
BRANCH   5  18
ATOM     18  N   LIG d   1      -4.435  79.070 116.311  0.00  0.00     0.381 N 
ATOM     19  H   LIG d   1      -4.202  79.690 117.061  0.00  0.00    -0.090 HD
ATOM     20  H   LIG d   1      -4.868  78.252 116.701  0.00  0.00    -0.090 HD
ATOM     21  H   LIG d   1      -5.062  79.519 115.681  0.00  0.00    -0.090 HD
ENDBRANCH   5  18
BRANCH   3  22
ATOM     22  C   LIG d   1      -2.180  75.471 114.097  0.00  0.00     0.382 C 
ATOM     23  O   LIG d   1      -2.733  74.691 114.909  0.00  0.00    -0.241 OA
ATOM     24  O   LIG d   1      -1.393  75.014 113.246  0.00  0.00    -0.241 OA
ENDBRANCH   3  22
TORSDOF 7
ENDMDL
