MODEL 1
REMARK VINA RESULT:      -5.5      0.000      0.000
REMARK  7 active torsions:
REMARK  status: ('A' for Active; 'I' for Inactive)
REMARK    1  A    between atoms: C_2  and  C_3 
REMARK    2  A    between atoms: C_3  and  O_6 
REMARK    3  A    between atoms: C_3  and  C_4 
REMARK    4  A    between atoms: C_7  and  O_6 
REMARK    5  A    between atoms: C_9  and  C_10 
REMARK    6  A    between atoms: N_15  and  C_14 
REMARK    7  A    between atoms: N_20  and  C_19 
REMARK       I    between atoms: C_22  and  N_20 
ROOT
ATOM      1  C   LIG d   1       0.053  83.402 111.965  0.00  0.00     0.161 C 
ATOM      2  C   LIG d   1      -1.161  82.907 112.468  0.00  0.00     0.016 C 
ATOM      3  C   LIG d   1      -1.584  81.568 112.302  0.00  0.00     0.038 C 
ATOM      4  C   LIG d   1      -0.745  80.588 111.750  0.00  0.00     0.028 C 
ATOM      5  C   LIG d   1       0.284  81.152 110.776  0.00  0.00    -0.047 C 
ATOM      6  C   LIG d   1       1.031  82.322 111.456  0.00  0.00     0.091 C 
ENDROOT
BRANCH   1   7
ATOM      7  O   LIG d   1       0.692  84.229 112.957  0.00  0.00    -0.368 OA
BRANCH   7   8
ATOM      8  C   LIG d   1       0.851  83.640 114.271  0.00  0.00     0.119 C 
BRANCH   8   9
ATOM      9  C   LIG d   1       0.309  84.651 115.301  0.00  0.00     0.028 C 
ATOM     10  C   LIG d   1      -0.664  84.006 116.302  0.00  0.00     0.006 C 
ENDBRANCH   8   9
BRANCH   8  11
ATOM     11  C   LIG d   1       2.329  83.455 114.624  0.00  0.00     0.028 C 
ATOM     12  C   LIG d   1       3.259  84.340 113.780  0.00  0.00     0.006 C 
ENDBRANCH   8  11
ENDBRANCH   7   8
ENDBRANCH   1   7
BRANCH   6  13
ATOM     13  N   LIG d   1       1.998  82.985 110.543  0.00  0.00    -0.311 N 
ATOM     14  C   LIG d   1       3.277  82.626 110.442  0.00  0.00     0.210 C 
ATOM     15  C   LIG d   1       4.105  83.454 109.455  0.00  0.00     0.109 C 
ATOM     16  O   LIG d   1       3.795  81.679 111.053  0.00  0.00    -0.276 OA
ATOM     17  H   LIG d   1       1.654  83.743 109.987  0.00  0.00     0.149 HD
ENDBRANCH   6  13
BRANCH   5  18
ATOM     18  N   LIG d   1       1.178  80.047 110.382  0.00  0.00     0.381 N 
ATOM     19  H   LIG d   1       1.478  80.174 109.436  0.00  0.00    -0.090 HD
ATOM     20  H   LIG d   1       0.670  79.182 110.438  0.00  0.00    -0.090 HD
ATOM     21  H   LIG d   1       1.969  80.015 110.988  0.00  0.00    -0.090 HD
ENDBRANCH   5  18
BRANCH   3  22
ATOM     22  C   LIG d   1      -2.874  81.205 112.657  0.00  0.00     0.382 C 
ATOM     23  O   LIG d   1      -3.855  81.751 112.096  0.00  0.00    -0.241 OA
ATOM     24  O   LIG d   1      -3.071  80.372 113.561  0.00  0.00    -0.241 OA
ENDBRANCH   3  22
TORSDOF 7
ENDMDL
MODEL 2
REMARK VINA RESULT:      -4.9      1.471      4.908
REMARK  7 active torsions:
REMARK  status: ('A' for Active; 'I' for Inactive)
REMARK    1  A    between atoms: C_2  and  C_3 
REMARK    2  A    between atoms: C_3  and  O_6 
REMARK    3  A    between atoms: C_3  and  C_4 
REMARK    4  A    between atoms: C_7  and  O_6 
REMARK    5  A    between atoms: C_9  and  C_10 
REMARK    6  A    between atoms: N_15  and  C_14 
REMARK    7  A    between atoms: N_20  and  C_19 
REMARK       I    between atoms: C_22  and  N_20 
ROOT
ATOM      1  C   LIG d   1       0.993  83.008 112.287  0.00  0.00     0.161 C 
ATOM      2  C   LIG d   1       2.089  83.359 111.481  0.00  0.00     0.016 C 
ATOM      3  C   LIG d   1       2.475  82.631 110.331  0.00  0.00     0.038 C 
ATOM      4  C   LIG d   1       1.694  81.584 109.821  0.00  0.00     0.028 C 
ATOM      5  C   LIG d   1       0.859  80.877 110.884  0.00  0.00    -0.047 C 
ATOM      6  C   LIG d   1       0.064  81.934 111.683  0.00  0.00     0.091 C 
ENDROOT
BRANCH   1   7
ATOM      7  O   LIG d   1       0.240  84.189 112.628  0.00  0.00    -0.368 OA
BRANCH   7   8
ATOM      8  C   LIG d   1       0.264  84.580 114.022  0.00  0.00     0.119 C 
BRANCH   8   9
ATOM      9  C   LIG d   1       1.231  83.628 114.753  0.00  0.00     0.028 C 
ATOM     10  C   LIG d   1       2.544  84.321 115.157  0.00  0.00     0.006 C 
ENDBRANCH   8   9
BRANCH   8  11
ATOM     11  C   LIG d   1      -1.098  84.362 114.686  0.00  0.00     0.028 C 
ATOM     12  C   LIG d   1      -0.982  83.906 116.149  0.00  0.00     0.006 C 
ENDBRANCH   8  11
ENDBRANCH   7   8
ENDBRANCH   1   7
BRANCH   6  13
ATOM     13  N   LIG d   1      -0.714  81.335 112.798  0.00  0.00    -0.311 N 
ATOM     14  C   LIG d   1      -2.040  81.417 112.893  0.00  0.00     0.210 C 
ATOM     15  C   LIG d   1      -2.642  80.747 114.132  0.00  0.00     0.109 C 
ATOM     16  O   LIG d   1      -2.778  81.953 112.053  0.00  0.00    -0.276 OA
ATOM     17  H   LIG d   1      -0.198  80.854 113.508  0.00  0.00     0.149 HD
ENDBRANCH   6  13
BRANCH   5  18
ATOM     18  N   LIG d   1      -0.007  79.902 110.195  0.00  0.00     0.381 N 
ATOM     19  H   LIG d   1      -0.696  80.384 109.654  0.00  0.00    -0.090 HD
ATOM     20  H   LIG d   1      -0.480  79.343 110.883  0.00  0.00    -0.090 HD
ATOM     21  H   LIG d   1       0.542  79.317 109.602  0.00  0.00    -0.090 HD
ENDBRANCH   5  18
BRANCH   3  22
ATOM     22  C   LIG d   1       3.675  82.925 109.703  0.00  0.00     0.382 C 
ATOM     23  O   LIG d   1       4.488  82.005 109.443  0.00  0.00    -0.241 OA
ATOM     24  O   LIG d   1       3.975  84.103 109.432  0.00  0.00    -0.241 OA
ENDBRANCH   3  22
TORSDOF 7
ENDMDL
MODEL 3
REMARK VINA RESULT:      -4.8      2.141      4.925
REMARK  7 active torsions:
REMARK  status: ('A' for Active; 'I' for Inactive)
REMARK    1  A    between atoms: C_2  and  C_3 
REMARK    2  A    between atoms: C_3  and  O_6 
REMARK    3  A    between atoms: C_3  and  C_4 
REMARK    4  A    between atoms: C_7  and  O_6 
REMARK    5  A    between atoms: C_9  and  C_10 
REMARK    6  A    between atoms: N_15  and  C_14 
REMARK    7  A    between atoms: N_20  and  C_19 
REMARK       I    between atoms: C_22  and  N_20 
ROOT
ATOM      1  C   LIG d   1       0.626  81.745 113.614  0.00  0.00     0.161 C 
ATOM      2  C   LIG d   1       1.420  82.736 113.013  0.00  0.00     0.016 C 
ATOM      3  C   LIG d   1       1.609  82.842 111.616  0.00  0.00     0.038 C 
ATOM      4  C   LIG d   1       0.889  82.050 110.709  0.00  0.00     0.028 C 
ATOM      5  C   LIG d   1       0.462  80.704 111.286  0.00  0.00    -0.047 C 
ATOM      6  C   LIG d   1      -0.255  80.941 112.634  0.00  0.00     0.091 C 
ENDROOT
BRANCH   1   7
ATOM      7  O   LIG d   1      -0.185  82.330 114.651  0.00  0.00    -0.368 OA
BRANCH   7   8
ATOM      8  C   LIG d   1      -1.317  83.118 114.208  0.00  0.00     0.119 C 
BRANCH   8   9
ATOM      9  C   LIG d   1      -1.133  84.545 114.761  0.00  0.00     0.028 C 
ATOM     10  C   LIG d   1      -0.135  84.597 115.930  0.00  0.00     0.006 C 
ENDBRANCH   8   9
BRANCH   8  11
ATOM     11  C   LIG d   1      -2.625  82.610 114.822  0.00  0.00     0.028 C 
ATOM     12  C   LIG d   1      -2.396  81.600 115.957  0.00  0.00     0.006 C 
ENDBRANCH   8  11
ENDBRANCH   7   8
ENDBRANCH   1   7
BRANCH   6  13
ATOM     13  N   LIG d   1      -0.631  79.670 113.307  0.00  0.00    -0.311 N 
ATOM     14  C   LIG d   1      -1.858  79.153 113.262  0.00  0.00     0.210 C 
ATOM     15  C   LIG d   1      -2.037  77.846 114.041  0.00  0.00     0.109 C 
ATOM     16  O   LIG d   1      -2.806  79.634 112.625  0.00  0.00    -0.276 OA
ATOM     17  H   LIG d   1       0.085  79.197 113.821  0.00  0.00     0.149 HD
ENDBRANCH   6  13
BRANCH   5  18
ATOM     18  N   LIG d   1      -0.394  80.041 110.284  0.00  0.00     0.381 N 
ATOM     19  H   LIG d   1      -0.550  80.657 109.511  0.00  0.00    -0.090 HD
ATOM     20  H   LIG d   1      -1.283  79.831 110.704  0.00  0.00    -0.090 HD
ATOM     21  H   LIG d   1       0.039  79.202 109.967  0.00  0.00    -0.090 HD
ENDBRANCH   5  18
BRANCH   3  22
ATOM     22  C   LIG d   1       2.556  83.721 111.115  0.00  0.00     0.382 C 
ATOM     23  O   LIG d   1       2.535  84.042 109.902  0.00  0.00    -0.241 OA
ATOM     24  O   LIG d   1       3.459  84.164 111.851  0.00  0.00    -0.241 OA
ENDBRANCH   3  22
TORSDOF 7
ENDMDL
MODEL 4
REMARK VINA RESULT:      -4.7      2.313      2.884
REMARK  7 active torsions:
REMARK  status: ('A' for Active; 'I' for Inactive)
REMARK    1  A    between atoms: C_2  and  C_3 
REMARK    2  A    between atoms: C_3  and  O_6 
REMARK    3  A    between atoms: C_3  and  C_4 
REMARK    4  A    between atoms: C_7  and  O_6 
REMARK    5  A    between atoms: C_9  and  C_10 
REMARK    6  A    between atoms: N_15  and  C_14 
REMARK    7  A    between atoms: N_20  and  C_19 
REMARK       I    between atoms: C_22  and  N_20 
ROOT
ATOM      1  C   LIG d   1      -1.943  82.318 113.616  0.00  0.00     0.161 C 
ATOM      2  C   LIG d   1      -2.430  81.395 114.556  0.00  0.00     0.016 C 
ATOM      3  C   LIG d   1      -2.368  79.994 114.376  0.00  0.00     0.038 C 
ATOM      4  C   LIG d   1      -1.673  79.415 113.303  0.00  0.00     0.028 C 
ATOM      5  C   LIG d   1      -1.604  80.311 112.071  0.00  0.00    -0.047 C 
ATOM      6  C   LIG d   1      -1.082  81.704 112.492  0.00  0.00     0.091 C 
ENDROOT
BRANCH   1   7
ATOM      7  O   LIG d   1      -1.215  83.364 114.289  0.00  0.00    -0.368 OA
BRANCH   7   8
ATOM      8  C   LIG d   1      -0.391  82.949 115.406  0.00  0.00     0.119 C 
BRANCH   8   9
ATOM      9  C   LIG d   1      -0.555  84.003 116.519  0.00  0.00     0.028 C 
ATOM     10  C   LIG d   1      -0.926  83.375 117.873  0.00  0.00     0.006 C 
ENDBRANCH   8   9
BRANCH   8  11
ATOM     11  C   LIG d   1       1.096  82.973 115.041  0.00  0.00     0.028 C 
ATOM     12  C   LIG d   1       1.694  81.566 114.887  0.00  0.00     0.006 C 
ENDBRANCH   8  11
ENDBRANCH   7   8
ENDBRANCH   1   7
BRANCH   6  13
ATOM     13  N   LIG d   1      -1.064  82.668 111.361  0.00  0.00    -0.311 N 
ATOM     14  C   LIG d   1       0.019  83.354 111.000  0.00  0.00     0.210 C 
ATOM     15  C   LIG d   1      -0.185  84.310 109.820  0.00  0.00     0.109 C 
ATOM     16  O   LIG d   1       1.137  83.239 111.525  0.00  0.00    -0.276 OA
ATOM     17  H   LIG d   1      -1.921  82.799 110.860  0.00  0.00     0.149 HD
ENDBRANCH   6  13
BRANCH   5  18
ATOM     18  N   LIG d   1      -0.737  79.643 111.082  0.00  0.00     0.381 N 
ATOM     19  H   LIG d   1      -0.023  80.274 110.778  0.00  0.00    -0.090 HD
ATOM     20  H   LIG d   1      -1.291  79.386 110.285  0.00  0.00    -0.090 HD
ATOM     21  H   LIG d   1      -0.323  78.831 111.485  0.00  0.00    -0.090 HD
ENDBRANCH   5  18
BRANCH   3  22
ATOM     22  C   LIG d   1      -3.040  79.158 115.254  0.00  0.00     0.382 C 
ATOM     23  O   LIG d   1      -3.121  79.459 116.469  0.00  0.00    -0.241 OA
ATOM     24  O   LIG d   1      -3.528  78.084 114.854  0.00  0.00    -0.241 OA
ENDBRANCH   3  22
TORSDOF 7
ENDMDL
MODEL 5
REMARK VINA RESULT:      -4.7      1.981      3.892
REMARK  7 active torsions:
REMARK  status: ('A' for Active; 'I' for Inactive)
REMARK    1  A    between atoms: C_2  and  C_3 
REMARK    2  A    between atoms: C_3  and  O_6 
REMARK    3  A    between atoms: C_3  and  C_4 
REMARK    4  A    between atoms: C_7  and  O_6 
REMARK    5  A    between atoms: C_9  and  C_10 
REMARK    6  A    between atoms: N_15  and  C_14 
REMARK    7  A    between atoms: N_20  and  C_19 
REMARK       I    between atoms: C_22  and  N_20 
ROOT
ATOM      1  C   LIG d   1       0.157  83.136 111.820  0.00  0.00     0.161 C 
ATOM      2  C   LIG d   1      -1.022  82.376 111.752  0.00  0.00     0.016 C 
ATOM      3  C   LIG d   1      -1.970  82.315 112.799  0.00  0.00     0.038 C 
ATOM      4  C   LIG d   1      -1.875  83.135 113.934  0.00  0.00     0.028 C 
ATOM      5  C   LIG d   1      -0.444  83.540 114.270  0.00  0.00    -0.047 C 
ATOM      6  C   LIG d   1       0.223  84.123 113.004  0.00  0.00     0.091 C 
ENDROOT
BRANCH   1   7
ATOM      7  O   LIG d   1       0.363  83.833 110.575  0.00  0.00    -0.368 OA
BRANCH   7   8
ATOM      8  C   LIG d   1       1.392  83.297 109.707  0.00  0.00     0.119 C 
BRANCH   8   9
ATOM      9  C   LIG d   1       2.039  82.105 110.438  0.00  0.00     0.028 C 
ATOM     10  C   LIG d   1       1.952  80.801 109.627  0.00  0.00     0.006 C 
ENDBRANCH   8   9
BRANCH   8  11
ATOM     11  C   LIG d   1       2.524  84.307 109.497  0.00  0.00     0.028 C 
ATOM     12  C   LIG d   1       3.845  83.865 110.146  0.00  0.00     0.006 C 
ENDBRANCH   8  11
ENDBRANCH   7   8
ENDBRANCH   1   7
BRANCH   6  13
ATOM     13  N   LIG d   1       1.652  84.467 113.224  0.00  0.00    -0.311 N 
ATOM     14  C   LIG d   1       2.547  83.608 113.709  0.00  0.00     0.210 C 
ATOM     15  C   LIG d   1       3.961  84.173 113.876  0.00  0.00     0.109 C 
ATOM     16  O   LIG d   1       2.311  82.423 113.986  0.00  0.00    -0.276 OA
ATOM     17  H   LIG d   1       1.937  85.400 112.996  0.00  0.00     0.149 HD
ENDBRANCH   6  13
BRANCH   5  18
ATOM     18  N   LIG d   1      -0.505  84.501 115.388  0.00  0.00     0.381 N 
ATOM     19  H   LIG d   1      -0.575  85.433 115.029  0.00  0.00    -0.090 HD
ATOM     20  H   LIG d   1       0.344  84.432 115.922  0.00  0.00    -0.090 HD
ATOM     21  H   LIG d   1      -1.289  84.300 115.968  0.00  0.00    -0.090 HD
ENDBRANCH   5  18
BRANCH   3  22
ATOM     22  C   LIG d   1      -3.007  81.396 112.735  0.00  0.00     0.382 C 
ATOM     23  O   LIG d   1      -4.018  81.641 112.034  0.00  0.00    -0.241 OA
ATOM     24  O   LIG d   1      -2.963  80.347 113.404  0.00  0.00    -0.241 OA
ENDBRANCH   3  22
TORSDOF 7
ENDMDL
MODEL 6
REMARK VINA RESULT:      -4.5      2.700      5.477
REMARK  7 active torsions:
REMARK  status: ('A' for Active; 'I' for Inactive)
REMARK    1  A    between atoms: C_2  and  C_3 
REMARK    2  A    between atoms: C_3  and  O_6 
REMARK    3  A    between atoms: C_3  and  C_4 
REMARK    4  A    between atoms: C_7  and  O_6 
REMARK    5  A    between atoms: C_9  and  C_10 
REMARK    6  A    between atoms: N_15  and  C_14 
REMARK    7  A    between atoms: N_20  and  C_19 
REMARK       I    between atoms: C_22  and  N_20 
ROOT
ATOM      1  C   LIG d   1       2.175  82.247 112.925  0.00  0.00     0.161 C 
ATOM      2  C   LIG d   1       2.788  81.700 114.064  0.00  0.00     0.016 C 
ATOM      3  C   LIG d   1       2.314  81.908 115.379  0.00  0.00     0.038 C 
ATOM      4  C   LIG d   1       1.098  82.559 115.634  0.00  0.00     0.028 C 
ATOM      5  C   LIG d   1       0.709  83.562 114.553  0.00  0.00    -0.047 C 
ATOM      6  C   LIG d   1       0.784  82.867 113.174  0.00  0.00     0.091 C 
ENDROOT
BRANCH   1   7
ATOM      7  O   LIG d   1       2.101  81.252 111.884  0.00  0.00    -0.368 OA
BRANCH   7   8
ATOM      8  C   LIG d   1       2.968  81.459 110.742  0.00  0.00     0.119 C 
BRANCH   8   9
ATOM      9  C   LIG d   1       3.576  82.869 110.871  0.00  0.00     0.028 C 
ATOM     10  C   LIG d   1       4.350  83.292 109.611  0.00  0.00     0.006 C 
ENDBRANCH   8   9
BRANCH   8  11
ATOM     11  C   LIG d   1       2.173  81.477 109.434  0.00  0.00     0.028 C 
ATOM     12  C   LIG d   1       0.992  80.493 109.440  0.00  0.00     0.006 C 
ENDBRANCH   8  11
ENDBRANCH   7   8
ENDBRANCH   1   7
BRANCH   6  13
ATOM     13  N   LIG d   1       0.500  83.800 112.053  0.00  0.00    -0.311 N 
ATOM     14  C   LIG d   1      -0.472  83.604 111.164  0.00  0.00     0.210 C 
ATOM     15  C   LIG d   1      -0.581  84.678 110.077  0.00  0.00     0.109 C 
ATOM     16  O   LIG d   1      -1.276  82.660 111.192  0.00  0.00    -0.276 OA
ATOM     17  H   LIG d   1       1.084  84.610 111.974  0.00  0.00     0.149 HD
ENDBRANCH   6  13
BRANCH   5  18
ATOM     18  N   LIG d   1      -0.641  84.063 114.875  0.00  0.00     0.381 N 
ATOM     19  H   LIG d   1      -1.246  83.934 114.089  0.00  0.00    -0.090 HD
ATOM     20  H   LIG d   1      -0.584  85.047 115.071  0.00  0.00    -0.090 HD
ATOM     21  H   LIG d   1      -1.004  83.580 115.667  0.00  0.00    -0.090 HD
ENDBRANCH   5  18
BRANCH   3  22
ATOM     22  C   LIG d   1       3.081  81.498 116.459  0.00  0.00     0.382 C 
ATOM     23  O   LIG d   1       2.534  80.935 117.438  0.00  0.00    -0.241 OA
ATOM     24  O   LIG d   1       4.306  81.723 116.486  0.00  0.00    -0.241 OA
ENDBRANCH   3  22
TORSDOF 7
ENDMDL
MODEL 7
REMARK VINA RESULT:      -4.5      3.377      5.156
REMARK  7 active torsions:
REMARK  status: ('A' for Active; 'I' for Inactive)
REMARK    1  A    between atoms: C_2  and  C_3 
REMARK    2  A    between atoms: C_3  and  O_6 
REMARK    3  A    between atoms: C_3  and  C_4 
REMARK    4  A    between atoms: C_7  and  O_6 
REMARK    5  A    between atoms: C_9  and  C_10 
REMARK    6  A    between atoms: N_15  and  C_14 
REMARK    7  A    between atoms: N_20  and  C_19 
REMARK       I    between atoms: C_22  and  N_20 
ROOT
ATOM      1  C   LIG d   1      -0.169  80.904 114.551  0.00  0.00     0.161 C 
ATOM      2  C   LIG d   1      -0.329  82.058 113.766  0.00  0.00     0.016 C 
ATOM      3  C   LIG d   1      -1.149  82.110 112.615  0.00  0.00     0.038 C 
ATOM      4  C   LIG d   1      -1.988  81.046 112.255  0.00  0.00     0.028 C 
ATOM      5  C   LIG d   1      -1.481  79.687 112.726  0.00  0.00    -0.047 C 
ATOM      6  C   LIG d   1      -1.164  79.766 114.237  0.00  0.00     0.091 C 
ENDROOT
BRANCH   1   7
ATOM      7  O   LIG d   1      -0.230  81.251 115.948  0.00  0.00    -0.368 OA
BRANCH   7   8
ATOM      8  C   LIG d   1      -0.859  82.517 116.264  0.00  0.00     0.119 C 
BRANCH   8   9
ATOM      9  C   LIG d   1      -0.016  83.191 117.364  0.00  0.00     0.028 C 
ATOM     10  C   LIG d   1      -0.838  83.499 118.627  0.00  0.00     0.006 C 
ENDBRANCH   8   9
BRANCH   8  11
ATOM     11  C   LIG d   1      -2.244  82.311 116.884  0.00  0.00     0.028 C 
ATOM     12  C   LIG d   1      -3.387  82.579 115.892  0.00  0.00     0.006 C 
ENDBRANCH   8  11
ENDBRANCH   7   8
ENDBRANCH   1   7
BRANCH   6  13
ATOM     13  N   LIG d   1      -0.582  78.503 114.761  0.00  0.00    -0.311 N 
ATOM     14  C   LIG d   1      -1.220  77.697 115.607  0.00  0.00     0.210 C 
ATOM     15  C   LIG d   1      -0.432  76.457 116.039  0.00  0.00     0.109 C 
ATOM     16  O   LIG d   1      -2.377  77.876 116.017  0.00  0.00    -0.276 OA
ATOM     17  H   LIG d   1       0.342  78.265 114.456  0.00  0.00     0.149 HD
ENDBRANCH   6  13
BRANCH   5  18
ATOM     18  N   LIG d   1      -2.517  78.688 112.404  0.00  0.00     0.381 N 
ATOM     19  H   LIG d   1      -3.423  79.062 112.606  0.00  0.00    -0.090 HD
ATOM     20  H   LIG d   1      -2.376  77.876 112.980  0.00  0.00    -0.090 HD
ATOM     21  H   LIG d   1      -2.460  78.436 111.442  0.00  0.00    -0.090 HD
ENDBRANCH   5  18
BRANCH   3  22
ATOM     22  C   LIG d   1      -1.103  83.222 111.789  0.00  0.00     0.382 C 
ATOM     23  O   LIG d   1      -1.226  83.086 110.547  0.00  0.00    -0.241 OA
ATOM     24  O   LIG d   1      -0.897  84.355 112.264  0.00  0.00    -0.241 OA
ENDBRANCH   3  22
TORSDOF 7
ENDMDL
MODEL 8
REMARK VINA RESULT:      -4.3      2.404      4.533
REMARK  7 active torsions:
REMARK  status: ('A' for Active; 'I' for Inactive)
REMARK    1  A    between atoms: C_2  and  C_3 
REMARK    2  A    between atoms: C_3  and  O_6 
REMARK    3  A    between atoms: C_3  and  C_4 
REMARK    4  A    between atoms: C_7  and  O_6 
REMARK    5  A    between atoms: C_9  and  C_10 
REMARK    6  A    between atoms: N_15  and  C_14 
REMARK    7  A    between atoms: N_20  and  C_19 
REMARK       I    between atoms: C_22  and  N_20 
ROOT
ATOM      1  C   LIG d   1       0.734  81.785 113.224  0.00  0.00     0.161 C 
ATOM      2  C   LIG d   1      -0.496  81.309 112.740  0.00  0.00     0.016 C 
ATOM      3  C   LIG d   1      -1.748  81.766 113.213  0.00  0.00     0.038 C 
ATOM      4  C   LIG d   1      -1.855  82.847 114.100  0.00  0.00     0.028 C 
ATOM      5  C   LIG d   1      -0.632  83.020 114.995  0.00  0.00    -0.047 C 
ATOM      6  C   LIG d   1       0.636  83.043 114.112  0.00  0.00     0.091 C 
ENDROOT
BRANCH   1   7
ATOM      7  O   LIG d   1       1.635  82.017 112.123  0.00  0.00    -0.368 OA
BRANCH   7   8
ATOM      8  C   LIG d   1       1.068  81.881 110.796  0.00  0.00     0.119 C 
BRANCH   8   9
ATOM      9  C   LIG d   1       2.019  80.988 109.976  0.00  0.00     0.028 C 
ATOM     10  C   LIG d   1       3.484  81.446 110.072  0.00  0.00     0.006 C 
ENDBRANCH   8   9
BRANCH   8  11
ATOM     11  C   LIG d   1       1.041  83.225 110.062  0.00  0.00     0.028 C 
ATOM     12  C   LIG d   1      -0.314  83.941 110.180  0.00  0.00     0.006 C 
ENDBRANCH   8  11
ENDBRANCH   7   8
ENDBRANCH   1   7
BRANCH   6  13
ATOM     13  N   LIG d   1       1.884  83.124 114.915  0.00  0.00    -0.311 N 
ATOM     14  C   LIG d   1       2.219  82.230 115.843  0.00  0.00     0.210 C 
ATOM     15  C   LIG d   1       3.538  82.512 116.568  0.00  0.00     0.109 C 
ATOM     16  O   LIG d   1       1.564  81.211 116.112  0.00  0.00    -0.276 OA
ATOM     17  H   LIG d   1       2.490  83.903 114.739  0.00  0.00     0.149 HD
ENDBRANCH   6  13
BRANCH   5  18
ATOM     18  N   LIG d   1      -0.819  84.261 115.770  0.00  0.00     0.381 N 
ATOM     19  H   LIG d   1      -0.266  84.995 115.374  0.00  0.00    -0.090 HD
ATOM     20  H   LIG d   1      -0.508  84.106 116.713  0.00  0.00    -0.090 HD
ATOM     21  H   LIG d   1      -1.781  84.523 115.769  0.00  0.00    -0.090 HD
ENDBRANCH   5  18
BRANCH   3  22
ATOM     22  C   LIG d   1      -2.908  81.113 112.827  0.00  0.00     0.382 C 
ATOM     23  O   LIG d   1      -3.720  81.680 112.056  0.00  0.00    -0.241 OA
ATOM     24  O   LIG d   1      -3.176  79.982 113.275  0.00  0.00    -0.241 OA
ENDBRANCH   3  22
TORSDOF 7
ENDMDL
MODEL 9
REMARK VINA RESULT:      -4.2      4.233      5.826
REMARK  7 active torsions:
REMARK  status: ('A' for Active; 'I' for Inactive)
REMARK    1  A    between atoms: C_2  and  C_3 
REMARK    2  A    between atoms: C_3  and  O_6 
REMARK    3  A    between atoms: C_3  and  C_4 
REMARK    4  A    between atoms: C_7  and  O_6 
REMARK    5  A    between atoms: C_9  and  C_10 
REMARK    6  A    between atoms: N_15  and  C_14 
REMARK    7  A    between atoms: N_20  and  C_19 
REMARK       I    between atoms: C_22  and  N_20 
ROOT
ATOM      1  C   LIG d   1      -1.476  81.017 115.879  0.00  0.00     0.161 C 
ATOM      2  C   LIG d   1      -2.116  81.643 114.796  0.00  0.00     0.016 C 
ATOM      3  C   LIG d   1      -2.404  80.986 113.578  0.00  0.00     0.038 C 
ATOM      4  C   LIG d   1      -2.207  79.606 113.414  0.00  0.00     0.028 C 
ATOM      5  C   LIG d   1      -1.101  79.044 114.300  0.00  0.00    -0.047 C 
ATOM      6  C   LIG d   1      -1.354  79.483 115.760  0.00  0.00     0.091 C 
ENDROOT
BRANCH   1   7
ATOM      7  O   LIG d   1      -2.138  81.373 117.109  0.00  0.00    -0.368 OA
BRANCH   7   8
ATOM      8  C   LIG d   1      -1.908  82.720 117.590  0.00  0.00     0.119 C 
BRANCH   8   9
ATOM      9  C   LIG d   1      -0.383  82.937 117.647  0.00  0.00     0.028 C 
ATOM     10  C   LIG d   1       0.007  84.122 118.546  0.00  0.00     0.006 C 
ENDBRANCH   8   9
BRANCH   8  11
ATOM     11  C   LIG d   1      -2.396  82.888 119.032  0.00  0.00     0.028 C 
ATOM     12  C   LIG d   1      -3.814  82.338 119.249  0.00  0.00     0.006 C 
ENDBRANCH   8  11
ENDBRANCH   7   8
ENDBRANCH   1   7
BRANCH   6  13
ATOM     13  N   LIG d   1      -0.272  79.046 116.680  0.00  0.00    -0.311 N 
ATOM     14  C   LIG d   1      -0.461  78.183 117.676  0.00  0.00     0.210 C 
ATOM     15  C   LIG d   1       0.784  77.882 118.517  0.00  0.00     0.109 C 
ATOM     16  O   LIG d   1      -1.534  77.612 117.924  0.00  0.00    -0.276 OA
ATOM     17  H   LIG d   1       0.638  79.435 116.531  0.00  0.00     0.149 HD
ENDBRANCH   6  13
BRANCH   5  18
ATOM     18  N   LIG d   1      -1.096  77.578 114.130  0.00  0.00     0.381 N 
ATOM     19  H   LIG d   1      -1.533  77.336 113.263  0.00  0.00    -0.090 HD
ATOM     20  H   LIG d   1      -1.625  77.163 114.877  0.00  0.00    -0.090 HD
ATOM     21  H   LIG d   1      -0.160  77.236 114.146  0.00  0.00    -0.090 HD
ENDBRANCH   5  18
BRANCH   3  22
ATOM     22  C   LIG d   1      -2.859  81.719 112.493  0.00  0.00     0.382 C 
ATOM     23  O   LIG d   1      -4.060  81.635 112.138  0.00  0.00    -0.241 OA
ATOM     24  O   LIG d   1      -2.075  82.429 111.836  0.00  0.00    -0.241 OA
ENDBRANCH   3  22
TORSDOF 7
ENDMDL
