MODEL 1
REMARK VINA RESULT:      -4.1      0.000      0.000
REMARK  7 active torsions:
REMARK  status: ('A' for Active; 'I' for Inactive)
REMARK    1  A    between atoms: C_2  and  C_3 
REMARK    2  A    between atoms: C_3  and  O_6 
REMARK    3  A    between atoms: C_3  and  C_4 
REMARK    4  A    between atoms: C_7  and  O_6 
REMARK    5  A    between atoms: C_9  and  C_10 
REMARK    6  A    between atoms: N_15  and  C_14 
REMARK    7  A    between atoms: N_20  and  C_19 
REMARK       I    between atoms: C_22  and  N_20 
ROOT
ATOM      1  C   LIG d   1      -1.185  77.420 117.259  0.00  0.00     0.161 C 
ATOM      2  C   LIG d   1      -2.025  77.861 116.223  0.00  0.00     0.016 C 
ATOM      3  C   LIG d   1      -2.042  77.281 114.933  0.00  0.00     0.038 C 
ATOM      4  C   LIG d   1      -1.322  76.114 114.636  0.00  0.00     0.028 C 
ATOM      5  C   LIG d   1      -0.078  75.934 115.500  0.00  0.00    -0.047 C 
ATOM      6  C   LIG d   1      -0.474  76.078 116.987  0.00  0.00     0.091 C 
ENDROOT
BRANCH   1   7
ATOM      7  O   LIG d   1      -1.926  77.354 118.493  0.00  0.00    -0.368 OA
BRANCH   7   8
ATOM      8  C   LIG d   1      -3.355  77.150 118.369  0.00  0.00     0.119 C 
BRANCH   8   9
ATOM      9  C   LIG d   1      -4.045  78.081 119.385  0.00  0.00     0.028 C 
ATOM     10  C   LIG d   1      -3.662  79.556 119.183  0.00  0.00     0.006 C 
ENDBRANCH   8   9
BRANCH   8  11
ATOM     11  C   LIG d   1      -3.753  75.730 118.784  0.00  0.00     0.028 C 
ATOM     12  C   LIG d   1      -3.844  74.764 117.592  0.00  0.00     0.006 C 
ENDBRANCH   8  11
ENDBRANCH   7   8
ENDBRANCH   1   7
BRANCH   6  13
ATOM     13  N   LIG d   1       0.699  75.998 117.896  0.00  0.00    -0.311 N 
ATOM     14  C   LIG d   1       0.692  75.324 119.045  0.00  0.00     0.210 C 
ATOM     15  C   LIG d   1       1.999  75.388 119.840  0.00  0.00     0.109 C 
ATOM     16  O   LIG d   1      -0.262  74.652 119.464  0.00  0.00    -0.276 OA
ATOM     17  H   LIG d   1       1.526  76.489 117.618  0.00  0.00     0.149 HD
ENDBRANCH   6  13
BRANCH   5  18
ATOM     18  N   LIG d   1       0.498  74.614 115.180  0.00  0.00     0.381 N 
ATOM     19  H   LIG d   1       1.053  74.678 114.351  0.00  0.00    -0.090 HD
ATOM     20  H   LIG d   1      -0.250  73.965 115.010  0.00  0.00    -0.090 HD
ATOM     21  H   LIG d   1       1.059  74.294 115.939  0.00  0.00    -0.090 HD
ENDBRANCH   5  18
BRANCH   3  22
ATOM     22  C   LIG d   1      -2.754  77.893 113.913  0.00  0.00     0.382 C 
ATOM     23  O   LIG d   1      -2.701  79.139 113.772  0.00  0.00    -0.241 OA
ATOM     24  O   LIG d   1      -3.484  77.221 113.161  0.00  0.00    -0.241 OA
ENDBRANCH   3  22
TORSDOF 7
ENDMDL
MODEL 2
REMARK VINA RESULT:      -4.0      1.973      3.115
REMARK  7 active torsions:
REMARK  status: ('A' for Active; 'I' for Inactive)
REMARK    1  A    between atoms: C_2  and  C_3 
REMARK    2  A    between atoms: C_3  and  O_6 
REMARK    3  A    between atoms: C_3  and  C_4 
REMARK    4  A    between atoms: C_7  and  O_6 
REMARK    5  A    between atoms: C_9  and  C_10 
REMARK    6  A    between atoms: N_15  and  C_14 
REMARK    7  A    between atoms: N_20  and  C_19 
REMARK       I    between atoms: C_22  and  N_20 
ROOT
ATOM      1  C   LIG d   1      -0.368  77.948 116.871  0.00  0.00     0.161 C 
ATOM      2  C   LIG d   1      -1.391  78.279 115.967  0.00  0.00     0.016 C 
ATOM      3  C   LIG d   1      -1.945  77.360 115.048  0.00  0.00     0.038 C 
ATOM      4  C   LIG d   1      -1.616  75.996 115.073  0.00  0.00     0.028 C 
ATOM      5  C   LIG d   1      -0.223  75.720 115.629  0.00  0.00    -0.047 C 
ATOM      6  C   LIG d   1      -0.074  76.438 116.990  0.00  0.00     0.091 C 
ENDROOT
BRANCH   1   7
ATOM      7  O   LIG d   1      -0.662  78.504 118.168  0.00  0.00    -0.368 OA
BRANCH   7   8
ATOM      8  C   LIG d   1      -0.110  79.816 118.439  0.00  0.00     0.119 C 
BRANCH   8   9
ATOM      9  C   LIG d   1       1.061  79.632 119.423  0.00  0.00     0.028 C 
ATOM     10  C   LIG d   1       2.430  79.688 118.723  0.00  0.00     0.006 C 
ENDBRANCH   8   9
BRANCH   8  11
ATOM     11  C   LIG d   1      -1.120  80.705 119.172  0.00  0.00     0.028 C 
ATOM     12  C   LIG d   1      -0.785  82.201 119.065  0.00  0.00     0.006 C 
ENDBRANCH   8  11
ENDBRANCH   7   8
ENDBRANCH   1   7
BRANCH   6  13
ATOM     13  N   LIG d   1       1.289  76.289 117.563  0.00  0.00    -0.311 N 
ATOM     14  C   LIG d   1       1.519  76.002 118.843  0.00  0.00     0.210 C 
ATOM     15  C   LIG d   1       2.998  75.913 119.231  0.00  0.00     0.109 C 
ATOM     16  O   LIG d   1       0.637  75.781 119.688  0.00  0.00    -0.276 OA
ATOM     17  H   LIG d   1       2.063  76.420 116.941  0.00  0.00     0.149 HD
ENDBRANCH   6  13
BRANCH   5  18
ATOM     18  N   LIG d   1      -0.065  74.256 115.727  0.00  0.00     0.381 N 
ATOM     19  H   LIG d   1       0.658  74.037 116.383  0.00  0.00    -0.090 HD
ATOM     20  H   LIG d   1       0.206  73.898 114.828  0.00  0.00    -0.090 HD
ATOM     21  H   LIG d   1      -0.922  73.839 116.014  0.00  0.00    -0.090 HD
ENDBRANCH   5  18
BRANCH   3  22
ATOM     22  C   LIG d   1      -2.811  77.810 114.062  0.00  0.00     0.382 C 
ATOM     23  O   LIG d   1      -2.846  79.029 113.769  0.00  0.00    -0.241 OA
ATOM     24  O   LIG d   1      -3.588  77.019 113.495  0.00  0.00    -0.241 OA
ENDBRANCH   3  22
TORSDOF 7
ENDMDL
MODEL 3
REMARK VINA RESULT:      -3.9      1.845      2.581
REMARK  7 active torsions:
REMARK  status: ('A' for Active; 'I' for Inactive)
REMARK    1  A    between atoms: C_2  and  C_3 
REMARK    2  A    between atoms: C_3  and  O_6 
REMARK    3  A    between atoms: C_3  and  C_4 
REMARK    4  A    between atoms: C_7  and  O_6 
REMARK    5  A    between atoms: C_9  and  C_10 
REMARK    6  A    between atoms: N_15  and  C_14 
REMARK    7  A    between atoms: N_20  and  C_19 
REMARK       I    between atoms: C_22  and  N_20 
ROOT
ATOM      1  C   LIG d   1      -0.600  78.402 116.256  0.00  0.00     0.161 C 
ATOM      2  C   LIG d   1      -1.763  78.336 115.470  0.00  0.00     0.016 C 
ATOM      3  C   LIG d   1      -2.365  77.120 115.073  0.00  0.00     0.038 C 
ATOM      4  C   LIG d   1      -1.927  75.881 115.565  0.00  0.00     0.028 C 
ATOM      5  C   LIG d   1      -0.452  75.870 115.953  0.00  0.00    -0.047 C 
ATOM      6  C   LIG d   1      -0.172  77.064 116.893  0.00  0.00     0.091 C 
ENDROOT
BRANCH   1   7
ATOM      7  O   LIG d   1      -0.753  79.414 117.271  0.00  0.00    -0.368 OA
BRANCH   7   8
ATOM      8  C   LIG d   1      -1.180  78.949 118.575  0.00  0.00     0.119 C 
BRANCH   8   9
ATOM      9  C   LIG d   1      -2.610  79.474 118.808  0.00  0.00     0.028 C 
ATOM     10  C   LIG d   1      -3.673  78.378 118.630  0.00  0.00     0.006 C 
ENDBRANCH   8   9
BRANCH   8  11
ATOM     11  C   LIG d   1      -0.333  79.568 119.691  0.00  0.00     0.028 C 
ATOM     12  C   LIG d   1       0.972  80.192 119.173  0.00  0.00     0.006 C 
ENDBRANCH   8  11
ENDBRANCH   7   8
ENDBRANCH   1   7
BRANCH   6  13
ATOM     13  N   LIG d   1       1.265  77.176 117.253  0.00  0.00    -0.311 N 
ATOM     14  C   LIG d   1       1.792  76.628 118.347  0.00  0.00     0.210 C 
ATOM     15  C   LIG d   1       3.291  76.881 118.540  0.00  0.00     0.109 C 
ATOM     16  O   LIG d   1       1.168  75.928 119.158  0.00  0.00    -0.276 OA
ATOM     17  H   LIG d   1       1.851  77.701 116.634  0.00  0.00     0.149 HD
ENDBRANCH   6  13
BRANCH   5  18
ATOM     18  N   LIG d   1      -0.165  74.563 116.575  0.00  0.00     0.381 N 
ATOM     19  H   LIG d   1      -0.758  74.430 117.370  0.00  0.00    -0.090 HD
ATOM     20  H   LIG d   1       0.790  74.556 116.888  0.00  0.00    -0.090 HD
ATOM     21  H   LIG d   1      -0.312  73.832 115.915  0.00  0.00    -0.090 HD
ENDBRANCH   5  18
BRANCH   3  22
ATOM     22  C   LIG d   1      -3.393  77.133 114.143  0.00  0.00     0.382 C 
ATOM     23  O   LIG d   1      -3.294  77.837 113.110  0.00  0.00    -0.241 OA
ATOM     24  O   LIG d   1      -4.437  76.485 114.346  0.00  0.00    -0.241 OA
ENDBRANCH   3  22
TORSDOF 7
ENDMDL
MODEL 4
REMARK VINA RESULT:      -3.9      2.257      3.167
REMARK  7 active torsions:
REMARK  status: ('A' for Active; 'I' for Inactive)
REMARK    1  A    between atoms: C_2  and  C_3 
REMARK    2  A    between atoms: C_3  and  O_6 
REMARK    3  A    between atoms: C_3  and  C_4 
REMARK    4  A    between atoms: C_7  and  O_6 
REMARK    5  A    between atoms: C_9  and  C_10 
REMARK    6  A    between atoms: N_15  and  C_14 
REMARK    7  A    between atoms: N_20  and  C_19 
REMARK       I    between atoms: C_22  and  N_20 
ROOT
ATOM      1  C   LIG d   1      -0.511  77.759 117.188  0.00  0.00     0.161 C 
ATOM      2  C   LIG d   1      -1.848  77.841 116.764  0.00  0.00     0.016 C 
ATOM      3  C   LIG d   1      -2.446  76.903 115.890  0.00  0.00     0.038 C 
ATOM      4  C   LIG d   1      -1.785  75.730 115.498  0.00  0.00     0.028 C 
ATOM      5  C   LIG d   1      -0.266  75.862 115.494  0.00  0.00    -0.047 C 
ATOM      6  C   LIG d   1       0.192  76.426 116.859  0.00  0.00     0.091 C 
ENDROOT
BRANCH   1   7
ATOM      7  O   LIG d   1      -0.428  78.034 118.600  0.00  0.00    -0.368 OA
BRANCH   7   8
ATOM      8  C   LIG d   1       0.155  79.308 118.969  0.00  0.00     0.119 C 
BRANCH   8   9
ATOM      9  C   LIG d   1      -0.975  80.185 119.543  0.00  0.00     0.028 C 
ATOM     10  C   LIG d   1      -0.844  81.660 119.124  0.00  0.00     0.006 C 
ENDBRANCH   8   9
BRANCH   8  11
ATOM     11  C   LIG d   1       0.668  80.063 117.739  0.00  0.00     0.028 C 
ATOM     12  C   LIG d   1       2.201  80.169 117.702  0.00  0.00     0.006 C 
ENDBRANCH   8  11
ENDBRANCH   7   8
ENDBRANCH   1   7
BRANCH   6  13
ATOM     13  N   LIG d   1       1.658  76.665 116.910  0.00  0.00    -0.311 N 
ATOM     14  C   LIG d   1       2.413  76.367 117.965  0.00  0.00     0.210 C 
ATOM     15  C   LIG d   1       3.898  76.714 117.817  0.00  0.00     0.109 C 
ATOM     16  O   LIG d   1       2.000  75.818 118.998  0.00  0.00    -0.276 OA
ATOM     17  H   LIG d   1       2.081  77.079 116.102  0.00  0.00     0.149 HD
ENDBRANCH   6  13
BRANCH   5  18
ATOM     18  N   LIG d   1       0.296  74.530 115.201  0.00  0.00     0.381 N 
ATOM     19  H   LIG d   1      -0.437  73.904 114.935  0.00  0.00    -0.090 HD
ATOM     20  H   LIG d   1       0.732  74.171 116.032  0.00  0.00    -0.090 HD
ATOM     21  H   LIG d   1       0.967  74.597 114.468  0.00  0.00    -0.090 HD
ENDBRANCH   5  18
BRANCH   3  22
ATOM     22  C   LIG d   1      -3.705  77.157 115.368  0.00  0.00     0.382 C 
ATOM     23  O   LIG d   1      -4.095  76.542 114.346  0.00  0.00    -0.241 OA
ATOM     24  O   LIG d   1      -4.438  78.024 115.879  0.00  0.00    -0.241 OA
ENDBRANCH   3  22
TORSDOF 7
ENDMDL
MODEL 5
REMARK VINA RESULT:      -3.8      2.270      4.969
REMARK  7 active torsions:
REMARK  status: ('A' for Active; 'I' for Inactive)
REMARK    1  A    between atoms: C_2  and  C_3 
REMARK    2  A    between atoms: C_3  and  O_6 
REMARK    3  A    between atoms: C_3  and  C_4 
REMARK    4  A    between atoms: C_7  and  O_6 
REMARK    5  A    between atoms: C_9  and  C_10 
REMARK    6  A    between atoms: N_15  and  C_14 
REMARK    7  A    between atoms: N_20  and  C_19 
REMARK       I    between atoms: C_22  and  N_20 
ROOT
ATOM      1  C   LIG d   1      -1.618  78.273 116.759  0.00  0.00     0.161 C 
ATOM      2  C   LIG d   1      -1.749  77.343 117.803  0.00  0.00     0.016 C 
ATOM      3  C   LIG d   1      -1.400  75.978 117.678  0.00  0.00     0.038 C 
ATOM      4  C   LIG d   1      -0.752  75.480 116.538  0.00  0.00     0.028 C 
ATOM      5  C   LIG d   1      -1.059  76.272 115.272  0.00  0.00    -0.047 C 
ATOM      6  C   LIG d   1      -0.808  77.772 115.545  0.00  0.00     0.091 C 
ENDROOT
BRANCH   1   7
ATOM      7  O   LIG d   1      -1.055  79.500 117.265  0.00  0.00    -0.368 OA
BRANCH   7   8
ATOM      8  C   LIG d   1      -0.822  79.552 118.694  0.00  0.00     0.119 C 
BRANCH   8   9
ATOM      9  C   LIG d   1      -1.646  80.726 119.255  0.00  0.00     0.028 C 
ATOM     10  C   LIG d   1      -0.911  82.072 119.132  0.00  0.00     0.006 C 
ENDBRANCH   8   9
BRANCH   8  11
ATOM     11  C   LIG d   1       0.638  79.895 119.008  0.00  0.00     0.028 C 
ATOM     12  C   LIG d   1       1.631  78.910 118.372  0.00  0.00     0.006 C 
ENDBRANCH   8  11
ENDBRANCH   7   8
ENDBRANCH   1   7
BRANCH   6  13
ATOM     13  N   LIG d   1      -1.166  78.627 114.383  0.00  0.00    -0.311 N 
ATOM     14  C   LIG d   1      -2.364  78.611 113.802  0.00  0.00     0.210 C 
ATOM     15  C   LIG d   1      -2.516  79.557 112.606  0.00  0.00     0.109 C 
ATOM     16  O   LIG d   1      -3.326  77.928 114.184  0.00  0.00    -0.276 OA
ATOM     17  H   LIG d   1      -0.454  79.235 114.028  0.00  0.00     0.149 HD
ENDBRANCH   6  13
BRANCH   5  18
ATOM     18  N   LIG d   1      -0.213  75.731 114.192  0.00  0.00     0.381 N 
ATOM     19  H   LIG d   1       0.571  76.334 114.041  0.00  0.00    -0.090 HD
ATOM     20  H   LIG d   1      -0.751  75.695 113.344  0.00  0.00    -0.090 HD
ATOM     21  H   LIG d   1       0.104  74.817 114.431  0.00  0.00    -0.090 HD
ENDBRANCH   5  18
BRANCH   3  22
ATOM     22  C   LIG d   1      -1.738  75.087 118.686  0.00  0.00     0.382 C 
ATOM     23  O   LIG d   1      -2.888  75.113 119.186  0.00  0.00    -0.241 OA
ATOM     24  O   LIG d   1      -0.893  74.288 119.132  0.00  0.00    -0.241 OA
ENDBRANCH   3  22
TORSDOF 7
ENDMDL
MODEL 6
REMARK VINA RESULT:      -3.7      2.588      4.607
REMARK  7 active torsions:
REMARK  status: ('A' for Active; 'I' for Inactive)
REMARK    1  A    between atoms: C_2  and  C_3 
REMARK    2  A    between atoms: C_3  and  O_6 
REMARK    3  A    between atoms: C_3  and  C_4 
REMARK    4  A    between atoms: C_7  and  O_6 
REMARK    5  A    between atoms: C_9  and  C_10 
REMARK    6  A    between atoms: N_15  and  C_14 
REMARK    7  A    between atoms: N_20  and  C_19 
REMARK       I    between atoms: C_22  and  N_20 
ROOT
ATOM      1  C   LIG d   1      -1.100  75.467 117.252  0.00  0.00     0.161 C 
ATOM      2  C   LIG d   1      -0.378  74.908 116.184  0.00  0.00     0.016 C 
ATOM      3  C   LIG d   1      -0.462  75.384 114.855  0.00  0.00     0.038 C 
ATOM      4  C   LIG d   1      -1.164  76.554 114.529  0.00  0.00     0.028 C 
ATOM      5  C   LIG d   1      -2.314  76.856 115.484  0.00  0.00    -0.047 C 
ATOM      6  C   LIG d   1      -1.785  76.813 116.936  0.00  0.00     0.091 C 
ENDROOT
BRANCH   1   7
ATOM      7  O   LIG d   1      -0.244  75.598 118.405  0.00  0.00    -0.368 OA
BRANCH   7   8
ATOM      8  C   LIG d   1       0.623  76.759 118.426  0.00  0.00     0.119 C 
BRANCH   8   9
ATOM      9  C   LIG d   1       2.071  76.252 118.570  0.00  0.00     0.028 C 
ATOM     10  C   LIG d   1       2.950  76.638 117.369  0.00  0.00     0.006 C 
ENDBRANCH   8   9
BRANCH   8  11
ATOM     11  C   LIG d   1       0.369  77.621 119.666  0.00  0.00     0.028 C 
ATOM     12  C   LIG d   1       0.711  79.102 119.441  0.00  0.00     0.006 C 
ENDBRANCH   8  11
ENDBRANCH   7   8
ENDBRANCH   1   7
BRANCH   6  13
ATOM     13  N   LIG d   1      -2.863  77.015 117.939  0.00  0.00    -0.311 N 
ATOM     14  C   LIG d   1      -3.136  78.194 118.494  0.00  0.00     0.210 C 
ATOM     15  C   LIG d   1      -4.275  78.178 119.519  0.00  0.00     0.109 C 
ATOM     16  O   LIG d   1      -2.566  79.258 118.211  0.00  0.00    -0.276 OA
ATOM     17  H   LIG d   1      -3.397  76.210 118.203  0.00  0.00     0.149 HD
ENDBRANCH   6  13
BRANCH   5  18
ATOM     18  N   LIG d   1      -2.869  78.170 115.111  0.00  0.00     0.381 N 
ATOM     19  H   LIG d   1      -2.629  78.850 115.805  0.00  0.00    -0.090 HD
ATOM     20  H   LIG d   1      -3.871  78.100 115.071  0.00  0.00    -0.090 HD
ATOM     21  H   LIG d   1      -2.514  78.451 114.223  0.00  0.00    -0.090 HD
ENDBRANCH   5  18
BRANCH   3  22
ATOM     22  C   LIG d   1       0.129  74.663 113.829  0.00  0.00     0.382 C 
ATOM     23  O   LIG d   1       1.325  74.297 113.927  0.00  0.00    -0.241 OA
ATOM     24  O   LIG d   1      -0.505  74.411 112.787  0.00  0.00    -0.241 OA
ENDBRANCH   3  22
TORSDOF 7
ENDMDL
MODEL 7
REMARK VINA RESULT:      -3.5      2.156      3.171
REMARK  7 active torsions:
REMARK  status: ('A' for Active; 'I' for Inactive)
REMARK    1  A    between atoms: C_2  and  C_3 
REMARK    2  A    between atoms: C_3  and  O_6 
REMARK    3  A    between atoms: C_3  and  C_4 
REMARK    4  A    between atoms: C_7  and  O_6 
REMARK    5  A    between atoms: C_9  and  C_10 
REMARK    6  A    between atoms: N_15  and  C_14 
REMARK    7  A    between atoms: N_20  and  C_19 
REMARK       I    between atoms: C_22  and  N_20 
ROOT
ATOM      1  C   LIG d   1      -0.248  78.039 117.071  0.00  0.00     0.161 C 
ATOM      2  C   LIG d   1      -1.233  78.301 116.105  0.00  0.00     0.016 C 
ATOM      3  C   LIG d   1      -1.942  77.286 115.422  0.00  0.00     0.038 C 
ATOM      4  C   LIG d   1      -1.820  75.933 115.770  0.00  0.00     0.028 C 
ATOM      5  C   LIG d   1      -0.469  75.587 116.389  0.00  0.00    -0.047 C 
ATOM      6  C   LIG d   1      -0.179  76.572 117.544  0.00  0.00     0.091 C 
ENDROOT
BRANCH   1   7
ATOM      7  O   LIG d   1      -0.421  78.922 118.197  0.00  0.00    -0.368 OA
BRANCH   7   8
ATOM      8  C   LIG d   1       0.719  79.746 118.543  0.00  0.00     0.119 C 
BRANCH   8   9
ATOM      9  C   LIG d   1       0.177  81.104 119.031  0.00  0.00     0.028 C 
ATOM     10  C   LIG d   1      -1.359  81.133 119.099  0.00  0.00     0.006 C 
ENDBRANCH   8   9
BRANCH   8  11
ATOM     11  C   LIG d   1       1.569  80.067 117.310  0.00  0.00     0.028 C 
ATOM     12  C   LIG d   1       3.078  80.001 117.593  0.00  0.00     0.006 C 
ENDBRANCH   8  11
ENDBRANCH   7   8
ENDBRANCH   1   7
BRANCH   6  13
ATOM     13  N   LIG d   1       1.161  76.357 118.149  0.00  0.00    -0.311 N 
ATOM     14  C   LIG d   1       1.361  75.635 119.250  0.00  0.00     0.210 C 
ATOM     15  C   LIG d   1       2.818  75.556 119.717  0.00  0.00     0.109 C 
ATOM     16  O   LIG d   1       0.474  75.025 119.866  0.00  0.00    -0.276 OA
ATOM     17  H   LIG d   1       1.941  76.791 117.696  0.00  0.00     0.149 HD
ENDBRANCH   6  13
BRANCH   5  18
ATOM     18  N   LIG d   1      -0.528  74.180 116.830  0.00  0.00     0.381 N 
ATOM     19  H   LIG d   1      -0.936  74.128 117.742  0.00  0.00    -0.090 HD
ATOM     20  H   LIG d   1       0.407  73.816 116.881  0.00  0.00    -0.090 HD
ATOM     21  H   LIG d   1      -1.068  73.644 116.187  0.00  0.00    -0.090 HD
ENDBRANCH   5  18
BRANCH   3  22
ATOM     22  C   LIG d   1      -2.757  77.619 114.350  0.00  0.00     0.382 C 
ATOM     23  O   LIG d   1      -3.154  78.800 114.207  0.00  0.00    -0.241 OA
ATOM     24  O   LIG d   1      -3.135  76.743 113.549  0.00  0.00    -0.241 OA
ENDBRANCH   3  22
TORSDOF 7
ENDMDL
MODEL 8
REMARK VINA RESULT:      -3.3      3.515      6.019
REMARK  7 active torsions:
REMARK  status: ('A' for Active; 'I' for Inactive)
REMARK    1  A    between atoms: C_2  and  C_3 
REMARK    2  A    between atoms: C_3  and  O_6 
REMARK    3  A    between atoms: C_3  and  C_4 
REMARK    4  A    between atoms: C_7  and  O_6 
REMARK    5  A    between atoms: C_9  and  C_10 
REMARK    6  A    between atoms: N_15  and  C_14 
REMARK    7  A    between atoms: N_20  and  C_19 
REMARK       I    between atoms: C_22  and  N_20 
ROOT
ATOM      1  C   LIG d   1       0.327  78.981 118.252  0.00  0.00     0.161 C 
ATOM      2  C   LIG d   1       1.595  78.977 118.857  0.00  0.00     0.016 C 
ATOM      3  C   LIG d   1       2.581  78.001 118.589  0.00  0.00     0.038 C 
ATOM      4  C   LIG d   1       2.420  77.042 117.578  0.00  0.00     0.028 C 
ATOM      5  C   LIG d   1       0.962  76.699 117.295  0.00  0.00    -0.047 C 
ATOM      6  C   LIG d   1       0.174  78.008 117.064  0.00  0.00     0.091 C 
ENDROOT
BRANCH   1   7
ATOM      7  O   LIG d   1      -0.018  80.322 117.849  0.00  0.00    -0.368 OA
BRANCH   7   8
ATOM      8  C   LIG d   1       0.009  81.327 118.892  0.00  0.00     0.119 C 
BRANCH   8   9
ATOM      9  C   LIG d   1      -1.451  81.616 119.295  0.00  0.00     0.028 C 
ATOM     10  C   LIG d   1      -1.638  83.041 119.840  0.00  0.00     0.006 C 
ENDBRANCH   8   9
BRANCH   8  11
ATOM     11  C   LIG d   1       0.556  82.659 118.368  0.00  0.00     0.028 C 
ATOM     12  C   LIG d   1       1.647  82.476 117.301  0.00  0.00     0.006 C 
ENDBRANCH   8  11
ENDBRANCH   7   8
ENDBRANCH   1   7
BRANCH   6  13
ATOM     13  N   LIG d   1      -1.279  77.768 116.864  0.00  0.00    -0.311 N 
ATOM     14  C   LIG d   1      -1.957  78.211 115.806  0.00  0.00     0.210 C 
ATOM     15  C   LIG d   1      -3.450  77.870 115.806  0.00  0.00     0.109 C 
ATOM     16  O   LIG d   1      -1.456  78.827 114.853  0.00  0.00    -0.276 OA
ATOM     17  H   LIG d   1      -1.758  77.250 117.574  0.00  0.00     0.149 HD
ENDBRANCH   6  13
BRANCH   5  18
ATOM     18  N   LIG d   1       0.934  75.794 116.130  0.00  0.00     0.381 N 
ATOM     19  H   LIG d   1       0.064  75.891 115.647  0.00  0.00    -0.090 HD
ATOM     20  H   LIG d   1       1.013  74.846 116.453  0.00  0.00    -0.090 HD
ATOM     21  H   LIG d   1       1.689  76.007 115.515  0.00  0.00    -0.090 HD
ENDBRANCH   5  18
BRANCH   3  22
ATOM     22  C   LIG d   1       3.729  77.953 119.365  0.00  0.00     0.382 C 
ATOM     23  O   LIG d   1       4.060  76.882 119.929  0.00  0.00    -0.241 OA
ATOM     24  O   LIG d   1       4.414  78.978 119.544  0.00  0.00    -0.241 OA
ENDBRANCH   3  22
TORSDOF 7
ENDMDL
MODEL 9
REMARK VINA RESULT:      -3.3      4.160      5.894
REMARK  7 active torsions:
REMARK  status: ('A' for Active; 'I' for Inactive)
REMARK    1  A    between atoms: C_2  and  C_3 
REMARK    2  A    between atoms: C_3  and  O_6 
REMARK    3  A    between atoms: C_3  and  C_4 
REMARK    4  A    between atoms: C_7  and  O_6 
REMARK    5  A    between atoms: C_9  and  C_10 
REMARK    6  A    between atoms: N_15  and  C_14 
REMARK    7  A    between atoms: N_20  and  C_19 
REMARK       I    between atoms: C_22  and  N_20 
ROOT
ATOM      1  C   LIG d   1       0.145  79.610 117.810  0.00  0.00     0.161 C 
ATOM      2  C   LIG d   1      -0.887  80.391 118.356  0.00  0.00     0.016 C 
ATOM      3  C   LIG d   1      -0.686  81.686 118.888  0.00  0.00     0.038 C 
ATOM      4  C   LIG d   1       0.542  82.353 118.771  0.00  0.00     0.028 C 
ATOM      5  C   LIG d   1       1.737  81.409 118.681  0.00  0.00    -0.047 C 
ATOM      6  C   LIG d   1       1.470  80.365 117.573  0.00  0.00     0.091 C 
ENDROOT
BRANCH   1   7
ATOM      7  O   LIG d   1      -0.304  78.991 116.589  0.00  0.00    -0.368 OA
BRANCH   7   8
ATOM      8  C   LIG d   1      -0.989  77.723 116.732  0.00  0.00     0.119 C 
BRANCH   8   9
ATOM      9  C   LIG d   1       0.087  76.629 116.874  0.00  0.00     0.028 C 
ATOM     10  C   LIG d   1      -0.320  75.532 117.872  0.00  0.00     0.006 C 
ENDBRANCH   8   9
BRANCH   8  11
ATOM     11  C   LIG d   1      -1.768  77.363 115.463  0.00  0.00     0.028 C 
ATOM     12  C   LIG d   1      -1.447  78.295 114.283  0.00  0.00     0.006 C 
ENDBRANCH   8  11
ENDBRANCH   7   8
ENDBRANCH   1   7
BRANCH   6  13
ATOM     13  N   LIG d   1       2.553  79.352 117.476  0.00  0.00    -0.311 N 
ATOM     14  C   LIG d   1       3.663  79.532 116.761  0.00  0.00     0.210 C 
ATOM     15  C   LIG d   1       4.642  78.354 116.780  0.00  0.00     0.109 C 
ATOM     16  O   LIG d   1       3.944  80.568 116.139  0.00  0.00    -0.276 OA
ATOM     17  H   LIG d   1       2.422  78.494 117.975  0.00  0.00     0.149 HD
ENDBRANCH   6  13
BRANCH   5  18
ATOM     18  N   LIG d   1       2.935  82.231 118.424  0.00  0.00     0.381 N 
ATOM     19  H   LIG d   1       3.616  82.070 119.139  0.00  0.00    -0.090 HD
ATOM     20  H   LIG d   1       2.675  83.201 118.449  0.00  0.00    -0.090 HD
ATOM     21  H   LIG d   1       3.319  82.006 117.533  0.00  0.00    -0.090 HD
ENDBRANCH   5  18
BRANCH   3  22
ATOM     22  C   LIG d   1      -1.712  82.311 119.581  0.00  0.00     0.382 C 
ATOM     23  O   LIG d   1      -2.723  81.656 119.930  0.00  0.00    -0.241 OA
ATOM     24  O   LIG d   1      -1.658  83.532 119.822  0.00  0.00    -0.241 OA
ENDBRANCH   3  22
TORSDOF 7
ENDMDL
