MODEL 1
REMARK VINA RESULT:      -5.4      0.000      0.000
REMARK  7 active torsions:
REMARK  status: ('A' for Active; 'I' for Inactive)
REMARK    1  A    between atoms: C_2  and  C_3 
REMARK    2  A    between atoms: C_3  and  O_6 
REMARK    3  A    between atoms: C_3  and  C_4 
REMARK    4  A    between atoms: C_7  and  O_6 
REMARK    5  A    between atoms: C_9  and  C_10 
REMARK    6  A    between atoms: N_15  and  C_14 
REMARK    7  A    between atoms: N_20  and  C_19 
REMARK       I    between atoms: C_22  and  N_20 
ROOT
ATOM      1  C   LIG d   1       1.638  81.874 112.670  0.00  0.00     0.161 C 
ATOM      2  C   LIG d   1       2.654  82.584 112.008  0.00  0.00     0.016 C 
ATOM      3  C   LIG d   1       2.703  82.744 110.604  0.00  0.00     0.038 C 
ATOM      4  C   LIG d   1       1.651  82.331 109.774  0.00  0.00     0.028 C 
ATOM      5  C   LIG d   1       0.849  81.166 110.345  0.00  0.00    -0.047 C 
ATOM      6  C   LIG d   1       0.423  81.512 111.791  0.00  0.00     0.091 C 
ENDROOT
BRANCH   1   7
ATOM      7  O   LIG d   1       1.212  82.606 113.837  0.00  0.00    -0.368 OA
BRANCH   7   8
ATOM      8  C   LIG d   1       2.265  83.172 114.655  0.00  0.00     0.119 C 
BRANCH   8   9
ATOM      9  C   LIG d   1       2.631  82.126 115.726  0.00  0.00     0.028 C 
ATOM     10  C   LIG d   1       4.048  81.560 115.533  0.00  0.00     0.006 C 
ENDBRANCH   8   9
BRANCH   8  11
ATOM     11  C   LIG d   1       1.771  84.394 115.434  0.00  0.00     0.028 C 
ATOM     12  C   LIG d   1       1.892  84.219 116.956  0.00  0.00     0.006 C 
ENDBRANCH   8  11
ENDBRANCH   7   8
ENDBRANCH   1   7
BRANCH   6  13
ATOM     13  N   LIG d   1      -0.294  80.392 112.454  0.00  0.00    -0.311 N 
ATOM     14  C   LIG d   1      -1.617  80.358 112.610  0.00  0.00     0.210 C 
ATOM     15  C   LIG d   1      -2.150  79.121 113.338  0.00  0.00     0.109 C 
ATOM     16  O   LIG d   1      -2.401  81.221 112.186  0.00  0.00    -0.276 OA
ATOM     17  H   LIG d   1       0.262  79.635 112.800  0.00  0.00     0.149 HD
ENDBRANCH   6  13
BRANCH   5  18
ATOM     18  N   LIG d   1      -0.296  80.930 109.446  0.00  0.00     0.381 N 
ATOM     19  H   LIG d   1      -1.041  81.559 109.673  0.00  0.00    -0.090 HD
ATOM     20  H   LIG d   1      -0.626  79.990 109.580  0.00  0.00    -0.090 HD
ATOM     21  H   LIG d   1      -0.019  81.061 108.498  0.00  0.00    -0.090 HD
ENDBRANCH   5  18
BRANCH   3  22
ATOM     22  C   LIG d   1       3.833  83.288 110.014  0.00  0.00     0.382 C 
ATOM     23  O   LIG d   1       3.948  84.533 109.908  0.00  0.00    -0.241 OA
ATOM     24  O   LIG d   1       4.720  82.548 109.546  0.00  0.00    -0.241 OA
ENDBRANCH   3  22
TORSDOF 7
ENDMDL
MODEL 2
REMARK VINA RESULT:      -5.0      5.825      7.529
REMARK  7 active torsions:
REMARK  status: ('A' for Active; 'I' for Inactive)
REMARK    1  A    between atoms: C_2  and  C_3 
REMARK    2  A    between atoms: C_3  and  O_6 
REMARK    3  A    between atoms: C_3  and  C_4 
REMARK    4  A    between atoms: C_7  and  O_6 
REMARK    5  A    between atoms: C_9  and  C_10 
REMARK    6  A    between atoms: N_15  and  C_14 
REMARK    7  A    between atoms: N_20  and  C_19 
REMARK       I    between atoms: C_22  and  N_20 
ROOT
ATOM      1  C   LIG d   1      -1.965  77.916 115.952  0.00  0.00     0.161 C 
ATOM      2  C   LIG d   1      -2.516  78.555 114.828  0.00  0.00     0.016 C 
ATOM      3  C   LIG d   1      -2.017  78.389 113.516  0.00  0.00     0.038 C 
ATOM      4  C   LIG d   1      -1.021  77.448 113.215  0.00  0.00     0.028 C 
ATOM      5  C   LIG d   1      -0.094  77.151 114.389  0.00  0.00    -0.047 C 
ATOM      6  C   LIG d   1      -0.949  76.800 115.628  0.00  0.00     0.091 C 
ENDROOT
BRANCH   1   7
ATOM      7  O   LIG d   1      -3.020  77.404 116.790  0.00  0.00    -0.368 OA
BRANCH   7   8
ATOM      8  C   LIG d   1      -3.429  78.254 117.890  0.00  0.00     0.119 C 
BRANCH   8   9
ATOM      9  C   LIG d   1      -2.161  78.922 118.455  0.00  0.00     0.028 C 
ATOM     10  C   LIG d   1      -2.481  79.968 119.535  0.00  0.00     0.006 C 
ENDBRANCH   8   9
BRANCH   8  11
ATOM     11  C   LIG d   1      -4.003  77.430 119.046  0.00  0.00     0.028 C 
ATOM     12  C   LIG d   1      -3.051  76.319 119.517  0.00  0.00     0.006 C 
ENDBRANCH   8  11
ENDBRANCH   7   8
ENDBRANCH   1   7
BRANCH   6  13
ATOM     13  N   LIG d   1      -0.122  76.578 116.843  0.00  0.00    -0.311 N 
ATOM     14  C   LIG d   1      -0.106  75.431 117.519  0.00  0.00     0.210 C 
ATOM     15  C   LIG d   1       0.800  75.420 118.753  0.00  0.00     0.109 C 
ATOM     16  O   LIG d   1      -0.732  74.410 117.194  0.00  0.00    -0.276 OA
ATOM     17  H   LIG d   1       0.440  77.344 117.158  0.00  0.00     0.149 HD
ENDBRANCH   6  13
BRANCH   5  18
ATOM     18  N   LIG d   1       0.807  76.057 113.980  0.00  0.00     0.381 N 
ATOM     19  H   LIG d   1       0.273  75.308 113.585  0.00  0.00    -0.090 HD
ATOM     20  H   LIG d   1       1.286  75.709 114.792  0.00  0.00    -0.090 HD
ATOM     21  H   LIG d   1       1.468  76.391 113.313  0.00  0.00    -0.090 HD
ENDBRANCH   5  18
BRANCH   3  22
ATOM     22  C   LIG d   1      -2.489  79.198 112.494  0.00  0.00     0.382 C 
ATOM     23  O   LIG d   1      -2.110  79.003 111.314  0.00  0.00    -0.241 OA
ATOM     24  O   LIG d   1      -3.255  80.149 112.743  0.00  0.00    -0.241 OA
ENDBRANCH   3  22
TORSDOF 7
ENDMDL
MODEL 3
REMARK VINA RESULT:      -5.0      6.204      7.971
REMARK  7 active torsions:
REMARK  status: ('A' for Active; 'I' for Inactive)
REMARK    1  A    between atoms: C_2  and  C_3 
REMARK    2  A    between atoms: C_3  and  O_6 
REMARK    3  A    between atoms: C_3  and  C_4 
REMARK    4  A    between atoms: C_7  and  O_6 
REMARK    5  A    between atoms: C_9  and  C_10 
REMARK    6  A    between atoms: N_15  and  C_14 
REMARK    7  A    between atoms: N_20  and  C_19 
REMARK       I    between atoms: C_22  and  N_20 
ROOT
ATOM      1  C   LIG d   1      -1.901  78.328 115.729  0.00  0.00     0.161 C 
ATOM      2  C   LIG d   1      -2.588  78.403 114.506  0.00  0.00     0.016 C 
ATOM      3  C   LIG d   1      -2.171  77.726 113.337  0.00  0.00     0.038 C 
ATOM      4  C   LIG d   1      -1.116  76.801 113.352  0.00  0.00     0.028 C 
ATOM      5  C   LIG d   1      -0.084  77.078 114.440  0.00  0.00    -0.047 C 
ATOM      6  C   LIG d   1      -0.813  77.237 115.794  0.00  0.00     0.091 C 
ENDROOT
BRANCH   1   7
ATOM      7  O   LIG d   1      -2.842  78.162 116.808  0.00  0.00    -0.368 OA
BRANCH   7   8
ATOM      8  C   LIG d   1      -3.111  76.797 117.214  0.00  0.00     0.119 C 
BRANCH   8   9
ATOM      9  C   LIG d   1      -4.436  76.370 116.553  0.00  0.00     0.028 C 
ATOM     10  C   LIG d   1      -4.248  75.220 115.550  0.00  0.00     0.006 C 
ENDBRANCH   8   9
BRANCH   8  11
ATOM     11  C   LIG d   1      -3.362  76.704 118.722  0.00  0.00     0.028 C 
ATOM     12  C   LIG d   1      -2.597  75.545 119.383  0.00  0.00     0.006 C 
ENDBRANCH   8  11
ENDBRANCH   7   8
ENDBRANCH   1   7
BRANCH   6  13
ATOM     13  N   LIG d   1       0.116  77.593 116.899  0.00  0.00    -0.311 N 
ATOM     14  C   LIG d   1       0.617  76.700 117.751  0.00  0.00     0.210 C 
ATOM     15  C   LIG d   1       1.539  77.282 118.828  0.00  0.00     0.109 C 
ATOM     16  O   LIG d   1       0.411  75.478 117.698  0.00  0.00    -0.276 OA
ATOM     17  H   LIG d   1       0.361  78.559 116.995  0.00  0.00     0.149 HD
ENDBRANCH   6  13
BRANCH   5  18
ATOM     18  N   LIG d   1       0.882  75.963 114.431  0.00  0.00     0.381 N 
ATOM     19  H   LIG d   1       0.448  75.135 114.788  0.00  0.00    -0.090 HD
ATOM     20  H   LIG d   1       1.655  76.198 115.029  0.00  0.00    -0.090 HD
ATOM     21  H   LIG d   1       1.209  75.802 113.503  0.00  0.00    -0.090 HD
ENDBRANCH   5  18
BRANCH   3  22
ATOM     22  C   LIG d   1      -2.787  78.002 112.126  0.00  0.00     0.382 C 
ATOM     23  O   LIG d   1      -2.292  78.855 111.350  0.00  0.00    -0.241 OA
ATOM     24  O   LIG d   1      -3.857  77.442 111.819  0.00  0.00    -0.241 OA
ENDBRANCH   3  22
TORSDOF 7
ENDMDL
MODEL 4
REMARK VINA RESULT:      -4.9      4.916      6.710
REMARK  7 active torsions:
REMARK  status: ('A' for Active; 'I' for Inactive)
REMARK    1  A    between atoms: C_2  and  C_3 
REMARK    2  A    between atoms: C_3  and  O_6 
REMARK    3  A    between atoms: C_3  and  C_4 
REMARK    4  A    between atoms: C_7  and  O_6 
REMARK    5  A    between atoms: C_9  and  C_10 
REMARK    6  A    between atoms: N_15  and  C_14 
REMARK    7  A    between atoms: N_20  and  C_19 
REMARK       I    between atoms: C_22  and  N_20 
ROOT
ATOM      1  C   LIG d   1      -1.665  77.887 113.934  0.00  0.00     0.161 C 
ATOM      2  C   LIG d   1      -2.291  79.135 113.775  0.00  0.00     0.016 C 
ATOM      3  C   LIG d   1      -2.182  79.917 112.602  0.00  0.00     0.038 C 
ATOM      4  C   LIG d   1      -1.559  79.431 111.443  0.00  0.00     0.028 C 
ATOM      5  C   LIG d   1      -0.482  78.390 111.726  0.00  0.00    -0.047 C 
ATOM      6  C   LIG d   1      -1.072  77.292 112.640  0.00  0.00     0.091 C 
ENDROOT
BRANCH   1   7
ATOM      7  O   LIG d   1      -2.581  76.955 114.541  0.00  0.00    -0.368 OA
BRANCH   7   8
ATOM      8  C   LIG d   1      -2.943  77.222 115.918  0.00  0.00     0.119 C 
BRANCH   8   9
ATOM      9  C   LIG d   1      -1.641  77.255 116.742  0.00  0.00     0.028 C 
ATOM     10  C   LIG d   1      -1.474  78.569 117.524  0.00  0.00     0.006 C 
ENDBRANCH   8   9
BRANCH   8  11
ATOM     11  C   LIG d   1      -3.769  76.076 116.510  0.00  0.00     0.028 C 
ATOM     12  C   LIG d   1      -4.437  75.206 115.434  0.00  0.00     0.006 C 
ENDBRANCH   8  11
ENDBRANCH   7   8
ENDBRANCH   1   7
BRANCH   6  13
ATOM     13  N   LIG d   1      -0.061  76.277 113.033  0.00  0.00    -0.311 N 
ATOM     14  C   LIG d   1       0.344  75.295 112.230  0.00  0.00     0.210 C 
ATOM     15  C   LIG d   1       1.379  74.345 112.840  0.00  0.00     0.109 C 
ATOM     16  O   LIG d   1      -0.033  75.139 111.059  0.00  0.00    -0.276 OA
ATOM     17  H   LIG d   1       0.321  76.348 113.956  0.00  0.00     0.149 HD
ENDBRANCH   6  13
BRANCH   5  18
ATOM     18  N   LIG d   1      -0.013  77.870 110.427  0.00  0.00     0.381 N 
ATOM     19  H   LIG d   1       0.635  77.122 110.575  0.00  0.00    -0.090 HD
ATOM     20  H   LIG d   1       0.463  78.606 109.935  0.00  0.00    -0.090 HD
ATOM     21  H   LIG d   1      -0.787  77.548 109.889  0.00  0.00    -0.090 HD
ENDBRANCH   5  18
BRANCH   3  22
ATOM     22  C   LIG d   1      -2.667  81.216 112.595  0.00  0.00     0.382 C 
ATOM     23  O   LIG d   1      -3.901  81.425 112.679  0.00  0.00    -0.241 OA
ATOM     24  O   LIG d   1      -1.889  82.179 112.460  0.00  0.00    -0.241 OA
ENDBRANCH   3  22
TORSDOF 7
ENDMDL
MODEL 5
REMARK VINA RESULT:      -4.7      4.694      8.268
REMARK  7 active torsions:
REMARK  status: ('A' for Active; 'I' for Inactive)
REMARK    1  A    between atoms: C_2  and  C_3 
REMARK    2  A    between atoms: C_3  and  O_6 
REMARK    3  A    between atoms: C_3  and  C_4 
REMARK    4  A    between atoms: C_7  and  O_6 
REMARK    5  A    between atoms: C_9  and  C_10 
REMARK    6  A    between atoms: N_15  and  C_14 
REMARK    7  A    between atoms: N_20  and  C_19 
REMARK       I    between atoms: C_22  and  N_20 
ROOT
ATOM      1  C   LIG d   1      -0.716  77.785 114.930  0.00  0.00     0.161 C 
ATOM      2  C   LIG d   1      -1.801  76.908 114.761  0.00  0.00     0.016 C 
ATOM      3  C   LIG d   1      -2.567  76.402 115.837  0.00  0.00     0.038 C 
ATOM      4  C   LIG d   1      -2.393  76.861 117.151  0.00  0.00     0.028 C 
ATOM      5  C   LIG d   1      -0.982  77.362 117.436  0.00  0.00    -0.047 C 
ATOM      6  C   LIG d   1      -0.582  78.383 116.346  0.00  0.00     0.091 C 
ENDROOT
BRANCH   1   7
ATOM      7  O   LIG d   1      -0.779  78.836 113.946  0.00  0.00    -0.368 OA
BRANCH   7   8
ATOM      8  C   LIG d   1      -1.863  78.748 112.989  0.00  0.00     0.119 C 
BRANCH   8   9
ATOM      9  C   LIG d   1      -1.236  78.518 111.600  0.00  0.00     0.028 C 
ATOM     10  C   LIG d   1      -0.913  77.038 111.340  0.00  0.00     0.006 C 
ENDBRANCH   8   9
BRANCH   8  11
ATOM     11  C   LIG d   1      -2.618  80.076 112.878  0.00  0.00     0.028 C 
ATOM     12  C   LIG d   1      -1.746  81.213 112.321  0.00  0.00     0.006 C 
ENDBRANCH   8  11
ENDBRANCH   7   8
ENDBRANCH   1   7
BRANCH   6  13
ATOM     13  N   LIG d   1       0.817  78.860 116.502  0.00  0.00    -0.311 N 
ATOM     14  C   LIG d   1       1.154  79.908 117.252  0.00  0.00     0.210 C 
ATOM     15  C   LIG d   1       2.649  80.243 117.259  0.00  0.00     0.109 C 
ATOM     16  O   LIG d   1       0.362  80.573 117.936  0.00  0.00    -0.276 OA
ATOM     17  H   LIG d   1       1.528  78.359 116.006  0.00  0.00     0.149 HD
ENDBRANCH   6  13
BRANCH   5  18
ATOM     18  N   LIG d   1      -0.979  77.936 118.795  0.00  0.00     0.381 N 
ATOM     19  H   LIG d   1      -0.048  77.936 119.161  0.00  0.00    -0.090 HD
ATOM     20  H   LIG d   1      -1.552  77.365 119.390  0.00  0.00    -0.090 HD
ATOM     21  H   LIG d   1      -1.334  78.867 118.773  0.00  0.00    -0.090 HD
ENDBRANCH   5  18
BRANCH   3  22
ATOM     22  C   LIG d   1      -3.493  75.397 115.607  0.00  0.00     0.382 C 
ATOM     23  O   LIG d   1      -3.575  74.426 116.398  0.00  0.00    -0.241 OA
ATOM     24  O   LIG d   1      -4.218  75.424 114.594  0.00  0.00    -0.241 OA
ENDBRANCH   3  22
TORSDOF 7
ENDMDL
MODEL 6
REMARK VINA RESULT:      -4.6      6.317      7.878
REMARK  7 active torsions:
REMARK  status: ('A' for Active; 'I' for Inactive)
REMARK    1  A    between atoms: C_2  and  C_3 
REMARK    2  A    between atoms: C_3  and  O_6 
REMARK    3  A    between atoms: C_3  and  C_4 
REMARK    4  A    between atoms: C_7  and  O_6 
REMARK    5  A    between atoms: C_9  and  C_10 
REMARK    6  A    between atoms: N_15  and  C_14 
REMARK    7  A    between atoms: N_20  and  C_19 
REMARK       I    between atoms: C_22  and  N_20 
ROOT
ATOM      1  C   LIG d   1      -1.110  75.972 115.874  0.00  0.00     0.161 C 
ATOM      2  C   LIG d   1      -0.290  75.394 114.891  0.00  0.00     0.016 C 
ATOM      3  C   LIG d   1      -0.066  75.978 113.622  0.00  0.00     0.038 C 
ATOM      4  C   LIG d   1      -0.529  77.263 113.305  0.00  0.00     0.028 C 
ATOM      5  C   LIG d   1      -1.780  77.664 114.080  0.00  0.00    -0.047 C 
ATOM      6  C   LIG d   1      -1.534  77.428 115.587  0.00  0.00     0.091 C 
ENDROOT
BRANCH   1   7
ATOM      7  O   LIG d   1      -0.468  75.882 117.161  0.00  0.00    -0.368 OA
BRANCH   7   8
ATOM      8  C   LIG d   1      -0.714  74.668 117.912  0.00  0.00     0.119 C 
BRANCH   8   9
ATOM      9  C   LIG d   1      -2.215  74.635 118.260  0.00  0.00     0.028 C 
ATOM     10  C   LIG d   1      -2.527  75.364 119.578  0.00  0.00     0.006 C 
ENDBRANCH   8   9
BRANCH   8  11
ATOM     11  C   LIG d   1       0.015  74.689 119.259  0.00  0.00     0.028 C 
ATOM     12  C   LIG d   1       1.263  75.584 119.248  0.00  0.00     0.006 C 
ENDBRANCH   8  11
ENDBRANCH   7   8
ENDBRANCH   1   7
BRANCH   6  13
ATOM     13  N   LIG d   1      -2.739  77.715 116.410  0.00  0.00    -0.311 N 
ATOM     14  C   LIG d   1      -2.703  78.416 117.542  0.00  0.00     0.210 C 
ATOM     15  C   LIG d   1      -4.054  78.578 118.245  0.00  0.00     0.109 C 
ATOM     16  O   LIG d   1      -1.685  78.945 118.015  0.00  0.00    -0.276 OA
ATOM     17  H   LIG d   1      -3.612  77.350 116.084  0.00  0.00     0.149 HD
ENDBRANCH   6  13
BRANCH   5  18
ATOM     18  N   LIG d   1      -2.073  79.073 113.755  0.00  0.00     0.381 N 
ATOM     19  H   LIG d   1      -3.056  79.241 113.835  0.00  0.00    -0.090 HD
ATOM     20  H   LIG d   1      -1.799  79.251 112.805  0.00  0.00    -0.090 HD
ATOM     21  H   LIG d   1      -1.574  79.675 114.371  0.00  0.00    -0.090 HD
ENDBRANCH   5  18
BRANCH   3  22
ATOM     22  C   LIG d   1       0.596  75.256 112.641  0.00  0.00     0.382 C 
ATOM     23  O   LIG d   1       0.555  75.637 111.447  0.00  0.00    -0.241 OA
ATOM     24  O   LIG d   1       1.197  74.203 112.928  0.00  0.00    -0.241 OA
ENDBRANCH   3  22
TORSDOF 7
ENDMDL
MODEL 7
REMARK VINA RESULT:      -4.6      5.133      8.343
REMARK  7 active torsions:
REMARK  status: ('A' for Active; 'I' for Inactive)
REMARK    1  A    between atoms: C_2  and  C_3 
REMARK    2  A    between atoms: C_3  and  O_6 
REMARK    3  A    between atoms: C_3  and  C_4 
REMARK    4  A    between atoms: C_7  and  O_6 
REMARK    5  A    between atoms: C_9  and  C_10 
REMARK    6  A    between atoms: N_15  and  C_14 
REMARK    7  A    between atoms: N_20  and  C_19 
REMARK       I    between atoms: C_22  and  N_20 
ROOT
ATOM      1  C   LIG d   1      -1.300  77.737 115.263  0.00  0.00     0.161 C 
ATOM      2  C   LIG d   1      -2.222  78.177 116.227  0.00  0.00     0.016 C 
ATOM      3  C   LIG d   1      -2.127  77.852 117.600  0.00  0.00     0.038 C 
ATOM      4  C   LIG d   1      -1.011  77.187 118.129  0.00  0.00     0.028 C 
ATOM      5  C   LIG d   1      -0.306  76.288 117.118  0.00  0.00    -0.047 C 
ATOM      6  C   LIG d   1      -0.015  77.104 115.838  0.00  0.00     0.091 C 
ENDROOT
BRANCH   1   7
ATOM      7  O   LIG d   1      -0.968  78.822 114.373  0.00  0.00    -0.368 OA
BRANCH   7   8
ATOM      8  C   LIG d   1      -1.864  79.023 113.252  0.00  0.00     0.119 C 
BRANCH   8   9
ATOM      9  C   LIG d   1      -2.179  77.637 112.657  0.00  0.00     0.028 C 
ATOM     10  C   LIG d   1      -1.164  77.216 111.581  0.00  0.00     0.006 C 
ENDBRANCH   8   9
BRANCH   8  11
ATOM     11  C   LIG d   1      -1.179  79.802 112.125  0.00  0.00     0.028 C 
ATOM     12  C   LIG d   1      -1.405  81.319 112.226  0.00  0.00     0.006 C 
ENDBRANCH   8  11
ENDBRANCH   7   8
ENDBRANCH   1   7
BRANCH   6  13
ATOM     13  N   LIG d   1       0.597  76.277 114.766  0.00  0.00    -0.311 N 
ATOM     14  C   LIG d   1       0.077  75.128 114.338  0.00  0.00     0.210 C 
ATOM     15  C   LIG d   1       0.878  74.425 113.239  0.00  0.00     0.109 C 
ATOM     16  O   LIG d   1      -0.990  74.641 114.742  0.00  0.00    -0.276 OA
ATOM     17  H   LIG d   1       1.449  76.614 114.360  0.00  0.00     0.149 HD
ENDBRANCH   6  13
BRANCH   5  18
ATOM     18  N   LIG d   1       0.914  75.766 117.761  0.00  0.00     0.381 N 
ATOM     19  H   LIG d   1       0.966  76.092 118.706  0.00  0.00    -0.090 HD
ATOM     20  H   LIG d   1       1.717  76.112 117.264  0.00  0.00    -0.090 HD
ATOM     21  H   LIG d   1       0.909  74.770 117.745  0.00  0.00    -0.090 HD
ENDBRANCH   5  18
BRANCH   3  22
ATOM     22  C   LIG d   1      -3.176  78.160 118.453  0.00  0.00     0.382 C 
ATOM     23  O   LIG d   1      -4.020  77.281 118.751  0.00  0.00    -0.241 OA
ATOM     24  O   LIG d   1      -3.314  79.317 118.893  0.00  0.00    -0.241 OA
ENDBRANCH   3  22
TORSDOF 7
ENDMDL
MODEL 8
REMARK VINA RESULT:      -4.5      5.233      7.860
REMARK  7 active torsions:
REMARK  status: ('A' for Active; 'I' for Inactive)
REMARK    1  A    between atoms: C_2  and  C_3 
REMARK    2  A    between atoms: C_3  and  O_6 
REMARK    3  A    between atoms: C_3  and  C_4 
REMARK    4  A    between atoms: C_7  and  O_6 
REMARK    5  A    between atoms: C_9  and  C_10 
REMARK    6  A    between atoms: N_15  and  C_14 
REMARK    7  A    between atoms: N_20  and  C_19 
REMARK       I    between atoms: C_22  and  N_20 
ROOT
ATOM      1  C   LIG d   1      -1.308  77.706 115.989  0.00  0.00     0.161 C 
ATOM      2  C   LIG d   1      -1.591  76.795 117.020  0.00  0.00     0.016 C 
ATOM      3  C   LIG d   1      -1.162  75.448 117.006  0.00  0.00     0.038 C 
ATOM      4  C   LIG d   1      -0.287  74.958 116.026  0.00  0.00     0.028 C 
ATOM      5  C   LIG d   1      -0.386  75.703 114.699  0.00  0.00    -0.047 C 
ATOM      6  C   LIG d   1      -0.261  77.221 114.965  0.00  0.00     0.091 C 
ENDROOT
BRANCH   1   7
ATOM      7  O   LIG d   1      -0.909  78.972 116.552  0.00  0.00    -0.368 OA
BRANCH   7   8
ATOM      8  C   LIG d   1      -0.068  78.908 117.730  0.00  0.00     0.119 C 
BRANCH   8   9
ATOM      9  C   LIG d   1      -0.668  79.865 118.779  0.00  0.00     0.028 C 
ATOM     10  C   LIG d   1       0.040  81.230 118.802  0.00  0.00     0.006 C 
ENDBRANCH   8   9
BRANCH   8  11
ATOM     11  C   LIG d   1       1.335  79.451 117.443  0.00  0.00     0.028 C 
ATOM     12  C   LIG d   1       2.447  78.467 117.841  0.00  0.00     0.006 C 
ENDBRANCH   8  11
ENDBRANCH   7   8
ENDBRANCH   1   7
BRANCH   6  13
ATOM     13  N   LIG d   1      -0.431  78.029 113.730  0.00  0.00    -0.311 N 
ATOM     14  C   LIG d   1      -1.466  77.894 112.902  0.00  0.00     0.210 C 
ATOM     15  C   LIG d   1      -1.437  78.811 111.676  0.00  0.00     0.109 C 
ATOM     16  O   LIG d   1      -2.421  77.123 113.083  0.00  0.00    -0.276 OA
ATOM     17  H   LIG d   1       0.282  78.700 113.522  0.00  0.00     0.149 HD
ENDBRANCH   6  13
BRANCH   5  18
ATOM     18  N   LIG d   1       0.674  75.182 113.815  0.00  0.00     0.381 N 
ATOM     19  H   LIG d   1       1.571  75.456 114.164  0.00  0.00    -0.090 HD
ATOM     20  H   LIG d   1       0.558  75.578 112.899  0.00  0.00    -0.090 HD
ATOM     21  H   LIG d   1       0.619  74.189 113.765  0.00  0.00    -0.090 HD
ENDBRANCH   5  18
BRANCH   3  22
ATOM     22  C   LIG d   1      -1.643  74.564 117.961  0.00  0.00     0.382 C 
ATOM     23  O   LIG d   1      -2.837  74.180 117.915  0.00  0.00    -0.241 OA
ATOM     24  O   LIG d   1      -0.910  74.181 118.892  0.00  0.00    -0.241 OA
ENDBRANCH   3  22
TORSDOF 7
ENDMDL
MODEL 9
REMARK VINA RESULT:      -4.4      6.646      8.166
REMARK  7 active torsions:
REMARK  status: ('A' for Active; 'I' for Inactive)
REMARK    1  A    between atoms: C_2  and  C_3 
REMARK    2  A    between atoms: C_3  and  O_6 
REMARK    3  A    between atoms: C_3  and  C_4 
REMARK    4  A    between atoms: C_7  and  O_6 
REMARK    5  A    between atoms: C_9  and  C_10 
REMARK    6  A    between atoms: N_15  and  C_14 
REMARK    7  A    between atoms: N_20  and  C_19 
REMARK       I    between atoms: C_22  and  N_20 
ROOT
ATOM      1  C   LIG d   1      -0.574  78.085 116.388  0.00  0.00     0.161 C 
ATOM      2  C   LIG d   1      -1.599  78.236 115.440  0.00  0.00     0.016 C 
ATOM      3  C   LIG d   1      -2.304  77.148 114.876  0.00  0.00     0.038 C 
ATOM      4  C   LIG d   1      -2.132  75.834 115.337  0.00  0.00     0.028 C 
ATOM      5  C   LIG d   1      -0.752  75.577 115.933  0.00  0.00    -0.047 C 
ATOM      6  C   LIG d   1      -0.449  76.668 116.985  0.00  0.00     0.091 C 
ENDROOT
BRANCH   1   7
ATOM      7  O   LIG d   1      -0.732  79.060 117.438  0.00  0.00    -0.368 OA
BRANCH   7   8
ATOM      8  C   LIG d   1      -1.311  78.575 118.675  0.00  0.00     0.119 C 
BRANCH   8   9
ATOM      9  C   LIG d   1      -2.716  79.194 118.803  0.00  0.00     0.028 C 
ATOM     10  C   LIG d   1      -3.829  78.211 118.402  0.00  0.00     0.006 C 
ENDBRANCH   8   9
BRANCH   8  11
ATOM     11  C   LIG d   1      -0.532  79.084 119.892  0.00  0.00     0.028 C 
ATOM     12  C   LIG d   1       0.073  80.479 119.671  0.00  0.00     0.006 C 
ENDBRANCH   8  11
ENDBRANCH   7   8
ENDBRANCH   1   7
BRANCH   6  13
ATOM     13  N   LIG d   1       0.917  76.540 117.557  0.00  0.00    -0.311 N 
ATOM     14  C   LIG d   1       1.177  75.908 118.701  0.00  0.00     0.210 C 
ATOM     15  C   LIG d   1       2.650  75.910 119.120  0.00  0.00     0.109 C 
ATOM     16  O   LIG d   1       0.332  75.319 119.391  0.00  0.00    -0.276 OA
ATOM     17  H   LIG d   1       1.667  76.962 117.046  0.00  0.00     0.149 HD
ENDBRANCH   6  13
BRANCH   5  18
ATOM     18  N   LIG d   1      -0.757  74.215 116.498  0.00  0.00     0.381 N 
ATOM     19  H   LIG d   1      -1.681  73.977 116.801  0.00  0.00    -0.090 HD
ATOM     20  H   LIG d   1      -0.148  74.191 117.296  0.00  0.00    -0.090 HD
ATOM     21  H   LIG d   1      -0.446  73.561 115.814  0.00  0.00    -0.090 HD
ENDBRANCH   5  18
BRANCH   3  22
ATOM     22  C   LIG d   1      -3.164  77.365 113.810  0.00  0.00     0.382 C 
ATOM     23  O   LIG d   1      -3.065  78.413 113.128  0.00  0.00    -0.241 OA
ATOM     24  O   LIG d   1      -4.065  76.546 113.549  0.00  0.00    -0.241 OA
ENDBRANCH   3  22
TORSDOF 7
ENDMDL
