MODEL 1
REMARK VINA RESULT:      -5.2      0.000      0.000
REMARK  7 active torsions:
REMARK  status: ('A' for Active; 'I' for Inactive)
REMARK    1  A    between atoms: C_2  and  C_3 
REMARK    2  A    between atoms: C_3  and  O_6 
REMARK    3  A    between atoms: C_3  and  C_4 
REMARK    4  A    between atoms: C_7  and  O_6 
REMARK    5  A    between atoms: C_9  and  C_10 
REMARK    6  A    between atoms: N_15  and  C_14 
REMARK    7  A    between atoms: N_20  and  C_19 
REMARK       I    between atoms: C_22  and  N_20 
ROOT
ATOM      1  C   LIG d   1       0.198  82.663 112.173  0.00  0.00     0.161 C 
ATOM      2  C   LIG d   1      -0.996  82.173 112.726  0.00  0.00     0.016 C 
ATOM      3  C   LIG d   1      -1.582  80.943 112.347  0.00  0.00     0.038 C 
ATOM      4  C   LIG d   1      -0.929  80.043 111.492  0.00  0.00     0.028 C 
ATOM      5  C   LIG d   1       0.035  80.719 110.523  0.00  0.00    -0.047 C 
ATOM      6  C   LIG d   1       0.983  81.644 111.321  0.00  0.00     0.091 C 
ENDROOT
BRANCH   1   7
ATOM      7  O   LIG d   1       1.038  83.194 113.217  0.00  0.00    -0.368 OA
BRANCH   7   8
ATOM      8  C   LIG d   1       1.911  82.245 113.878  0.00  0.00     0.119 C 
BRANCH   8   9
ATOM      9  C   LIG d   1       1.261  81.882 115.228  0.00  0.00     0.028 C 
ATOM     10  C   LIG d   1       2.164  82.226 116.425  0.00  0.00     0.006 C 
ENDBRANCH   8   9
BRANCH   8  11
ATOM     11  C   LIG d   1       3.258  82.881 114.234  0.00  0.00     0.028 C 
ATOM     12  C   LIG d   1       3.505  84.206 113.497  0.00  0.00     0.006 C 
ENDBRANCH   8  11
ENDBRANCH   7   8
ENDBRANCH   1   7
BRANCH   6  13
ATOM     13  N   LIG d   1       1.903  82.408 110.439  0.00  0.00    -0.311 N 
ATOM     14  C   LIG d   1       3.217  82.197 110.392  0.00  0.00     0.210 C 
ATOM     15  C   LIG d   1       3.985  83.109 109.430  0.00  0.00     0.109 C 
ATOM     16  O   LIG d   1       3.816  81.319 111.032  0.00  0.00    -0.276 OA
ATOM     17  H   LIG d   1       1.497  83.119 109.863  0.00  0.00     0.149 HD
ENDBRANCH   6  13
BRANCH   5  18
ATOM     18  N   LIG d   1       0.747  79.656 109.788  0.00  0.00     0.381 N 
ATOM     19  H   LIG d   1       0.114  78.913 109.571  0.00  0.00    -0.090 HD
ATOM     20  H   LIG d   1       1.476  79.289 110.374  0.00  0.00    -0.090 HD
ATOM     21  H   LIG d   1       1.138  80.025 108.949  0.00  0.00    -0.090 HD
ENDBRANCH   5  18
BRANCH   3  22
ATOM     22  C   LIG d   1      -2.854  80.621 112.795  0.00  0.00     0.382 C 
ATOM     23  O   LIG d   1      -3.035  79.584 113.477  0.00  0.00    -0.241 OA
ATOM     24  O   LIG d   1      -3.831  81.331 112.487  0.00  0.00    -0.241 OA
ENDBRANCH   3  22
TORSDOF 7
ENDMDL
MODEL 2
REMARK VINA RESULT:      -5.0      1.907      4.900
REMARK  7 active torsions:
REMARK  status: ('A' for Active; 'I' for Inactive)
REMARK    1  A    between atoms: C_2  and  C_3 
REMARK    2  A    between atoms: C_3  and  O_6 
REMARK    3  A    between atoms: C_3  and  C_4 
REMARK    4  A    between atoms: C_7  and  O_6 
REMARK    5  A    between atoms: C_9  and  C_10 
REMARK    6  A    between atoms: N_15  and  C_14 
REMARK    7  A    between atoms: N_20  and  C_19 
REMARK       I    between atoms: C_22  and  N_20 
ROOT
ATOM      1  C   LIG d   1       1.649  82.224 113.300  0.00  0.00     0.161 C 
ATOM      2  C   LIG d   1       2.663  82.946 112.649  0.00  0.00     0.016 C 
ATOM      3  C   LIG d   1       2.573  83.377 111.306  0.00  0.00     0.038 C 
ATOM      4  C   LIG d   1       1.391  83.245 110.563  0.00  0.00     0.028 C 
ATOM      5  C   LIG d   1       0.521  82.076 111.012  0.00  0.00    -0.047 C 
ATOM      6  C   LIG d   1       0.307  82.168 112.540  0.00  0.00     0.091 C 
ENDROOT
BRANCH   1   7
ATOM      7  O   LIG d   1       1.451  82.748 114.628  0.00  0.00    -0.368 OA
BRANCH   7   8
ATOM      8  C   LIG d   1       2.274  82.169 115.670  0.00  0.00     0.119 C 
BRANCH   8   9
ATOM      9  C   LIG d   1       1.511  80.959 116.244  0.00  0.00     0.028 C 
ATOM     10  C   LIG d   1       0.064  81.308 116.633  0.00  0.00     0.006 C 
ENDBRANCH   8   9
BRANCH   8  11
ATOM     11  C   LIG d   1       2.445  83.135 116.846  0.00  0.00     0.028 C 
ATOM     12  C   LIG d   1       3.689  84.026 116.709  0.00  0.00     0.006 C 
ENDBRANCH   8  11
ENDBRANCH   7   8
ENDBRANCH   1   7
BRANCH   6  13
ATOM     13  N   LIG d   1      -0.464  81.015 113.074  0.00  0.00    -0.311 N 
ATOM     14  C   LIG d   1      -1.795  80.963 113.079  0.00  0.00     0.210 C 
ATOM     15  C   LIG d   1      -2.390  79.693 113.695  0.00  0.00     0.109 C 
ATOM     16  O   LIG d   1      -2.539  81.833 112.603  0.00  0.00    -0.276 OA
ATOM     17  H   LIG d   1       0.060  80.251 113.452  0.00  0.00     0.149 HD
ENDBRANCH   6  13
BRANCH   5  18
ATOM     18  N   LIG d   1      -0.739  82.139 110.247  0.00  0.00     0.381 N 
ATOM     19  H   LIG d   1      -0.604  81.744 109.338  0.00  0.00    -0.090 HD
ATOM     20  H   LIG d   1      -1.004  83.102 110.136  0.00  0.00    -0.090 HD
ATOM     21  H   LIG d   1      -1.456  81.643 110.729  0.00  0.00    -0.090 HD
ENDBRANCH   5  18
BRANCH   3  22
ATOM     22  C   LIG d   1       3.689  83.912 110.679  0.00  0.00     0.382 C 
ATOM     23  O   LIG d   1       4.836  83.659 111.119  0.00  0.00    -0.241 OA
ATOM     24  O   LIG d   1       3.560  84.680 109.707  0.00  0.00    -0.241 OA
ENDBRANCH   3  22
TORSDOF 7
ENDMDL
MODEL 3
REMARK VINA RESULT:      -4.9      2.023      5.115
REMARK  7 active torsions:
REMARK  status: ('A' for Active; 'I' for Inactive)
REMARK    1  A    between atoms: C_2  and  C_3 
REMARK    2  A    between atoms: C_3  and  O_6 
REMARK    3  A    between atoms: C_3  and  C_4 
REMARK    4  A    between atoms: C_7  and  O_6 
REMARK    5  A    between atoms: C_9  and  C_10 
REMARK    6  A    between atoms: N_15  and  C_14 
REMARK    7  A    between atoms: N_20  and  C_19 
REMARK       I    between atoms: C_22  and  N_20 
ROOT
ATOM      1  C   LIG d   1       1.107  81.620 113.751  0.00  0.00     0.161 C 
ATOM      2  C   LIG d   1       2.162  82.537 113.611  0.00  0.00     0.016 C 
ATOM      3  C   LIG d   1       2.247  83.469 112.550  0.00  0.00     0.038 C 
ATOM      4  C   LIG d   1       1.199  83.649 111.636  0.00  0.00     0.028 C 
ATOM      5  C   LIG d   1       0.343  82.402 111.442  0.00  0.00    -0.047 C 
ATOM      6  C   LIG d   1      -0.101  81.877 112.826  0.00  0.00     0.091 C 
ENDROOT
BRANCH   1   7
ATOM      7  O   LIG d   1       0.682  81.571 115.128  0.00  0.00    -0.368 OA
BRANCH   7   8
ATOM      8  C   LIG d   1       1.714  81.792 116.121  0.00  0.00     0.119 C 
BRANCH   8   9
ATOM      9  C   LIG d   1       2.141  80.413 116.659  0.00  0.00     0.028 C 
ATOM     10  C   LIG d   1       3.544  80.005 116.180  0.00  0.00     0.006 C 
ENDBRANCH   8   9
BRANCH   8  11
ATOM     11  C   LIG d   1       1.165  82.549 117.334  0.00  0.00     0.028 C 
ATOM     12  C   LIG d   1      -0.267  82.130 117.700  0.00  0.00     0.006 C 
ENDBRANCH   8  11
ENDBRANCH   7   8
ENDBRANCH   1   7
BRANCH   6  13
ATOM     13  N   LIG d   1      -0.872  80.611 112.731  0.00  0.00    -0.311 N 
ATOM     14  C   LIG d   1      -2.200  80.566 112.635  0.00  0.00     0.210 C 
ATOM     15  C   LIG d   1      -2.797  79.157 112.568  0.00  0.00     0.109 C 
ATOM     16  O   LIG d   1      -2.938  81.561 112.565  0.00  0.00    -0.276 OA
ATOM     17  H   LIG d   1      -0.351  79.756 112.749  0.00  0.00     0.149 HD
ENDBRANCH   6  13
BRANCH   5  18
ATOM     18  N   LIG d   1      -0.790  82.770 110.572  0.00  0.00     0.381 N 
ATOM     19  H   LIG d   1      -0.450  83.071 109.681  0.00  0.00    -0.090 HD
ATOM     20  H   LIG d   1      -1.288  83.534 110.994  0.00  0.00    -0.090 HD
ATOM     21  H   LIG d   1      -1.399  81.990 110.457  0.00  0.00    -0.090 HD
ENDBRANCH   5  18
BRANCH   3  22
ATOM     22  C   LIG d   1       3.409  84.204 112.374  0.00  0.00     0.382 C 
ATOM     23  O   LIG d   1       3.685  84.680 111.246  0.00  0.00    -0.241 OA
ATOM     24  O   LIG d   1       4.207  84.361 113.317  0.00  0.00    -0.241 OA
ENDBRANCH   3  22
TORSDOF 7
ENDMDL
MODEL 4
REMARK VINA RESULT:      -4.9      2.403      4.122
REMARK  7 active torsions:
REMARK  status: ('A' for Active; 'I' for Inactive)
REMARK    1  A    between atoms: C_2  and  C_3 
REMARK    2  A    between atoms: C_3  and  O_6 
REMARK    3  A    between atoms: C_3  and  C_4 
REMARK    4  A    between atoms: C_7  and  O_6 
REMARK    5  A    between atoms: C_9  and  C_10 
REMARK    6  A    between atoms: N_15  and  C_14 
REMARK    7  A    between atoms: N_20  and  C_19 
REMARK       I    between atoms: C_22  and  N_20 
ROOT
ATOM      1  C   LIG d   1       0.483  81.679 112.970  0.00  0.00     0.161 C 
ATOM      2  C   LIG d   1      -0.817  81.393 112.520  0.00  0.00     0.016 C 
ATOM      3  C   LIG d   1      -1.854  80.947 113.371  0.00  0.00     0.038 C 
ATOM      4  C   LIG d   1      -1.701  80.900 114.765  0.00  0.00     0.028 C 
ATOM      5  C   LIG d   1      -0.257  80.696 115.209  0.00  0.00    -0.047 C 
ATOM      6  C   LIG d   1       0.638  81.741 114.504  0.00  0.00     0.091 C 
ENDROOT
BRANCH   1   7
ATOM      7  O   LIG d   1       0.949  82.904 112.369  0.00  0.00    -0.368 OA
BRANCH   7   8
ATOM      8  C   LIG d   1       1.843  82.759 111.238  0.00  0.00     0.119 C 
BRANCH   8   9
ATOM      9  C   LIG d   1       3.104  83.594 111.534  0.00  0.00     0.028 C 
ATOM     10  C   LIG d   1       4.117  83.558 110.377  0.00  0.00     0.006 C 
ENDBRANCH   8   9
BRANCH   8  11
ATOM     11  C   LIG d   1       1.240  83.371 109.970  0.00  0.00     0.028 C 
ATOM     12  C   LIG d   1       0.046  84.294 110.263  0.00  0.00     0.006 C 
ENDBRANCH   8  11
ENDBRANCH   7   8
ENDBRANCH   1   7
BRANCH   6  13
ATOM     13  N   LIG d   1       2.079  81.558 114.818  0.00  0.00    -0.311 N 
ATOM     14  C   LIG d   1       2.734  82.299 115.710  0.00  0.00     0.210 C 
ATOM     15  C   LIG d   1       4.220  81.958 115.867  0.00  0.00     0.109 C 
ATOM     16  O   LIG d   1       2.219  83.184 116.409  0.00  0.00    -0.276 OA
ATOM     17  H   LIG d   1       2.567  80.841 114.319  0.00  0.00     0.149 HD
ENDBRANCH   6  13
BRANCH   5  18
ATOM     18  N   LIG d   1      -0.223  80.806 116.680  0.00  0.00     0.381 N 
ATOM     19  H   LIG d   1      -1.152  80.927 117.032  0.00  0.00    -0.090 HD
ATOM     20  H   LIG d   1       0.318  81.613 116.934  0.00  0.00    -0.090 HD
ATOM     21  H   LIG d   1       0.184  79.986 117.073  0.00  0.00    -0.090 HD
ENDBRANCH   5  18
BRANCH   3  22
ATOM     22  C   LIG d   1      -3.048  80.503 112.824  0.00  0.00     0.382 C 
ATOM     23  O   LIG d   1      -3.245  79.274 112.661  0.00  0.00    -0.241 OA
ATOM     24  O   LIG d   1      -3.913  81.317 112.450  0.00  0.00    -0.241 OA
ENDBRANCH   3  22
TORSDOF 7
ENDMDL
MODEL 5
REMARK VINA RESULT:      -4.9      1.171      2.063
REMARK  7 active torsions:
REMARK  status: ('A' for Active; 'I' for Inactive)
REMARK    1  A    between atoms: C_2  and  C_3 
REMARK    2  A    between atoms: C_3  and  O_6 
REMARK    3  A    between atoms: C_3  and  C_4 
REMARK    4  A    between atoms: C_7  and  O_6 
REMARK    5  A    between atoms: C_9  and  C_10 
REMARK    6  A    between atoms: N_15  and  C_14 
REMARK    7  A    between atoms: N_20  and  C_19 
REMARK       I    between atoms: C_22  and  N_20 
ROOT
ATOM      1  C   LIG d   1       0.817  82.038 113.170  0.00  0.00     0.161 C 
ATOM      2  C   LIG d   1      -0.417  81.499 113.569  0.00  0.00     0.016 C 
ATOM      3  C   LIG d   1      -1.312  80.862 112.679  0.00  0.00     0.038 C 
ATOM      4  C   LIG d   1      -0.964  80.586 111.348  0.00  0.00     0.028 C 
ATOM      5  C   LIG d   1       0.061  81.559 110.776  0.00  0.00    -0.047 C 
ATOM      6  C   LIG d   1       1.263  81.649 111.745  0.00  0.00     0.091 C 
ENDROOT
BRANCH   1   7
ATOM      7  O   LIG d   1       1.836  81.688 114.127  0.00  0.00    -0.368 OA
BRANCH   7   8
ATOM      8  C   LIG d   1       1.442  81.727 115.521  0.00  0.00     0.119 C 
BRANCH   8   9
ATOM      9  C   LIG d   1       2.288  82.815 116.210  0.00  0.00     0.028 C 
ATOM     10  C   LIG d   1       3.463  83.286 115.337  0.00  0.00     0.006 C 
ENDBRANCH   8   9
BRANCH   8  11
ATOM     11  C   LIG d   1       1.798  80.421 116.237  0.00  0.00     0.028 C 
ATOM     12  C   LIG d   1       0.567  79.553 116.539  0.00  0.00     0.006 C 
ENDBRANCH   8  11
ENDBRANCH   7   8
ENDBRANCH   1   7
BRANCH   6  13
ATOM     13  N   LIG d   1       2.275  82.643 111.302  0.00  0.00    -0.311 N 
ATOM     14  C   LIG d   1       3.314  82.336 110.528  0.00  0.00     0.210 C 
ATOM     15  C   LIG d   1       4.248  83.507 110.206  0.00  0.00     0.109 C 
ATOM     16  O   LIG d   1       3.534  81.213 110.051  0.00  0.00    -0.276 OA
ATOM     17  H   LIG d   1       2.156  83.586 111.618  0.00  0.00     0.149 HD
ENDBRANCH   6  13
BRANCH   5  18
ATOM     18  N   LIG d   1       0.436  81.074 109.434  0.00  0.00     0.381 N 
ATOM     19  H   LIG d   1      -0.188  81.455 108.751  0.00  0.00    -0.090 HD
ATOM     20  H   LIG d   1       0.352  80.073 109.415  0.00  0.00    -0.090 HD
ATOM     21  H   LIG d   1       1.372  81.341 109.224  0.00  0.00    -0.090 HD
ENDBRANCH   5  18
BRANCH   3  22
ATOM     22  C   LIG d   1      -2.588  80.529 113.108  0.00  0.00     0.382 C 
ATOM     23  O   LIG d   1      -3.589  81.055 112.565  0.00  0.00    -0.241 OA
ATOM     24  O   LIG d   1      -2.749  79.744 114.062  0.00  0.00    -0.241 OA
ENDBRANCH   3  22
TORSDOF 7
ENDMDL
MODEL 6
REMARK VINA RESULT:      -4.8      4.413      6.891
REMARK  7 active torsions:
REMARK  status: ('A' for Active; 'I' for Inactive)
REMARK    1  A    between atoms: C_2  and  C_3 
REMARK    2  A    between atoms: C_3  and  O_6 
REMARK    3  A    between atoms: C_3  and  C_4 
REMARK    4  A    between atoms: C_7  and  O_6 
REMARK    5  A    between atoms: C_9  and  C_10 
REMARK    6  A    between atoms: N_15  and  C_14 
REMARK    7  A    between atoms: N_20  and  C_19 
REMARK       I    between atoms: C_22  and  N_20 
ROOT
ATOM      1  C   LIG d   1      -2.205  78.685 115.264  0.00  0.00     0.161 C 
ATOM      2  C   LIG d   1      -2.693  79.472 114.207  0.00  0.00     0.016 C 
ATOM      3  C   LIG d   1      -2.005  80.592 113.689  0.00  0.00     0.038 C 
ATOM      4  C   LIG d   1      -0.701  80.915 114.094  0.00  0.00     0.028 C 
ATOM      5  C   LIG d   1      -0.376  80.452 115.511  0.00  0.00    -0.047 C 
ATOM      6  C   LIG d   1      -0.734  78.955 115.644  0.00  0.00     0.091 C 
ENDROOT
BRANCH   1   7
ATOM      7  O   LIG d   1      -2.397  77.289 114.963  0.00  0.00    -0.368 OA
BRANCH   7   8
ATOM      8  C   LIG d   1      -3.213  76.542 115.898  0.00  0.00     0.119 C 
BRANCH   8   9
ATOM      9  C   LIG d   1      -2.380  75.339 116.382  0.00  0.00     0.028 C 
ATOM     10  C   LIG d   1      -1.132  75.103 115.516  0.00  0.00     0.006 C 
ENDBRANCH   8   9
BRANCH   8  11
ATOM     11  C   LIG d   1      -4.438  75.935 115.207  0.00  0.00     0.028 C 
ATOM     12  C   LIG d   1      -4.310  75.917 113.676  0.00  0.00     0.006 C 
ENDBRANCH   8  11
ENDBRANCH   7   8
ENDBRANCH   1   7
BRANCH   6  13
ATOM     13  N   LIG d   1      -0.525  78.443 117.024  0.00  0.00    -0.311 N 
ATOM     14  C   LIG d   1       0.576  77.800 117.408  0.00  0.00     0.210 C 
ATOM     15  C   LIG d   1       0.579  77.339 118.870  0.00  0.00     0.109 C 
ATOM     16  O   LIG d   1       1.564  77.595 116.687  0.00  0.00    -0.276 OA
ATOM     17  H   LIG d   1      -1.264  78.593 117.683  0.00  0.00     0.149 HD
ENDBRANCH   6  13
BRANCH   5  18
ATOM     18  N   LIG d   1       1.053  80.729 115.752  0.00  0.00     0.381 N 
ATOM     19  H   LIG d   1       1.233  80.744 116.736  0.00  0.00    -0.090 HD
ATOM     20  H   LIG d   1       1.277  81.634 115.377  0.00  0.00    -0.090 HD
ATOM     21  H   LIG d   1       1.614  80.032 115.315  0.00  0.00    -0.090 HD
ENDBRANCH   5  18
BRANCH   3  22
ATOM     22  C   LIG d   1      -2.638  81.428 112.781  0.00  0.00     0.382 C 
ATOM     23  O   LIG d   1      -3.875  81.331 112.597  0.00  0.00    -0.241 OA
ATOM     24  O   LIG d   1      -1.981  82.248 112.113  0.00  0.00    -0.241 OA
ENDBRANCH   3  22
TORSDOF 7
ENDMDL
MODEL 7
REMARK VINA RESULT:      -4.8      4.575      6.209
REMARK  7 active torsions:
REMARK  status: ('A' for Active; 'I' for Inactive)
REMARK    1  A    between atoms: C_2  and  C_3 
REMARK    2  A    between atoms: C_3  and  O_6 
REMARK    3  A    between atoms: C_3  and  C_4 
REMARK    4  A    between atoms: C_7  and  O_6 
REMARK    5  A    between atoms: C_9  and  C_10 
REMARK    6  A    between atoms: N_15  and  C_14 
REMARK    7  A    between atoms: N_20  and  C_19 
REMARK       I    between atoms: C_22  and  N_20 
ROOT
ATOM      1  C   LIG d   1      -1.971  79.805 116.043  0.00  0.00     0.161 C 
ATOM      2  C   LIG d   1      -2.485  80.670 115.063  0.00  0.00     0.016 C 
ATOM      3  C   LIG d   1      -2.614  80.315 113.700  0.00  0.00     0.038 C 
ATOM      4  C   LIG d   1      -2.377  79.007 113.250  0.00  0.00     0.028 C 
ATOM      5  C   LIG d   1      -1.377  78.242 114.110  0.00  0.00    -0.047 C 
ATOM      6  C   LIG d   1      -1.812  78.338 115.590  0.00  0.00     0.091 C 
ENDROOT
BRANCH   1   7
ATOM      7  O   LIG d   1      -2.783  79.877 117.232  0.00  0.00    -0.368 OA
BRANCH   7   8
ATOM      8  C   LIG d   1      -2.169  80.502 118.385  0.00  0.00     0.119 C 
BRANCH   8   9
ATOM      9  C   LIG d   1      -3.017  81.736 118.750  0.00  0.00     0.028 C 
ATOM     10  C   LIG d   1      -4.437  81.666 118.162  0.00  0.00     0.006 C 
ENDBRANCH   8   9
BRANCH   8  11
ATOM     11  C   LIG d   1      -0.779  81.051 118.048  0.00  0.00     0.028 C 
ATOM     12  C   LIG d   1      -0.675  82.572 118.248  0.00  0.00     0.006 C 
ENDBRANCH   8  11
ENDBRANCH   7   8
ENDBRANCH   1   7
BRANCH   6  13
ATOM     13  N   LIG d   1      -0.842  77.687 116.509  0.00  0.00    -0.311 N 
ATOM     14  C   LIG d   1      -0.965  76.430 116.934  0.00  0.00     0.210 C 
ATOM     15  C   LIG d   1       0.134  75.962 117.893  0.00  0.00     0.109 C 
ATOM     16  O   LIG d   1      -1.862  75.649 116.582  0.00  0.00    -0.276 OA
ATOM     17  H   LIG d   1      -0.067  78.239 116.820  0.00  0.00     0.149 HD
ENDBRANCH   6  13
BRANCH   5  18
ATOM     18  N   LIG d   1      -1.329  76.855 113.610  0.00  0.00     0.381 N 
ATOM     19  H   LIG d   1      -2.048  76.715 112.929  0.00  0.00    -0.090 HD
ATOM     20  H   LIG d   1      -1.495  76.227 114.377  0.00  0.00    -0.090 HD
ATOM     21  H   LIG d   1      -0.438  76.669 113.206  0.00  0.00    -0.090 HD
ENDBRANCH   5  18
BRANCH   3  22
ATOM     22  C   LIG d   1      -2.945  81.283 112.765  0.00  0.00     0.382 C 
ATOM     23  O   LIG d   1      -4.136  81.412 112.391  0.00  0.00    -0.241 OA
ATOM     24  O   LIG d   1      -2.062  82.001 112.259  0.00  0.00    -0.241 OA
ENDBRANCH   3  22
TORSDOF 7
ENDMDL
MODEL 8
REMARK VINA RESULT:      -4.8      3.097      4.247
REMARK  7 active torsions:
REMARK  status: ('A' for Active; 'I' for Inactive)
REMARK    1  A    between atoms: C_2  and  C_3 
REMARK    2  A    between atoms: C_3  and  O_6 
REMARK    3  A    between atoms: C_3  and  C_4 
REMARK    4  A    between atoms: C_7  and  O_6 
REMARK    5  A    between atoms: C_9  and  C_10 
REMARK    6  A    between atoms: N_15  and  C_14 
REMARK    7  A    between atoms: N_20  and  C_19 
REMARK       I    between atoms: C_22  and  N_20 
ROOT
ATOM      1  C   LIG d   1      -2.096  80.376 114.416  0.00  0.00     0.161 C 
ATOM      2  C   LIG d   1      -2.530  79.187 115.023  0.00  0.00     0.016 C 
ATOM      3  C   LIG d   1      -2.607  77.949 114.344  0.00  0.00     0.038 C 
ATOM      4  C   LIG d   1      -2.108  77.785 113.043  0.00  0.00     0.028 C 
ATOM      5  C   LIG d   1      -2.128  79.069 112.221  0.00  0.00    -0.047 C 
ATOM      6  C   LIG d   1      -1.443  80.194 113.030  0.00  0.00     0.091 C 
ENDROOT
BRANCH   1   7
ATOM      7  O   LIG d   1      -1.203  81.080 115.301  0.00  0.00    -0.368 OA
BRANCH   7   8
ATOM      8  C   LIG d   1      -0.994  80.481 116.604  0.00  0.00     0.119 C 
BRANCH   8   9
ATOM      9  C   LIG d   1      -1.233  81.577 117.661  0.00  0.00     0.028 C 
ATOM     10  C   LIG d   1      -2.701  81.648 118.112  0.00  0.00     0.006 C 
ENDBRANCH   8   9
BRANCH   8  11
ATOM     11  C   LIG d   1       0.462  80.047 116.791  0.00  0.00     0.028 C 
ATOM     12  C   LIG d   1       0.619  78.524 116.920  0.00  0.00     0.006 C 
ENDBRANCH   8  11
ENDBRANCH   7   8
ENDBRANCH   1   7
BRANCH   6  13
ATOM     13  N   LIG d   1      -1.494  81.505 112.332  0.00  0.00    -0.311 N 
ATOM     14  C   LIG d   1      -0.509  81.966 111.563  0.00  0.00     0.210 C 
ATOM     15  C   LIG d   1      -0.756  83.349 110.954  0.00  0.00     0.109 C 
ATOM     16  O   LIG d   1       0.533  81.346 111.302  0.00  0.00    -0.276 OA
ATOM     17  H   LIG d   1      -2.317  82.060 112.464  0.00  0.00     0.149 HD
ENDBRANCH   6  13
BRANCH   5  18
ATOM     18  N   LIG d   1      -1.455  78.787 110.938  0.00  0.00     0.381 N 
ATOM     19  H   LIG d   1      -2.000  79.151 110.183  0.00  0.00    -0.090 HD
ATOM     20  H   LIG d   1      -1.381  77.792 110.822  0.00  0.00    -0.090 HD
ATOM     21  H   LIG d   1      -0.548  79.198 110.932  0.00  0.00    -0.090 HD
ENDBRANCH   5  18
BRANCH   3  22
ATOM     22  C   LIG d   1      -3.225  76.868 114.954  0.00  0.00     0.382 C 
ATOM     23  O   LIG d   1      -2.728  75.720 114.847  0.00  0.00    -0.241 OA
ATOM     24  O   LIG d   1      -4.296  77.018 115.572  0.00  0.00    -0.241 OA
ENDBRANCH   3  22
TORSDOF 7
ENDMDL
MODEL 9
REMARK VINA RESULT:      -4.1      4.549      6.365
REMARK  7 active torsions:
REMARK  status: ('A' for Active; 'I' for Inactive)
REMARK    1  A    between atoms: C_2  and  C_3 
REMARK    2  A    between atoms: C_3  and  O_6 
REMARK    3  A    between atoms: C_3  and  C_4 
REMARK    4  A    between atoms: C_7  and  O_6 
REMARK    5  A    between atoms: C_9  and  C_10 
REMARK    6  A    between atoms: N_15  and  C_14 
REMARK    7  A    between atoms: N_20  and  C_19 
REMARK       I    between atoms: C_22  and  N_20 
ROOT
ATOM      1  C   LIG d   1      -0.909  78.925 115.913  0.00  0.00     0.161 C 
ATOM      2  C   LIG d   1      -1.561  79.412 114.767  0.00  0.00     0.016 C 
ATOM      3  C   LIG d   1      -2.050  78.577 113.737  0.00  0.00     0.038 C 
ATOM      4  C   LIG d   1      -2.054  77.179 113.854  0.00  0.00     0.028 C 
ATOM      5  C   LIG d   1      -0.951  76.644 114.762  0.00  0.00    -0.047 C 
ATOM      6  C   LIG d   1      -1.003  77.398 116.111  0.00  0.00     0.091 C 
ENDROOT
BRANCH   1   7
ATOM      7  O   LIG d   1      -1.396  79.613 117.082  0.00  0.00    -0.368 OA
BRANCH   7   8
ATOM      8  C   LIG d   1      -1.200  81.049 117.105  0.00  0.00     0.119 C 
BRANCH   8   9
ATOM      9  C   LIG d   1       0.256  81.310 117.536  0.00  0.00     0.028 C 
ATOM     10  C   LIG d   1       1.107  81.901 116.400  0.00  0.00     0.006 C 
ENDBRANCH   8   9
BRANCH   8  11
ATOM     11  C   LIG d   1      -2.067  81.712 118.179  0.00  0.00     0.028 C 
ATOM     12  C   LIG d   1      -1.422  82.976 118.769  0.00  0.00     0.006 C 
ENDBRANCH   8  11
ENDBRANCH   7   8
ENDBRANCH   1   7
BRANCH   6  13
ATOM     13  N   LIG d   1       0.096  76.995 117.027  0.00  0.00    -0.311 N 
ATOM     14  C   LIG d   1      -0.024  76.028 117.935  0.00  0.00     0.210 C 
ATOM     15  C   LIG d   1       1.223  75.786 118.791  0.00  0.00     0.109 C 
ATOM     16  O   LIG d   1      -1.035  75.325 118.090  0.00  0.00    -0.276 OA
ATOM     17  H   LIG d   1       0.961  77.492 116.948  0.00  0.00     0.149 HD
ENDBRANCH   6  13
BRANCH   5  18
ATOM     18  N   LIG d   1      -1.157  75.190 114.904  0.00  0.00     0.381 N 
ATOM     19  H   LIG d   1      -2.134  74.994 114.994  0.00  0.00    -0.090 HD
ATOM     20  H   LIG d   1      -0.694  74.877 115.739  0.00  0.00    -0.090 HD
ATOM     21  H   LIG d   1      -0.787  74.715 114.111  0.00  0.00    -0.090 HD
ENDBRANCH   5  18
BRANCH   3  22
ATOM     22  C   LIG d   1      -2.507  79.140 112.555  0.00  0.00     0.382 C 
ATOM     23  O   LIG d   1      -3.232  80.163 112.587  0.00  0.00    -0.241 OA
ATOM     24  O   LIG d   1      -2.239  78.611 111.459  0.00  0.00    -0.241 OA
ENDBRANCH   3  22
TORSDOF 7
ENDMDL
