MODEL 1
REMARK VINA RESULT:      -4.7      0.000      0.000
REMARK  7 active torsions:
REMARK  status: ('A' for Active; 'I' for Inactive)
REMARK    1  A    between atoms: C_2  and  C_3 
REMARK    2  A    between atoms: C_3  and  O_6 
REMARK    3  A    between atoms: C_3  and  C_4 
REMARK    4  A    between atoms: C_7  and  O_6 
REMARK    5  A    between atoms: C_9  and  C_10 
REMARK    6  A    between atoms: N_15  and  C_14 
REMARK    7  A    between atoms: N_20  and  C_19 
REMARK       I    between atoms: C_22  and  N_20 
ROOT
ATOM      1  C   LIG d   1      -2.081  77.117 115.773  0.00  0.00     0.161 C 
ATOM      2  C   LIG d   1      -2.503  77.318 114.448  0.00  0.00     0.016 C 
ATOM      3  C   LIG d   1      -1.959  78.310 113.600  0.00  0.00     0.038 C 
ATOM      4  C   LIG d   1      -0.843  79.073 113.973  0.00  0.00     0.028 C 
ATOM      5  C   LIG d   1      -0.708  79.252 115.482  0.00  0.00    -0.047 C 
ATOM      6  C   LIG d   1      -0.788  77.865 116.161  0.00  0.00     0.091 C 
ENDROOT
BRANCH   1   7
ATOM      7  O   LIG d   1      -1.939  75.706 116.031  0.00  0.00    -0.368 OA
BRANCH   7   8
ATOM      8  C   LIG d   1      -0.583  75.196 116.057  0.00  0.00     0.119 C 
BRANCH   8   9
ATOM      9  C   LIG d   1      -0.391  74.328 114.799  0.00  0.00     0.028 C 
ATOM     10  C   LIG d   1       0.406  75.053 113.702  0.00  0.00     0.006 C 
ENDBRANCH   8   9
BRANCH   8  11
ATOM     11  C   LIG d   1      -0.367  74.247 117.241  0.00  0.00     0.028 C 
ATOM     12  C   LIG d   1      -1.448  74.390 118.324  0.00  0.00     0.006 C 
ENDBRANCH   8  11
ENDBRANCH   7   8
ENDBRANCH   1   7
BRANCH   6  13
ATOM     13  N   LIG d   1      -0.749  77.957 117.643  0.00  0.00    -0.311 N 
ATOM     14  C   LIG d   1       0.370  77.841 118.356  0.00  0.00     0.210 C 
ATOM     15  C   LIG d   1       0.185  77.947 119.873  0.00  0.00     0.109 C 
ATOM     16  O   LIG d   1       1.503  77.692 117.874  0.00  0.00    -0.276 OA
ATOM     17  H   LIG d   1      -1.620  78.108 118.114  0.00  0.00     0.149 HD
ENDBRANCH   6  13
BRANCH   5  18
ATOM     18  N   LIG d   1       0.569  79.947 115.736  0.00  0.00     0.381 N 
ATOM     19  H   LIG d   1       0.443  80.934 115.632  0.00  0.00    -0.090 HD
ATOM     20  H   LIG d   1       1.245  79.641 115.059  0.00  0.00    -0.090 HD
ATOM     21  H   LIG d   1       0.892  79.741 116.656  0.00  0.00    -0.090 HD
ENDBRANCH   5  18
BRANCH   3  22
ATOM     22  C   LIG d   1      -2.558  78.573 112.378  0.00  0.00     0.382 C 
ATOM     23  O   LIG d   1      -2.086  79.459 111.626  0.00  0.00    -0.241 OA
ATOM     24  O   LIG d   1      -3.592  77.967 112.038  0.00  0.00    -0.241 OA
ENDBRANCH   3  22
TORSDOF 7
ENDMDL
MODEL 2
REMARK VINA RESULT:      -4.5      2.507      4.717
REMARK  7 active torsions:
REMARK  status: ('A' for Active; 'I' for Inactive)
REMARK    1  A    between atoms: C_2  and  C_3 
REMARK    2  A    between atoms: C_3  and  O_6 
REMARK    3  A    between atoms: C_3  and  C_4 
REMARK    4  A    between atoms: C_7  and  O_6 
REMARK    5  A    between atoms: C_9  and  C_10 
REMARK    6  A    between atoms: N_15  and  C_14 
REMARK    7  A    between atoms: N_20  and  C_19 
REMARK       I    between atoms: C_22  and  N_20 
ROOT
ATOM      1  C   LIG d   1      -0.916  77.704 114.156  0.00  0.00     0.161 C 
ATOM      2  C   LIG d   1      -1.386  77.871 115.470  0.00  0.00     0.016 C 
ATOM      3  C   LIG d   1      -2.270  78.906 115.853  0.00  0.00     0.038 C 
ATOM      4  C   LIG d   1      -2.867  79.759 114.913  0.00  0.00     0.028 C 
ATOM      5  C   LIG d   1      -2.032  79.946 113.650  0.00  0.00    -0.047 C 
ATOM      6  C   LIG d   1      -1.642  78.557 113.096  0.00  0.00     0.091 C 
ENDROOT
BRANCH   1   7
ATOM      7  O   LIG d   1      -0.961  76.309 113.795  0.00  0.00    -0.368 OA
BRANCH   7   8
ATOM      8  C   LIG d   1      -0.248  75.401 114.670  0.00  0.00     0.119 C 
BRANCH   8   9
ATOM      9  C   LIG d   1       0.207  74.200 113.818  0.00  0.00     0.028 C 
ATOM     10  C   LIG d   1       0.971  74.633 112.555  0.00  0.00     0.006 C 
ENDBRANCH   8   9
BRANCH   8  11
ATOM     11  C   LIG d   1      -1.175  74.812 115.737  0.00  0.00     0.028 C 
ATOM     12  C   LIG d   1      -0.440  74.471 117.043  0.00  0.00     0.006 C 
ENDBRANCH   8  11
ENDBRANCH   7   8
ENDBRANCH   1   7
BRANCH   6  13
ATOM     13  N   LIG d   1      -0.754  78.650 111.908  0.00  0.00    -0.311 N 
ATOM     14  C   LIG d   1      -1.157  78.378 110.668  0.00  0.00     0.210 C 
ATOM     15  C   LIG d   1      -0.076  78.517 109.591  0.00  0.00     0.109 C 
ATOM     16  O   LIG d   1      -2.315  78.065 110.353  0.00  0.00    -0.276 OA
ATOM     17  H   LIG d   1       0.195  78.927 112.068  0.00  0.00     0.149 HD
ENDBRANCH   6  13
BRANCH   5  18
ATOM     18  N   LIG d   1      -2.832  80.744 112.702  0.00  0.00     0.381 N 
ATOM     19  H   LIG d   1      -3.602  80.200 112.366  0.00  0.00    -0.090 HD
ATOM     20  H   LIG d   1      -2.255  80.991 111.917  0.00  0.00    -0.090 HD
ATOM     21  H   LIG d   1      -3.168  81.568 113.149  0.00  0.00    -0.090 HD
ENDBRANCH   5  18
BRANCH   3  22
ATOM     22  C   LIG d   1      -2.535  79.120 117.198  0.00  0.00     0.382 C 
ATOM     23  O   LIG d   1      -3.296  80.055 117.546  0.00  0.00    -0.241 OA
ATOM     24  O   LIG d   1      -1.986  78.419 118.069  0.00  0.00    -0.241 OA
ENDBRANCH   3  22
TORSDOF 7
ENDMDL
MODEL 3
REMARK VINA RESULT:      -4.5      1.079      1.732
REMARK  7 active torsions:
REMARK  status: ('A' for Active; 'I' for Inactive)
REMARK    1  A    between atoms: C_2  and  C_3 
REMARK    2  A    between atoms: C_3  and  O_6 
REMARK    3  A    between atoms: C_3  and  C_4 
REMARK    4  A    between atoms: C_7  and  O_6 
REMARK    5  A    between atoms: C_9  and  C_10 
REMARK    6  A    between atoms: N_15  and  C_14 
REMARK    7  A    between atoms: N_20  and  C_19 
REMARK       I    between atoms: C_22  and  N_20 
ROOT
ATOM      1  C   LIG d   1      -1.341  77.123 115.620  0.00  0.00     0.161 C 
ATOM      2  C   LIG d   1      -1.904  77.348 114.353  0.00  0.00     0.016 C 
ATOM      3  C   LIG d   1      -1.717  78.542 113.619  0.00  0.00     0.038 C 
ATOM      4  C   LIG d   1      -0.823  79.538 114.039  0.00  0.00     0.028 C 
ATOM      5  C   LIG d   1      -0.624  79.574 115.551  0.00  0.00    -0.047 C 
ATOM      6  C   LIG d   1      -0.273  78.153 116.045  0.00  0.00     0.091 C 
ENDROOT
BRANCH   1   7
ATOM      7  O   LIG d   1      -0.803  75.787 115.685  0.00  0.00    -0.368 OA
BRANCH   7   8
ATOM      8  C   LIG d   1      -1.536  74.845 116.506  0.00  0.00     0.119 C 
BRANCH   8   9
ATOM      9  C   LIG d   1      -2.568  75.646 117.323  0.00  0.00     0.028 C 
ATOM     10  C   LIG d   1      -4.017  75.287 116.953  0.00  0.00     0.006 C 
ENDBRANCH   8   9
BRANCH   8  11
ATOM     11  C   LIG d   1      -0.624  74.181 117.542  0.00  0.00     0.028 C 
ATOM     12  C   LIG d   1      -1.149  74.330 118.979  0.00  0.00     0.006 C 
ENDBRANCH   8  11
ENDBRANCH   7   8
ENDBRANCH   1   7
BRANCH   6  13
ATOM     13  N   LIG d   1      -0.144  78.082 117.524  0.00  0.00    -0.311 N 
ATOM     14  C   LIG d   1       0.890  77.517 118.144  0.00  0.00     0.210 C 
ATOM     15  C   LIG d   1       0.815  77.535 119.674  0.00  0.00     0.109 C 
ATOM     16  O   LIG d   1       1.878  77.031 117.573  0.00  0.00    -0.276 OA
ATOM     17  H   LIG d   1      -0.886  78.480 118.066  0.00  0.00     0.149 HD
ENDBRANCH   6  13
BRANCH   5  18
ATOM     18  N   LIG d   1       0.433  80.563 115.837  0.00  0.00     0.381 N 
ATOM     19  H   LIG d   1       0.363  80.868 116.787  0.00  0.00    -0.090 HD
ATOM     20  H   LIG d   1       0.303  81.360 115.239  0.00  0.00    -0.090 HD
ATOM     21  H   LIG d   1       1.330  80.160 115.676  0.00  0.00    -0.090 HD
ENDBRANCH   5  18
BRANCH   3  22
ATOM     22  C   LIG d   1      -2.458  78.765 112.469  0.00  0.00     0.382 C 
ATOM     23  O   LIG d   1      -3.379  77.973 112.153  0.00  0.00    -0.241 OA
ATOM     24  O   LIG d   1      -2.190  79.724 111.720  0.00  0.00    -0.241 OA
ENDBRANCH   3  22
TORSDOF 7
ENDMDL
MODEL 4
REMARK VINA RESULT:      -4.5      2.915      5.472
REMARK  7 active torsions:
REMARK  status: ('A' for Active; 'I' for Inactive)
REMARK    1  A    between atoms: C_2  and  C_3 
REMARK    2  A    between atoms: C_3  and  O_6 
REMARK    3  A    between atoms: C_3  and  C_4 
REMARK    4  A    between atoms: C_7  and  O_6 
REMARK    5  A    between atoms: C_9  and  C_10 
REMARK    6  A    between atoms: N_15  and  C_14 
REMARK    7  A    between atoms: N_20  and  C_19 
REMARK       I    between atoms: C_22  and  N_20 
ROOT
ATOM      1  C   LIG d   1      -0.562  79.850 113.464  0.00  0.00     0.161 C 
ATOM      2  C   LIG d   1      -1.672  79.077 113.087  0.00  0.00     0.016 C 
ATOM      3  C   LIG d   1      -2.343  78.197 113.968  0.00  0.00     0.038 C 
ATOM      4  C   LIG d   1      -2.039  78.145 115.337  0.00  0.00     0.028 C 
ATOM      5  C   LIG d   1      -0.599  78.533 115.653  0.00  0.00    -0.047 C 
ATOM      6  C   LIG d   1      -0.286  79.889 114.981  0.00  0.00     0.091 C 
ENDROOT
BRANCH   1   7
ATOM      7  O   LIG d   1      -0.699  81.187 112.945  0.00  0.00    -0.368 OA
BRANCH   7   8
ATOM      8  C   LIG d   1      -0.098  81.433 111.649  0.00  0.00     0.119 C 
BRANCH   8   9
ATOM      9  C   LIG d   1       1.423  81.561 111.861  0.00  0.00     0.028 C 
ATOM     10  C   LIG d   1       2.230  80.835 110.772  0.00  0.00     0.006 C 
ENDBRANCH   8   9
BRANCH   8  11
ATOM     11  C   LIG d   1      -0.543  82.782 111.076  0.00  0.00     0.028 C 
ATOM     12  C   LIG d   1       0.490  83.897 111.306  0.00  0.00     0.006 C 
ENDBRANCH   8  11
ENDBRANCH   7   8
ENDBRANCH   1   7
BRANCH   6  13
ATOM     13  N   LIG d   1       1.130  80.302 115.171  0.00  0.00    -0.311 N 
ATOM     14  C   LIG d   1       1.539  81.081 116.171  0.00  0.00     0.210 C 
ATOM     15  C   LIG d   1       3.037  81.402 116.169  0.00  0.00     0.109 C 
ATOM     16  O   LIG d   1       0.809  81.510 117.077  0.00  0.00    -0.276 OA
ATOM     17  H   LIG d   1       1.794  79.973 114.498  0.00  0.00     0.149 HD
ENDBRANCH   6  13
BRANCH   5  18
ATOM     18  N   LIG d   1      -0.459  78.569 117.121  0.00  0.00     0.381 N 
ATOM     19  H   LIG d   1      -1.287  78.954 117.531  0.00  0.00    -0.090 HD
ATOM     20  H   LIG d   1       0.316  79.162 117.359  0.00  0.00    -0.090 HD
ATOM     21  H   LIG d   1      -0.303  77.649 117.471  0.00  0.00    -0.090 HD
ENDBRANCH   5  18
BRANCH   3  22
ATOM     22  C   LIG d   1      -3.304  77.329 113.473  0.00  0.00     0.382 C 
ATOM     23  O   LIG d   1      -3.954  77.634 112.444  0.00  0.00    -0.241 OA
ATOM     24  O   LIG d   1      -3.559  76.264 114.067  0.00  0.00    -0.241 OA
ENDBRANCH   3  22
TORSDOF 7
ENDMDL
MODEL 5
REMARK VINA RESULT:      -4.4      1.367      2.099
REMARK  7 active torsions:
REMARK  status: ('A' for Active; 'I' for Inactive)
REMARK    1  A    between atoms: C_2  and  C_3 
REMARK    2  A    between atoms: C_3  and  O_6 
REMARK    3  A    between atoms: C_3  and  C_4 
REMARK    4  A    between atoms: C_7  and  O_6 
REMARK    5  A    between atoms: C_9  and  C_10 
REMARK    6  A    between atoms: N_15  and  C_14 
REMARK    7  A    between atoms: N_20  and  C_19 
REMARK       I    between atoms: C_22  and  N_20 
ROOT
ATOM      1  C   LIG d   1      -1.707  78.105 116.317  0.00  0.00     0.161 C 
ATOM      2  C   LIG d   1      -2.315  77.923 115.064  0.00  0.00     0.016 C 
ATOM      3  C   LIG d   1      -1.863  78.550 113.880  0.00  0.00     0.038 C 
ATOM      4  C   LIG d   1      -0.671  79.289 113.842  0.00  0.00     0.028 C 
ATOM      5  C   LIG d   1      -0.303  79.914 115.183  0.00  0.00    -0.047 C 
ATOM      6  C   LIG d   1      -0.340  78.820 116.274  0.00  0.00     0.091 C 
ENDROOT
BRANCH   1   7
ATOM      7  O   LIG d   1      -1.589  76.838 116.992  0.00  0.00    -0.368 OA
BRANCH   7   8
ATOM      8  C   LIG d   1      -1.994  75.671 116.233  0.00  0.00     0.119 C 
BRANCH   8   9
ATOM      9  C   LIG d   1      -2.998  74.883 117.097  0.00  0.00     0.028 C 
ATOM     10  C   LIG d   1      -4.417  75.471 117.031  0.00  0.00     0.006 C 
ENDBRANCH   8   9
BRANCH   8  11
ATOM     11  C   LIG d   1      -0.817  74.718 116.007  0.00  0.00     0.028 C 
ATOM     12  C   LIG d   1      -0.289  74.755 114.564  0.00  0.00     0.006 C 
ENDBRANCH   8  11
ENDBRANCH   7   8
ENDBRANCH   1   7
BRANCH   6  13
ATOM     13  N   LIG d   1      -0.074  79.363 117.631  0.00  0.00    -0.311 N 
ATOM     14  C   LIG d   1       1.138  79.396 118.183  0.00  0.00     0.210 C 
ATOM     15  C   LIG d   1       1.188  79.979 119.599  0.00  0.00     0.109 C 
ATOM     16  O   LIG d   1       2.181  79.029 117.621  0.00  0.00    -0.276 OA
ATOM     17  H   LIG d   1      -0.859  79.711 118.145  0.00  0.00     0.149 HD
ENDBRANCH   6  13
BRANCH   5  18
ATOM     18  N   LIG d   1       1.026  80.537 115.034  0.00  0.00     0.381 N 
ATOM     19  H   LIG d   1       1.017  81.174 114.263  0.00  0.00    -0.090 HD
ATOM     20  H   LIG d   1       1.702  79.819 114.843  0.00  0.00    -0.090 HD
ATOM     21  H   LIG d   1       1.271  81.021 115.870  0.00  0.00    -0.090 HD
ENDBRANCH   5  18
BRANCH   3  22
ATOM     22  C   LIG d   1      -2.628  78.474 112.726  0.00  0.00     0.382 C 
ATOM     23  O   LIG d   1      -2.408  79.262 111.775  0.00  0.00    -0.241 OA
ATOM     24  O   LIG d   1      -3.563  77.656 112.641  0.00  0.00    -0.241 OA
ENDBRANCH   3  22
TORSDOF 7
ENDMDL
MODEL 6
REMARK VINA RESULT:      -4.4      2.184      4.287
REMARK  7 active torsions:
REMARK  status: ('A' for Active; 'I' for Inactive)
REMARK    1  A    between atoms: C_2  and  C_3 
REMARK    2  A    between atoms: C_3  and  O_6 
REMARK    3  A    between atoms: C_3  and  C_4 
REMARK    4  A    between atoms: C_7  and  O_6 
REMARK    5  A    between atoms: C_9  and  C_10 
REMARK    6  A    between atoms: N_15  and  C_14 
REMARK    7  A    between atoms: N_20  and  C_19 
REMARK       I    between atoms: C_22  and  N_20 
ROOT
ATOM      1  C   LIG d   1      -0.412  78.790 115.030  0.00  0.00     0.161 C 
ATOM      2  C   LIG d   1      -0.814  79.899 114.267  0.00  0.00     0.016 C 
ATOM      3  C   LIG d   1      -2.048  79.967 113.581  0.00  0.00     0.038 C 
ATOM      4  C   LIG d   1      -3.037  78.984 113.736  0.00  0.00     0.028 C 
ATOM      5  C   LIG d   1      -2.476  77.611 114.091  0.00  0.00    -0.047 C 
ATOM      6  C   LIG d   1      -1.525  77.755 115.300  0.00  0.00     0.091 C 
ENDROOT
BRANCH   1   7
ATOM      7  O   LIG d   1       0.171  79.234 116.270  0.00  0.00    -0.368 OA
BRANCH   7   8
ATOM      8  C   LIG d   1      -0.693  80.006 117.140  0.00  0.00     0.119 C 
BRANCH   8   9
ATOM      9  C   LIG d   1       0.115  81.220 117.637  0.00  0.00     0.028 C 
ATOM     10  C   LIG d   1      -0.656  82.055 118.673  0.00  0.00     0.006 C 
ENDBRANCH   8   9
BRANCH   8  11
ATOM     11  C   LIG d   1      -1.060  79.219 118.402  0.00  0.00     0.028 C 
ATOM     12  C   LIG d   1       0.052  78.257 118.848  0.00  0.00     0.006 C 
ENDBRANCH   8  11
ENDBRANCH   7   8
ENDBRANCH   1   7
BRANCH   6  13
ATOM     13  N   LIG d   1      -0.867  76.471 115.660  0.00  0.00    -0.311 N 
ATOM     14  C   LIG d   1      -1.346  75.635 116.579  0.00  0.00     0.210 C 
ATOM     15  C   LIG d   1      -0.502  74.377 116.811  0.00  0.00     0.109 C 
ATOM     16  O   LIG d   1      -2.406  75.799 117.202  0.00  0.00    -0.276 OA
ATOM     17  H   LIG d   1      -0.018  76.244 115.181  0.00  0.00     0.149 HD
ENDBRANCH   6  13
BRANCH   5  18
ATOM     18  N   LIG d   1      -3.619  76.717 114.357  0.00  0.00     0.381 N 
ATOM     19  H   LIG d   1      -3.750  76.095 113.585  0.00  0.00    -0.090 HD
ATOM     20  H   LIG d   1      -4.450  77.274 114.458  0.00  0.00    -0.090 HD
ATOM     21  H   LIG d   1      -3.457  76.195 115.190  0.00  0.00    -0.090 HD
ENDBRANCH   5  18
BRANCH   3  22
ATOM     22  C   LIG d   1      -2.287  81.008 112.698  0.00  0.00     0.382 C 
ATOM     23  O   LIG d   1      -3.465  81.360 112.447  0.00  0.00    -0.241 OA
ATOM     24  O   LIG d   1      -1.342  81.571 112.114  0.00  0.00    -0.241 OA
ENDBRANCH   3  22
TORSDOF 7
ENDMDL
MODEL 7
REMARK VINA RESULT:      -4.2      3.024      5.223
REMARK  7 active torsions:
REMARK  status: ('A' for Active; 'I' for Inactive)
REMARK    1  A    between atoms: C_2  and  C_3 
REMARK    2  A    between atoms: C_3  and  O_6 
REMARK    3  A    between atoms: C_3  and  C_4 
REMARK    4  A    between atoms: C_7  and  O_6 
REMARK    5  A    between atoms: C_9  and  C_10 
REMARK    6  A    between atoms: N_15  and  C_14 
REMARK    7  A    between atoms: N_20  and  C_19 
REMARK       I    between atoms: C_22  and  N_20 
ROOT
ATOM      1  C   LIG d   1      -0.659  80.243 113.957  0.00  0.00     0.161 C 
ATOM      2  C   LIG d   1      -1.621  79.225 114.069  0.00  0.00     0.016 C 
ATOM      3  C   LIG d   1      -2.067  78.452 112.973  0.00  0.00     0.038 C 
ATOM      4  C   LIG d   1      -1.468  78.545 111.708  0.00  0.00     0.028 C 
ATOM      5  C   LIG d   1      -0.845  79.909 111.431  0.00  0.00    -0.047 C 
ATOM      6  C   LIG d   1       0.086  80.283 112.607  0.00  0.00     0.091 C 
ENDROOT
BRANCH   1   7
ATOM      7  O   LIG d   1       0.280  80.149 115.046  0.00  0.00    -0.368 OA
BRANCH   7   8
ATOM      8  C   LIG d   1      -0.268  79.761 116.330  0.00  0.00     0.119 C 
BRANCH   8   9
ATOM      9  C   LIG d   1       0.050  80.890 117.329  0.00  0.00     0.028 C 
ATOM     10  C   LIG d   1       1.492  81.407 117.192  0.00  0.00     0.006 C 
ENDBRANCH   8   9
BRANCH   8  11
ATOM     11  C   LIG d   1       0.437  78.519 116.883  0.00  0.00     0.028 C 
ATOM     12  C   LIG d   1      -0.509  77.317 117.037  0.00  0.00     0.006 C 
ENDBRANCH   8  11
ENDBRANCH   7   8
ENDBRANCH   1   7
BRANCH   6  13
ATOM     13  N   LIG d   1       0.672  81.641 112.457  0.00  0.00    -0.311 N 
ATOM     14  C   LIG d   1       1.852  81.871 111.885  0.00  0.00     0.210 C 
ATOM     15  C   LIG d   1       2.278  83.342 111.850  0.00  0.00     0.109 C 
ATOM     16  O   LIG d   1       2.572  81.000 111.374  0.00  0.00    -0.276 OA
ATOM     17  H   LIG d   1       0.140  82.409 112.815  0.00  0.00     0.149 HD
ENDBRANCH   6  13
BRANCH   5  18
ATOM     18  N   LIG d   1      -0.138  79.822 110.139  0.00  0.00     0.381 N 
ATOM     19  H   LIG d   1       0.653  79.215 110.226  0.00  0.00    -0.090 HD
ATOM     20  H   LIG d   1       0.193  80.737 109.888  0.00  0.00    -0.090 HD
ATOM     21  H   LIG d   1      -0.754  79.479 109.436  0.00  0.00    -0.090 HD
ENDBRANCH   5  18
BRANCH   3  22
ATOM     22  C   LIG d   1      -3.152  77.603 113.127  0.00  0.00     0.382 C 
ATOM     23  O   LIG d   1      -3.156  76.752 114.048  0.00  0.00    -0.241 OA
ATOM     24  O   LIG d   1      -4.108  77.647 112.329  0.00  0.00    -0.241 OA
ENDBRANCH   3  22
TORSDOF 7
ENDMDL
MODEL 8
REMARK VINA RESULT:      -3.9      2.400      4.636
REMARK  7 active torsions:
REMARK  status: ('A' for Active; 'I' for Inactive)
REMARK    1  A    between atoms: C_2  and  C_3 
REMARK    2  A    between atoms: C_3  and  O_6 
REMARK    3  A    between atoms: C_3  and  C_4 
REMARK    4  A    between atoms: C_7  and  O_6 
REMARK    5  A    between atoms: C_9  and  C_10 
REMARK    6  A    between atoms: N_15  and  C_14 
REMARK    7  A    between atoms: N_20  and  C_19 
REMARK       I    between atoms: C_22  and  N_20 
ROOT
ATOM      1  C   LIG d   1      -0.509  78.989 114.537  0.00  0.00     0.161 C 
ATOM      2  C   LIG d   1      -1.591  78.357 113.902  0.00  0.00     0.016 C 
ATOM      3  C   LIG d   1      -2.562  77.596 114.593  0.00  0.00     0.038 C 
ATOM      4  C   LIG d   1      -2.601  77.540 115.994  0.00  0.00     0.028 C 
ATOM      5  C   LIG d   1      -1.238  77.746 116.647  0.00  0.00    -0.047 C 
ATOM      6  C   LIG d   1      -0.598  79.032 116.077  0.00  0.00     0.091 C 
ENDROOT
BRANCH   1   7
ATOM      7  O   LIG d   1      -0.342  80.320 114.008  0.00  0.00    -0.368 OA
BRANCH   7   8
ATOM      8  C   LIG d   1      -0.514  80.463 112.576  0.00  0.00     0.119 C 
BRANCH   8   9
ATOM      9  C   LIG d   1       0.811  80.998 112.002  0.00  0.00     0.028 C 
ATOM     10  C   LIG d   1       0.961  80.705 110.499  0.00  0.00     0.006 C 
ENDBRANCH   8   9
BRANCH   8  11
ATOM     11  C   LIG d   1      -1.561  81.530 112.245  0.00  0.00     0.028 C 
ATOM     12  C   LIG d   1      -2.989  81.101 112.618  0.00  0.00     0.006 C 
ENDBRANCH   8  11
ENDBRANCH   7   8
ENDBRANCH   1   7
BRANCH   6  13
ATOM     13  N   LIG d   1       0.774  79.262 116.600  0.00  0.00    -0.311 N 
ATOM     14  C   LIG d   1       1.033  80.003 117.676  0.00  0.00     0.210 C 
ATOM     15  C   LIG d   1       2.518  80.128 118.033  0.00  0.00     0.109 C 
ATOM     16  O   LIG d   1       0.172  80.543 118.388  0.00  0.00    -0.276 OA
ATOM     17  H   LIG d   1       1.530  78.836 116.102  0.00  0.00     0.149 HD
ENDBRANCH   6  13
BRANCH   5  18
ATOM     18  N   LIG d   1      -1.447  77.801 118.106  0.00  0.00     0.381 N 
ATOM     19  H   LIG d   1      -2.396  78.049 118.303  0.00  0.00    -0.090 HD
ATOM     20  H   LIG d   1      -0.848  78.509 118.493  0.00  0.00    -0.090 HD
ATOM     21  H   LIG d   1      -1.235  76.917 118.514  0.00  0.00    -0.090 HD
ENDBRANCH   5  18
BRANCH   3  22
ATOM     22  C   LIG d   1      -3.484  76.847 113.878  0.00  0.00     0.382 C 
ATOM     23  O   LIG d   1      -3.737  75.667 114.224  0.00  0.00    -0.241 OA
ATOM     24  O   LIG d   1      -4.033  77.320 112.865  0.00  0.00    -0.241 OA
ENDBRANCH   3  22
TORSDOF 7
ENDMDL
MODEL 9
REMARK VINA RESULT:      -3.8      2.957      5.482
REMARK  7 active torsions:
REMARK  status: ('A' for Active; 'I' for Inactive)
REMARK    1  A    between atoms: C_2  and  C_3 
REMARK    2  A    between atoms: C_3  and  O_6 
REMARK    3  A    between atoms: C_3  and  C_4 
REMARK    4  A    between atoms: C_7  and  O_6 
REMARK    5  A    between atoms: C_9  and  C_10 
REMARK    6  A    between atoms: N_15  and  C_14 
REMARK    7  A    between atoms: N_20  and  C_19 
REMARK       I    between atoms: C_22  and  N_20 
ROOT
ATOM      1  C   LIG d   1      -1.027  80.068 114.484  0.00  0.00     0.161 C 
ATOM      2  C   LIG d   1      -1.915  79.194 115.133  0.00  0.00     0.016 C 
ATOM      3  C   LIG d   1      -2.669  78.208 114.458  0.00  0.00     0.038 C 
ATOM      4  C   LIG d   1      -2.472  77.926 113.098  0.00  0.00     0.028 C 
ATOM      5  C   LIG d   1      -1.955  79.118 112.301  0.00  0.00    -0.047 C 
ATOM      6  C   LIG d   1      -0.716  79.701 113.017  0.00  0.00     0.091 C 
ENDROOT
BRANCH   1   7
ATOM      7  O   LIG d   1       0.194  80.177 115.243  0.00  0.00    -0.368 OA
BRANCH   7   8
ATOM      8  C   LIG d   1       0.075  79.978 116.673  0.00  0.00     0.119 C 
BRANCH   8   9
ATOM      9  C   LIG d   1       0.488  81.294 117.359  0.00  0.00     0.028 C 
ATOM     10  C   LIG d   1      -0.502  81.720 118.456  0.00  0.00     0.006 C 
ENDBRANCH   8   9
BRANCH   8  11
ATOM     11  C   LIG d   1       1.072  78.929 117.174  0.00  0.00     0.028 C 
ATOM     12  C   LIG d   1       0.456  77.525 117.280  0.00  0.00     0.006 C 
ENDBRANCH   8  11
ENDBRANCH   7   8
ENDBRANCH   1   7
BRANCH   6  13
ATOM     13  N   LIG d   1      -0.197  80.923 112.349  0.00  0.00    -0.311 N 
ATOM     14  C   LIG d   1      -0.979  81.911 111.917  0.00  0.00     0.210 C 
ATOM     15  C   LIG d   1      -0.242  83.070 111.238  0.00  0.00     0.109 C 
ATOM     16  O   LIG d   1      -2.210  81.953 112.062  0.00  0.00    -0.276 OA
ATOM     17  H   LIG d   1       0.794  80.986 112.219  0.00  0.00     0.149 HD
ENDBRANCH   6  13
BRANCH   5  18
ATOM     18  N   LIG d   1      -1.663  78.648 110.933  0.00  0.00     0.381 N 
ATOM     19  H   LIG d   1      -1.078  79.310 110.464  0.00  0.00    -0.090 HD
ATOM     20  H   LIG d   1      -2.527  78.574 110.424  0.00  0.00    -0.090 HD
ATOM     21  H   LIG d   1      -1.212  77.760 110.967  0.00  0.00    -0.090 HD
ENDBRANCH   5  18
BRANCH   3  22
ATOM     22  C   LIG d   1      -3.662  77.518 115.136  0.00  0.00     0.382 C 
ATOM     23  O   LIG d   1      -3.811  76.286 114.948  0.00  0.00    -0.241 OA
ATOM     24  O   LIG d   1      -4.440  78.120 115.901  0.00  0.00    -0.241 OA
ENDBRANCH   3  22
TORSDOF 7
ENDMDL
