MODEL 1
REMARK VINA RESULT:      -5.8      0.000      0.000
REMARK  7 active torsions:
REMARK  status: ('A' for Active; 'I' for Inactive)
REMARK    1  A    between atoms: C_2  and  C_3 
REMARK    2  A    between atoms: C_3  and  O_6 
REMARK    3  A    between atoms: C_3  and  C_4 
REMARK    4  A    between atoms: C_7  and  O_6 
REMARK    5  A    between atoms: C_9  and  C_10 
REMARK    6  A    between atoms: N_15  and  C_14 
REMARK    7  A    between atoms: N_20  and  C_19 
REMARK       I    between atoms: C_22  and  N_20 
ROOT
ATOM      1  C   LIG d   1       0.212  80.286 111.306  0.00  0.00     0.161 C 
ATOM      2  C   LIG d   1      -0.538  79.254 110.717  0.00  0.00     0.016 C 
ATOM      3  C   LIG d   1      -1.471  78.466 111.429  0.00  0.00     0.038 C 
ATOM      4  C   LIG d   1      -1.830  78.758 112.753  0.00  0.00     0.028 C 
ATOM      5  C   LIG d   1      -0.732  79.470 113.536  0.00  0.00    -0.047 C 
ATOM      6  C   LIG d   1      -0.247  80.692 112.722  0.00  0.00     0.091 C 
ENDROOT
BRANCH   1   7
ATOM      7  O   LIG d   1       0.229  81.435 110.436  0.00  0.00    -0.368 OA
BRANCH   7   8
ATOM      8  C   LIG d   1       1.417  81.603 109.625  0.00  0.00     0.119 C 
BRANCH   8   9
ATOM      9  C   LIG d   1       2.565  80.847 110.322  0.00  0.00     0.028 C 
ATOM     10  C   LIG d   1       3.170  79.748 109.433  0.00  0.00     0.006 C 
ENDBRANCH   8   9
BRANCH   8  11
ATOM     11  C   LIG d   1       1.862  83.068 109.584  0.00  0.00     0.028 C 
ATOM     12  C   LIG d   1       3.174  83.314 110.347  0.00  0.00     0.006 C 
ENDBRANCH   8  11
ENDBRANCH   7   8
ENDBRANCH   1   7
BRANCH   6  13
ATOM     13  N   LIG d   1       0.885  81.396 113.377  0.00  0.00    -0.311 N 
ATOM     14  C   LIG d   1       1.000  82.723 113.415  0.00  0.00     0.210 C 
ATOM     15  C   LIG d   1       2.255  83.243 114.123  0.00  0.00     0.109 C 
ATOM     16  O   LIG d   1       0.166  83.518 112.957  0.00  0.00    -0.276 OA
ATOM     17  H   LIG d   1       1.592  80.828 113.802  0.00  0.00     0.149 HD
ENDBRANCH   6  13
BRANCH   5  18
ATOM     18  N   LIG d   1      -1.288  79.836 114.852  0.00  0.00     0.381 N 
ATOM     19  H   LIG d   1      -1.010  80.767 115.091  0.00  0.00    -0.090 HD
ATOM     20  H   LIG d   1      -0.920  79.209 115.546  0.00  0.00    -0.090 HD
ATOM     21  H   LIG d   1      -2.282  79.774 114.831  0.00  0.00    -0.090 HD
ENDBRANCH   5  18
BRANCH   3  22
ATOM     22  C   LIG d   1      -2.026  77.346 110.828  0.00  0.00     0.382 C 
ATOM     23  O   LIG d   1      -3.231  77.354 110.480  0.00  0.00    -0.241 OA
ATOM     24  O   LIG d   1      -1.348  76.314 110.668  0.00  0.00    -0.241 OA
ENDBRANCH   3  22
TORSDOF 7
ENDMDL
MODEL 2
REMARK VINA RESULT:      -5.2      2.392      4.939
REMARK  7 active torsions:
REMARK  status: ('A' for Active; 'I' for Inactive)
REMARK    1  A    between atoms: C_2  and  C_3 
REMARK    2  A    between atoms: C_3  and  O_6 
REMARK    3  A    between atoms: C_3  and  C_4 
REMARK    4  A    between atoms: C_7  and  O_6 
REMARK    5  A    between atoms: C_9  and  C_10 
REMARK    6  A    between atoms: N_15  and  C_14 
REMARK    7  A    between atoms: N_20  and  C_19 
REMARK       I    between atoms: C_22  and  N_20 
ROOT
ATOM      1  C   LIG d   1      -1.806  80.060 113.394  0.00  0.00     0.161 C 
ATOM      2  C   LIG d   1      -2.732  79.076 113.012  0.00  0.00     0.016 C 
ATOM      3  C   LIG d   1      -2.582  78.272 111.858  0.00  0.00     0.038 C 
ATOM      4  C   LIG d   1      -1.411  78.295 111.086  0.00  0.00     0.028 C 
ATOM      5  C   LIG d   1      -0.672  79.628 111.145  0.00  0.00    -0.047 C 
ATOM      6  C   LIG d   1      -0.468  80.023 112.626  0.00  0.00     0.091 C 
ENDROOT
BRANCH   1   7
ATOM      7  O   LIG d   1      -1.570  79.984 114.814  0.00  0.00    -0.368 OA
BRANCH   7   8
ATOM      8  C   LIG d   1      -1.865  78.712 115.442  0.00  0.00     0.119 C 
BRANCH   8   9
ATOM      9  C   LIG d   1      -2.433  79.007 116.843  0.00  0.00     0.028 C 
ATOM     10  C   LIG d   1      -3.964  78.878 116.895  0.00  0.00     0.006 C 
ENDBRANCH   8   9
BRANCH   8  11
ATOM     11  C   LIG d   1      -0.588  77.901 115.684  0.00  0.00     0.028 C 
ATOM     12  C   LIG d   1      -0.555  76.589 114.885  0.00  0.00     0.006 C 
ENDBRANCH   8  11
ENDBRANCH   7   8
ENDBRANCH   1   7
BRANCH   6  13
ATOM     13  N   LIG d   1       0.172  81.356 112.774  0.00  0.00    -0.311 N 
ATOM     14  C   LIG d   1      -0.340  82.476 112.267  0.00  0.00     0.210 C 
ATOM     15  C   LIG d   1       0.490  83.739 112.517  0.00  0.00     0.109 C 
ATOM     16  O   LIG d   1      -1.420  82.549 111.661  0.00  0.00    -0.276 OA
ATOM     17  H   LIG d   1       1.036  81.394 113.278  0.00  0.00     0.149 HD
ENDBRANCH   6  13
BRANCH   5  18
ATOM     18  N   LIG d   1       0.596  79.468 110.410  0.00  0.00     0.381 N 
ATOM     19  H   LIG d   1       1.367  79.656 111.019  0.00  0.00    -0.090 HD
ATOM     20  H   LIG d   1       0.621  80.132 109.656  0.00  0.00    -0.090 HD
ATOM     21  H   LIG d   1       0.666  78.542 110.049  0.00  0.00    -0.090 HD
ENDBRANCH   5  18
BRANCH   3  22
ATOM     22  C   LIG d   1      -3.628  77.461 111.444  0.00  0.00     0.382 C 
ATOM     23  O   LIG d   1      -4.413  76.970 112.290  0.00  0.00    -0.241 OA
ATOM     24  O   LIG d   1      -3.770  77.179 110.239  0.00  0.00    -0.241 OA
ENDBRANCH   3  22
TORSDOF 7
ENDMDL
MODEL 3
REMARK VINA RESULT:      -4.8      3.225      5.482
REMARK  7 active torsions:
REMARK  status: ('A' for Active; 'I' for Inactive)
REMARK    1  A    between atoms: C_2  and  C_3 
REMARK    2  A    between atoms: C_3  and  O_6 
REMARK    3  A    between atoms: C_3  and  C_4 
REMARK    4  A    between atoms: C_7  and  O_6 
REMARK    5  A    between atoms: C_9  and  C_10 
REMARK    6  A    between atoms: N_15  and  C_14 
REMARK    7  A    between atoms: N_20  and  C_19 
REMARK       I    between atoms: C_22  and  N_20 
ROOT
ATOM      1  C   LIG d   1      -2.349  79.280 114.448  0.00  0.00     0.161 C 
ATOM      2  C   LIG d   1      -2.808  77.978 114.707  0.00  0.00     0.016 C 
ATOM      3  C   LIG d   1      -2.851  76.959 113.727  0.00  0.00     0.038 C 
ATOM      4  C   LIG d   1      -2.292  77.132 112.452  0.00  0.00     0.028 C 
ATOM      5  C   LIG d   1      -2.277  78.586 111.990  0.00  0.00    -0.047 C 
ATOM      6  C   LIG d   1      -1.633  79.456 113.093  0.00  0.00     0.091 C 
ENDROOT
BRANCH   1   7
ATOM      7  O   LIG d   1      -1.499  79.722 115.525  0.00  0.00    -0.368 OA
BRANCH   7   8
ATOM      8  C   LIG d   1      -1.327  78.792 116.624  0.00  0.00     0.119 C 
BRANCH   8   9
ATOM      9  C   LIG d   1      -1.649  79.550 117.926  0.00  0.00     0.028 C 
ATOM     10  C   LIG d   1      -0.504  80.481 118.361  0.00  0.00     0.006 C 
ENDBRANCH   8   9
BRANCH   8  11
ATOM     11  C   LIG d   1       0.134  78.354 116.759  0.00  0.00     0.028 C 
ATOM     12  C   LIG d   1       0.365  76.903 116.311  0.00  0.00     0.006 C 
ENDBRANCH   8  11
ENDBRANCH   7   8
ENDBRANCH   1   7
BRANCH   6  13
ATOM     13  N   LIG d   1      -1.654  80.904 112.758  0.00  0.00    -0.311 N 
ATOM     14  C   LIG d   1      -0.636  81.537 112.178  0.00  0.00     0.210 C 
ATOM     15  C   LIG d   1      -0.858  83.034 111.938  0.00  0.00     0.109 C 
ATOM     16  O   LIG d   1       0.417  80.995 111.810  0.00  0.00    -0.276 OA
ATOM     17  H   LIG d   1      -2.483  81.414 112.993  0.00  0.00     0.149 HD
ENDBRANCH   6  13
BRANCH   5  18
ATOM     18  N   LIG d   1      -1.546  78.639 110.710  0.00  0.00     0.381 N 
ATOM     19  H   LIG d   1      -1.366  77.710 110.384  0.00  0.00    -0.090 HD
ATOM     20  H   LIG d   1      -0.664  79.097 110.859  0.00  0.00    -0.090 HD
ATOM     21  H   LIG d   1      -2.079  79.139 110.033  0.00  0.00    -0.090 HD
ENDBRANCH   5  18
BRANCH   3  22
ATOM     22  C   LIG d   1      -3.494  75.763 114.008  0.00  0.00     0.382 C 
ATOM     23  O   LIG d   1      -3.157  75.090 115.012  0.00  0.00    -0.241 OA
ATOM     24  O   LIG d   1      -4.376  75.326 113.245  0.00  0.00    -0.241 OA
ENDBRANCH   3  22
TORSDOF 7
ENDMDL
MODEL 4
REMARK VINA RESULT:      -4.7      2.412      2.995
REMARK  7 active torsions:
REMARK  status: ('A' for Active; 'I' for Inactive)
REMARK    1  A    between atoms: C_2  and  C_3 
REMARK    2  A    between atoms: C_3  and  O_6 
REMARK    3  A    between atoms: C_3  and  C_4 
REMARK    4  A    between atoms: C_7  and  O_6 
REMARK    5  A    between atoms: C_9  and  C_10 
REMARK    6  A    between atoms: N_15  and  C_14 
REMARK    7  A    between atoms: N_20  and  C_19 
REMARK       I    between atoms: C_22  and  N_20 
ROOT
ATOM      1  C   LIG d   1      -0.733  79.636 113.341  0.00  0.00     0.161 C 
ATOM      2  C   LIG d   1      -1.645  79.099 112.417  0.00  0.00     0.016 C 
ATOM      3  C   LIG d   1      -2.613  78.125 112.756  0.00  0.00     0.038 C 
ATOM      4  C   LIG d   1      -2.835  77.731 114.084  0.00  0.00     0.028 C 
ATOM      5  C   LIG d   1      -1.602  77.871 114.971  0.00  0.00    -0.047 C 
ATOM      6  C   LIG d   1      -1.032  79.299 114.816  0.00  0.00     0.091 C 
ENDROOT
BRANCH   1   7
ATOM      7  O   LIG d   1      -0.638  81.063 113.161  0.00  0.00    -0.368 OA
BRANCH   7   8
ATOM      8  C   LIG d   1      -0.045  81.511 111.917  0.00  0.00     0.119 C 
BRANCH   8   9
ATOM      9  C   LIG d   1       1.467  81.680 112.161  0.00  0.00     0.028 C 
ATOM     10  C   LIG d   1       2.308  81.265 110.941  0.00  0.00     0.006 C 
ENDBRANCH   8   9
BRANCH   8  11
ATOM     11  C   LIG d   1      -0.551  82.903 111.528  0.00  0.00     0.028 C 
ATOM     12  C   LIG d   1       0.058  84.020 112.389  0.00  0.00     0.006 C 
ENDBRANCH   8  11
ENDBRANCH   7   8
ENDBRANCH   1   7
BRANCH   6  13
ATOM     13  N   LIG d   1       0.224  79.495 115.586  0.00  0.00    -0.311 N 
ATOM     14  C   LIG d   1       0.255  79.974 116.829  0.00  0.00     0.210 C 
ATOM     15  C   LIG d   1       1.656  80.116 117.432  0.00  0.00     0.109 C 
ATOM     16  O   LIG d   1      -0.747  80.266 117.500  0.00  0.00    -0.276 OA
ATOM     17  H   LIG d   1       1.081  79.255 115.129  0.00  0.00     0.149 HD
ENDBRANCH   6  13
BRANCH   5  18
ATOM     18  N   LIG d   1      -2.011  77.558 116.354  0.00  0.00     0.381 N 
ATOM     19  H   LIG d   1      -3.006  77.473 116.402  0.00  0.00    -0.090 HD
ATOM     20  H   LIG d   1      -1.729  78.312 116.955  0.00  0.00    -0.090 HD
ATOM     21  H   LIG d   1      -1.583  76.709 116.652  0.00  0.00    -0.090 HD
ENDBRANCH   5  18
BRANCH   3  22
ATOM     22  C   LIG d   1      -3.345  77.506 111.754  0.00  0.00     0.382 C 
ATOM     23  O   LIG d   1      -4.440  76.957 112.026  0.00  0.00    -0.241 OA
ATOM     24  O   LIG d   1      -2.903  77.451 110.591  0.00  0.00    -0.241 OA
ENDBRANCH   3  22
TORSDOF 7
ENDMDL
MODEL 5
REMARK VINA RESULT:      -4.5      4.098      6.347
REMARK  7 active torsions:
REMARK  status: ('A' for Active; 'I' for Inactive)
REMARK    1  A    between atoms: C_2  and  C_3 
REMARK    2  A    between atoms: C_3  and  O_6 
REMARK    3  A    between atoms: C_3  and  C_4 
REMARK    4  A    between atoms: C_7  and  O_6 
REMARK    5  A    between atoms: C_9  and  C_10 
REMARK    6  A    between atoms: N_15  and  C_14 
REMARK    7  A    between atoms: N_20  and  C_19 
REMARK       I    between atoms: C_22  and  N_20 
ROOT
ATOM      1  C   LIG d   1      -2.760  77.772 115.598  0.00  0.00     0.161 C 
ATOM      2  C   LIG d   1      -3.169  77.251 114.359  0.00  0.00     0.016 C 
ATOM      3  C   LIG d   1      -2.604  77.646 113.124  0.00  0.00     0.038 C 
ATOM      4  C   LIG d   1      -1.479  78.482 113.057  0.00  0.00     0.028 C 
ATOM      5  C   LIG d   1      -1.354  79.425 114.249  0.00  0.00    -0.047 C 
ATOM      6  C   LIG d   1      -1.460  78.602 115.554  0.00  0.00     0.091 C 
ENDROOT
BRANCH   1   7
ATOM      7  O   LIG d   1      -2.641  76.705 116.560  0.00  0.00    -0.368 OA
BRANCH   7   8
ATOM      8  C   LIG d   1      -1.360  76.029 116.607  0.00  0.00     0.119 C 
BRANCH   8   9
ATOM      9  C   LIG d   1      -1.592  74.568 116.175  0.00  0.00     0.028 C 
ATOM     10  C   LIG d   1      -0.758  74.180 114.943  0.00  0.00     0.006 C 
ENDBRANCH   8   9
BRANCH   8  11
ATOM     11  C   LIG d   1      -0.824  75.949 118.039  0.00  0.00     0.028 C 
ATOM     12  C   LIG d   1      -1.781  76.569 119.069  0.00  0.00     0.006 C 
ENDBRANCH   8  11
ENDBRANCH   7   8
ENDBRANCH   1   7
BRANCH   6  13
ATOM     13  N   LIG d   1      -1.432  79.458 116.768  0.00  0.00    -0.311 N 
ATOM     14  C   LIG d   1      -0.324  79.705 117.466  0.00  0.00     0.210 C 
ATOM     15  C   LIG d   1      -0.520  80.597 118.696  0.00  0.00     0.109 C 
ATOM     16  O   LIG d   1       0.807  79.295 117.164  0.00  0.00    -0.276 OA
ATOM     17  H   LIG d   1      -2.301  79.857 117.066  0.00  0.00     0.149 HD
ENDBRANCH   6  13
BRANCH   5  18
ATOM     18  N   LIG d   1      -0.070  80.140 114.119  0.00  0.00     0.381 N 
ATOM     19  H   LIG d   1       0.223  80.138 113.163  0.00  0.00    -0.090 HD
ATOM     20  H   LIG d   1       0.625  79.660 114.663  0.00  0.00    -0.090 HD
ATOM     21  H   LIG d   1      -0.167  81.077 114.443  0.00  0.00    -0.090 HD
ENDBRANCH   5  18
BRANCH   3  22
ATOM     22  C   LIG d   1      -3.189  77.233 111.937  0.00  0.00     0.382 C 
ATOM     23  O   LIG d   1      -4.439  77.214 111.828  0.00  0.00    -0.241 OA
ATOM     24  O   LIG d   1      -2.485  76.838 110.989  0.00  0.00    -0.241 OA
ENDBRANCH   3  22
TORSDOF 7
ENDMDL
MODEL 6
REMARK VINA RESULT:      -4.5      3.548      6.289
REMARK  7 active torsions:
REMARK  status: ('A' for Active; 'I' for Inactive)
REMARK    1  A    between atoms: C_2  and  C_3 
REMARK    2  A    between atoms: C_3  and  O_6 
REMARK    3  A    between atoms: C_3  and  C_4 
REMARK    4  A    between atoms: C_7  and  O_6 
REMARK    5  A    between atoms: C_9  and  C_10 
REMARK    6  A    between atoms: N_15  and  C_14 
REMARK    7  A    between atoms: N_20  and  C_19 
REMARK       I    between atoms: C_22  and  N_20 
ROOT
ATOM      1  C   LIG d   1      -2.075  77.961 114.539  0.00  0.00     0.161 C 
ATOM      2  C   LIG d   1      -2.360  77.588 113.215  0.00  0.00     0.016 C 
ATOM      3  C   LIG d   1      -1.826  78.253 112.087  0.00  0.00     0.038 C 
ATOM      4  C   LIG d   1      -0.845  79.248 112.209  0.00  0.00     0.028 C 
ATOM      5  C   LIG d   1      -0.904  79.998 113.535  0.00  0.00    -0.047 C 
ATOM      6  C   LIG d   1      -0.920  78.973 114.691  0.00  0.00     0.091 C 
ENDROOT
BRANCH   1   7
ATOM      7  O   LIG d   1      -1.819  76.786 115.334  0.00  0.00    -0.368 OA
BRANCH   7   8
ATOM      8  C   LIG d   1      -2.986  76.102 115.854  0.00  0.00     0.119 C 
BRANCH   8   9
ATOM      9  C   LIG d   1      -3.295  76.702 117.239  0.00  0.00     0.028 C 
ATOM     10  C   LIG d   1      -2.191  76.405 118.267  0.00  0.00     0.006 C 
ENDBRANCH   8   9
BRANCH   8  11
ATOM     11  C   LIG d   1      -2.695  74.620 116.110  0.00  0.00     0.028 C 
ATOM     12  C   LIG d   1      -1.325  74.180 115.571  0.00  0.00     0.006 C 
ENDBRANCH   8  11
ENDBRANCH   7   8
ENDBRANCH   1   7
BRANCH   6  13
ATOM     13  N   LIG d   1      -1.062  79.621 116.021  0.00  0.00    -0.311 N 
ATOM     14  C   LIG d   1      -0.245  79.379 117.046  0.00  0.00     0.210 C 
ATOM     15  C   LIG d   1      -0.581  80.137 118.333  0.00  0.00     0.109 C 
ATOM     16  O   LIG d   1       0.744  78.632 117.000  0.00  0.00    -0.276 OA
ATOM     17  H   LIG d   1      -1.820  80.264 116.137  0.00  0.00     0.149 HD
ENDBRANCH   6  13
BRANCH   5  18
ATOM     18  N   LIG d   1       0.256  80.908 113.584  0.00  0.00     0.381 N 
ATOM     19  H   LIG d   1       0.052  81.684 114.182  0.00  0.00    -0.090 HD
ATOM     20  H   LIG d   1       0.433  81.260 112.660  0.00  0.00    -0.090 HD
ATOM     21  H   LIG d   1       1.057  80.421 113.921  0.00  0.00    -0.090 HD
ENDBRANCH   5  18
BRANCH   3  22
ATOM     22  C   LIG d   1      -2.305  77.950 110.821  0.00  0.00     0.382 C 
ATOM     23  O   LIG d   1      -3.312  77.214 110.691  0.00  0.00    -0.241 OA
ATOM     24  O   LIG d   1      -1.715  78.368 109.807  0.00  0.00    -0.241 OA
ENDBRANCH   3  22
TORSDOF 7
ENDMDL
MODEL 7
REMARK VINA RESULT:      -4.5      4.709      7.832
REMARK  7 active torsions:
REMARK  status: ('A' for Active; 'I' for Inactive)
REMARK    1  A    between atoms: C_2  and  C_3 
REMARK    2  A    between atoms: C_3  and  O_6 
REMARK    3  A    between atoms: C_3  and  C_4 
REMARK    4  A    between atoms: C_7  and  O_6 
REMARK    5  A    between atoms: C_9  and  C_10 
REMARK    6  A    between atoms: N_15  and  C_14 
REMARK    7  A    between atoms: N_20  and  C_19 
REMARK       I    between atoms: C_22  and  N_20 
ROOT
ATOM      1  C   LIG d   1      -2.414  78.284 116.153  0.00  0.00     0.161 C 
ATOM      2  C   LIG d   1      -2.729  79.362 115.308  0.00  0.00     0.016 C 
ATOM      3  C   LIG d   1      -2.399  79.396 113.934  0.00  0.00     0.038 C 
ATOM      4  C   LIG d   1      -1.862  78.281 113.272  0.00  0.00     0.028 C 
ATOM      5  C   LIG d   1      -1.066  77.358 114.189  0.00  0.00    -0.047 C 
ATOM      6  C   LIG d   1      -1.928  77.013 115.425  0.00  0.00     0.091 C 
ENDROOT
BRANCH   1   7
ATOM      7  O   LIG d   1      -3.542  77.979 116.996  0.00  0.00    -0.368 OA
BRANCH   7   8
ATOM      8  C   LIG d   1      -3.496  78.513 118.342  0.00  0.00     0.119 C 
BRANCH   8   9
ATOM      9  C   LIG d   1      -2.072  79.053 118.576  0.00  0.00     0.028 C 
ATOM     10  C   LIG d   1      -2.073  80.464 119.188  0.00  0.00     0.006 C 
ENDBRANCH   8   9
BRANCH   8  11
ATOM     11  C   LIG d   1      -3.687  77.409 119.386  0.00  0.00     0.028 C 
ATOM     12  C   LIG d   1      -2.357  76.830 119.892  0.00  0.00     0.006 C 
ENDBRANCH   8  11
ENDBRANCH   7   8
ENDBRANCH   1   7
BRANCH   6  13
ATOM     13  N   LIG d   1      -1.193  76.182 116.414  0.00  0.00    -0.311 N 
ATOM     14  C   LIG d   1      -1.518  74.922 116.698  0.00  0.00     0.210 C 
ATOM     15  C   LIG d   1      -0.643  74.253 117.762  0.00  0.00     0.109 C 
ATOM     16  O   LIG d   1      -2.427  74.284 116.146  0.00  0.00    -0.276 OA
ATOM     17  H   LIG d   1      -0.422  76.611 116.887  0.00  0.00     0.149 HD
ENDBRANCH   6  13
BRANCH   5  18
ATOM     18  N   LIG d   1      -0.682  76.171 113.402  0.00  0.00     0.381 N 
ATOM     19  H   LIG d   1      -1.434  75.511 113.397  0.00  0.00    -0.090 HD
ATOM     20  H   LIG d   1       0.115  75.738 113.835  0.00  0.00    -0.090 HD
ATOM     21  H   LIG d   1      -0.458  76.438 112.469  0.00  0.00    -0.090 HD
ENDBRANCH   5  18
BRANCH   3  22
ATOM     22  C   LIG d   1      -2.569  80.569 113.215  0.00  0.00     0.382 C 
ATOM     23  O   LIG d   1      -1.570  81.250 112.881  0.00  0.00    -0.241 OA
ATOM     24  O   LIG d   1      -3.712  80.978 112.934  0.00  0.00    -0.241 OA
ENDBRANCH   3  22
TORSDOF 7
ENDMDL
MODEL 8
REMARK VINA RESULT:      -4.4      3.038      6.496
REMARK  7 active torsions:
REMARK  status: ('A' for Active; 'I' for Inactive)
REMARK    1  A    between atoms: C_2  and  C_3 
REMARK    2  A    between atoms: C_3  and  O_6 
REMARK    3  A    between atoms: C_3  and  C_4 
REMARK    4  A    between atoms: C_7  and  O_6 
REMARK    5  A    between atoms: C_9  and  C_10 
REMARK    6  A    between atoms: N_15  and  C_14 
REMARK    7  A    between atoms: N_20  and  C_19 
REMARK       I    between atoms: C_22  and  N_20 
ROOT
ATOM      1  C   LIG d   1      -1.143  78.999 113.885  0.00  0.00     0.161 C 
ATOM      2  C   LIG d   1      -0.474  80.060 113.252  0.00  0.00     0.016 C 
ATOM      3  C   LIG d   1      -0.322  80.158 111.850  0.00  0.00     0.038 C 
ATOM      4  C   LIG d   1      -0.963  79.272 110.971  0.00  0.00     0.028 C 
ATOM      5  C   LIG d   1      -1.228  77.900 111.580  0.00  0.00    -0.047 C 
ATOM      6  C   LIG d   1      -1.945  78.083 112.937  0.00  0.00     0.091 C 
ENDROOT
BRANCH   1   7
ATOM      7  O   LIG d   1      -1.997  79.512 114.927  0.00  0.00    -0.368 OA
BRANCH   7   8
ATOM      8  C   LIG d   1      -1.563  79.261 116.287  0.00  0.00     0.119 C 
BRANCH   8   9
ATOM      9  C   LIG d   1      -0.330  78.340 116.218  0.00  0.00     0.028 C 
ATOM     10  C   LIG d   1      -0.591  76.962 116.850  0.00  0.00     0.006 C 
ENDBRANCH   8   9
BRANCH   8  11
ATOM     11  C   LIG d   1      -2.616  78.472 117.071  0.00  0.00     0.028 C 
ATOM     12  C   LIG d   1      -4.050  78.945 116.785  0.00  0.00     0.006 C 
ENDBRANCH   8  11
ENDBRANCH   7   8
ENDBRANCH   1   7
BRANCH   6  13
ATOM     13  N   LIG d   1      -2.166  76.792 113.640  0.00  0.00    -0.311 N 
ATOM     14  C   LIG d   1      -3.371  76.345 113.992  0.00  0.00     0.210 C 
ATOM     15  C   LIG d   1      -3.373  75.001 114.725  0.00  0.00     0.109 C 
ATOM     16  O   LIG d   1      -4.440  76.920 113.737  0.00  0.00    -0.276 OA
ATOM     17  H   LIG d   1      -1.355  76.246 113.858  0.00  0.00     0.149 HD
ENDBRANCH   6  13
BRANCH   5  18
ATOM     18  N   LIG d   1      -2.022  77.126 110.607  0.00  0.00     0.381 N 
ATOM     19  H   LIG d   1      -2.997  77.248 110.792  0.00  0.00    -0.090 HD
ATOM     20  H   LIG d   1      -1.800  76.151 110.709  0.00  0.00    -0.090 HD
ATOM     21  H   LIG d   1      -1.812  77.426 109.680  0.00  0.00    -0.090 HD
ENDBRANCH   5  18
BRANCH   3  22
ATOM     22  C   LIG d   1       0.513  81.127 111.316  0.00  0.00     0.382 C 
ATOM     23  O   LIG d   1       1.753  80.939 111.284  0.00  0.00    -0.241 OA
ATOM     24  O   LIG d   1       0.046  82.206 110.905  0.00  0.00    -0.241 OA
ENDBRANCH   3  22
TORSDOF 7
ENDMDL
MODEL 9
REMARK VINA RESULT:      -4.0      3.954      6.449
REMARK  7 active torsions:
REMARK  status: ('A' for Active; 'I' for Inactive)
REMARK    1  A    between atoms: C_2  and  C_3 
REMARK    2  A    between atoms: C_3  and  O_6 
REMARK    3  A    between atoms: C_3  and  C_4 
REMARK    4  A    between atoms: C_7  and  O_6 
REMARK    5  A    between atoms: C_9  and  C_10 
REMARK    6  A    between atoms: N_15  and  C_14 
REMARK    7  A    between atoms: N_20  and  C_19 
REMARK       I    between atoms: C_22  and  N_20 
ROOT
ATOM      1  C   LIG d   1      -2.846  76.883 114.614  0.00  0.00     0.161 C 
ATOM      2  C   LIG d   1      -2.963  76.833 113.215  0.00  0.00     0.016 C 
ATOM      3  C   LIG d   1      -2.266  77.701 112.344  0.00  0.00     0.038 C 
ATOM      4  C   LIG d   1      -1.282  78.586 112.810  0.00  0.00     0.028 C 
ATOM      5  C   LIG d   1      -1.496  79.022 114.255  0.00  0.00    -0.047 C 
ATOM      6  C   LIG d   1      -1.693  77.767 115.135  0.00  0.00     0.091 C 
ENDROOT
BRANCH   1   7
ATOM      7  O   LIG d   1      -2.731  75.547 115.143  0.00  0.00    -0.368 OA
BRANCH   7   8
ATOM      8  C   LIG d   1      -1.433  75.181 115.674  0.00  0.00     0.119 C 
BRANCH   8   9
ATOM      9  C   LIG d   1      -0.795  74.185 114.686  0.00  0.00     0.028 C 
ATOM     10  C   LIG d   1       0.086  74.883 113.636  0.00  0.00     0.006 C 
ENDBRANCH   8   9
BRANCH   8  11
ATOM     11  C   LIG d   1      -1.567  74.415 116.993  0.00  0.00     0.028 C 
ATOM     12  C   LIG d   1      -0.657  74.972 118.100  0.00  0.00     0.006 C 
ENDBRANCH   8  11
ENDBRANCH   7   8
ENDBRANCH   1   7
BRANCH   6  13
ATOM     13  N   LIG d   1      -1.992  78.108 116.550  0.00  0.00    -0.311 N 
ATOM     14  C   LIG d   1      -3.102  78.736 116.935  0.00  0.00     0.210 C 
ATOM     15  C   LIG d   1      -3.203  79.009 118.439  0.00  0.00     0.109 C 
ATOM     16  O   LIG d   1      -4.027  79.064 116.177  0.00  0.00    -0.276 OA
ATOM     17  H   LIG d   1      -1.309  77.850 117.236  0.00  0.00     0.149 HD
ENDBRANCH   6  13
BRANCH   5  18
ATOM     18  N   LIG d   1      -0.327  79.830 114.654  0.00  0.00     0.381 N 
ATOM     19  H   LIG d   1      -0.368  80.726 114.211  0.00  0.00    -0.090 HD
ATOM     20  H   LIG d   1       0.509  79.365 114.348  0.00  0.00    -0.090 HD
ATOM     21  H   LIG d   1      -0.311  79.941 115.644  0.00  0.00    -0.090 HD
ENDBRANCH   5  18
BRANCH   3  22
ATOM     22  C   LIG d   1      -2.581  77.717 110.994  0.00  0.00     0.382 C 
ATOM     23  O   LIG d   1      -1.833  78.315 110.183  0.00  0.00    -0.241 OA
ATOM     24  O   LIG d   1      -3.627  77.180 110.582  0.00  0.00    -0.241 OA
ENDBRANCH   3  22
TORSDOF 7
ENDMDL
