MODEL 1
REMARK VINA RESULT:      -5.7      0.000      0.000
REMARK  7 active torsions:
REMARK  status: ('A' for Active; 'I' for Inactive)
REMARK    1  A    between atoms: C_2  and  C_3 
REMARK    2  A    between atoms: C_3  and  O_6 
REMARK    3  A    between atoms: C_3  and  C_4 
REMARK    4  A    between atoms: C_7  and  O_6 
REMARK    5  A    between atoms: C_9  and  C_10 
REMARK    6  A    between atoms: N_15  and  C_14 
REMARK    7  A    between atoms: N_20  and  C_19 
REMARK       I    between atoms: C_22  and  N_20 
ROOT
ATOM      1  C   LIG d   1       0.217  82.696 112.145  0.00  0.00     0.161 C 
ATOM      2  C   LIG d   1      -1.000  82.243 112.682  0.00  0.00     0.016 C 
ATOM      3  C   LIG d   1      -1.529  80.956 112.435  0.00  0.00     0.038 C 
ATOM      4  C   LIG d   1      -0.798  79.973 111.751  0.00  0.00     0.028 C 
ATOM      5  C   LIG d   1       0.212  80.547 110.763  0.00  0.00    -0.047 C 
ATOM      6  C   LIG d   1       1.081  81.599 111.488  0.00  0.00     0.091 C 
ENDROOT
BRANCH   1   7
ATOM      7  O   LIG d   1       0.971  83.388 113.160  0.00  0.00    -0.368 OA
BRANCH   7   8
ATOM      8  C   LIG d   1       0.600  83.108 114.532  0.00  0.00     0.119 C 
BRANCH   8   9
ATOM      9  C   LIG d   1       0.284  84.456 115.210  0.00  0.00     0.028 C 
ATOM     10  C   LIG d   1      -1.226  84.673 115.408  0.00  0.00     0.006 C 
ENDBRANCH   8   9
BRANCH   8  11
ATOM     11  C   LIG d   1       1.776  82.524 115.320  0.00  0.00     0.028 C 
ATOM     12  C   LIG d   1       2.899  83.545 115.559  0.00  0.00     0.006 C 
ENDBRANCH   8  11
ENDBRANCH   7   8
ENDBRANCH   1   7
BRANCH   6  13
ATOM     13  N   LIG d   1       2.040  82.271 110.573  0.00  0.00    -0.311 N 
ATOM     14  C   LIG d   1       3.299  81.869 110.406  0.00  0.00     0.210 C 
ATOM     15  C   LIG d   1       4.124  82.714 109.430  0.00  0.00     0.109 C 
ATOM     16  O   LIG d   1       3.801  80.874 110.949  0.00  0.00    -0.276 OA
ATOM     17  H   LIG d   1       1.706  83.069 110.069  0.00  0.00     0.149 HD
ENDBRANCH   6  13
BRANCH   5  18
ATOM     18  N   LIG d   1       0.997  79.421 110.224  0.00  0.00     0.381 N 
ATOM     19  H   LIG d   1       0.384  78.678 109.953  0.00  0.00    -0.090 HD
ATOM     20  H   LIG d   1       1.610  79.078 110.943  0.00  0.00    -0.090 HD
ATOM     21  H   LIG d   1       1.531  79.723 109.438  0.00  0.00    -0.090 HD
ENDBRANCH   5  18
BRANCH   3  22
ATOM     22  C   LIG d   1      -2.820  80.654 112.839  0.00  0.00     0.382 C 
ATOM     23  O   LIG d   1      -3.033  79.646 113.556  0.00  0.00    -0.241 OA
ATOM     24  O   LIG d   1      -3.781  81.351 112.460  0.00  0.00    -0.241 OA
ENDBRANCH   3  22
TORSDOF 7
ENDMDL
MODEL 2
REMARK VINA RESULT:      -5.3      2.886      5.382
REMARK  7 active torsions:
REMARK  status: ('A' for Active; 'I' for Inactive)
REMARK    1  A    between atoms: C_2  and  C_3 
REMARK    2  A    between atoms: C_3  and  O_6 
REMARK    3  A    between atoms: C_3  and  C_4 
REMARK    4  A    between atoms: C_7  and  O_6 
REMARK    5  A    between atoms: C_9  and  C_10 
REMARK    6  A    between atoms: N_15  and  C_14 
REMARK    7  A    between atoms: N_20  and  C_19 
REMARK       I    between atoms: C_22  and  N_20 
ROOT
ATOM      1  C   LIG d   1      -1.501  80.832 114.377  0.00  0.00     0.161 C 
ATOM      2  C   LIG d   1      -1.238  82.181 114.086  0.00  0.00     0.016 C 
ATOM      3  C   LIG d   1      -0.750  82.627 112.836  0.00  0.00     0.038 C 
ATOM      4  C   LIG d   1      -0.634  81.765 111.736  0.00  0.00     0.028 C 
ATOM      5  C   LIG d   1      -0.408  80.309 112.128  0.00  0.00    -0.047 C 
ATOM      6  C   LIG d   1      -1.486  79.892 113.154  0.00  0.00     0.091 C 
ENDROOT
BRANCH   1   7
ATOM      7  O   LIG d   1      -2.754  80.719 115.080  0.00  0.00    -0.368 OA
BRANCH   7   8
ATOM      8  C   LIG d   1      -2.668  80.368 116.483  0.00  0.00     0.119 C 
BRANCH   8   9
ATOM      9  C   LIG d   1      -3.723  79.278 116.753  0.00  0.00     0.028 C 
ATOM     10  C   LIG d   1      -3.105  77.993 117.329  0.00  0.00     0.006 C 
ENDBRANCH   8   9
BRANCH   8  11
ATOM     11  C   LIG d   1      -3.064  81.546 117.378  0.00  0.00     0.028 C 
ATOM     12  C   LIG d   1      -1.853  82.358 117.865  0.00  0.00     0.006 C 
ENDBRANCH   8  11
ENDBRANCH   7   8
ENDBRANCH   1   7
BRANCH   6  13
ATOM     13  N   LIG d   1      -1.288  78.507 113.653  0.00  0.00    -0.311 N 
ATOM     14  C   LIG d   1      -2.240  77.576 113.631  0.00  0.00     0.210 C 
ATOM     15  C   LIG d   1      -1.831  76.219 114.213  0.00  0.00     0.109 C 
ATOM     16  O   LIG d   1      -3.374  77.735 113.154  0.00  0.00    -0.276 OA
ATOM     17  H   LIG d   1      -0.387  78.282 114.029  0.00  0.00     0.149 HD
ENDBRANCH   6  13
BRANCH   5  18
ATOM     18  N   LIG d   1      -0.443  79.504 110.892  0.00  0.00     0.381 N 
ATOM     19  H   LIG d   1       0.025  79.993 110.156  0.00  0.00    -0.090 HD
ATOM     20  H   LIG d   1      -1.401  79.367 110.621  0.00  0.00    -0.090 HD
ATOM     21  H   LIG d   1      -0.005  78.623 111.046  0.00  0.00    -0.090 HD
ENDBRANCH   5  18
BRANCH   3  22
ATOM     22  C   LIG d   1      -0.334  83.942 112.690  0.00  0.00     0.382 C 
ATOM     23  O   LIG d   1      -0.878  84.680 111.834  0.00  0.00    -0.241 OA
ATOM     24  O   LIG d   1       0.609  84.386 113.373  0.00  0.00    -0.241 OA
ENDBRANCH   3  22
TORSDOF 7
ENDMDL
MODEL 3
REMARK VINA RESULT:      -5.3      1.712      4.819
REMARK  7 active torsions:
REMARK  status: ('A' for Active; 'I' for Inactive)
REMARK    1  A    between atoms: C_2  and  C_3 
REMARK    2  A    between atoms: C_3  and  O_6 
REMARK    3  A    between atoms: C_3  and  C_4 
REMARK    4  A    between atoms: C_7  and  O_6 
REMARK    5  A    between atoms: C_9  and  C_10 
REMARK    6  A    between atoms: N_15  and  C_14 
REMARK    7  A    between atoms: N_20  and  C_19 
REMARK       I    between atoms: C_22  and  N_20 
ROOT
ATOM      1  C   LIG d   1       0.263  82.828 112.593  0.00  0.00     0.161 C 
ATOM      2  C   LIG d   1       1.246  83.183 111.653  0.00  0.00     0.016 C 
ATOM      3  C   LIG d   1       1.577  82.385 110.534  0.00  0.00     0.038 C 
ATOM      4  C   LIG d   1       0.838  81.242 110.194  0.00  0.00     0.028 C 
ATOM      5  C   LIG d   1       0.167  80.576 111.390  0.00  0.00    -0.047 C 
ATOM      6  C   LIG d   1      -0.630  81.641 112.177  0.00  0.00     0.091 C 
ENDROOT
BRANCH   1   7
ATOM      7  O   LIG d   1      -0.546  83.977 112.910  0.00  0.00    -0.368 OA
BRANCH   7   8
ATOM      8  C   LIG d   1      -0.237  84.651 114.155  0.00  0.00     0.119 C 
BRANCH   8   9
ATOM      9  C   LIG d   1       0.832  83.812 114.882  0.00  0.00     0.028 C 
ATOM     10  C   LIG d   1       2.083  84.633 115.235  0.00  0.00     0.006 C 
ENDBRANCH   8   9
BRANCH   8  11
ATOM     11  C   LIG d   1      -1.446  84.669 115.095  0.00  0.00     0.028 C 
ATOM     12  C   LIG d   1      -1.394  83.558 116.155  0.00  0.00     0.006 C 
ENDBRANCH   8  11
ENDBRANCH   7   8
ENDBRANCH   1   7
BRANCH   6  13
ATOM     13  N   LIG d   1      -1.248  81.090 113.411  0.00  0.00    -0.311 N 
ATOM     14  C   LIG d   1      -2.561  81.087 113.634  0.00  0.00     0.210 C 
ATOM     15  C   LIG d   1      -2.987  80.489 114.979  0.00  0.00     0.109 C 
ATOM     16  O   LIG d   1      -3.416  81.493 112.833  0.00  0.00    -0.276 OA
ATOM     17  H   LIG d   1      -0.630  80.711 114.101  0.00  0.00     0.149 HD
ENDBRANCH   6  13
BRANCH   5  18
ATOM     18  N   LIG d   1      -0.679  79.483 110.875  0.00  0.00     0.381 N 
ATOM     19  H   LIG d   1      -0.157  78.925 110.230  0.00  0.00    -0.090 HD
ATOM     20  H   LIG d   1      -1.462  79.881 110.387  0.00  0.00    -0.090 HD
ATOM     21  H   LIG d   1      -1.002  78.917 111.629  0.00  0.00    -0.090 HD
ENDBRANCH   5  18
BRANCH   3  22
ATOM     22  C   LIG d   1       2.685  82.706 109.765  0.00  0.00     0.382 C 
ATOM     23  O   LIG d   1       3.497  81.810 109.431  0.00  0.00    -0.241 OA
ATOM     24  O   LIG d   1       2.906  83.887 109.437  0.00  0.00    -0.241 OA
ENDBRANCH   3  22
TORSDOF 7
ENDMDL
MODEL 4
REMARK VINA RESULT:      -5.1      1.505      4.710
REMARK  7 active torsions:
REMARK  status: ('A' for Active; 'I' for Inactive)
REMARK    1  A    between atoms: C_2  and  C_3 
REMARK    2  A    between atoms: C_3  and  O_6 
REMARK    3  A    between atoms: C_3  and  C_4 
REMARK    4  A    between atoms: C_7  and  O_6 
REMARK    5  A    between atoms: C_9  and  C_10 
REMARK    6  A    between atoms: N_15  and  C_14 
REMARK    7  A    between atoms: N_20  and  C_19 
REMARK       I    between atoms: C_22  and  N_20 
ROOT
ATOM      1  C   LIG d   1       1.185  82.358 112.684  0.00  0.00     0.161 C 
ATOM      2  C   LIG d   1       2.298  82.727 111.910  0.00  0.00     0.016 C 
ATOM      3  C   LIG d   1       2.568  82.190 110.630  0.00  0.00     0.038 C 
ATOM      4  C   LIG d   1       1.655  81.354 109.969  0.00  0.00     0.028 C 
ATOM      5  C   LIG d   1       0.764  80.560 110.919  0.00  0.00    -0.047 C 
ATOM      6  C   LIG d   1       0.120  81.531 111.934  0.00  0.00     0.091 C 
ENDROOT
BRANCH   1   7
ATOM      7  O   LIG d   1       0.587  83.531 113.270  0.00  0.00    -0.368 OA
BRANCH   7   8
ATOM      8  C   LIG d   1       0.504  83.550 114.716  0.00  0.00     0.119 C 
BRANCH   8   9
ATOM      9  C   LIG d   1      -0.927  83.981 115.092  0.00  0.00     0.028 C 
ATOM     10  C   LIG d   1      -1.476  83.203 116.300  0.00  0.00     0.006 C 
ENDBRANCH   8   9
BRANCH   8  11
ATOM     11  C   LIG d   1       1.420  84.622 115.314  0.00  0.00     0.028 C 
ATOM     12  C   LIG d   1       2.667  84.030 115.991  0.00  0.00     0.006 C 
ENDBRANCH   8  11
ENDBRANCH   7   8
ENDBRANCH   1   7
BRANCH   6  13
ATOM     13  N   LIG d   1      -0.701  80.826 112.951  0.00  0.00    -0.311 N 
ATOM     14  C   LIG d   1      -2.020  80.974 113.060  0.00  0.00     0.210 C 
ATOM     15  C   LIG d   1      -2.670  80.170 114.191  0.00  0.00     0.109 C 
ATOM     16  O   LIG d   1      -2.718  81.670 112.308  0.00  0.00    -0.276 OA
ATOM     17  H   LIG d   1      -0.219  80.216 113.583  0.00  0.00     0.149 HD
ENDBRANCH   6  13
BRANCH   5  18
ATOM     18  N   LIG d   1      -0.228  79.838 110.100  0.00  0.00     0.381 N 
ATOM     19  H   LIG d   1       0.034  78.875 110.021  0.00  0.00    -0.090 HD
ATOM     20  H   LIG d   1      -0.240  80.237 109.177  0.00  0.00    -0.090 HD
ATOM     21  H   LIG d   1      -1.131  79.912 110.514  0.00  0.00    -0.090 HD
ENDBRANCH   5  18
BRANCH   3  22
ATOM     22  C   LIG d   1       3.781  82.457 110.015  0.00  0.00     0.382 C 
ATOM     23  O   LIG d   1       4.117  83.643 109.779  0.00  0.00    -0.241 OA
ATOM     24  O   LIG d   1       4.524  81.526 109.652  0.00  0.00    -0.241 OA
ENDBRANCH   3  22
TORSDOF 7
ENDMDL
MODEL 5
REMARK VINA RESULT:      -5.1      1.877      2.292
REMARK  7 active torsions:
REMARK  status: ('A' for Active; 'I' for Inactive)
REMARK    1  A    between atoms: C_2  and  C_3 
REMARK    2  A    between atoms: C_3  and  O_6 
REMARK    3  A    between atoms: C_3  and  C_4 
REMARK    4  A    between atoms: C_7  and  O_6 
REMARK    5  A    between atoms: C_9  and  C_10 
REMARK    6  A    between atoms: N_15  and  C_14 
REMARK    7  A    between atoms: N_20  and  C_19 
REMARK       I    between atoms: C_22  and  N_20 
ROOT
ATOM      1  C   LIG d   1      -1.806  81.859 112.425  0.00  0.00     0.161 C 
ATOM      2  C   LIG d   1      -2.467  80.837 113.125  0.00  0.00     0.016 C 
ATOM      3  C   LIG d   1      -2.183  79.463 112.949  0.00  0.00     0.038 C 
ATOM      4  C   LIG d   1      -1.106  79.024 112.164  0.00  0.00     0.028 C 
ATOM      5  C   LIG d   1      -0.735  79.993 111.047  0.00  0.00    -0.047 C 
ATOM      6  C   LIG d   1      -0.553  81.405 111.648  0.00  0.00     0.091 C 
ENDROOT
BRANCH   1   7
ATOM      7  O   LIG d   1      -1.475  82.934 113.326  0.00  0.00    -0.368 OA
BRANCH   7   8
ATOM      8  C   LIG d   1      -1.016  82.542 114.644  0.00  0.00     0.119 C 
BRANCH   8   9
ATOM      9  C   LIG d   1      -1.824  83.353 115.675  0.00  0.00     0.028 C 
ATOM     10  C   LIG d   1      -1.680  82.797 117.102  0.00  0.00     0.006 C 
ENDBRANCH   8   9
BRANCH   8  11
ATOM     11  C   LIG d   1       0.445  82.943 114.867  0.00  0.00     0.028 C 
ATOM     12  C   LIG d   1       1.405  81.743 114.825  0.00  0.00     0.006 C 
ENDBRANCH   8  11
ENDBRANCH   7   8
ENDBRANCH   1   7
BRANCH   6  13
ATOM     13  N   LIG d   1      -0.271  82.431 110.609  0.00  0.00    -0.311 N 
ATOM     14  C   LIG d   1       0.850  83.148 110.573  0.00  0.00     0.210 C 
ATOM     15  C   LIG d   1       0.930  84.165 109.430  0.00  0.00     0.109 C 
ATOM     16  O   LIG d   1       1.800  83.017 111.360  0.00  0.00    -0.276 OA
ATOM     17  H   LIG d   1      -0.975  82.580 109.913  0.00  0.00     0.149 HD
ENDBRANCH   6  13
BRANCH   5  18
ATOM     18  N   LIG d   1       0.485  79.478 110.398  0.00  0.00     0.381 N 
ATOM     19  H   LIG d   1       0.890  78.757 110.960  0.00  0.00    -0.090 HD
ATOM     20  H   LIG d   1       1.151  80.227 110.317  0.00  0.00    -0.090 HD
ATOM     21  H   LIG d   1       0.266  79.120 109.494  0.00  0.00    -0.090 HD
ENDBRANCH   5  18
BRANCH   3  22
ATOM     22  C   LIG d   1      -3.007  78.511 113.530  0.00  0.00     0.382 C 
ATOM     23  O   LIG d   1      -3.589  77.663 112.811  0.00  0.00    -0.241 OA
ATOM     24  O   LIG d   1      -3.209  78.516 114.759  0.00  0.00    -0.241 OA
ENDBRANCH   3  22
TORSDOF 7
ENDMDL
MODEL 6
REMARK VINA RESULT:      -5.1      2.612      3.530
REMARK  7 active torsions:
REMARK  status: ('A' for Active; 'I' for Inactive)
REMARK    1  A    between atoms: C_2  and  C_3 
REMARK    2  A    between atoms: C_3  and  O_6 
REMARK    3  A    between atoms: C_3  and  C_4 
REMARK    4  A    between atoms: C_7  and  O_6 
REMARK    5  A    between atoms: C_9  and  C_10 
REMARK    6  A    between atoms: N_15  and  C_14 
REMARK    7  A    between atoms: N_20  and  C_19 
REMARK       I    between atoms: C_22  and  N_20 
ROOT
ATOM      1  C   LIG d   1      -2.075  81.184 114.159  0.00  0.00     0.161 C 
ATOM      2  C   LIG d   1      -2.502  80.084 114.921  0.00  0.00     0.016 C 
ATOM      3  C   LIG d   1      -2.465  78.751 114.453  0.00  0.00     0.038 C 
ATOM      4  C   LIG d   1      -1.853  78.409 113.238  0.00  0.00     0.028 C 
ATOM      5  C   LIG d   1      -1.864  79.540 112.214  0.00  0.00    -0.047 C 
ATOM      6  C   LIG d   1      -1.302  80.819 112.875  0.00  0.00     0.091 C 
ENDROOT
BRANCH   1   7
ATOM      7  O   LIG d   1      -1.293  82.073 114.980  0.00  0.00    -0.368 OA
BRANCH   7   8
ATOM      8  C   LIG d   1      -2.036  82.916 115.895  0.00  0.00     0.119 C 
BRANCH   8   9
ATOM      9  C   LIG d   1      -1.790  84.379 115.479  0.00  0.00     0.028 C 
ATOM     10  C   LIG d   1      -0.535  84.539 114.606  0.00  0.00     0.006 C 
ENDBRANCH   8   9
BRANCH   8  11
ATOM     11  C   LIG d   1      -1.492  82.803 117.322  0.00  0.00     0.028 C 
ATOM     12  C   LIG d   1      -2.371  81.925 118.227  0.00  0.00     0.006 C 
ENDBRANCH   8  11
ENDBRANCH   7   8
ENDBRANCH   1   7
BRANCH   6  13
ATOM     13  N   LIG d   1      -1.356  81.996 111.968  0.00  0.00    -0.311 N 
ATOM     14  C   LIG d   1      -0.271  82.624 111.517  0.00  0.00     0.210 C 
ATOM     15  C   LIG d   1      -0.551  83.826 110.609  0.00  0.00     0.109 C 
ATOM     16  O   LIG d   1       0.896  82.281 111.757  0.00  0.00    -0.276 OA
ATOM     17  H   LIG d   1      -2.263  82.322 111.698  0.00  0.00     0.149 HD
ENDBRANCH   6  13
BRANCH   5  18
ATOM     18  N   LIG d   1      -1.075  79.095 111.050  0.00  0.00     0.381 N 
ATOM     19  H   LIG d   1      -0.758  78.157 111.194  0.00  0.00    -0.090 HD
ATOM     20  H   LIG d   1      -0.270  79.689 110.957  0.00  0.00    -0.090 HD
ATOM     21  H   LIG d   1      -1.630  79.143 110.224  0.00  0.00    -0.090 HD
ENDBRANCH   5  18
BRANCH   3  22
ATOM     22  C   LIG d   1      -3.080  77.747 115.185  0.00  0.00     0.382 C 
ATOM     23  O   LIG d   1      -2.599  76.589 115.189  0.00  0.00    -0.241 OA
ATOM     24  O   LIG d   1      -4.136  77.975 115.807  0.00  0.00    -0.241 OA
ENDBRANCH   3  22
TORSDOF 7
ENDMDL
MODEL 7
REMARK VINA RESULT:      -5.0      2.282      4.262
REMARK  7 active torsions:
REMARK  status: ('A' for Active; 'I' for Inactive)
REMARK    1  A    between atoms: C_2  and  C_3 
REMARK    2  A    between atoms: C_3  and  O_6 
REMARK    3  A    between atoms: C_3  and  C_4 
REMARK    4  A    between atoms: C_7  and  O_6 
REMARK    5  A    between atoms: C_9  and  C_10 
REMARK    6  A    between atoms: N_15  and  C_14 
REMARK    7  A    between atoms: N_20  and  C_19 
REMARK       I    between atoms: C_22  and  N_20 
ROOT
ATOM      1  C   LIG d   1      -0.194  81.171 111.634  0.00  0.00     0.161 C 
ATOM      2  C   LIG d   1      -0.966  79.998 111.680  0.00  0.00     0.016 C 
ATOM      3  C   LIG d   1      -1.939  79.744 112.674  0.00  0.00     0.038 C 
ATOM      4  C   LIG d   1      -2.314  80.720 113.610  0.00  0.00     0.028 C 
ATOM      5  C   LIG d   1      -1.208  81.726 113.913  0.00  0.00    -0.047 C 
ATOM      6  C   LIG d   1      -0.667  82.293 112.580  0.00  0.00     0.091 C 
ENDROOT
BRANCH   1   7
ATOM      7  O   LIG d   1      -0.122  81.655 110.278  0.00  0.00    -0.368 OA
BRANCH   7   8
ATOM      8  C   LIG d   1       1.153  81.490 109.610  0.00  0.00     0.119 C 
BRANCH   8   9
ATOM      9  C   LIG d   1       2.061  80.665 110.542  0.00  0.00     0.028 C 
ATOM     10  C   LIG d   1       3.520  81.150 110.520  0.00  0.00     0.006 C 
ENDBRANCH   8   9
BRANCH   8  11
ATOM     11  C   LIG d   1       1.867  82.833 109.432  0.00  0.00     0.028 C 
ATOM     12  C   LIG d   1       0.902  84.029 109.455  0.00  0.00     0.006 C 
ENDBRANCH   8  11
ENDBRANCH   7   8
ENDBRANCH   1   7
BRANCH   6  13
ATOM     13  N   LIG d   1       0.475  83.223 112.782  0.00  0.00    -0.311 N 
ATOM     14  C   LIG d   1       1.603  82.874 113.399  0.00  0.00     0.210 C 
ATOM     15  C   LIG d   1       2.646  83.990 113.518  0.00  0.00     0.109 C 
ATOM     16  O   LIG d   1       1.852  81.738 113.829  0.00  0.00    -0.276 OA
ATOM     17  H   LIG d   1       0.370  84.156 112.436  0.00  0.00     0.149 HD
ENDBRANCH   6  13
BRANCH   5  18
ATOM     18  N   LIG d   1      -1.778  82.762 114.794  0.00  0.00     0.381 N 
ATOM     19  H   LIG d   1      -1.149  83.538 114.855  0.00  0.00    -0.090 HD
ATOM     20  H   LIG d   1      -1.894  82.378 115.715  0.00  0.00    -0.090 HD
ATOM     21  H   LIG d   1      -2.658  83.066 114.439  0.00  0.00    -0.090 HD
ENDBRANCH   5  18
BRANCH   3  22
ATOM     22  C   LIG d   1      -2.519  78.488 112.764  0.00  0.00     0.382 C 
ATOM     23  O   LIG d   1      -1.848  77.517 113.190  0.00  0.00    -0.241 OA
ATOM     24  O   LIG d   1      -3.690  78.305 112.383  0.00  0.00    -0.241 OA
ENDBRANCH   3  22
TORSDOF 7
ENDMDL
MODEL 8
REMARK VINA RESULT:      -4.7      4.389      6.715
REMARK  7 active torsions:
REMARK  status: ('A' for Active; 'I' for Inactive)
REMARK    1  A    between atoms: C_2  and  C_3 
REMARK    2  A    between atoms: C_3  and  O_6 
REMARK    3  A    between atoms: C_3  and  C_4 
REMARK    4  A    between atoms: C_7  and  O_6 
REMARK    5  A    between atoms: C_9  and  C_10 
REMARK    6  A    between atoms: N_15  and  C_14 
REMARK    7  A    between atoms: N_20  and  C_19 
REMARK       I    between atoms: C_22  and  N_20 
ROOT
ATOM      1  C   LIG d   1      -2.229  79.044 115.732  0.00  0.00     0.161 C 
ATOM      2  C   LIG d   1      -2.680  79.652 114.548  0.00  0.00     0.016 C 
ATOM      3  C   LIG d   1      -1.928  80.610 113.830  0.00  0.00     0.038 C 
ATOM      4  C   LIG d   1      -0.601  80.916 114.168  0.00  0.00     0.028 C 
ATOM      5  C   LIG d   1      -0.288  80.703 115.645  0.00  0.00    -0.047 C 
ATOM      6  C   LIG d   1      -0.739  79.283 116.055  0.00  0.00     0.091 C 
ENDROOT
BRANCH   1   7
ATOM      7  O   LIG d   1      -2.515  77.632 115.695  0.00  0.00    -0.368 OA
BRANCH   7   8
ATOM      8  C   LIG d   1      -2.100  76.929 114.498  0.00  0.00     0.119 C 
BRANCH   8   9
ATOM      9  C   LIG d   1      -3.235  75.961 114.113  0.00  0.00     0.028 C 
ATOM     10  C   LIG d   1      -4.440  76.061 115.064  0.00  0.00     0.006 C 
ENDBRANCH   8   9
BRANCH   8  11
ATOM     11  C   LIG d   1      -0.883  76.039 114.768  0.00  0.00     0.028 C 
ATOM     12  C   LIG d   1      -1.156  74.962 115.829  0.00  0.00     0.006 C 
ENDBRANCH   8  11
ENDBRANCH   7   8
ENDBRANCH   1   7
BRANCH   6  13
ATOM     13  N   LIG d   1      -0.546  79.022 117.505  0.00  0.00    -0.311 N 
ATOM     14  C   LIG d   1       0.312  78.122 117.980  0.00  0.00     0.210 C 
ATOM     15  C   LIG d   1       0.341  77.998 119.507  0.00  0.00     0.109 C 
ATOM     16  O   LIG d   1       1.077  77.437 117.284  0.00  0.00    -0.276 OA
ATOM     17  H   LIG d   1      -1.104  79.556 118.143  0.00  0.00     0.149 HD
ENDBRANCH   6  13
BRANCH   5  18
ATOM     18  N   LIG d   1       1.159  80.926 115.831  0.00  0.00     0.381 N 
ATOM     19  H   LIG d   1       1.344  81.178 116.781  0.00  0.00    -0.090 HD
ATOM     20  H   LIG d   1       1.449  81.685 115.241  0.00  0.00    -0.090 HD
ATOM     21  H   LIG d   1       1.664  80.100 115.594  0.00  0.00    -0.090 HD
ENDBRANCH   5  18
BRANCH   3  22
ATOM     22  C   LIG d   1      -2.517  81.303 112.784  0.00  0.00     0.382 C 
ATOM     23  O   LIG d   1      -1.820  82.048 112.054  0.00  0.00    -0.241 OA
ATOM     24  O   LIG d   1      -3.745  81.228 112.589  0.00  0.00    -0.241 OA
ENDBRANCH   3  22
TORSDOF 7
ENDMDL
MODEL 9
REMARK VINA RESULT:      -4.7      2.325      4.217
REMARK  7 active torsions:
REMARK  status: ('A' for Active; 'I' for Inactive)
REMARK    1  A    between atoms: C_2  and  C_3 
REMARK    2  A    between atoms: C_3  and  O_6 
REMARK    3  A    between atoms: C_3  and  C_4 
REMARK    4  A    between atoms: C_7  and  O_6 
REMARK    5  A    between atoms: C_9  and  C_10 
REMARK    6  A    between atoms: N_15  and  C_14 
REMARK    7  A    between atoms: N_20  and  C_19 
REMARK       I    between atoms: C_22  and  N_20 
ROOT
ATOM      1  C   LIG d   1      -0.283  82.933 112.262  0.00  0.00     0.161 C 
ATOM      2  C   LIG d   1      -1.345  82.027 112.422  0.00  0.00     0.016 C 
ATOM      3  C   LIG d   1      -2.011  81.818 113.651  0.00  0.00     0.038 C 
ATOM      4  C   LIG d   1      -1.758  82.616 114.777  0.00  0.00     0.028 C 
ATOM      5  C   LIG d   1      -0.349  83.198 114.803  0.00  0.00    -0.047 C 
ATOM      6  C   LIG d   1      -0.067  83.893 113.451  0.00  0.00     0.091 C 
ENDROOT
BRANCH   1   7
ATOM      7  O   LIG d   1      -0.457  83.680 111.042  0.00  0.00    -0.368 OA
BRANCH   7   8
ATOM      8  C   LIG d   1       0.499  83.409 109.987  0.00  0.00     0.119 C 
BRANCH   8   9
ATOM      9  C   LIG d   1       1.269  82.132 110.377  0.00  0.00     0.028 C 
ATOM     10  C   LIG d   1       0.915  80.935 109.479  0.00  0.00     0.006 C 
ENDBRANCH   8   9
BRANCH   8  11
ATOM     11  C   LIG d   1       1.559  84.511 109.899  0.00  0.00     0.028 C 
ATOM     12  C   LIG d   1       2.989  83.956 109.801  0.00  0.00     0.006 C 
ENDBRANCH   8  11
ENDBRANCH   7   8
ENDBRANCH   1   7
BRANCH   6  13
ATOM     13  N   LIG d   1       1.321  84.416 113.361  0.00  0.00    -0.311 N 
ATOM     14  C   LIG d   1       2.402  83.662 113.547  0.00  0.00     0.210 C 
ATOM     15  C   LIG d   1       3.737  84.404 113.429  0.00  0.00     0.109 C 
ATOM     16  O   LIG d   1       2.384  82.441 113.768  0.00  0.00    -0.276 OA
ATOM     17  H   LIG d   1       1.429  85.390 113.155  0.00  0.00     0.149 HD
ENDBRANCH   6  13
BRANCH   5  18
ATOM     18  N   LIG d   1      -0.267  84.117 115.954  0.00  0.00     0.381 N 
ATOM     19  H   LIG d   1      -1.182  84.443 116.193  0.00  0.00    -0.090 HD
ATOM     20  H   LIG d   1       0.294  84.910 115.697  0.00  0.00    -0.090 HD
ATOM     21  H   LIG d   1       0.142  83.650 116.734  0.00  0.00    -0.090 HD
ENDBRANCH   5  18
BRANCH   3  22
ATOM     22  C   LIG d   1      -2.914  80.773 113.774  0.00  0.00     0.382 C 
ATOM     23  O   LIG d   1      -3.426  80.263 112.749  0.00  0.00    -0.241 OA
ATOM     24  O   LIG d   1      -3.257  80.364 114.900  0.00  0.00    -0.241 OA
ENDBRANCH   3  22
TORSDOF 7
ENDMDL
