MODEL 1
REMARK VINA RESULT:      -5.0      0.000      0.000
REMARK  7 active torsions:
REMARK  status: ('A' for Active; 'I' for Inactive)
REMARK    1  A    between atoms: C_2  and  C_3 
REMARK    2  A    between atoms: C_3  and  O_6 
REMARK    3  A    between atoms: C_3  and  C_4 
REMARK    4  A    between atoms: C_7  and  O_6 
REMARK    5  A    between atoms: C_9  and  C_10 
REMARK    6  A    between atoms: N_15  and  C_14 
REMARK    7  A    between atoms: N_20  and  C_19 
REMARK       I    between atoms: C_22  and  N_20 
ROOT
ATOM      1  C   LIG d   1      -2.139  78.344 114.784  0.00  0.00     0.161 C 
ATOM      2  C   LIG d   1      -2.680  79.535 114.272  0.00  0.00     0.016 C 
ATOM      3  C   LIG d   1      -2.627  79.889 112.904  0.00  0.00     0.038 C 
ATOM      4  C   LIG d   1      -2.160  78.998 111.926  0.00  0.00     0.028 C 
ATOM      5  C   LIG d   1      -1.144  77.993 112.457  0.00  0.00    -0.047 C 
ATOM      6  C   LIG d   1      -1.725  77.310 113.717  0.00  0.00     0.091 C 
ENDROOT
BRANCH   1   7
ATOM      7  O   LIG d   1      -3.060  77.754 115.723  0.00  0.00    -0.368 OA
BRANCH   7   8
ATOM      8  C   LIG d   1      -2.976  78.235 117.087  0.00  0.00     0.119 C 
BRANCH   8   9
ATOM      9  C   LIG d   1      -2.358  77.109 117.938  0.00  0.00     0.028 C 
ATOM     10  C   LIG d   1      -0.870  77.352 118.241  0.00  0.00     0.006 C 
ENDBRANCH   8   9
BRANCH   8  11
ATOM     11  C   LIG d   1      -4.367  78.474 117.680  0.00  0.00     0.028 C 
ATOM     12  C   LIG d   1      -4.317  79.087 119.089  0.00  0.00     0.006 C 
ENDBRANCH   8  11
ENDBRANCH   7   8
ENDBRANCH   1   7
BRANCH   6  13
ATOM     13  N   LIG d   1      -0.761  76.373 114.349  0.00  0.00    -0.311 N 
ATOM     14  C   LIG d   1      -1.126  75.247 114.959  0.00  0.00     0.210 C 
ATOM     15  C   LIG d   1       0.025  74.435 115.561  0.00  0.00     0.109 C 
ATOM     16  O   LIG d   1      -2.291  74.827 115.032  0.00  0.00    -0.276 OA
ATOM     17  H   LIG d   1       0.209  76.620 114.309  0.00  0.00     0.149 HD
ENDBRANCH   6  13
BRANCH   5  18
ATOM     18  N   LIG d   1      -0.847  77.042 111.369  0.00  0.00     0.381 N 
ATOM     19  H   LIG d   1      -0.446  77.530 110.593  0.00  0.00    -0.090 HD
ATOM     20  H   LIG d   1      -1.705  76.617 111.065  0.00  0.00    -0.090 HD
ATOM     21  H   LIG d   1      -0.216  76.341 111.692  0.00  0.00    -0.090 HD
ENDBRANCH   5  18
BRANCH   3  22
ATOM     22  C   LIG d   1      -3.009  81.161 112.508  0.00  0.00     0.382 C 
ATOM     23  O   LIG d   1      -2.136  82.025 112.247  0.00  0.00    -0.241 OA
ATOM     24  O   LIG d   1      -4.214  81.471 112.451  0.00  0.00    -0.241 OA
ENDBRANCH   3  22
TORSDOF 7
ENDMDL
MODEL 2
REMARK VINA RESULT:      -4.8      3.004      4.560
REMARK  7 active torsions:
REMARK  status: ('A' for Active; 'I' for Inactive)
REMARK    1  A    between atoms: C_2  and  C_3 
REMARK    2  A    between atoms: C_3  and  O_6 
REMARK    3  A    between atoms: C_3  and  C_4 
REMARK    4  A    between atoms: C_7  and  O_6 
REMARK    5  A    between atoms: C_9  and  C_10 
REMARK    6  A    between atoms: N_15  and  C_14 
REMARK    7  A    between atoms: N_20  and  C_19 
REMARK       I    between atoms: C_22  and  N_20 
ROOT
ATOM      1  C   LIG d   1      -0.814  78.053 115.643  0.00  0.00     0.161 C 
ATOM      2  C   LIG d   1      -2.083  77.676 115.174  0.00  0.00     0.016 C 
ATOM      3  C   LIG d   1      -2.598  76.365 115.291  0.00  0.00     0.038 C 
ATOM      4  C   LIG d   1      -1.935  75.370 116.026  0.00  0.00     0.028 C 
ATOM      5  C   LIG d   1      -0.424  75.566 116.083  0.00  0.00    -0.047 C 
ATOM      6  C   LIG d   1      -0.122  77.010 116.546  0.00  0.00     0.091 C 
ENDROOT
BRANCH   1   7
ATOM      7  O   LIG d   1      -0.900  79.323 116.320  0.00  0.00    -0.368 OA
BRANCH   7   8
ATOM      8  C   LIG d   1      -0.874  79.276 117.768  0.00  0.00     0.119 C 
BRANCH   8   9
ATOM      9  C   LIG d   1      -2.325  79.432 118.262  0.00  0.00     0.028 C 
ATOM     10  C   LIG d   1      -2.884  78.129 118.858  0.00  0.00     0.006 C 
ENDBRANCH   8   9
BRANCH   8  11
ATOM     11  C   LIG d   1      -0.117  80.474 118.350  0.00  0.00     0.028 C 
ATOM     12  C   LIG d   1       1.091  80.888 117.494  0.00  0.00     0.006 C 
ENDBRANCH   8  11
ENDBRANCH   7   8
ENDBRANCH   1   7
BRANCH   6  13
ATOM     13  N   LIG d   1       1.333  77.312 116.549  0.00  0.00    -0.311 N 
ATOM     14  C   LIG d   1       2.086  77.282 117.647  0.00  0.00     0.210 C 
ATOM     15  C   LIG d   1       3.558  77.646 117.432  0.00  0.00     0.109 C 
ATOM     16  O   LIG d   1       1.681  76.958 118.773  0.00  0.00    -0.276 OA
ATOM     17  H   LIG d   1       1.750  77.554 115.671  0.00  0.00     0.149 HD
ENDBRANCH   6  13
BRANCH   5  18
ATOM     18  N   LIG d   1       0.124  74.541 116.992  0.00  0.00     0.381 N 
ATOM     19  H   LIG d   1      -0.464  73.732 116.983  0.00  0.00    -0.090 HD
ATOM     20  H   LIG d   1       0.138  74.910 117.927  0.00  0.00    -0.090 HD
ATOM     21  H   LIG d   1       1.047  74.294 116.710  0.00  0.00    -0.090 HD
ENDBRANCH   5  18
BRANCH   3  22
ATOM     22  C   LIG d   1      -3.772  76.026 114.635  0.00  0.00     0.382 C 
ATOM     23  O   LIG d   1      -4.418  75.011 114.989  0.00  0.00    -0.241 OA
ATOM     24  O   LIG d   1      -4.169  76.697 113.663  0.00  0.00    -0.241 OA
ENDBRANCH   3  22
TORSDOF 7
ENDMDL
MODEL 3
REMARK VINA RESULT:      -4.8      2.841      3.922
REMARK  7 active torsions:
REMARK  status: ('A' for Active; 'I' for Inactive)
REMARK    1  A    between atoms: C_2  and  C_3 
REMARK    2  A    between atoms: C_3  and  O_6 
REMARK    3  A    between atoms: C_3  and  C_4 
REMARK    4  A    between atoms: C_7  and  O_6 
REMARK    5  A    between atoms: C_9  and  C_10 
REMARK    6  A    between atoms: N_15  and  C_14 
REMARK    7  A    between atoms: N_20  and  C_19 
REMARK       I    between atoms: C_22  and  N_20 
ROOT
ATOM      1  C   LIG d   1      -0.074  77.484 116.837  0.00  0.00     0.161 C 
ATOM      2  C   LIG d   1      -0.701  78.119 115.752  0.00  0.00     0.016 C 
ATOM      3  C   LIG d   1      -1.712  77.510 114.973  0.00  0.00     0.038 C 
ATOM      4  C   LIG d   1      -2.274  76.273 115.322  0.00  0.00     0.028 C 
ATOM      5  C   LIG d   1      -1.323  75.377 116.110  0.00  0.00    -0.047 C 
ATOM      6  C   LIG d   1      -0.750  76.178 117.301  0.00  0.00     0.091 C 
ENDROOT
BRANCH   1   7
ATOM      7  O   LIG d   1       0.047  78.405 117.939  0.00  0.00    -0.368 OA
BRANCH   7   8
ATOM      8  C   LIG d   1      -0.979  79.424 118.033  0.00  0.00     0.119 C 
BRANCH   8   9
ATOM      9  C   LIG d   1      -0.291  80.736 118.458  0.00  0.00     0.028 C 
ATOM     10  C   LIG d   1      -1.076  81.484 119.549  0.00  0.00     0.006 C 
ENDBRANCH   8   9
BRANCH   8  11
ATOM     11  C   LIG d   1      -1.976  79.108 119.151  0.00  0.00     0.028 C 
ATOM     12  C   LIG d   1      -3.351  78.674 118.618  0.00  0.00     0.006 C 
ENDBRANCH   8  11
ENDBRANCH   7   8
ENDBRANCH   1   7
BRANCH   6  13
ATOM     13  N   LIG d   1       0.253  75.402 118.075  0.00  0.00    -0.311 N 
ATOM     14  C   LIG d   1       0.033  74.937 119.304  0.00  0.00     0.210 C 
ATOM     15  C   LIG d   1       1.208  74.180 119.930  0.00  0.00     0.109 C 
ATOM     16  O   LIG d   1      -1.036  75.053 119.922  0.00  0.00    -0.276 OA
ATOM     17  H   LIG d   1       1.138  75.235 117.637  0.00  0.00     0.149 HD
ENDBRANCH   6  13
BRANCH   5  18
ATOM     18  N   LIG d   1      -2.080  74.182 116.526  0.00  0.00     0.381 N 
ATOM     19  H   LIG d   1      -2.047  74.090 117.522  0.00  0.00    -0.090 HD
ATOM     20  H   LIG d   1      -1.652  73.368 116.120  0.00  0.00    -0.090 HD
ATOM     21  H   LIG d   1      -3.026  74.254 116.224  0.00  0.00    -0.090 HD
ENDBRANCH   5  18
BRANCH   3  22
ATOM     22  C   LIG d   1      -2.144  78.123 113.807  0.00  0.00     0.382 C 
ATOM     23  O   LIG d   1      -1.998  79.361 113.658  0.00  0.00    -0.241 OA
ATOM     24  O   LIG d   1      -2.717  77.462 112.920  0.00  0.00    -0.241 OA
ENDBRANCH   3  22
TORSDOF 7
ENDMDL
MODEL 4
REMARK VINA RESULT:      -4.7      2.937      4.850
REMARK  7 active torsions:
REMARK  status: ('A' for Active; 'I' for Inactive)
REMARK    1  A    between atoms: C_2  and  C_3 
REMARK    2  A    between atoms: C_3  and  O_6 
REMARK    3  A    between atoms: C_3  and  C_4 
REMARK    4  A    between atoms: C_7  and  O_6 
REMARK    5  A    between atoms: C_9  and  C_10 
REMARK    6  A    between atoms: N_15  and  C_14 
REMARK    7  A    between atoms: N_20  and  C_19 
REMARK       I    between atoms: C_22  and  N_20 
ROOT
ATOM      1  C   LIG d   1      -2.333  77.739 117.596  0.00  0.00     0.161 C 
ATOM      2  C   LIG d   1      -3.128  76.865 116.835  0.00  0.00     0.016 C 
ATOM      3  C   LIG d   1      -3.014  76.733 115.431  0.00  0.00     0.038 C 
ATOM      4  C   LIG d   1      -1.988  77.361 114.708  0.00  0.00     0.028 C 
ATOM      5  C   LIG d   1      -1.483  78.642 115.362  0.00  0.00    -0.047 C 
ATOM      6  C   LIG d   1      -1.135  78.348 116.839  0.00  0.00     0.091 C 
ENDROOT
BRANCH   1   7
ATOM      7  O   LIG d   1      -1.885  77.073 118.793  0.00  0.00    -0.368 OA
BRANCH   7   8
ATOM      8  C   LIG d   1      -0.580  76.448 118.723  0.00  0.00     0.119 C 
BRANCH   8   9
ATOM      9  C   LIG d   1      -0.788  74.927 118.856  0.00  0.00     0.028 C 
ATOM     10  C   LIG d   1      -0.679  74.200 117.505  0.00  0.00     0.006 C 
ENDBRANCH   8   9
BRANCH   8  11
ATOM     11  C   LIG d   1       0.293  76.843 119.918  0.00  0.00     0.028 C 
ATOM     12  C   LIG d   1       1.791  76.609 119.666  0.00  0.00     0.006 C 
ENDBRANCH   8  11
ENDBRANCH   7   8
ENDBRANCH   1   7
BRANCH   6  13
ATOM     13  N   LIG d   1      -0.711  79.568 117.575  0.00  0.00    -0.311 N 
ATOM     14  C   LIG d   1       0.563  79.908 117.760  0.00  0.00     0.210 C 
ATOM     15  C   LIG d   1       0.780  81.194 118.564  0.00  0.00     0.109 C 
ATOM     16  O   LIG d   1       1.534  79.284 117.306  0.00  0.00    -0.276 OA
ATOM     17  H   LIG d   1      -1.436  80.149 117.950  0.00  0.00     0.149 HD
ENDBRANCH   6  13
BRANCH   5  18
ATOM     18  N   LIG d   1      -0.326  79.115 114.579  0.00  0.00     0.381 N 
ATOM     19  H   LIG d   1       0.094  79.901 115.035  0.00  0.00    -0.090 HD
ATOM     20  H   LIG d   1      -0.646  79.411 113.673  0.00  0.00    -0.090 HD
ATOM     21  H   LIG d   1       0.342  78.383 114.480  0.00  0.00    -0.090 HD
ENDBRANCH   5  18
BRANCH   3  22
ATOM     22  C   LIG d   1      -3.959  75.998 114.732  0.00  0.00     0.382 C 
ATOM     23  O   LIG d   1      -4.301  74.864 115.144  0.00  0.00    -0.241 OA
ATOM     24  O   LIG d   1      -4.440  76.436 113.669  0.00  0.00    -0.241 OA
ENDBRANCH   3  22
TORSDOF 7
ENDMDL
MODEL 5
REMARK VINA RESULT:      -4.5      3.032      4.219
REMARK  7 active torsions:
REMARK  status: ('A' for Active; 'I' for Inactive)
REMARK    1  A    between atoms: C_2  and  C_3 
REMARK    2  A    between atoms: C_3  and  O_6 
REMARK    3  A    between atoms: C_3  and  C_4 
REMARK    4  A    between atoms: C_7  and  O_6 
REMARK    5  A    between atoms: C_9  and  C_10 
REMARK    6  A    between atoms: N_15  and  C_14 
REMARK    7  A    between atoms: N_20  and  C_19 
REMARK       I    between atoms: C_22  and  N_20 
ROOT
ATOM      1  C   LIG d   1      -0.550  77.794 116.709  0.00  0.00     0.161 C 
ATOM      2  C   LIG d   1      -1.298  78.270 115.620  0.00  0.00     0.016 C 
ATOM      3  C   LIG d   1      -2.197  77.465 114.883  0.00  0.00     0.038 C 
ATOM      4  C   LIG d   1      -2.525  76.161 115.283  0.00  0.00     0.028 C 
ATOM      5  C   LIG d   1      -1.418  75.475 116.077  0.00  0.00    -0.047 C 
ATOM      6  C   LIG d   1      -0.976  76.406 117.230  0.00  0.00     0.091 C 
ENDROOT
BRANCH   1   7
ATOM      7  O   LIG d   1      -0.576  78.760 117.779  0.00  0.00    -0.368 OA
BRANCH   7   8
ATOM      8  C   LIG d   1       0.495  79.736 117.783  0.00  0.00     0.119 C 
BRANCH   8   9
ATOM      9  C   LIG d   1       1.638  79.166 118.645  0.00  0.00     0.028 C 
ATOM     10  C   LIG d   1       2.903  78.872 117.821  0.00  0.00     0.006 C 
ENDBRANCH   8   9
BRANCH   8  11
ATOM     11  C   LIG d   1       0.067  81.030 118.482  0.00  0.00     0.028 C 
ATOM     12  C   LIG d   1       0.823  82.264 117.966  0.00  0.00     0.006 C 
ENDBRANCH   8  11
ENDBRANCH   7   8
ENDBRANCH   1   7
BRANCH   6  13
ATOM     13  N   LIG d   1       0.162  75.847 118.005  0.00  0.00    -0.311 N 
ATOM     14  C   LIG d   1       0.008  75.109 119.104  0.00  0.00     0.210 C 
ATOM     15  C   LIG d   1       1.313  74.650 119.761  0.00  0.00     0.109 C 
ATOM     16  O   LIG d   1      -1.085  74.766 119.578  0.00  0.00    -0.276 OA
ATOM     17  H   LIG d   1       1.084  76.050 117.673  0.00  0.00     0.149 HD
ENDBRANCH   6  13
BRANCH   5  18
ATOM     18  N   LIG d   1      -1.944  74.180 116.547  0.00  0.00     0.381 N 
ATOM     19  H   LIG d   1      -2.701  73.889 115.962  0.00  0.00    -0.090 HD
ATOM     20  H   LIG d   1      -2.293  74.292 117.483  0.00  0.00    -0.090 HD
ATOM     21  H   LIG d   1      -1.221  73.494 116.535  0.00  0.00    -0.090 HD
ENDBRANCH   5  18
BRANCH   3  22
ATOM     22  C   LIG d   1      -2.750  77.952 113.708  0.00  0.00     0.382 C 
ATOM     23  O   LIG d   1      -3.028  79.171 113.603  0.00  0.00    -0.241 OA
ATOM     24  O   LIG d   1      -3.014  77.179 112.767  0.00  0.00    -0.241 OA
ENDBRANCH   3  22
TORSDOF 7
ENDMDL
MODEL 6
REMARK VINA RESULT:      -4.4      2.457      3.658
REMARK  7 active torsions:
REMARK  status: ('A' for Active; 'I' for Inactive)
REMARK    1  A    between atoms: C_2  and  C_3 
REMARK    2  A    between atoms: C_3  and  O_6 
REMARK    3  A    between atoms: C_3  and  C_4 
REMARK    4  A    between atoms: C_7  and  O_6 
REMARK    5  A    between atoms: C_9  and  C_10 
REMARK    6  A    between atoms: N_15  and  C_14 
REMARK    7  A    between atoms: N_20  and  C_19 
REMARK       I    between atoms: C_22  and  N_20 
ROOT
ATOM      1  C   LIG d   1      -0.675  77.834 116.393  0.00  0.00     0.161 C 
ATOM      2  C   LIG d   1      -1.423  78.335 115.314  0.00  0.00     0.016 C 
ATOM      3  C   LIG d   1      -2.344  77.555 114.577  0.00  0.00     0.038 C 
ATOM      4  C   LIG d   1      -2.693  76.254 114.968  0.00  0.00     0.028 C 
ATOM      5  C   LIG d   1      -1.593  75.539 115.746  0.00  0.00    -0.047 C 
ATOM      6  C   LIG d   1      -1.124  76.450 116.904  0.00  0.00     0.091 C 
ENDROOT
BRANCH   1   7
ATOM      7  O   LIG d   1      -0.674  78.790 117.472  0.00  0.00    -0.368 OA
BRANCH   7   8
ATOM      8  C   LIG d   1      -1.521  78.475 118.604  0.00  0.00     0.119 C 
BRANCH   8   9
ATOM      9  C   LIG d   1      -2.751  79.402 118.534  0.00  0.00     0.028 C 
ATOM     10  C   LIG d   1      -4.003  78.677 118.013  0.00  0.00     0.006 C 
ENDBRANCH   8   9
BRANCH   8  11
ATOM     11  C   LIG d   1      -0.832  78.815 119.928  0.00  0.00     0.028 C 
ATOM     12  C   LIG d   1       0.350  79.783 119.753  0.00  0.00     0.006 C 
ENDBRANCH   8  11
ENDBRANCH   7   8
ENDBRANCH   1   7
BRANCH   6  13
ATOM     13  N   LIG d   1       0.009  75.861 117.664  0.00  0.00    -0.311 N 
ATOM     14  C   LIG d   1      -0.149  75.124 118.762  0.00  0.00     0.210 C 
ATOM     15  C   LIG d   1       1.153  74.631 119.403  0.00  0.00     0.109 C 
ATOM     16  O   LIG d   1      -1.244  74.804 119.248  0.00  0.00    -0.276 OA
ATOM     17  H   LIG d   1       0.932  76.045 117.322  0.00  0.00     0.149 HD
ENDBRANCH   6  13
BRANCH   5  18
ATOM     18  N   LIG d   1      -2.140  74.250 116.209  0.00  0.00     0.381 N 
ATOM     19  H   LIG d   1      -2.831  74.409 116.915  0.00  0.00    -0.090 HD
ATOM     20  H   LIG d   1      -1.396  73.707 116.612  0.00  0.00    -0.090 HD
ATOM     21  H   LIG d   1      -2.544  73.757 115.443  0.00  0.00    -0.090 HD
ENDBRANCH   5  18
BRANCH   3  22
ATOM     22  C   LIG d   1      -2.896  78.063 113.412  0.00  0.00     0.382 C 
ATOM     23  O   LIG d   1      -2.965  79.304 113.239  0.00  0.00    -0.241 OA
ATOM     24  O   LIG d   1      -3.368  77.298 112.550  0.00  0.00    -0.241 OA
ENDBRANCH   3  22
TORSDOF 7
ENDMDL
MODEL 7
REMARK VINA RESULT:      -4.3      3.901      6.877
REMARK  7 active torsions:
REMARK  status: ('A' for Active; 'I' for Inactive)
REMARK    1  A    between atoms: C_2  and  C_3 
REMARK    2  A    between atoms: C_3  and  O_6 
REMARK    3  A    between atoms: C_3  and  C_4 
REMARK    4  A    between atoms: C_7  and  O_6 
REMARK    5  A    between atoms: C_9  and  C_10 
REMARK    6  A    between atoms: N_15  and  C_14 
REMARK    7  A    between atoms: N_20  and  C_19 
REMARK       I    between atoms: C_22  and  N_20 
ROOT
ATOM      1  C   LIG d   1      -0.292  80.145 111.211  0.00  0.00     0.161 C 
ATOM      2  C   LIG d   1      -1.399  79.333 110.914  0.00  0.00     0.016 C 
ATOM      3  C   LIG d   1      -2.167  78.674 111.901  0.00  0.00     0.038 C 
ATOM      4  C   LIG d   1      -1.971  78.906 113.270  0.00  0.00     0.028 C 
ATOM      5  C   LIG d   1      -0.546  79.322 113.616  0.00  0.00    -0.047 C 
ATOM      6  C   LIG d   1      -0.131  80.499 112.704  0.00  0.00     0.091 C 
ENDROOT
BRANCH   1   7
ATOM      7  O   LIG d   1      -0.338  81.346 110.414  0.00  0.00    -0.368 OA
BRANCH   7   8
ATOM      8  C   LIG d   1       0.714  81.499 109.430  0.00  0.00     0.119 C 
BRANCH   8   9
ATOM      9  C   LIG d   1       1.674  80.304 109.590  0.00  0.00     0.028 C 
ATOM     10  C   LIG d   1       3.130  80.747 109.815  0.00  0.00     0.006 C 
ENDBRANCH   8   9
BRANCH   8  11
ATOM     11  C   LIG d   1       1.563  82.742 109.712  0.00  0.00     0.028 C 
ATOM     12  C   LIG d   1       0.730  83.930 110.219  0.00  0.00     0.006 C 
ENDBRANCH   8  11
ENDBRANCH   7   8
ENDBRANCH   1   7
BRANCH   6  13
ATOM     13  N   LIG d   1       1.280  80.913 112.919  0.00  0.00    -0.311 N 
ATOM     14  C   LIG d   1       1.631  82.119 113.361  0.00  0.00     0.210 C 
ATOM     15  C   LIG d   1       3.140  82.345 113.494  0.00  0.00     0.109 C 
ATOM     16  O   LIG d   1       0.835  83.012 113.688  0.00  0.00    -0.276 OA
ATOM     17  H   LIG d   1       1.990  80.239 112.709  0.00  0.00     0.149 HD
ENDBRANCH   6  13
BRANCH   5  18
ATOM     18  N   LIG d   1      -0.517  79.664 115.051  0.00  0.00     0.381 N 
ATOM     19  H   LIG d   1      -0.532  80.658 115.162  0.00  0.00    -0.090 HD
ATOM     20  H   LIG d   1       0.336  79.314 115.452  0.00  0.00    -0.090 HD
ATOM     21  H   LIG d   1      -1.301  79.259 115.514  0.00  0.00    -0.090 HD
ENDBRANCH   5  18
BRANCH   3  22
ATOM     22  C   LIG d   1      -3.120  77.741 111.520  0.00  0.00     0.382 C 
ATOM     23  O   LIG d   1      -3.994  77.368 112.339  0.00  0.00    -0.241 OA
ATOM     24  O   LIG d   1      -3.088  77.234 110.383  0.00  0.00    -0.241 OA
ENDBRANCH   3  22
TORSDOF 7
ENDMDL
MODEL 8
REMARK VINA RESULT:      -4.2      2.563      3.536
REMARK  7 active torsions:
REMARK  status: ('A' for Active; 'I' for Inactive)
REMARK    1  A    between atoms: C_2  and  C_3 
REMARK    2  A    between atoms: C_3  and  O_6 
REMARK    3  A    between atoms: C_3  and  C_4 
REMARK    4  A    between atoms: C_7  and  O_6 
REMARK    5  A    between atoms: C_9  and  C_10 
REMARK    6  A    between atoms: N_15  and  C_14 
REMARK    7  A    between atoms: N_20  and  C_19 
REMARK       I    between atoms: C_22  and  N_20 
ROOT
ATOM      1  C   LIG d   1      -1.868  77.736 115.199  0.00  0.00     0.161 C 
ATOM      2  C   LIG d   1      -2.570  77.383 114.034  0.00  0.00     0.016 C 
ATOM      3  C   LIG d   1      -2.350  77.992 112.778  0.00  0.00     0.038 C 
ATOM      4  C   LIG d   1      -1.300  78.898 112.567  0.00  0.00     0.028 C 
ATOM      5  C   LIG d   1      -0.893  79.658 113.825  0.00  0.00    -0.047 C 
ATOM      6  C   LIG d   1      -0.642  78.644 114.964  0.00  0.00     0.091 C 
ENDROOT
BRANCH   1   7
ATOM      7  O   LIG d   1      -1.481  76.548 115.916  0.00  0.00    -0.368 OA
BRANCH   7   8
ATOM      8  C   LIG d   1      -2.213  76.273 117.136  0.00  0.00     0.119 C 
BRANCH   8   9
ATOM      9  C   LIG d   1      -2.945  77.568 117.538  0.00  0.00     0.028 C 
ATOM     10  C   LIG d   1      -2.582  78.029 118.960  0.00  0.00     0.006 C 
ENDBRANCH   8   9
BRANCH   8  11
ATOM     11  C   LIG d   1      -1.264  75.965 118.298  0.00  0.00     0.028 C 
ATOM     12  C   LIG d   1      -1.252  74.476 118.678  0.00  0.00     0.006 C 
ENDBRANCH   8  11
ENDBRANCH   7   8
ENDBRANCH   1   7
BRANCH   6  13
ATOM     13  N   LIG d   1      -0.322  79.309 116.254  0.00  0.00    -0.311 N 
ATOM     14  C   LIG d   1       0.592  78.850 117.108  0.00  0.00     0.210 C 
ATOM     15  C   LIG d   1       0.751  79.675 118.389  0.00  0.00     0.109 C 
ATOM     16  O   LIG d   1       1.307  77.856 116.913  0.00  0.00    -0.276 OA
ATOM     17  H   LIG d   1      -0.833  80.139 116.479  0.00  0.00     0.149 HD
ENDBRANCH   6  13
BRANCH   5  18
ATOM     18  N   LIG d   1       0.298  80.463 113.495  0.00  0.00     0.381 N 
ATOM     19  H   LIG d   1       0.793  80.695 114.332  0.00  0.00    -0.090 HD
ATOM     20  H   LIG d   1       0.001  81.318 113.057  0.00  0.00    -0.090 HD
ATOM     21  H   LIG d   1       0.893  79.955 112.878  0.00  0.00    -0.090 HD
ENDBRANCH   5  18
BRANCH   3  22
ATOM     22  C   LIG d   1      -3.211  77.726 111.724  0.00  0.00     0.382 C 
ATOM     23  O   LIG d   1      -4.440  77.590 111.939  0.00  0.00    -0.241 OA
ATOM     24  O   LIG d   1      -2.770  77.577 110.569  0.00  0.00    -0.241 OA
ENDBRANCH   3  22
TORSDOF 7
ENDMDL
MODEL 9
REMARK VINA RESULT:      -4.2      2.512      4.023
REMARK  7 active torsions:
REMARK  status: ('A' for Active; 'I' for Inactive)
REMARK    1  A    between atoms: C_2  and  C_3 
REMARK    2  A    between atoms: C_3  and  O_6 
REMARK    3  A    between atoms: C_3  and  C_4 
REMARK    4  A    between atoms: C_7  and  O_6 
REMARK    5  A    between atoms: C_9  and  C_10 
REMARK    6  A    between atoms: N_15  and  C_14 
REMARK    7  A    between atoms: N_20  and  C_19 
REMARK       I    between atoms: C_22  and  N_20 
ROOT
ATOM      1  C   LIG d   1      -2.465  77.119 115.719  0.00  0.00     0.161 C 
ATOM      2  C   LIG d   1      -2.731  77.187 114.341  0.00  0.00     0.016 C 
ATOM      3  C   LIG d   1      -2.051  78.059 113.460  0.00  0.00     0.038 C 
ATOM      4  C   LIG d   1      -0.946  78.818 113.874  0.00  0.00     0.028 C 
ATOM      5  C   LIG d   1      -0.967  79.158 115.360  0.00  0.00    -0.047 C 
ATOM      6  C   LIG d   1      -1.187  77.859 116.169  0.00  0.00     0.091 C 
ENDROOT
BRANCH   1   7
ATOM      7  O   LIG d   1      -2.420  75.741 116.140  0.00  0.00    -0.368 OA
BRANCH   7   8
ATOM      8  C   LIG d   1      -1.099  75.167 116.304  0.00  0.00     0.119 C 
BRANCH   8   9
ATOM      9  C   LIG d   1      -0.802  74.324 115.049  0.00  0.00     0.028 C 
ATOM     10  C   LIG d   1       0.481  74.775 114.330  0.00  0.00     0.006 C 
ENDBRANCH   8   9
BRANCH   8  11
ATOM     11  C   LIG d   1      -1.062  74.180 117.474  0.00  0.00     0.028 C 
ATOM     12  C   LIG d   1      -0.941  74.877 118.838  0.00  0.00     0.006 C 
ENDBRANCH   8  11
ENDBRANCH   7   8
ENDBRANCH   1   7
BRANCH   6  13
ATOM     13  N   LIG d   1      -1.305  78.112 117.628  0.00  0.00    -0.311 N 
ATOM     14  C   LIG d   1      -0.266  78.095 118.461  0.00  0.00     0.210 C 
ATOM     15  C   LIG d   1      -0.610  78.362 119.930  0.00  0.00     0.109 C 
ATOM     16  O   LIG d   1       0.913  77.914 118.119  0.00  0.00    -0.276 OA
ATOM     17  H   LIG d   1      -2.221  78.298 117.987  0.00  0.00     0.149 HD
ENDBRANCH   6  13
BRANCH   5  18
ATOM     18  N   LIG d   1       0.306  79.830 115.682  0.00  0.00     0.381 N 
ATOM     19  H   LIG d   1       0.524  79.698 116.649  0.00  0.00    -0.090 HD
ATOM     20  H   LIG d   1       0.205  80.815 115.512  0.00  0.00    -0.090 HD
ATOM     21  H   LIG d   1       1.039  79.461 115.116  0.00  0.00    -0.090 HD
ENDBRANCH   5  18
BRANCH   3  22
ATOM     22  C   LIG d   1      -2.501  78.207 112.157  0.00  0.00     0.382 C 
ATOM     23  O   LIG d   1      -3.395  77.447 111.712  0.00  0.00    -0.241 OA
ATOM     24  O   LIG d   1      -1.994  79.062 111.407  0.00  0.00    -0.241 OA
ENDBRANCH   3  22
TORSDOF 7
ENDMDL
