MODEL 1
REMARK VINA RESULT:      -4.9      0.000      0.000
REMARK  7 active torsions:
REMARK  status: ('A' for Active; 'I' for Inactive)
REMARK    1  A    between atoms: C_2  and  C_3 
REMARK    2  A    between atoms: C_3  and  O_6 
REMARK    3  A    between atoms: C_3  and  C_4 
REMARK    4  A    between atoms: C_7  and  O_6 
REMARK    5  A    between atoms: C_9  and  C_10 
REMARK    6  A    between atoms: N_15  and  C_14 
REMARK    7  A    between atoms: N_20  and  C_19 
REMARK       I    between atoms: C_22  and  N_20 
ROOT
ATOM      1  C   LIG d   1      -1.705  80.686 113.983  0.00  0.00     0.161 C 
ATOM      2  C   LIG d   1      -2.219  79.457 114.429  0.00  0.00     0.016 C 
ATOM      3  C   LIG d   1      -2.275  78.298 113.621  0.00  0.00     0.038 C 
ATOM      4  C   LIG d   1      -1.678  78.248 112.353  0.00  0.00     0.028 C 
ATOM      5  C   LIG d   1      -1.596  79.608 111.668  0.00  0.00    -0.047 C 
ATOM      6  C   LIG d   1      -0.947  80.621 112.640  0.00  0.00     0.091 C 
ENDROOT
BRANCH   1   7
ATOM      7  O   LIG d   1      -0.867  81.264 115.003  0.00  0.00    -0.368 OA
BRANCH   7   8
ATOM      8  C   LIG d   1      -0.108  80.329 115.810  0.00  0.00     0.119 C 
BRANCH   8   9
ATOM      9  C   LIG d   1      -0.148  80.834 117.265  0.00  0.00     0.028 C 
ATOM     10  C   LIG d   1      -1.565  81.241 117.705  0.00  0.00     0.006 C 
ENDBRANCH   8   9
BRANCH   8  11
ATOM     11  C   LIG d   1       1.373  80.332 115.420  0.00  0.00     0.028 C 
ATOM     12  C   LIG d   1       1.826  81.667 114.808  0.00  0.00     0.006 C 
ENDBRANCH   8  11
ENDBRANCH   7   8
ENDBRANCH   1   7
BRANCH   6  13
ATOM     13  N   LIG d   1      -0.905  81.997 112.080  0.00  0.00    -0.311 N 
ATOM     14  C   LIG d   1       0.134  82.481 111.403  0.00  0.00     0.210 C 
ATOM     15  C   LIG d   1      -0.021  83.930 110.930  0.00  0.00     0.109 C 
ATOM     16  O   LIG d   1       1.156  81.838 111.120  0.00  0.00    -0.276 OA
ATOM     17  H   LIG d   1      -1.706  82.577 112.236  0.00  0.00     0.149 HD
ENDBRANCH   6  13
BRANCH   5  18
ATOM     18  N   LIG d   1      -0.830  79.434 110.420  0.00  0.00     0.381 N 
ATOM     19  H   LIG d   1      -1.417  79.626 109.633  0.00  0.00    -0.090 HD
ATOM     20  H   LIG d   1      -0.523  78.479 110.358  0.00  0.00    -0.090 HD
ATOM     21  H   LIG d   1      -0.043  80.045 110.413  0.00  0.00    -0.090 HD
ENDBRANCH   5  18
BRANCH   3  22
ATOM     22  C   LIG d   1      -2.970  77.183 114.066  0.00  0.00     0.382 C 
ATOM     23  O   LIG d   1      -2.443  76.407 114.898  0.00  0.00    -0.241 OA
ATOM     24  O   LIG d   1      -4.100  76.921 113.612  0.00  0.00    -0.241 OA
ENDBRANCH   3  22
TORSDOF 7
ENDMDL
MODEL 2
REMARK VINA RESULT:      -4.9      2.212      5.120
REMARK  7 active torsions:
REMARK  status: ('A' for Active; 'I' for Inactive)
REMARK    1  A    between atoms: C_2  and  C_3 
REMARK    2  A    between atoms: C_3  and  O_6 
REMARK    3  A    between atoms: C_3  and  C_4 
REMARK    4  A    between atoms: C_7  and  O_6 
REMARK    5  A    between atoms: C_9  and  C_10 
REMARK    6  A    between atoms: N_15  and  C_14 
REMARK    7  A    between atoms: N_20  and  C_19 
REMARK       I    between atoms: C_22  and  N_20 
ROOT
ATOM      1  C   LIG d   1       0.720  81.271 113.667  0.00  0.00     0.161 C 
ATOM      2  C   LIG d   1       1.831  82.130 113.644  0.00  0.00     0.016 C 
ATOM      3  C   LIG d   1       2.323  82.734 112.465  0.00  0.00     0.038 C 
ATOM      4  C   LIG d   1       1.641  82.638 111.242  0.00  0.00     0.028 C 
ATOM      5  C   LIG d   1       0.800  81.372 111.115  0.00  0.00    -0.047 C 
ATOM      6  C   LIG d   1      -0.104  81.243 112.363  0.00  0.00     0.091 C 
ENDROOT
BRANCH   1   7
ATOM      7  O   LIG d   1      -0.127  81.597 114.787  0.00  0.00    -0.368 OA
BRANCH   7   8
ATOM      8  C   LIG d   1       0.054  80.793 115.979  0.00  0.00     0.119 C 
BRANCH   8   9
ATOM      9  C   LIG d   1      -1.047  79.715 115.982  0.00  0.00     0.028 C 
ATOM     10  C   LIG d   1      -2.454  80.314 116.139  0.00  0.00     0.006 C 
ENDBRANCH   8   9
BRANCH   8  11
ATOM     11  C   LIG d   1      -0.181  81.617 117.248  0.00  0.00     0.028 C 
ATOM     12  C   LIG d   1       0.760  82.827 117.356  0.00  0.00     0.006 C 
ENDBRANCH   8  11
ENDBRANCH   7   8
ENDBRANCH   1   7
BRANCH   6  13
ATOM     13  N   LIG d   1      -0.898  79.988 112.359  0.00  0.00    -0.311 N 
ATOM     14  C   LIG d   1      -2.226  79.960 112.469  0.00  0.00     0.210 C 
ATOM     15  C   LIG d   1      -2.845  78.559 112.463  0.00  0.00     0.109 C 
ATOM     16  O   LIG d   1      -2.951  80.963 112.539  0.00  0.00    -0.276 OA
ATOM     17  H   LIG d   1      -0.393  79.128 112.275  0.00  0.00     0.149 HD
ENDBRANCH   6  13
BRANCH   5  18
ATOM     18  N   LIG d   1       0.038  81.468 109.856  0.00  0.00     0.381 N 
ATOM     19  H   LIG d   1      -0.131  82.429 109.635  0.00  0.00    -0.090 HD
ATOM     20  H   LIG d   1      -0.849  81.011 109.977  0.00  0.00    -0.090 HD
ATOM     21  H   LIG d   1       0.545  81.034 109.117  0.00  0.00    -0.090 HD
ENDBRANCH   5  18
BRANCH   3  22
ATOM     22  C   LIG d   1       3.533  83.411 112.492  0.00  0.00     0.382 C 
ATOM     23  O   LIG d   1       3.595  84.564 112.984  0.00  0.00    -0.241 OA
ATOM     24  O   LIG d   1       4.554  82.901 111.992  0.00  0.00    -0.241 OA
ENDBRANCH   3  22
TORSDOF 7
ENDMDL
MODEL 3
REMARK VINA RESULT:      -4.7      1.979      5.113
REMARK  7 active torsions:
REMARK  status: ('A' for Active; 'I' for Inactive)
REMARK    1  A    between atoms: C_2  and  C_3 
REMARK    2  A    between atoms: C_3  and  O_6 
REMARK    3  A    between atoms: C_3  and  C_4 
REMARK    4  A    between atoms: C_7  and  O_6 
REMARK    5  A    between atoms: C_9  and  C_10 
REMARK    6  A    between atoms: N_15  and  C_14 
REMARK    7  A    between atoms: N_20  and  C_19 
REMARK       I    between atoms: C_22  and  N_20 
ROOT
ATOM      1  C   LIG d   1      -2.156  80.174 114.519  0.00  0.00     0.161 C 
ATOM      2  C   LIG d   1      -1.618  81.246 113.788  0.00  0.00     0.016 C 
ATOM      3  C   LIG d   1      -1.117  81.118 112.472  0.00  0.00     0.038 C 
ATOM      4  C   LIG d   1      -1.260  79.931 111.737  0.00  0.00     0.028 C 
ATOM      5  C   LIG d   1      -1.340  78.684 112.610  0.00  0.00    -0.047 C 
ATOM      6  C   LIG d   1      -2.422  78.898 113.693  0.00  0.00     0.091 C 
ENDROOT
BRANCH   1   7
ATOM      7  O   LIG d   1      -3.360  80.596 115.190  0.00  0.00    -0.368 OA
BRANCH   7   8
ATOM      8  C   LIG d   1      -3.291  80.667 116.636  0.00  0.00     0.119 C 
BRANCH   8   9
ATOM      9  C   LIG d   1      -1.846  80.326 117.048  0.00  0.00     0.028 C 
ATOM     10  C   LIG d   1      -1.156  81.487 117.784  0.00  0.00     0.006 C 
ENDBRANCH   8   9
BRANCH   8  11
ATOM     11  C   LIG d   1      -4.164  79.591 117.289  0.00  0.00     0.028 C 
ATOM     12  C   LIG d   1      -3.346  78.570 118.095  0.00  0.00     0.006 C 
ENDBRANCH   8  11
ENDBRANCH   7   8
ENDBRANCH   1   7
BRANCH   6  13
ATOM     13  N   LIG d   1      -2.507  77.758 114.643  0.00  0.00    -0.311 N 
ATOM     14  C   LIG d   1      -3.421  76.793 114.550  0.00  0.00     0.210 C 
ATOM     15  C   LIG d   1      -3.344  75.723 115.643  0.00  0.00     0.109 C 
ATOM     16  O   LIG d   1      -4.267  76.705 113.647  0.00  0.00    -0.276 OA
ATOM     17  H   LIG d   1      -1.839  77.734 115.388  0.00  0.00     0.149 HD
ENDBRANCH   6  13
BRANCH   5  18
ATOM     18  N   LIG d   1      -1.626  77.538 111.726  0.00  0.00     0.381 N 
ATOM     19  H   LIG d   1      -1.644  77.842 110.773  0.00  0.00    -0.090 HD
ATOM     20  H   LIG d   1      -2.531  77.168 111.956  0.00  0.00    -0.090 HD
ATOM     21  H   LIG d   1      -0.931  76.834 111.844  0.00  0.00    -0.090 HD
ENDBRANCH   5  18
BRANCH   3  22
ATOM     22  C   LIG d   1      -0.428  82.172 111.893  0.00  0.00     0.382 C 
ATOM     23  O   LIG d   1       0.811  82.089 111.712  0.00  0.00    -0.241 OA
ATOM     24  O   LIG d   1      -1.023  83.224 111.589  0.00  0.00    -0.241 OA
ENDBRANCH   3  22
TORSDOF 7
ENDMDL
MODEL 4
REMARK VINA RESULT:      -4.5      2.811      5.011
REMARK  7 active torsions:
REMARK  status: ('A' for Active; 'I' for Inactive)
REMARK    1  A    between atoms: C_2  and  C_3 
REMARK    2  A    between atoms: C_3  and  O_6 
REMARK    3  A    between atoms: C_3  and  C_4 
REMARK    4  A    between atoms: C_7  and  O_6 
REMARK    5  A    between atoms: C_9  and  C_10 
REMARK    6  A    between atoms: N_15  and  C_14 
REMARK    7  A    between atoms: N_20  and  C_19 
REMARK       I    between atoms: C_22  and  N_20 
ROOT
ATOM      1  C   LIG d   1       0.144  79.987 115.288  0.00  0.00     0.161 C 
ATOM      2  C   LIG d   1      -0.475  80.969 114.497  0.00  0.00     0.016 C 
ATOM      3  C   LIG d   1      -1.648  80.736 113.743  0.00  0.00     0.038 C 
ATOM      4  C   LIG d   1      -2.372  79.540 113.851  0.00  0.00     0.028 C 
ATOM      5  C   LIG d   1      -1.512  78.344 114.246  0.00  0.00    -0.047 C 
ATOM      6  C   LIG d   1      -0.694  78.710 115.505  0.00  0.00     0.091 C 
ENDROOT
BRANCH   1   7
ATOM      7  O   LIG d   1       0.531  80.554 116.556  0.00  0.00    -0.368 OA
BRANCH   7   8
ATOM      8  C   LIG d   1      -0.313  81.617 117.063  0.00  0.00     0.119 C 
BRANCH   8   9
ATOM      9  C   LIG d   1       0.603  82.646 117.754  0.00  0.00     0.028 C 
ATOM     10  C   LIG d   1      -0.190  83.781 118.423  0.00  0.00     0.006 C 
ENDBRANCH   8   9
BRANCH   8  11
ATOM     11  C   LIG d   1      -1.251  81.107 118.161  0.00  0.00     0.028 C 
ATOM     12  C   LIG d   1      -2.719  81.042 117.709  0.00  0.00     0.006 C 
ENDBRANCH   8  11
ENDBRANCH   7   8
ENDBRANCH   1   7
BRANCH   6  13
ATOM     13  N   LIG d   1       0.238  77.625 115.911  0.00  0.00    -0.311 N 
ATOM     14  C   LIG d   1       0.273  77.110 117.138  0.00  0.00     0.210 C 
ATOM     15  C   LIG d   1       1.322  76.013 117.350  0.00  0.00     0.109 C 
ATOM     16  O   LIG d   1      -0.486  77.434 118.064  0.00  0.00    -0.276 OA
ATOM     17  H   LIG d   1       0.868  77.280 115.213  0.00  0.00     0.149 HD
ENDBRANCH   6  13
BRANCH   5  18
ATOM     18  N   LIG d   1      -2.414  77.196 114.456  0.00  0.00     0.381 N 
ATOM     19  H   LIG d   1      -2.273  76.518 113.735  0.00  0.00    -0.090 HD
ATOM     20  H   LIG d   1      -3.366  77.517 114.405  0.00  0.00    -0.090 HD
ATOM     21  H   LIG d   1      -2.242  76.785 115.347  0.00  0.00    -0.090 HD
ENDBRANCH   5  18
BRANCH   3  22
ATOM     22  C   LIG d   1      -2.086  81.693 112.840  0.00  0.00     0.382 C 
ATOM     23  O   LIG d   1      -3.272  81.672 112.431  0.00  0.00    -0.241 OA
ATOM     24  O   LIG d   1      -1.298  82.549 112.395  0.00  0.00    -0.241 OA
ENDBRANCH   3  22
TORSDOF 7
ENDMDL
MODEL 5
REMARK VINA RESULT:      -4.5      1.688      1.981
REMARK  7 active torsions:
REMARK  status: ('A' for Active; 'I' for Inactive)
REMARK    1  A    between atoms: C_2  and  C_3 
REMARK    2  A    between atoms: C_3  and  O_6 
REMARK    3  A    between atoms: C_3  and  C_4 
REMARK    4  A    between atoms: C_7  and  O_6 
REMARK    5  A    between atoms: C_9  and  C_10 
REMARK    6  A    between atoms: N_15  and  C_14 
REMARK    7  A    between atoms: N_20  and  C_19 
REMARK       I    between atoms: C_22  and  N_20 
ROOT
ATOM      1  C   LIG d   1      -1.035  81.261 113.165  0.00  0.00     0.161 C 
ATOM      2  C   LIG d   1      -1.897  80.164 112.998  0.00  0.00     0.016 C 
ATOM      3  C   LIG d   1      -1.819  79.272 111.904  0.00  0.00     0.038 C 
ATOM      4  C   LIG d   1      -0.770  79.329 110.974  0.00  0.00     0.028 C 
ATOM      5  C   LIG d   1      -0.172  80.724 110.820  0.00  0.00    -0.047 C 
ATOM      6  C   LIG d   1       0.185  81.274 112.220  0.00  0.00     0.091 C 
ENDROOT
BRANCH   1   7
ATOM      7  O   LIG d   1      -0.606  81.341 114.538  0.00  0.00    -0.368 OA
BRANCH   7   8
ATOM      8  C   LIG d   1      -0.714  80.121 115.312  0.00  0.00     0.119 C 
BRANCH   8   9
ATOM      9  C   LIG d   1      -1.350  80.487 116.667  0.00  0.00     0.028 C 
ATOM     10  C   LIG d   1      -2.887  80.504 116.608  0.00  0.00     0.006 C 
ENDBRANCH   8   9
BRANCH   8  11
ATOM     11  C   LIG d   1       0.667  79.553 115.653  0.00  0.00     0.028 C 
ATOM     12  C   LIG d   1       1.802  80.559 115.406  0.00  0.00     0.006 C 
ENDBRANCH   8  11
ENDBRANCH   7   8
ENDBRANCH   1   7
BRANCH   6  13
ATOM     13  N   LIG d   1       0.697  82.668 112.167  0.00  0.00    -0.311 N 
ATOM     14  C   LIG d   1       1.993  82.974 112.191  0.00  0.00     0.210 C 
ATOM     15  C   LIG d   1       2.305  84.473 112.148  0.00  0.00     0.109 C 
ATOM     16  O   LIG d   1       2.916  82.145 112.213  0.00  0.00    -0.276 OA
ATOM     17  H   LIG d   1       0.018  83.402 112.117  0.00  0.00     0.149 HD
ENDBRANCH   6  13
BRANCH   5  18
ATOM     18  N   LIG d   1       0.996  80.612 109.927  0.00  0.00     0.381 N 
ATOM     19  H   LIG d   1       0.719  80.786 108.982  0.00  0.00    -0.090 HD
ATOM     20  H   LIG d   1       1.359  79.677 109.982  0.00  0.00    -0.090 HD
ATOM     21  H   LIG d   1       1.698  81.265 110.200  0.00  0.00    -0.090 HD
ENDBRANCH   5  18
BRANCH   3  22
ATOM     22  C   LIG d   1      -2.821  78.333 111.709  0.00  0.00     0.382 C 
ATOM     23  O   LIG d   1      -3.685  78.146 112.599  0.00  0.00    -0.241 OA
ATOM     24  O   LIG d   1      -2.845  77.641 110.674  0.00  0.00    -0.241 OA
ENDBRANCH   3  22
TORSDOF 7
ENDMDL
MODEL 6
REMARK VINA RESULT:      -4.5      2.229      3.003
REMARK  7 active torsions:
REMARK  status: ('A' for Active; 'I' for Inactive)
REMARK    1  A    between atoms: C_2  and  C_3 
REMARK    2  A    between atoms: C_3  and  O_6 
REMARK    3  A    between atoms: C_3  and  C_4 
REMARK    4  A    between atoms: C_7  and  O_6 
REMARK    5  A    between atoms: C_9  and  C_10 
REMARK    6  A    between atoms: N_15  and  C_14 
REMARK    7  A    between atoms: N_20  and  C_19 
REMARK       I    between atoms: C_22  and  N_20 
ROOT
ATOM      1  C   LIG d   1       0.940  81.613 113.048  0.00  0.00     0.161 C 
ATOM      2  C   LIG d   1      -0.230  81.084 113.620  0.00  0.00     0.016 C 
ATOM      3  C   LIG d   1      -1.224  80.409 112.875  0.00  0.00     0.038 C 
ATOM      4  C   LIG d   1      -1.043  80.082 111.523  0.00  0.00     0.028 C 
ATOM      5  C   LIG d   1      -0.106  81.035 110.789  0.00  0.00    -0.047 C 
ATOM      6  C   LIG d   1       1.206  81.168 111.594  0.00  0.00     0.091 C 
ENDROOT
BRANCH   1   7
ATOM      7  O   LIG d   1       2.074  81.305 113.882  0.00  0.00    -0.368 OA
BRANCH   7   8
ATOM      8  C   LIG d   1       1.834  81.309 115.311  0.00  0.00     0.119 C 
BRANCH   8   9
ATOM      9  C   LIG d   1       2.658  82.462 115.916  0.00  0.00     0.028 C 
ATOM     10  C   LIG d   1       1.870  83.255 116.972  0.00  0.00     0.006 C 
ENDBRANCH   8   9
BRANCH   8  11
ATOM     11  C   LIG d   1       2.373  80.036 115.970  0.00  0.00     0.028 C 
ATOM     12  C   LIG d   1       1.258  79.070 116.403  0.00  0.00     0.006 C 
ENDBRANCH   8  11
ENDBRANCH   7   8
ENDBRANCH   1   7
BRANCH   6  13
ATOM     13  N   LIG d   1       2.146  82.148 110.990  0.00  0.00    -0.311 N 
ATOM     14  C   LIG d   1       3.120  81.807 110.148  0.00  0.00     0.210 C 
ATOM     15  C   LIG d   1       3.988  82.970 109.657  0.00  0.00     0.109 C 
ATOM     16  O   LIG d   1       3.328  80.655 109.737  0.00  0.00    -0.276 OA
ATOM     17  H   LIG d   1       2.029  83.109 111.245  0.00  0.00     0.149 HD
ENDBRANCH   6  13
BRANCH   5  18
ATOM     18  N   LIG d   1       0.101  80.499 109.431  0.00  0.00     0.381 N 
ATOM     19  H   LIG d   1       1.070  80.291 109.292  0.00  0.00    -0.090 HD
ATOM     20  H   LIG d   1      -0.171  81.197 108.761  0.00  0.00    -0.090 HD
ATOM     21  H   LIG d   1      -0.444  79.675 109.302  0.00  0.00    -0.090 HD
ENDBRANCH   5  18
BRANCH   3  22
ATOM     22  C   LIG d   1      -2.433  80.089 113.474  0.00  0.00     0.382 C 
ATOM     23  O   LIG d   1      -3.070  79.075 113.098  0.00  0.00    -0.241 OA
ATOM     24  O   LIG d   1      -2.916  80.825 114.355  0.00  0.00    -0.241 OA
ENDBRANCH   3  22
TORSDOF 7
ENDMDL
MODEL 7
REMARK VINA RESULT:      -4.4      2.185      2.942
REMARK  7 active torsions:
REMARK  status: ('A' for Active; 'I' for Inactive)
REMARK    1  A    between atoms: C_2  and  C_3 
REMARK    2  A    between atoms: C_3  and  O_6 
REMARK    3  A    between atoms: C_3  and  C_4 
REMARK    4  A    between atoms: C_7  and  O_6 
REMARK    5  A    between atoms: C_9  and  C_10 
REMARK    6  A    between atoms: N_15  and  C_14 
REMARK    7  A    between atoms: N_20  and  C_19 
REMARK       I    between atoms: C_22  and  N_20 
ROOT
ATOM      1  C   LIG d   1       0.794  81.316 114.253  0.00  0.00     0.161 C 
ATOM      2  C   LIG d   1      -0.324  80.506 114.513  0.00  0.00     0.016 C 
ATOM      3  C   LIG d   1      -1.349  80.267 113.569  0.00  0.00     0.038 C 
ATOM      4  C   LIG d   1      -1.248  80.704 112.240  0.00  0.00     0.028 C 
ATOM      5  C   LIG d   1      -0.383  81.949 112.075  0.00  0.00    -0.047 C 
ATOM      6  C   LIG d   1       0.976  81.711 112.773  0.00  0.00     0.091 C 
ENDROOT
BRANCH   1   7
ATOM      7  O   LIG d   1       1.986  80.679 114.752  0.00  0.00    -0.368 OA
BRANCH   7   8
ATOM      8  C   LIG d   1       2.585  81.278 115.927  0.00  0.00     0.119 C 
BRANCH   8   9
ATOM      9  C   LIG d   1       2.377  80.302 117.102  0.00  0.00     0.028 C 
ATOM     10  C   LIG d   1       3.026  78.932 116.849  0.00  0.00     0.006 C 
ENDBRANCH   8   9
BRANCH   8  11
ATOM     11  C   LIG d   1       1.855  82.562 116.332  0.00  0.00     0.028 C 
ATOM     12  C   LIG d   1       2.727  83.818 116.174  0.00  0.00     0.006 C 
ENDBRANCH   8  11
ENDBRANCH   7   8
ENDBRANCH   1   7
BRANCH   6  13
ATOM     13  N   LIG d   1       1.852  82.911 112.732  0.00  0.00    -0.311 N 
ATOM     14  C   LIG d   1       3.109  82.886 112.292  0.00  0.00     0.210 C 
ATOM     15  C   LIG d   1       3.843  84.229 112.353  0.00  0.00     0.109 C 
ATOM     16  O   LIG d   1       3.676  81.885 111.826  0.00  0.00    -0.276 OA
ATOM     17  H   LIG d   1       1.462  83.772 113.061  0.00  0.00     0.149 HD
ENDBRANCH   6  13
BRANCH   5  18
ATOM     18  N   LIG d   1      -0.252  82.213 110.630  0.00  0.00     0.381 N 
ATOM     19  H   LIG d   1       0.105  83.136 110.485  0.00  0.00    -0.090 HD
ATOM     20  H   LIG d   1      -1.161  82.156 110.205  0.00  0.00    -0.090 HD
ATOM     21  H   LIG d   1       0.359  81.544 110.215  0.00  0.00    -0.090 HD
ENDBRANCH   5  18
BRANCH   3  22
ATOM     22  C   LIG d   1      -2.509  79.618 113.963  0.00  0.00     0.382 C 
ATOM     23  O   LIG d   1      -3.156  80.037 114.953  0.00  0.00    -0.241 OA
ATOM     24  O   LIG d   1      -2.892  78.593 113.369  0.00  0.00    -0.241 OA
ENDBRANCH   3  22
TORSDOF 7
ENDMDL
MODEL 8
REMARK VINA RESULT:      -4.3      2.324      5.652
REMARK  7 active torsions:
REMARK  status: ('A' for Active; 'I' for Inactive)
REMARK    1  A    between atoms: C_2  and  C_3 
REMARK    2  A    between atoms: C_3  and  O_6 
REMARK    3  A    between atoms: C_3  and  C_4 
REMARK    4  A    between atoms: C_7  and  O_6 
REMARK    5  A    between atoms: C_9  and  C_10 
REMARK    6  A    between atoms: N_15  and  C_14 
REMARK    7  A    between atoms: N_20  and  C_19 
REMARK       I    between atoms: C_22  and  N_20 
ROOT
ATOM      1  C   LIG d   1      -1.843  80.571 114.492  0.00  0.00     0.161 C 
ATOM      2  C   LIG d   1      -1.726  81.280 113.284  0.00  0.00     0.016 C 
ATOM      3  C   LIG d   1      -0.485  81.592 112.683  0.00  0.00     0.038 C 
ATOM      4  C   LIG d   1       0.726  81.081 113.173  0.00  0.00     0.028 C 
ATOM      5  C   LIG d   1       0.697  80.784 114.668  0.00  0.00    -0.047 C 
ATOM      6  C   LIG d   1      -0.539  79.910 114.983  0.00  0.00     0.091 C 
ENDROOT
BRANCH   1   7
ATOM      7  O   LIG d   1      -2.892  79.589 114.381  0.00  0.00    -0.368 OA
BRANCH   7   8
ATOM      8  C   LIG d   1      -2.506  78.302 113.841  0.00  0.00     0.119 C 
BRANCH   8   9
ATOM      9  C   LIG d   1      -3.144  78.175 112.444  0.00  0.00     0.028 C 
ATOM     10  C   LIG d   1      -2.105  78.263 111.314  0.00  0.00     0.006 C 
ENDBRANCH   8   9
BRANCH   8  11
ATOM     11  C   LIG d   1      -3.097  77.152 114.662  0.00  0.00     0.028 C 
ATOM     12  C   LIG d   1      -3.657  77.615 116.017  0.00  0.00     0.006 C 
ENDBRANCH   8  11
ENDBRANCH   7   8
ENDBRANCH   1   7
BRANCH   6  13
ATOM     13  N   LIG d   1      -0.689  79.643 116.437  0.00  0.00    -0.311 N 
ATOM     14  C   LIG d   1      -0.241  78.538 117.030  0.00  0.00     0.210 C 
ATOM     15  C   LIG d   1      -0.518  78.454 118.534  0.00  0.00     0.109 C 
ATOM     16  O   LIG d   1       0.389  77.635 116.459  0.00  0.00    -0.276 OA
ATOM     17  H   LIG d   1      -1.161  80.338 116.982  0.00  0.00     0.149 HD
ENDBRANCH   6  13
BRANCH   5  18
ATOM     18  N   LIG d   1       1.972  80.129 115.018  0.00  0.00     0.381 N 
ATOM     19  H   LIG d   1       2.737  80.725 114.771  0.00  0.00    -0.090 HD
ATOM     20  H   LIG d   1       2.054  79.276 114.493  0.00  0.00    -0.090 HD
ATOM     21  H   LIG d   1       1.997  79.932 115.994  0.00  0.00    -0.090 HD
ENDBRANCH   5  18
BRANCH   3  22
ATOM     22  C   LIG d   1      -0.444  82.457 111.600  0.00  0.00     0.382 C 
ATOM     23  O   LIG d   1      -0.045  82.046 110.484  0.00  0.00    -0.241 OA
ATOM     24  O   LIG d   1      -0.759  83.654 111.735  0.00  0.00    -0.241 OA
ENDBRANCH   3  22
TORSDOF 7
ENDMDL
MODEL 9
REMARK VINA RESULT:      -4.2      1.404      2.229
REMARK  7 active torsions:
REMARK  status: ('A' for Active; 'I' for Inactive)
REMARK    1  A    between atoms: C_2  and  C_3 
REMARK    2  A    between atoms: C_3  and  O_6 
REMARK    3  A    between atoms: C_3  and  C_4 
REMARK    4  A    between atoms: C_7  and  O_6 
REMARK    5  A    between atoms: C_9  and  C_10 
REMARK    6  A    between atoms: N_15  and  C_14 
REMARK    7  A    between atoms: N_20  and  C_19 
REMARK       I    between atoms: C_22  and  N_20 
ROOT
ATOM      1  C   LIG d   1      -0.783  80.635 113.920  0.00  0.00     0.161 C 
ATOM      2  C   LIG d   1      -1.706  79.576 113.946  0.00  0.00     0.016 C 
ATOM      3  C   LIG d   1      -2.081  78.842 112.797  0.00  0.00     0.038 C 
ATOM      4  C   LIG d   1      -1.441  79.022 111.562  0.00  0.00     0.028 C 
ATOM      5  C   LIG d   1      -0.865  80.421 111.375  0.00  0.00    -0.047 C 
ATOM      6  C   LIG d   1       0.007  80.772 112.603  0.00  0.00     0.091 C 
ENDROOT
BRANCH   1   7
ATOM      7  O   LIG d   1       0.120  80.524 115.038  0.00  0.00    -0.368 OA
BRANCH   7   8
ATOM      8  C   LIG d   1      -0.143  81.401 116.161  0.00  0.00     0.119 C 
BRANCH   8   9
ATOM      9  C   LIG d   1       1.195  82.046 116.568  0.00  0.00     0.028 C 
ATOM     10  C   LIG d   1       2.409  81.256 116.050  0.00  0.00     0.006 C 
ENDBRANCH   8   9
BRANCH   8  11
ATOM     11  C   LIG d   1      -0.603  80.610 117.389  0.00  0.00     0.028 C 
ATOM     12  C   LIG d   1      -1.938  81.116 117.958  0.00  0.00     0.006 C 
ENDBRANCH   8  11
ENDBRANCH   7   8
ENDBRANCH   1   7
BRANCH   6  13
ATOM     13  N   LIG d   1       0.542  82.157 112.541  0.00  0.00    -0.311 N 
ATOM     14  C   LIG d   1       1.843  82.440 112.514  0.00  0.00     0.210 C 
ATOM     15  C   LIG d   1       2.179  83.934 112.470  0.00  0.00     0.109 C 
ATOM     16  O   LIG d   1       2.751  81.595 112.489  0.00  0.00    -0.276 OA
ATOM     17  H   LIG d   1      -0.125  82.903 112.525  0.00  0.00     0.149 HD
ENDBRANCH   6  13
BRANCH   5  18
ATOM     18  N   LIG d   1      -0.109  80.427 110.108  0.00  0.00     0.381 N 
ATOM     19  H   LIG d   1       0.132  81.366 109.862  0.00  0.00    -0.090 HD
ATOM     20  H   LIG d   1      -0.691  80.050 109.381  0.00  0.00    -0.090 HD
ATOM     21  H   LIG d   1       0.717  79.878 110.202  0.00  0.00    -0.090 HD
ENDBRANCH   5  18
BRANCH   3  22
ATOM     22  C   LIG d   1      -3.135  77.945 112.869  0.00  0.00     0.382 C 
ATOM     23  O   LIG d   1      -4.144  78.103 112.140  0.00  0.00    -0.241 OA
ATOM     24  O   LIG d   1      -3.110  77.004 113.685  0.00  0.00    -0.241 OA
ENDBRANCH   3  22
TORSDOF 7
ENDMDL
