MODEL 1
REMARK VINA RESULT:      -5.1      0.000      0.000
REMARK  7 active torsions:
REMARK  status: ('A' for Active; 'I' for Inactive)
REMARK    1  A    between atoms: C_2  and  C_3 
REMARK    2  A    between atoms: C_3  and  O_6 
REMARK    3  A    between atoms: C_3  and  C_4 
REMARK    4  A    between atoms: C_7  and  O_6 
REMARK    5  A    between atoms: C_9  and  C_10 
REMARK    6  A    between atoms: N_15  and  C_14 
REMARK    7  A    between atoms: N_20  and  C_19 
REMARK       I    between atoms: C_22  and  N_20 
ROOT
ATOM      1  C   LIG d   1       0.501  80.250 111.241  0.00  0.00     0.161 C 
ATOM      2  C   LIG d   1      -0.722  79.658 110.885  0.00  0.00     0.016 C 
ATOM      3  C   LIG d   1      -1.607  79.076 111.821  0.00  0.00     0.038 C 
ATOM      4  C   LIG d   1      -1.397  79.182 113.204  0.00  0.00     0.028 C 
ATOM      5  C   LIG d   1       0.072  79.328 113.585  0.00  0.00    -0.047 C 
ATOM      6  C   LIG d   1       0.694  80.474 112.756  0.00  0.00     0.091 C 
ENDROOT
BRANCH   1   7
ATOM      7  O   LIG d   1       0.670  81.490 110.526  0.00  0.00    -0.368 OA
BRANCH   7   8
ATOM      8  C   LIG d   1       1.617  81.470 109.430  0.00  0.00     0.119 C 
BRANCH   8   9
ATOM      9  C   LIG d   1       2.518  80.234 109.619  0.00  0.00     0.028 C 
ATOM     10  C   LIG d   1       4.001  80.608 109.782  0.00  0.00     0.006 C 
ENDBRANCH   8   9
BRANCH   8  11
ATOM     11  C   LIG d   1       2.563  82.673 109.488  0.00  0.00     0.028 C 
ATOM     12  C   LIG d   1       1.828  83.996 109.761  0.00  0.00     0.006 C 
ENDBRANCH   8  11
ENDBRANCH   7   8
ENDBRANCH   1   7
BRANCH   6  13
ATOM     13  N   LIG d   1       2.151  80.629 113.005  0.00  0.00    -0.311 N 
ATOM     14  C   LIG d   1       2.750  81.810 113.141  0.00  0.00     0.210 C 
ATOM     15  C   LIG d   1       4.263  81.745 113.373  0.00  0.00     0.109 C 
ATOM     16  O   LIG d   1       2.167  82.905 113.124  0.00  0.00    -0.276 OA
ATOM     17  H   LIG d   1       2.695  79.790 113.065  0.00  0.00     0.149 HD
ENDBRANCH   6  13
BRANCH   5  18
ATOM     18  N   LIG d   1       0.134  79.566 115.039  0.00  0.00     0.381 N 
ATOM     19  H   LIG d   1      -0.792  79.606 115.416  0.00  0.00    -0.090 HD
ATOM     20  H   LIG d   1       0.581  80.451 115.205  0.00  0.00    -0.090 HD
ATOM     21  H   LIG d   1       0.650  78.838 115.483  0.00  0.00    -0.090 HD
ENDBRANCH   5  18
BRANCH   3  22
ATOM     22  C   LIG d   1      -2.696  78.344 111.375  0.00  0.00     0.382 C 
ATOM     23  O   LIG d   1      -2.708  77.887 110.206  0.00  0.00    -0.241 OA
ATOM     24  O   LIG d   1      -3.686  78.171 112.111  0.00  0.00    -0.241 OA
ENDBRANCH   3  22
TORSDOF 7
ENDMDL
MODEL 2
REMARK VINA RESULT:      -5.0      0.917      1.768
REMARK  7 active torsions:
REMARK  status: ('A' for Active; 'I' for Inactive)
REMARK    1  A    between atoms: C_2  and  C_3 
REMARK    2  A    between atoms: C_3  and  O_6 
REMARK    3  A    between atoms: C_3  and  C_4 
REMARK    4  A    between atoms: C_7  and  O_6 
REMARK    5  A    between atoms: C_9  and  C_10 
REMARK    6  A    between atoms: N_15  and  C_14 
REMARK    7  A    between atoms: N_20  and  C_19 
REMARK       I    between atoms: C_22  and  N_20 
ROOT
ATOM      1  C   LIG d   1       0.329  80.052 111.669  0.00  0.00     0.161 C 
ATOM      2  C   LIG d   1      -0.882  79.511 111.206  0.00  0.00     0.016 C 
ATOM      3  C   LIG d   1      -1.829  78.888 112.051  0.00  0.00     0.038 C 
ATOM      4  C   LIG d   1      -1.696  78.897 113.448  0.00  0.00     0.028 C 
ATOM      5  C   LIG d   1      -0.248  78.985 113.918  0.00  0.00    -0.047 C 
ATOM      6  C   LIG d   1       0.441  80.170 113.203  0.00  0.00     0.091 C 
ENDROOT
BRANCH   1   7
ATOM      7  O   LIG d   1       0.561  81.332 111.049  0.00  0.00    -0.368 OA
BRANCH   7   8
ATOM      8  C   LIG d   1       1.903  81.569 110.558  0.00  0.00     0.119 C 
BRANCH   8   9
ATOM      9  C   LIG d   1       1.806  82.617 109.432  0.00  0.00     0.028 C 
ATOM     10  C   LIG d   1       2.020  84.051 109.946  0.00  0.00     0.006 C 
ENDBRANCH   8   9
BRANCH   8  11
ATOM     11  C   LIG d   1       2.483  80.316 109.895  0.00  0.00     0.028 C 
ATOM     12  C   LIG d   1       4.017  80.254 109.978  0.00  0.00     0.006 C 
ENDBRANCH   8  11
ENDBRANCH   7   8
ENDBRANCH   1   7
BRANCH   6  13
ATOM     13  N   LIG d   1       1.884  80.276 113.542  0.00  0.00    -0.311 N 
ATOM     14  C   LIG d   1       2.351  81.037 114.531  0.00  0.00     0.210 C 
ATOM     15  C   LIG d   1       3.873  81.017 114.698  0.00  0.00     0.109 C 
ATOM     16  O   LIG d   1       1.646  81.702 115.305  0.00  0.00    -0.276 OA
ATOM     17  H   LIG d   1       2.524  79.745 112.984  0.00  0.00     0.149 HD
ENDBRANCH   6  13
BRANCH   5  18
ATOM     18  N   LIG d   1      -0.263  79.125 115.386  0.00  0.00     0.381 N 
ATOM     19  H   LIG d   1       0.674  79.186 115.731  0.00  0.00    -0.090 HD
ATOM     20  H   LIG d   1      -0.694  78.310 115.786  0.00  0.00    -0.090 HD
ATOM     21  H   LIG d   1      -0.774  79.940 115.645  0.00  0.00    -0.090 HD
ENDBRANCH   5  18
BRANCH   3  22
ATOM     22  C   LIG d   1      -2.904  78.211 111.497  0.00  0.00     0.382 C 
ATOM     23  O   LIG d   1      -2.890  77.900 110.281  0.00  0.00    -0.241 OA
ATOM     24  O   LIG d   1      -3.908  77.946 112.186  0.00  0.00    -0.241 OA
ENDBRANCH   3  22
TORSDOF 7
ENDMDL
MODEL 3
REMARK VINA RESULT:      -4.9      2.418      5.210
REMARK  7 active torsions:
REMARK  status: ('A' for Active; 'I' for Inactive)
REMARK    1  A    between atoms: C_2  and  C_3 
REMARK    2  A    between atoms: C_3  and  O_6 
REMARK    3  A    between atoms: C_3  and  C_4 
REMARK    4  A    between atoms: C_7  and  O_6 
REMARK    5  A    between atoms: C_9  and  C_10 
REMARK    6  A    between atoms: N_15  and  C_14 
REMARK    7  A    between atoms: N_20  and  C_19 
REMARK       I    between atoms: C_22  and  N_20 
ROOT
ATOM      1  C   LIG d   1       1.052  81.248 112.684  0.00  0.00     0.161 C 
ATOM      2  C   LIG d   1       2.099  81.643 111.835  0.00  0.00     0.016 C 
ATOM      3  C   LIG d   1       2.167  81.291 110.467  0.00  0.00     0.038 C 
ATOM      4  C   LIG d   1       1.108  80.642 109.815  0.00  0.00     0.028 C 
ATOM      5  C   LIG d   1       0.259  79.784 110.746  0.00  0.00    -0.047 C 
ATOM      6  C   LIG d   1      -0.167  80.634 111.964  0.00  0.00     0.091 C 
ENDROOT
BRANCH   1   7
ATOM      7  O   LIG d   1       0.642  82.360 113.504  0.00  0.00    -0.368 OA
BRANCH   7   8
ATOM      8  C   LIG d   1       0.917  83.680 112.972  0.00  0.00     0.119 C 
BRANCH   8   9
ATOM      9  C   LIG d   1       1.339  84.576 114.153  0.00  0.00     0.028 C 
ATOM     10  C   LIG d   1       2.865  84.620 114.340  0.00  0.00     0.006 C 
ENDBRANCH   8   9
BRANCH   8  11
ATOM     11  C   LIG d   1      -0.350  84.327 112.405  0.00  0.00     0.028 C 
ATOM     12  C   LIG d   1      -0.408  84.279 110.870  0.00  0.00     0.006 C 
ENDBRANCH   8  11
ENDBRANCH   7   8
ENDBRANCH   1   7
BRANCH   6  13
ATOM     13  N   LIG d   1      -0.931  79.846 112.966  0.00  0.00    -0.311 N 
ATOM     14  C   LIG d   1      -2.262  79.830 113.026  0.00  0.00     0.210 C 
ATOM     15  C   LIG d   1      -2.848  78.968 114.148  0.00  0.00     0.109 C 
ATOM     16  O   LIG d   1      -3.013  80.423 112.237  0.00  0.00    -0.276 OA
ATOM     17  H   LIG d   1      -0.401  79.311 113.626  0.00  0.00     0.149 HD
ENDBRANCH   6  13
BRANCH   5  18
ATOM     18  N   LIG d   1      -0.886  79.278 109.965  0.00  0.00     0.381 N 
ATOM     19  H   LIG d   1      -1.737  79.452 110.461  0.00  0.00    -0.090 HD
ATOM     20  H   LIG d   1      -0.786  78.285 109.848  0.00  0.00    -0.090 HD
ATOM     21  H   LIG d   1      -0.914  79.723 109.074  0.00  0.00    -0.090 HD
ENDBRANCH   5  18
BRANCH   3  22
ATOM     22  C   LIG d   1       3.323  81.554 109.747  0.00  0.00     0.382 C 
ATOM     23  O   LIG d   1       4.101  80.617 109.447  0.00  0.00    -0.241 OA
ATOM     24  O   LIG d   1       3.618  82.722 109.431  0.00  0.00    -0.241 OA
ENDBRANCH   3  22
TORSDOF 7
ENDMDL
MODEL 4
REMARK VINA RESULT:      -4.9      2.456      4.641
REMARK  7 active torsions:
REMARK  status: ('A' for Active; 'I' for Inactive)
REMARK    1  A    between atoms: C_2  and  C_3 
REMARK    2  A    between atoms: C_3  and  O_6 
REMARK    3  A    between atoms: C_3  and  C_4 
REMARK    4  A    between atoms: C_7  and  O_6 
REMARK    5  A    between atoms: C_9  and  C_10 
REMARK    6  A    between atoms: N_15  and  C_14 
REMARK    7  A    between atoms: N_20  and  C_19 
REMARK       I    between atoms: C_22  and  N_20 
ROOT
ATOM      1  C   LIG d   1       1.219  80.838 112.022  0.00  0.00     0.161 C 
ATOM      2  C   LIG d   1       1.253  82.126 111.462  0.00  0.00     0.016 C 
ATOM      3  C   LIG d   1       0.126  82.978 111.401  0.00  0.00     0.038 C 
ATOM      4  C   LIG d   1      -1.082  82.655 112.037  0.00  0.00     0.028 C 
ATOM      5  C   LIG d   1      -1.312  81.154 112.175  0.00  0.00    -0.047 C 
ATOM      6  C   LIG d   1      -0.061  80.513 112.819  0.00  0.00     0.091 C 
ENDROOT
BRANCH   1   7
ATOM      7  O   LIG d   1       2.386  80.631 112.842  0.00  0.00    -0.368 OA
BRANCH   7   8
ATOM      8  C   LIG d   1       3.282  81.763 112.974  0.00  0.00     0.119 C 
BRANCH   8   9
ATOM      9  C   LIG d   1       4.672  81.312 112.487  0.00  0.00     0.028 C 
ATOM     10  C   LIG d   1       4.880  81.568 110.985  0.00  0.00     0.006 C 
ENDBRANCH   8   9
BRANCH   8  11
ATOM     11  C   LIG d   1       3.473  82.154 114.442  0.00  0.00     0.028 C 
ATOM     12  C   LIG d   1       2.558  83.311 114.874  0.00  0.00     0.006 C 
ENDBRANCH   8  11
ENDBRANCH   7   8
ENDBRANCH   1   7
BRANCH   6  13
ATOM     13  N   LIG d   1      -0.168  79.033 112.914  0.00  0.00    -0.311 N 
ATOM     14  C   LIG d   1      -0.646  78.400 113.984  0.00  0.00     0.210 C 
ATOM     15  C   LIG d   1      -0.650  76.871 113.882  0.00  0.00     0.109 C 
ATOM     16  O   LIG d   1      -1.097  78.960 114.994  0.00  0.00    -0.276 OA
ATOM     17  H   LIG d   1       0.147  78.502 112.126  0.00  0.00     0.149 HD
ENDBRANCH   6  13
BRANCH   5  18
ATOM     18  N   LIG d   1      -2.536  80.962 112.975  0.00  0.00     0.381 N 
ATOM     19  H   LIG d   1      -2.401  81.330 113.895  0.00  0.00    -0.090 HD
ATOM     20  H   LIG d   1      -2.723  79.978 113.053  0.00  0.00    -0.090 HD
ATOM     21  H   LIG d   1      -3.305  81.420 112.537  0.00  0.00    -0.090 HD
ENDBRANCH   5  18
BRANCH   3  22
ATOM     22  C   LIG d   1       0.190  84.151 110.664  0.00  0.00     0.382 C 
ATOM     23  O   LIG d   1      -0.861  84.662 110.207  0.00  0.00    -0.241 OA
ATOM     24  O   LIG d   1       1.289  84.680 110.413  0.00  0.00    -0.241 OA
ENDBRANCH   3  22
TORSDOF 7
ENDMDL
MODEL 5
REMARK VINA RESULT:      -4.8      2.462      3.704
REMARK  7 active torsions:
REMARK  status: ('A' for Active; 'I' for Inactive)
REMARK    1  A    between atoms: C_2  and  C_3 
REMARK    2  A    between atoms: C_3  and  O_6 
REMARK    3  A    between atoms: C_3  and  C_4 
REMARK    4  A    between atoms: C_7  and  O_6 
REMARK    5  A    between atoms: C_9  and  C_10 
REMARK    6  A    between atoms: N_15  and  C_14 
REMARK    7  A    between atoms: N_20  and  C_19 
REMARK       I    between atoms: C_22  and  N_20 
ROOT
ATOM      1  C   LIG d   1       0.894  82.045 111.910  0.00  0.00     0.161 C 
ATOM      2  C   LIG d   1      -0.381  81.911 112.483  0.00  0.00     0.016 C 
ATOM      3  C   LIG d   1      -1.254  80.836 112.198  0.00  0.00     0.038 C 
ATOM      4  C   LIG d   1      -0.848  79.735 111.429  0.00  0.00     0.028 C 
ATOM      5  C   LIG d   1       0.247  80.070 110.422  0.00  0.00    -0.047 C 
ATOM      6  C   LIG d   1       1.398  80.796 111.155  0.00  0.00     0.091 C 
ENDROOT
BRANCH   1   7
ATOM      7  O   LIG d   1       1.845  82.438 112.919  0.00  0.00    -0.368 OA
BRANCH   7   8
ATOM      8  C   LIG d   1       1.988  83.863 113.139  0.00  0.00     0.119 C 
BRANCH   8   9
ATOM      9  C   LIG d   1       3.042  84.382 112.142  0.00  0.00     0.028 C 
ATOM     10  C   LIG d   1       4.461  84.380 112.733  0.00  0.00     0.006 C 
ENDBRANCH   8   9
BRANCH   8  11
ATOM     11  C   LIG d   1       2.564  84.157 114.527  0.00  0.00     0.028 C 
ATOM     12  C   LIG d   1       2.507  82.942 115.466  0.00  0.00     0.006 C 
ENDBRANCH   8  11
ENDBRANCH   7   8
ENDBRANCH   1   7
BRANCH   6  13
ATOM     13  N   LIG d   1       2.473  81.235 110.228  0.00  0.00    -0.311 N 
ATOM     14  C   LIG d   1       3.771  81.151 110.518  0.00  0.00     0.210 C 
ATOM     15  C   LIG d   1       4.712  81.678 109.430  0.00  0.00     0.109 C 
ATOM     16  O   LIG d   1       4.232  80.662 111.560  0.00  0.00    -0.276 OA
ATOM     17  H   LIG d   1       2.189  81.616 109.347  0.00  0.00     0.149 HD
ENDBRANCH   6  13
BRANCH   5  18
ATOM     18  N   LIG d   1       0.671  78.808 109.788  0.00  0.00     0.381 N 
ATOM     19  H   LIG d   1       0.033  78.076 110.030  0.00  0.00    -0.090 HD
ATOM     20  H   LIG d   1       1.581  78.560 110.134  0.00  0.00    -0.090 HD
ATOM     21  H   LIG d   1       0.702  78.917 108.798  0.00  0.00    -0.090 HD
ENDBRANCH   5  18
BRANCH   3  22
ATOM     22  C   LIG d   1      -2.564  80.876 112.651  0.00  0.00     0.382 C 
ATOM     23  O   LIG d   1      -3.396  81.635 112.098  0.00  0.00    -0.241 OA
ATOM     24  O   LIG d   1      -2.913  80.195 113.634  0.00  0.00    -0.241 OA
ENDBRANCH   3  22
TORSDOF 7
ENDMDL
MODEL 6
REMARK VINA RESULT:      -4.6      2.634      5.856
REMARK  7 active torsions:
REMARK  status: ('A' for Active; 'I' for Inactive)
REMARK    1  A    between atoms: C_2  and  C_3 
REMARK    2  A    between atoms: C_3  and  O_6 
REMARK    3  A    between atoms: C_3  and  C_4 
REMARK    4  A    between atoms: C_7  and  O_6 
REMARK    5  A    between atoms: C_9  and  C_10 
REMARK    6  A    between atoms: N_15  and  C_14 
REMARK    7  A    between atoms: N_20  and  C_19 
REMARK       I    between atoms: C_22  and  N_20 
ROOT
ATOM      1  C   LIG d   1       1.547  80.725 113.045  0.00  0.00     0.161 C 
ATOM      2  C   LIG d   1       2.849  81.132 112.710  0.00  0.00     0.016 C 
ATOM      3  C   LIG d   1       3.248  81.457 111.393  0.00  0.00     0.038 C 
ATOM      4  C   LIG d   1       2.326  81.543 110.339  0.00  0.00     0.028 C 
ATOM      5  C   LIG d   1       1.104  80.652 110.530  0.00  0.00    -0.047 C 
ATOM      6  C   LIG d   1       0.501  80.919 111.928  0.00  0.00     0.091 C 
ENDROOT
BRANCH   1   7
ATOM      7  O   LIG d   1       1.122  81.390 114.251  0.00  0.00    -0.368 OA
BRANCH   7   8
ATOM      8  C   LIG d   1       2.050  82.352 114.809  0.00  0.00     0.119 C 
BRANCH   8   9
ATOM      9  C   LIG d   1       2.223  82.016 116.303  0.00  0.00     0.028 C 
ATOM     10  C   LIG d   1       1.488  83.012 117.217  0.00  0.00     0.006 C 
ENDBRANCH   8   9
BRANCH   8  11
ATOM     11  C   LIG d   1       1.471  83.769 114.777  0.00  0.00     0.028 C 
ATOM     12  C   LIG d   1       1.823  84.528 113.487  0.00  0.00     0.006 C 
ENDBRANCH   8  11
ENDBRANCH   7   8
ENDBRANCH   1   7
BRANCH   6  13
ATOM     13  N   LIG d   1      -0.650  80.028 112.229  0.00  0.00    -0.311 N 
ATOM     14  C   LIG d   1      -1.913  80.448 112.265  0.00  0.00     0.210 C 
ATOM     15  C   LIG d   1      -2.944  79.370 112.615  0.00  0.00     0.109 C 
ATOM     16  O   LIG d   1      -2.281  81.604 112.008  0.00  0.00    -0.276 OA
ATOM     17  H   LIG d   1      -0.444  79.067 112.419  0.00  0.00     0.149 HD
ENDBRANCH   6  13
BRANCH   5  18
ATOM     18  N   LIG d   1       0.164  80.942 109.430  0.00  0.00     0.381 N 
ATOM     19  H   LIG d   1      -0.733  81.179 109.805  0.00  0.00    -0.090 HD
ATOM     20  H   LIG d   1       0.062  80.119 108.864  0.00  0.00    -0.090 HD
ATOM     21  H   LIG d   1       0.510  81.694 108.876  0.00  0.00    -0.090 HD
ENDBRANCH   5  18
BRANCH   3  22
ATOM     22  C   LIG d   1       4.590  81.663 111.113  0.00  0.00     0.382 C 
ATOM     23  O   LIG d   1       5.317  82.271 111.935  0.00  0.00    -0.241 OA
ATOM     24  O   LIG d   1       5.074  81.286 110.028  0.00  0.00    -0.241 OA
ENDBRANCH   3  22
TORSDOF 7
ENDMDL
MODEL 7
REMARK VINA RESULT:      -4.5      1.936      5.263
REMARK  7 active torsions:
REMARK  status: ('A' for Active; 'I' for Inactive)
REMARK    1  A    between atoms: C_2  and  C_3 
REMARK    2  A    between atoms: C_3  and  O_6 
REMARK    3  A    between atoms: C_3  and  C_4 
REMARK    4  A    between atoms: C_7  and  O_6 
REMARK    5  A    between atoms: C_9  and  C_10 
REMARK    6  A    between atoms: N_15  and  C_14 
REMARK    7  A    between atoms: N_20  and  C_19 
REMARK       I    between atoms: C_22  and  N_20 
ROOT
ATOM      1  C   LIG d   1       1.700  81.857 112.692  0.00  0.00     0.161 C 
ATOM      2  C   LIG d   1       2.942  82.187 113.261  0.00  0.00     0.016 C 
ATOM      3  C   LIG d   1       3.464  81.552 114.411  0.00  0.00     0.038 C 
ATOM      4  C   LIG d   1       2.845  80.432 114.985  0.00  0.00     0.028 C 
ATOM      5  C   LIG d   1       1.339  80.385 114.750  0.00  0.00    -0.047 C 
ATOM      6  C   LIG d   1       1.062  80.563 113.239  0.00  0.00     0.091 C 
ENDROOT
BRANCH   1   7
ATOM      7  O   LIG d   1       1.823  81.787 111.258  0.00  0.00    -0.368 OA
BRANCH   7   8
ATOM      8  C   LIG d   1       3.172  81.821 110.731  0.00  0.00     0.119 C 
BRANCH   8   9
ATOM      9  C   LIG d   1       3.233  82.951 109.685  0.00  0.00     0.028 C 
ATOM     10  C   LIG d   1       3.782  84.263 110.269  0.00  0.00     0.006 C 
ENDBRANCH   8   9
BRANCH   8  11
ATOM     11  C   LIG d   1       3.502  80.538 109.962  0.00  0.00     0.028 C 
ATOM     12  C   LIG d   1       5.003  80.204 109.976  0.00  0.00     0.006 C 
ENDBRANCH   8  11
ENDBRANCH   7   8
ENDBRANCH   1   7
BRANCH   6  13
ATOM     13  N   LIG d   1      -0.391  80.613 112.932  0.00  0.00    -0.311 N 
ATOM     14  C   LIG d   1      -1.114  79.536 112.628  0.00  0.00     0.210 C 
ATOM     15  C   LIG d   1      -2.590  79.813 112.325  0.00  0.00     0.109 C 
ATOM     16  O   LIG d   1      -0.680  78.375 112.611  0.00  0.00    -0.276 OA
ATOM     17  H   LIG d   1      -0.831  81.512 112.953  0.00  0.00     0.149 HD
ENDBRANCH   6  13
BRANCH   5  18
ATOM     18  N   LIG d   1       0.845  79.101 115.281  0.00  0.00     0.381 N 
ATOM     19  H   LIG d   1       0.689  79.179 116.266  0.00  0.00    -0.090 HD
ATOM     20  H   LIG d   1       1.544  78.395 115.128  0.00  0.00    -0.090 HD
ATOM     21  H   LIG d   1      -0.002  78.845 114.822  0.00  0.00    -0.090 HD
ENDBRANCH   5  18
BRANCH   3  22
ATOM     22  C   LIG d   1       4.599  82.063 115.022  0.00  0.00     0.382 C 
ATOM     23  O   LIG d   1       5.340  82.863 114.400  0.00  0.00    -0.241 OA
ATOM     24  O   LIG d   1       4.917  81.700 116.170  0.00  0.00    -0.241 OA
ENDBRANCH   3  22
TORSDOF 7
ENDMDL
MODEL 8
REMARK VINA RESULT:      -4.5      2.073      3.471
REMARK  7 active torsions:
REMARK  status: ('A' for Active; 'I' for Inactive)
REMARK    1  A    between atoms: C_2  and  C_3 
REMARK    2  A    between atoms: C_3  and  O_6 
REMARK    3  A    between atoms: C_3  and  C_4 
REMARK    4  A    between atoms: C_7  and  O_6 
REMARK    5  A    between atoms: C_9  and  C_10 
REMARK    6  A    between atoms: N_15  and  C_14 
REMARK    7  A    between atoms: N_20  and  C_19 
REMARK       I    between atoms: C_22  and  N_20 
ROOT
ATOM      1  C   LIG d   1      -0.091  81.586 111.985  0.00  0.00     0.161 C 
ATOM      2  C   LIG d   1      -1.186  80.743 112.241  0.00  0.00     0.016 C 
ATOM      3  C   LIG d   1      -1.360  79.484 111.623  0.00  0.00     0.038 C 
ATOM      4  C   LIG d   1      -0.367  78.911 110.814  0.00  0.00     0.028 C 
ATOM      5  C   LIG d   1       0.525  79.942 110.128  0.00  0.00    -0.047 C 
ATOM      6  C   LIG d   1       1.058  80.930 111.191  0.00  0.00     0.091 C 
ENDROOT
BRANCH   1   7
ATOM      7  O   LIG d   1       0.404  82.133 113.223  0.00  0.00    -0.368 OA
BRANCH   7   8
ATOM      8  C   LIG d   1       1.732  81.711 113.620  0.00  0.00     0.119 C 
BRANCH   8   9
ATOM      9  C   LIG d   1       1.577  80.774 114.834  0.00  0.00     0.028 C 
ATOM     10  C   LIG d   1       2.928  80.416 115.476  0.00  0.00     0.006 C 
ENDBRANCH   8   9
BRANCH   8  11
ATOM     11  C   LIG d   1       2.565  82.893 114.125  0.00  0.00     0.028 C 
ATOM     12  C   LIG d   1       1.879  84.248 113.889  0.00  0.00     0.006 C 
ENDBRANCH   8  11
ENDBRANCH   7   8
ENDBRANCH   1   7
BRANCH   6  13
ATOM     13  N   LIG d   1       1.871  82.021 110.592  0.00  0.00    -0.311 N 
ATOM     14  C   LIG d   1       3.195  81.961 110.462  0.00  0.00     0.210 C 
ATOM     15  C   LIG d   1       3.840  83.202 109.837  0.00  0.00     0.109 C 
ATOM     16  O   LIG d   1       3.893  80.985 110.774  0.00  0.00    -0.276 OA
ATOM     17  H   LIG d   1       1.381  82.838 110.283  0.00  0.00     0.149 HD
ENDBRANCH   6  13
BRANCH   5  18
ATOM     18  N   LIG d   1       1.598  79.209 109.430  0.00  0.00     0.381 N 
ATOM     19  H   LIG d   1       1.496  79.320 108.441  0.00  0.00    -0.090 HD
ATOM     20  H   LIG d   1       1.518  78.231 109.647  0.00  0.00    -0.090 HD
ATOM     21  H   LIG d   1       2.488  79.549 109.720  0.00  0.00    -0.090 HD
ENDBRANCH   5  18
BRANCH   3  22
ATOM     22  C   LIG d   1      -2.556  78.800 111.779  0.00  0.00     0.382 C 
ATOM     23  O   LIG d   1      -3.269  79.008 112.791  0.00  0.00    -0.241 OA
ATOM     24  O   LIG d   1      -2.910  77.947 110.944  0.00  0.00    -0.241 OA
ENDBRANCH   3  22
TORSDOF 7
ENDMDL
MODEL 9
REMARK VINA RESULT:      -4.5      2.089      3.992
REMARK  7 active torsions:
REMARK  status: ('A' for Active; 'I' for Inactive)
REMARK    1  A    between atoms: C_2  and  C_3 
REMARK    2  A    between atoms: C_3  and  O_6 
REMARK    3  A    between atoms: C_3  and  C_4 
REMARK    4  A    between atoms: C_7  and  O_6 
REMARK    5  A    between atoms: C_9  and  C_10 
REMARK    6  A    between atoms: N_15  and  C_14 
REMARK    7  A    between atoms: N_20  and  C_19 
REMARK       I    between atoms: C_22  and  N_20 
ROOT
ATOM      1  C   LIG d   1       1.352  80.851 113.052  0.00  0.00     0.161 C 
ATOM      2  C   LIG d   1       0.415  79.937 113.563  0.00  0.00     0.016 C 
ATOM      3  C   LIG d   1      -0.603  79.347 112.780  0.00  0.00     0.038 C 
ATOM      4  C   LIG d   1      -0.660  79.516 111.388  0.00  0.00     0.028 C 
ATOM      5  C   LIG d   1      -0.043  80.827 110.912  0.00  0.00    -0.047 C 
ATOM      6  C   LIG d   1       1.374  80.962 111.514  0.00  0.00     0.091 C 
ENDROOT
BRANCH   1   7
ATOM      7  O   LIG d   1       2.666  80.533 113.551  0.00  0.00    -0.368 OA
BRANCH   7   8
ATOM      8  C   LIG d   1       3.358  81.598 114.249  0.00  0.00     0.119 C 
BRANCH   8   9
ATOM      9  C   LIG d   1       4.687  81.848 113.511  0.00  0.00     0.028 C 
ATOM     10  C   LIG d   1       4.978  83.346 113.318  0.00  0.00     0.006 C 
ENDBRANCH   8   9
BRANCH   8  11
ATOM     11  C   LIG d   1       3.755  81.170 115.665  0.00  0.00     0.028 C 
ATOM     12  C   LIG d   1       4.350  79.754 115.715  0.00  0.00     0.006 C 
ENDBRANCH   8  11
ENDBRANCH   7   8
ENDBRANCH   1   7
BRANCH   6  13
ATOM     13  N   LIG d   1       2.016  82.256 111.165  0.00  0.00    -0.311 N 
ATOM     14  C   LIG d   1       2.919  82.390 110.195  0.00  0.00     0.210 C 
ATOM     15  C   LIG d   1       3.470  83.807 110.015  0.00  0.00     0.109 C 
ATOM     16  O   LIG d   1       3.291  81.475 109.445  0.00  0.00    -0.276 OA
ATOM     17  H   LIG d   1       1.749  83.057 111.704  0.00  0.00     0.149 HD
ENDBRANCH   6  13
BRANCH   5  18
ATOM     18  N   LIG d   1      -0.046  80.810 109.437  0.00  0.00     0.381 N 
ATOM     19  H   LIG d   1       0.074  81.740 109.087  0.00  0.00    -0.090 HD
ATOM     20  H   LIG d   1      -0.934  80.465 109.117  0.00  0.00    -0.090 HD
ATOM     21  H   LIG d   1       0.687  80.224 109.101  0.00  0.00    -0.090 HD
ENDBRANCH   5  18
BRANCH   3  22
ATOM     22  C   LIG d   1      -1.602  78.608 113.395  0.00  0.00     0.382 C 
ATOM     23  O   LIG d   1      -1.812  77.422 113.044  0.00  0.00    -0.241 OA
ATOM     24  O   LIG d   1      -2.326  79.127 114.265  0.00  0.00    -0.241 OA
ENDBRANCH   3  22
TORSDOF 7
ENDMDL
