MODEL 1
REMARK VINA RESULT:      -5.6      0.000      0.000
REMARK  7 active torsions:
REMARK  status: ('A' for Active; 'I' for Inactive)
REMARK    1  A    between atoms: C_2  and  C_3 
REMARK    2  A    between atoms: C_3  and  O_6 
REMARK    3  A    between atoms: C_3  and  C_4 
REMARK    4  A    between atoms: C_7  and  O_6 
REMARK    5  A    between atoms: C_9  and  C_10 
REMARK    6  A    between atoms: N_15  and  C_14 
REMARK    7  A    between atoms: N_20  and  C_19 
REMARK       I    between atoms: C_22  and  N_20 
ROOT
ATOM      1  C   LIG d   1       0.273  82.635 112.106  0.00  0.00     0.161 C 
ATOM      2  C   LIG d   1      -0.943  82.169 112.633  0.00  0.00     0.016 C 
ATOM      3  C   LIG d   1      -1.478  80.892 112.343  0.00  0.00     0.038 C 
ATOM      4  C   LIG d   1      -0.753  79.931 111.622  0.00  0.00     0.028 C 
ATOM      5  C   LIG d   1       0.254  80.535 110.650  0.00  0.00    -0.047 C 
ATOM      6  C   LIG d   1       1.130  81.559 111.407  0.00  0.00     0.091 C 
ENDROOT
BRANCH   1   7
ATOM      7  O   LIG d   1       1.034  83.289 113.140  0.00  0.00    -0.368 OA
BRANCH   7   8
ATOM      8  C   LIG d   1       0.694  82.935 114.503  0.00  0.00     0.119 C 
BRANCH   8   9
ATOM      9  C   LIG d   1       0.732  84.228 115.341  0.00  0.00     0.028 C 
ATOM     10  C   LIG d   1      -0.670  84.680 115.785  0.00  0.00     0.006 C 
ENDBRANCH   8   9
BRANCH   8  11
ATOM     11  C   LIG d   1       1.755  82.020 115.122  0.00  0.00     0.028 C 
ATOM     12  C   LIG d   1       1.170  80.696 115.641  0.00  0.00     0.006 C 
ENDBRANCH   8  11
ENDBRANCH   7   8
ENDBRANCH   1   7
BRANCH   6  13
ATOM     13  N   LIG d   1       2.087  82.259 110.511  0.00  0.00    -0.311 N 
ATOM     14  C   LIG d   1       3.369  81.915 110.395  0.00  0.00     0.210 C 
ATOM     15  C   LIG d   1       4.186  82.780 109.430  0.00  0.00     0.109 C 
ATOM     16  O   LIG d   1       3.898  80.955 110.974  0.00  0.00    -0.276 OA
ATOM     17  H   LIG d   1       1.734  83.031 109.980  0.00  0.00     0.149 HD
ENDBRANCH   6  13
BRANCH   5  18
ATOM     18  N   LIG d   1       1.033  79.426 110.069  0.00  0.00     0.381 N 
ATOM     19  H   LIG d   1       0.985  79.465 109.070  0.00  0.00    -0.090 HD
ATOM     20  H   LIG d   1       0.633  78.555 110.370  0.00  0.00    -0.090 HD
ATOM     21  H   LIG d   1       1.982  79.484 110.365  0.00  0.00    -0.090 HD
ENDBRANCH   5  18
BRANCH   3  22
ATOM     22  C   LIG d   1      -2.768  80.581 112.744  0.00  0.00     0.382 C 
ATOM     23  O   LIG d   1      -2.966  79.627 113.534  0.00  0.00    -0.241 OA
ATOM     24  O   LIG d   1      -3.740  81.213 112.289  0.00  0.00    -0.241 OA
ENDBRANCH   3  22
TORSDOF 7
ENDMDL
MODEL 2
REMARK VINA RESULT:      -5.4      1.970      2.779
REMARK  7 active torsions:
REMARK  status: ('A' for Active; 'I' for Inactive)
REMARK    1  A    between atoms: C_2  and  C_3 
REMARK    2  A    between atoms: C_3  and  O_6 
REMARK    3  A    between atoms: C_3  and  C_4 
REMARK    4  A    between atoms: C_7  and  O_6 
REMARK    5  A    between atoms: C_9  and  C_10 
REMARK    6  A    between atoms: N_15  and  C_14 
REMARK    7  A    between atoms: N_20  and  C_19 
REMARK       I    between atoms: C_22  and  N_20 
ROOT
ATOM      1  C   LIG d   1      -1.515  80.789 112.018  0.00  0.00     0.161 C 
ATOM      2  C   LIG d   1      -2.406  79.772 112.400  0.00  0.00     0.016 C 
ATOM      3  C   LIG d   1      -2.381  78.469 111.850  0.00  0.00     0.038 C 
ATOM      4  C   LIG d   1      -1.360  78.048 110.985  0.00  0.00     0.028 C 
ATOM      5  C   LIG d   1      -0.736  79.187 110.186  0.00  0.00    -0.047 C 
ATOM      6  C   LIG d   1      -0.324  80.316 111.158  0.00  0.00     0.091 C 
ENDROOT
BRANCH   1   7
ATOM      7  O   LIG d   1      -1.043  81.488 113.187  0.00  0.00    -0.368 OA
BRANCH   7   8
ATOM      8  C   LIG d   1       0.180  80.985 113.780  0.00  0.00     0.119 C 
BRANCH   8   9
ATOM      9  C   LIG d   1      -0.152  80.540 115.217  0.00  0.00     0.028 C 
ATOM     10  C   LIG d   1      -0.578  79.065 115.291  0.00  0.00     0.006 C 
ENDBRANCH   8   9
BRANCH   8  11
ATOM     11  C   LIG d   1       1.224  82.095 113.929  0.00  0.00     0.028 C 
ATOM     12  C   LIG d   1       0.671  83.485 113.576  0.00  0.00     0.006 C 
ENDBRANCH   8  11
ENDBRANCH   7   8
ENDBRANCH   1   7
BRANCH   6  13
ATOM     13  N   LIG d   1       0.218  81.505 110.449  0.00  0.00    -0.311 N 
ATOM     14  C   LIG d   1       1.519  81.706 110.245  0.00  0.00     0.210 C 
ATOM     15  C   LIG d   1       1.864  83.005 109.511  0.00  0.00     0.109 C 
ATOM     16  O   LIG d   1       2.417  80.916 110.573  0.00  0.00    -0.276 OA
ATOM     17  H   LIG d   1      -0.443  82.181 110.122  0.00  0.00     0.149 HD
ENDBRANCH   6  13
BRANCH   5  18
ATOM     18  N   LIG d   1       0.403  78.630 109.431  0.00  0.00     0.381 N 
ATOM     19  H   LIG d   1       1.140  78.386 110.062  0.00  0.00    -0.090 HD
ATOM     20  H   LIG d   1       0.748  79.331 108.799  0.00  0.00    -0.090 HD
ATOM     21  H   LIG d   1       0.112  77.826 108.920  0.00  0.00    -0.090 HD
ENDBRANCH   5  18
BRANCH   3  22
ATOM     22  C   LIG d   1      -3.410  77.584 112.135  0.00  0.00     0.382 C 
ATOM     23  O   LIG d   1      -3.287  76.762 113.075  0.00  0.00    -0.241 OA
ATOM     24  O   LIG d   1      -4.440  77.566 111.435  0.00  0.00    -0.241 OA
ENDBRANCH   3  22
TORSDOF 7
ENDMDL
MODEL 3
REMARK VINA RESULT:      -5.0      2.246      3.013
REMARK  7 active torsions:
REMARK  status: ('A' for Active; 'I' for Inactive)
REMARK    1  A    between atoms: C_2  and  C_3 
REMARK    2  A    between atoms: C_3  and  O_6 
REMARK    3  A    between atoms: C_3  and  C_4 
REMARK    4  A    between atoms: C_7  and  O_6 
REMARK    5  A    between atoms: C_9  and  C_10 
REMARK    6  A    between atoms: N_15  and  C_14 
REMARK    7  A    between atoms: N_20  and  C_19 
REMARK       I    between atoms: C_22  and  N_20 
ROOT
ATOM      1  C   LIG d   1      -0.776  80.194 113.149  0.00  0.00     0.161 C 
ATOM      2  C   LIG d   1      -1.387  79.145 113.856  0.00  0.00     0.016 C 
ATOM      3  C   LIG d   1      -1.924  77.995 113.233  0.00  0.00     0.038 C 
ATOM      4  C   LIG d   1      -1.750  77.744 111.864  0.00  0.00     0.028 C 
ATOM      5  C   LIG d   1      -1.583  79.011 111.032  0.00  0.00    -0.047 C 
ATOM      6  C   LIG d   1      -0.477  79.886 111.667  0.00  0.00     0.091 C 
ENDROOT
BRANCH   1   7
ATOM      7  O   LIG d   1       0.428  80.604 113.828  0.00  0.00    -0.368 OA
BRANCH   7   8
ATOM      8  C   LIG d   1       0.396  81.915 114.445  0.00  0.00     0.119 C 
BRANCH   8   9
ATOM      9  C   LIG d   1       0.238  81.708 115.963  0.00  0.00     0.028 C 
ATOM     10  C   LIG d   1       0.573  82.976 116.767  0.00  0.00     0.006 C 
ENDBRANCH   8   9
BRANCH   8  11
ATOM     11  C   LIG d   1      -0.843  82.705 114.012  0.00  0.00     0.028 C 
ATOM     12  C   LIG d   1      -0.491  84.004 113.270  0.00  0.00     0.006 C 
ENDBRANCH   8  11
ENDBRANCH   7   8
ENDBRANCH   1   7
BRANCH   6  13
ATOM     13  N   LIG d   1      -0.308  81.184 110.963  0.00  0.00    -0.311 N 
ATOM     14  C   LIG d   1       0.875  81.659 110.576  0.00  0.00     0.210 C 
ATOM     15  C   LIG d   1       0.828  83.025 109.884  0.00  0.00     0.109 C 
ATOM     16  O   LIG d   1       1.954  81.064 110.710  0.00  0.00    -0.276 OA
ATOM     17  H   LIG d   1      -1.136  81.718 110.785  0.00  0.00     0.149 HD
ENDBRANCH   6  13
BRANCH   5  18
ATOM     18  N   LIG d   1      -1.272  78.599 109.650  0.00  0.00     0.381 N 
ATOM     19  H   LIG d   1      -0.436  79.053 109.341  0.00  0.00    -0.090 HD
ATOM     20  H   LIG d   1      -2.026  78.883 109.050  0.00  0.00    -0.090 HD
ATOM     21  H   LIG d   1      -1.158  77.611 109.607  0.00  0.00    -0.090 HD
ENDBRANCH   5  18
BRANCH   3  22
ATOM     22  C   LIG d   1      -2.680  77.101 113.976  0.00  0.00     0.382 C 
ATOM     23  O   LIG d   1      -3.488  76.333 113.400  0.00  0.00    -0.241 OA
ATOM     24  O   LIG d   1      -2.597  77.083 115.219  0.00  0.00    -0.241 OA
ENDBRANCH   3  22
TORSDOF 7
ENDMDL
MODEL 4
REMARK VINA RESULT:      -4.9      3.084      5.971
REMARK  7 active torsions:
REMARK  status: ('A' for Active; 'I' for Inactive)
REMARK    1  A    between atoms: C_2  and  C_3 
REMARK    2  A    between atoms: C_3  and  O_6 
REMARK    3  A    between atoms: C_3  and  C_4 
REMARK    4  A    between atoms: C_7  and  O_6 
REMARK    5  A    between atoms: C_9  and  C_10 
REMARK    6  A    between atoms: N_15  and  C_14 
REMARK    7  A    between atoms: N_20  and  C_19 
REMARK       I    between atoms: C_22  and  N_20 
ROOT
ATOM      1  C   LIG d   1      -2.031  80.225 113.889  0.00  0.00     0.161 C 
ATOM      2  C   LIG d   1      -1.888  81.166 112.856  0.00  0.00     0.016 C 
ATOM      3  C   LIG d   1      -0.675  81.837 112.577  0.00  0.00     0.038 C 
ATOM      4  C   LIG d   1       0.525  81.497 113.221  0.00  0.00     0.028 C 
ATOM      5  C   LIG d   1       0.320  80.912 114.614  0.00  0.00    -0.047 C 
ATOM      6  C   LIG d   1      -0.706  79.760 114.529  0.00  0.00     0.091 C 
ENDROOT
BRANCH   1   7
ATOM      7  O   LIG d   1      -2.784  79.090 113.415  0.00  0.00    -0.368 OA
BRANCH   7   8
ATOM      8  C   LIG d   1      -2.037  78.096 112.671  0.00  0.00     0.119 C 
BRANCH   8   9
ATOM      9  C   LIG d   1      -2.448  78.220 111.191  0.00  0.00     0.028 C 
ATOM     10  C   LIG d   1      -1.264  78.585 110.281  0.00  0.00     0.006 C 
ENDBRANCH   8   9
BRANCH   8  11
ATOM     11  C   LIG d   1      -2.434  76.676 113.085  0.00  0.00     0.028 C 
ATOM     12  C   LIG d   1      -3.493  76.654 114.199  0.00  0.00     0.006 C 
ENDBRANCH   8  11
ENDBRANCH   7   8
ENDBRANCH   1   7
BRANCH   6  13
ATOM     13  N   LIG d   1      -1.027  79.187 115.862  0.00  0.00    -0.311 N 
ATOM     14  C   LIG d   1      -0.727  77.939 116.216  0.00  0.00     0.210 C 
ATOM     15  C   LIG d   1      -1.165  77.544 117.629  0.00  0.00     0.109 C 
ATOM     16  O   LIG d   1      -0.110  77.132 115.504  0.00  0.00    -0.276 OA
ATOM     17  H   LIG d   1      -1.500  79.784 116.513  0.00  0.00     0.149 HD
ENDBRANCH   6  13
BRANCH   5  18
ATOM     18  N   LIG d   1       1.639  80.477 115.112  0.00  0.00     0.381 N 
ATOM     19  H   LIG d   1       1.523  79.730 115.768  0.00  0.00    -0.090 HD
ATOM     20  H   LIG d   1       2.078  81.247 115.585  0.00  0.00    -0.090 HD
ATOM     21  H   LIG d   1       2.208  80.175 114.352  0.00  0.00    -0.090 HD
ENDBRANCH   5  18
BRANCH   3  22
ATOM     22  C   LIG d   1      -0.663  82.888 111.673  0.00  0.00     0.382 C 
ATOM     23  O   LIG d   1      -0.511  82.659 110.448  0.00  0.00    -0.241 OA
ATOM     24  O   LIG d   1      -0.757  84.064 112.070  0.00  0.00    -0.241 OA
ENDBRANCH   3  22
TORSDOF 7
ENDMDL
MODEL 5
REMARK VINA RESULT:      -4.6      1.860      4.851
REMARK  7 active torsions:
REMARK  status: ('A' for Active; 'I' for Inactive)
REMARK    1  A    between atoms: C_2  and  C_3 
REMARK    2  A    between atoms: C_3  and  O_6 
REMARK    3  A    between atoms: C_3  and  C_4 
REMARK    4  A    between atoms: C_7  and  O_6 
REMARK    5  A    between atoms: C_9  and  C_10 
REMARK    6  A    between atoms: N_15  and  C_14 
REMARK    7  A    between atoms: N_20  and  C_19 
REMARK       I    between atoms: C_22  and  N_20 
ROOT
ATOM      1  C   LIG d   1       0.944  81.013 112.980  0.00  0.00     0.161 C 
ATOM      2  C   LIG d   1       1.889  81.958 112.547  0.00  0.00     0.016 C 
ATOM      3  C   LIG d   1       2.082  82.300 111.189  0.00  0.00     0.038 C 
ATOM      4  C   LIG d   1       1.232  81.828 110.178  0.00  0.00     0.028 C 
ATOM      5  C   LIG d   1       0.588  80.485 110.505  0.00  0.00    -0.047 C 
ATOM      6  C   LIG d   1      -0.068  80.570 111.902  0.00  0.00     0.091 C 
ENDROOT
BRANCH   1   7
ATOM      7  O   LIG d   1       0.252  81.511 114.142  0.00  0.00    -0.368 OA
BRANCH   7   8
ATOM      8  C   LIG d   1       0.798  81.119 115.426  0.00  0.00     0.119 C 
BRANCH   8   9
ATOM      9  C   LIG d   1       0.096  79.813 115.847  0.00  0.00     0.028 C 
ATOM     10  C   LIG d   1      -0.271  79.800 117.341  0.00  0.00     0.006 C 
ENDBRANCH   8   9
BRANCH   8  11
ATOM     11  C   LIG d   1       0.448  82.137 116.515  0.00  0.00     0.028 C 
ATOM     12  C   LIG d   1       0.355  83.574 115.979  0.00  0.00     0.006 C 
ENDBRANCH   8  11
ENDBRANCH   7   8
ENDBRANCH   1   7
BRANCH   6  13
ATOM     13  N   LIG d   1      -0.648  79.272 112.336  0.00  0.00    -0.311 N 
ATOM     14  C   LIG d   1      -1.943  78.976 112.231  0.00  0.00     0.210 C 
ATOM     15  C   LIG d   1      -2.334  77.592 112.756  0.00  0.00     0.109 C 
ATOM     16  O   LIG d   1      -2.798  79.716 111.723  0.00  0.00    -0.276 OA
ATOM     17  H   LIG d   1      -0.019  78.601 112.731  0.00  0.00     0.149 HD
ENDBRANCH   6  13
BRANCH   5  18
ATOM     18  N   LIG d   1      -0.376  80.179 109.431  0.00  0.00     0.381 N 
ATOM     19  H   LIG d   1      -0.740  79.255 109.556  0.00  0.00    -0.090 HD
ATOM     20  H   LIG d   1       0.100  80.213 108.547  0.00  0.00    -0.090 HD
ATOM     21  H   LIG d   1      -1.120  80.841 109.442  0.00  0.00    -0.090 HD
ENDBRANCH   5  18
BRANCH   3  22
ATOM     22  C   LIG d   1       3.160  83.093 110.826  0.00  0.00     0.382 C 
ATOM     23  O   LIG d   1       4.293  82.873 111.318  0.00  0.00    -0.241 OA
ATOM     24  O   LIG d   1       3.005  84.052 110.048  0.00  0.00    -0.241 OA
ENDBRANCH   3  22
TORSDOF 7
ENDMDL
MODEL 6
REMARK VINA RESULT:      -4.5      3.475      5.556
REMARK  7 active torsions:
REMARK  status: ('A' for Active; 'I' for Inactive)
REMARK    1  A    between atoms: C_2  and  C_3 
REMARK    2  A    between atoms: C_3  and  O_6 
REMARK    3  A    between atoms: C_3  and  C_4 
REMARK    4  A    between atoms: C_7  and  O_6 
REMARK    5  A    between atoms: C_9  and  C_10 
REMARK    6  A    between atoms: N_15  and  C_14 
REMARK    7  A    between atoms: N_20  and  C_19 
REMARK       I    between atoms: C_22  and  N_20 
ROOT
ATOM      1  C   LIG d   1      -0.627  79.250 114.605  0.00  0.00     0.161 C 
ATOM      2  C   LIG d   1      -0.772  80.564 114.132  0.00  0.00     0.016 C 
ATOM      3  C   LIG d   1      -1.235  80.877 112.833  0.00  0.00     0.038 C 
ATOM      4  C   LIG d   1      -1.731  79.893 111.966  0.00  0.00     0.028 C 
ATOM      5  C   LIG d   1      -1.133  78.512 112.211  0.00  0.00    -0.047 C 
ATOM      6  C   LIG d   1      -1.268  78.167 113.712  0.00  0.00     0.091 C 
ENDROOT
BRANCH   1   7
ATOM      7  O   LIG d   1      -1.135  79.155 115.950  0.00  0.00    -0.368 OA
BRANCH   7   8
ATOM      8  C   LIG d   1      -0.143  79.102 117.004  0.00  0.00     0.119 C 
BRANCH   8   9
ATOM      9  C   LIG d   1      -0.389  77.809 117.806  0.00  0.00     0.028 C 
ATOM     10  C   LIG d   1       0.761  76.799 117.658  0.00  0.00     0.006 C 
ENDBRANCH   8   9
BRANCH   8  11
ATOM     11  C   LIG d   1      -0.332  80.244 118.007  0.00  0.00     0.028 C 
ATOM     12  C   LIG d   1       0.950  81.062 118.228  0.00  0.00     0.006 C 
ENDBRANCH   8  11
ENDBRANCH   7   8
ENDBRANCH   1   7
BRANCH   6  13
ATOM     13  N   LIG d   1      -0.633  76.867 114.054  0.00  0.00    -0.311 N 
ATOM     14  C   LIG d   1      -1.313  75.814 114.502  0.00  0.00     0.210 C 
ATOM     15  C   LIG d   1      -0.462  74.579 114.813  0.00  0.00     0.109 C 
ATOM     16  O   LIG d   1      -2.545  75.774 114.640  0.00  0.00    -0.276 OA
ATOM     17  H   LIG d   1       0.360  76.802 113.942  0.00  0.00     0.149 HD
ENDBRANCH   6  13
BRANCH   5  18
ATOM     18  N   LIG d   1      -1.838  77.559 111.333  0.00  0.00     0.381 N 
ATOM     19  H   LIG d   1      -2.809  77.531 111.573  0.00  0.00    -0.090 HD
ATOM     20  H   LIG d   1      -1.452  76.641 111.474  0.00  0.00    -0.090 HD
ATOM     21  H   LIG d   1      -1.731  77.830 110.381  0.00  0.00    -0.090 HD
ENDBRANCH   5  18
BRANCH   3  22
ATOM     22  C   LIG d   1      -1.167  82.185 112.376  0.00  0.00     0.382 C 
ATOM     23  O   LIG d   1      -0.957  82.414 111.160  0.00  0.00    -0.241 OA
ATOM     24  O   LIG d   1      -1.269  83.138 113.171  0.00  0.00    -0.241 OA
ENDBRANCH   3  22
TORSDOF 7
ENDMDL
MODEL 7
REMARK VINA RESULT:      -4.5      2.377      4.860
REMARK  7 active torsions:
REMARK  status: ('A' for Active; 'I' for Inactive)
REMARK    1  A    between atoms: C_2  and  C_3 
REMARK    2  A    between atoms: C_3  and  O_6 
REMARK    3  A    between atoms: C_3  and  C_4 
REMARK    4  A    between atoms: C_7  and  O_6 
REMARK    5  A    between atoms: C_9  and  C_10 
REMARK    6  A    between atoms: N_15  and  C_14 
REMARK    7  A    between atoms: N_20  and  C_19 
REMARK       I    between atoms: C_22  and  N_20 
ROOT
ATOM      1  C   LIG d   1       1.381  81.324 113.425  0.00  0.00     0.161 C 
ATOM      2  C   LIG d   1       0.227  80.903 112.743  0.00  0.00     0.016 C 
ATOM      3  C   LIG d   1      -1.043  81.500 112.920  0.00  0.00     0.038 C 
ATOM      4  C   LIG d   1      -1.214  82.665 113.682  0.00  0.00     0.028 C 
ATOM      5  C   LIG d   1      -0.176  82.825 114.787  0.00  0.00    -0.047 C 
ATOM      6  C   LIG d   1       1.235  82.664 114.176  0.00  0.00     0.091 C 
ENDROOT
BRANCH   1   7
ATOM      7  O   LIG d   1       2.494  81.380 112.512  0.00  0.00    -0.368 OA
BRANCH   7   8
ATOM      8  C   LIG d   1       2.161  81.509 111.107  0.00  0.00     0.119 C 
BRANCH   8   9
ATOM      9  C   LIG d   1       3.208  80.708 110.308  0.00  0.00     0.028 C 
ATOM     10  C   LIG d   1       4.472  81.531 110.008  0.00  0.00     0.006 C 
ENDBRANCH   8   9
BRANCH   8  11
ATOM     11  C   LIG d   1       2.308  82.957 110.630  0.00  0.00     0.028 C 
ATOM     12  C   LIG d   1       0.964  83.596 110.247  0.00  0.00     0.006 C 
ENDBRANCH   8  11
ENDBRANCH   7   8
ENDBRANCH   1   7
BRANCH   6  13
ATOM     13  N   LIG d   1       2.308  82.722 115.203  0.00  0.00    -0.311 N 
ATOM     14  C   LIG d   1       2.208  82.147 116.401  0.00  0.00     0.210 C 
ATOM     15  C   LIG d   1       3.420  82.346 117.316  0.00  0.00     0.109 C 
ATOM     16  O   LIG d   1       1.245  81.464 116.779  0.00  0.00    -0.276 OA
ATOM     17  H   LIG d   1       3.138  83.230 114.968  0.00  0.00     0.149 HD
ENDBRANCH   6  13
BRANCH   5  18
ATOM     18  N   LIG d   1      -0.388  84.144 115.411  0.00  0.00     0.381 N 
ATOM     19  H   LIG d   1      -0.524  84.035 116.397  0.00  0.00    -0.090 HD
ATOM     20  H   LIG d   1      -1.217  84.558 115.023  0.00  0.00    -0.090 HD
ATOM     21  H   LIG d   1       0.397  84.733 115.241  0.00  0.00    -0.090 HD
ENDBRANCH   5  18
BRANCH   3  22
ATOM     22  C   LIG d   1      -2.165  80.907 112.361  0.00  0.00     0.382 C 
ATOM     23  O   LIG d   1      -3.306  81.359 112.618  0.00  0.00    -0.241 OA
ATOM     24  O   LIG d   1      -2.053  79.899 111.639  0.00  0.00    -0.241 OA
ENDBRANCH   3  22
TORSDOF 7
ENDMDL
MODEL 8
REMARK VINA RESULT:      -4.4      4.429      6.209
REMARK  7 active torsions:
REMARK  status: ('A' for Active; 'I' for Inactive)
REMARK    1  A    between atoms: C_2  and  C_3 
REMARK    2  A    between atoms: C_3  and  O_6 
REMARK    3  A    between atoms: C_3  and  C_4 
REMARK    4  A    between atoms: C_7  and  O_6 
REMARK    5  A    between atoms: C_9  and  C_10 
REMARK    6  A    between atoms: N_15  and  C_14 
REMARK    7  A    between atoms: N_20  and  C_19 
REMARK       I    between atoms: C_22  and  N_20 
ROOT
ATOM      1  C   LIG d   1      -1.052  78.040 114.924  0.00  0.00     0.161 C 
ATOM      2  C   LIG d   1      -2.231  77.462 114.423  0.00  0.00     0.016 C 
ATOM      3  C   LIG d   1      -2.867  76.350 115.020  0.00  0.00     0.038 C 
ATOM      4  C   LIG d   1      -2.449  75.831 116.255  0.00  0.00     0.028 C 
ATOM      5  C   LIG d   1      -0.968  76.060 116.538  0.00  0.00    -0.047 C 
ATOM      6  C   LIG d   1      -0.644  77.558 116.332  0.00  0.00     0.091 C 
ENDROOT
BRANCH   1   7
ATOM      7  O   LIG d   1      -1.164  79.477 114.900  0.00  0.00    -0.368 OA
BRANCH   7   8
ATOM      8  C   LIG d   1      -0.418  80.157 113.860  0.00  0.00     0.119 C 
BRANCH   8   9
ATOM      9  C   LIG d   1       0.763  80.880 114.535  0.00  0.00     0.028 C 
ATOM     10  C   LIG d   1       0.386  81.466 115.907  0.00  0.00     0.006 C 
ENDBRANCH   8   9
BRANCH   8  11
ATOM     11  C   LIG d   1      -1.253  81.263 113.209  0.00  0.00     0.028 C 
ATOM     12  C   LIG d   1      -2.648  80.783 112.780  0.00  0.00     0.006 C 
ENDBRANCH   8  11
ENDBRANCH   7   8
ENDBRANCH   1   7
BRANCH   6  13
ATOM     13  N   LIG d   1       0.802  77.853 116.507  0.00  0.00    -0.311 N 
ATOM     14  C   LIG d   1       1.329  78.286 117.651  0.00  0.00     0.210 C 
ATOM     15  C   LIG d   1       2.838  78.549 117.610  0.00  0.00     0.109 C 
ATOM     16  O   LIG d   1       0.696  78.446 118.705  0.00  0.00    -0.276 OA
ATOM     17  H   LIG d   1       1.394  77.721 115.710  0.00  0.00     0.149 HD
ENDBRANCH   6  13
BRANCH   5  18
ATOM     18  N   LIG d   1      -0.700  75.594 117.911  0.00  0.00     0.381 N 
ATOM     19  H   LIG d   1      -0.637  76.378 118.529  0.00  0.00    -0.090 HD
ATOM     20  H   LIG d   1       0.181  75.111 117.924  0.00  0.00    -0.090 HD
ATOM     21  H   LIG d   1      -1.426  74.982 118.212  0.00  0.00    -0.090 HD
ENDBRANCH   5  18
BRANCH   3  22
ATOM     22  C   LIG d   1      -3.912  75.720 114.361  0.00  0.00     0.382 C 
ATOM     23  O   LIG d   1      -4.301  74.589 114.740  0.00  0.00    -0.241 OA
ATOM     24  O   LIG d   1      -4.440  76.249 113.364  0.00  0.00    -0.241 OA
ENDBRANCH   3  22
TORSDOF 7
ENDMDL
MODEL 9
REMARK VINA RESULT:      -4.4      2.034      2.436
REMARK  7 active torsions:
REMARK  status: ('A' for Active; 'I' for Inactive)
REMARK    1  A    between atoms: C_2  and  C_3 
REMARK    2  A    between atoms: C_3  and  O_6 
REMARK    3  A    between atoms: C_3  and  C_4 
REMARK    4  A    between atoms: C_7  and  O_6 
REMARK    5  A    between atoms: C_9  and  C_10 
REMARK    6  A    between atoms: N_15  and  C_14 
REMARK    7  A    between atoms: N_20  and  C_19 
REMARK       I    between atoms: C_22  and  N_20 
ROOT
ATOM      1  C   LIG d   1      -0.179  80.602 113.630  0.00  0.00     0.161 C 
ATOM      2  C   LIG d   1      -1.031  79.492 113.758  0.00  0.00     0.016 C 
ATOM      3  C   LIG d   1      -1.562  78.787 112.653  0.00  0.00     0.038 C 
ATOM      4  C   LIG d   1      -1.154  79.054 111.338  0.00  0.00     0.028 C 
ATOM      5  C   LIG d   1      -0.687  80.491 111.128  0.00  0.00    -0.047 C 
ATOM      6  C   LIG d   1       0.365  80.838 112.206  0.00  0.00     0.091 C 
ENDROOT
BRANCH   1   7
ATOM      7  O   LIG d   1       0.907  80.494 114.571  0.00  0.00    -0.368 OA
BRANCH   7   8
ATOM      8  C   LIG d   1       0.585  80.783 115.953  0.00  0.00     0.119 C 
BRANCH   8   9
ATOM      9  C   LIG d   1       0.779  82.297 116.167  0.00  0.00     0.028 C 
ATOM     10  C   LIG d   1      -0.011  82.825 117.377  0.00  0.00     0.006 C 
ENDBRANCH   8   9
BRANCH   8  11
ATOM     11  C   LIG d   1       1.573  80.108 116.909  0.00  0.00     0.028 C 
ATOM     12  C   LIG d   1       3.038  80.441 116.585  0.00  0.00     0.006 C 
ENDBRANCH   8  11
ENDBRANCH   7   8
ENDBRANCH   1   7
BRANCH   6  13
ATOM     13  N   LIG d   1       0.813  82.253 112.126  0.00  0.00    -0.311 N 
ATOM     14  C   LIG d   1       2.084  82.611 111.949  0.00  0.00     0.210 C 
ATOM     15  C   LIG d   1       2.332  84.122 111.914  0.00  0.00     0.109 C 
ATOM     16  O   LIG d   1       3.025  81.820 111.785  0.00  0.00    -0.276 OA
ATOM     17  H   LIG d   1       0.110  82.960 112.217  0.00  0.00     0.149 HD
ENDBRANCH   6  13
BRANCH   5  18
ATOM     18  N   LIG d   1      -0.162  80.593 109.754  0.00  0.00     0.381 N 
ATOM     19  H   LIG d   1      -0.448  81.460 109.345  0.00  0.00    -0.090 HD
ATOM     20  H   LIG d   1      -0.544  79.844 109.203  0.00  0.00    -0.090 HD
ATOM     21  H   LIG d   1       0.832  80.534 109.763  0.00  0.00    -0.090 HD
ENDBRANCH   5  18
BRANCH   3  22
ATOM     22  C   LIG d   1      -2.544  77.829 112.857  0.00  0.00     0.382 C 
ATOM     23  O   LIG d   1      -3.333  77.936 113.826  0.00  0.00    -0.241 OA
ATOM     24  O   LIG d   1      -2.622  76.836 112.109  0.00  0.00    -0.241 OA
ENDBRANCH   3  22
TORSDOF 7
ENDMDL
