MODEL 1
REMARK VINA RESULT:      -5.0      0.000      0.000
REMARK  7 active torsions:
REMARK  status: ('A' for Active; 'I' for Inactive)
REMARK    1  A    between atoms: C_2  and  C_3 
REMARK    2  A    between atoms: C_3  and  O_6 
REMARK    3  A    between atoms: C_3  and  C_4 
REMARK    4  A    between atoms: C_7  and  O_6 
REMARK    5  A    between atoms: C_9  and  C_10 
REMARK    6  A    between atoms: N_15  and  C_14 
REMARK    7  A    between atoms: N_20  and  C_19 
REMARK       I    between atoms: C_22  and  N_20 
ROOT
ATOM      1  C   LIG d   1      -0.431  80.241 112.974  0.00  0.00     0.161 C 
ATOM      2  C   LIG d   1      -1.449  79.501 112.349  0.00  0.00     0.016 C 
ATOM      3  C   LIG d   1      -2.320  78.634 113.047  0.00  0.00     0.038 C 
ATOM      4  C   LIG d   1      -2.331  78.562 114.448  0.00  0.00     0.028 C 
ATOM      5  C   LIG d   1      -0.988  78.909 115.082  0.00  0.00    -0.047 C 
ATOM      6  C   LIG d   1      -0.500  80.261 114.516  0.00  0.00     0.091 C 
ENDROOT
BRANCH   1   7
ATOM      7  O   LIG d   1      -0.416  81.586 112.456  0.00  0.00    -0.368 OA
BRANCH   7   8
ATOM      8  C   LIG d   1       0.168  81.756 111.141  0.00  0.00     0.119 C 
BRANCH   8   9
ATOM      9  C   LIG d   1       1.573  81.124 111.174  0.00  0.00     0.028 C 
ATOM     10  C   LIG d   1       1.870  80.288 109.918  0.00  0.00     0.006 C 
ENDBRANCH   8   9
BRANCH   8  11
ATOM     11  C   LIG d   1       0.397  83.236 110.820  0.00  0.00     0.028 C 
ATOM     12  C   LIG d   1      -0.784  84.126 111.238  0.00  0.00     0.006 C 
ENDBRANCH   8  11
ENDBRANCH   7   8
ENDBRANCH   1   7
BRANCH   6  13
ATOM     13  N   LIG d   1       0.848  80.634 115.021  0.00  0.00    -0.311 N 
ATOM     14  C   LIG d   1       1.047  81.291 116.163  0.00  0.00     0.210 C 
ATOM     15  C   LIG d   1       2.513  81.593 116.487  0.00  0.00     0.109 C 
ATOM     16  O   LIG d   1       0.150  81.623 116.953  0.00  0.00    -0.276 OA
ATOM     17  H   LIG d   1       1.634  80.375 114.457  0.00  0.00     0.149 HD
ENDBRANCH   6  13
BRANCH   5  18
ATOM     18  N   LIG d   1      -1.178  78.929 116.545  0.00  0.00     0.381 N 
ATOM     19  H   LIG d   1      -0.956  79.836 116.903  0.00  0.00    -0.090 HD
ATOM     20  H   LIG d   1      -0.553  78.263 116.963  0.00  0.00    -0.090 HD
ATOM     21  H   LIG d   1      -2.121  78.697 116.769  0.00  0.00    -0.090 HD
ENDBRANCH   5  18
BRANCH   3  22
ATOM     22  C   LIG d   1      -3.168  77.795 112.338  0.00  0.00     0.382 C 
ATOM     23  O   LIG d   1      -4.078  77.172 112.936  0.00  0.00    -0.241 OA
ATOM     24  O   LIG d   1      -3.006  77.620 111.115  0.00  0.00    -0.241 OA
ENDBRANCH   3  22
TORSDOF 7
ENDMDL
MODEL 2
REMARK VINA RESULT:      -4.9      2.229      4.983
REMARK  7 active torsions:
REMARK  status: ('A' for Active; 'I' for Inactive)
REMARK    1  A    between atoms: C_2  and  C_3 
REMARK    2  A    between atoms: C_3  and  O_6 
REMARK    3  A    between atoms: C_3  and  C_4 
REMARK    4  A    between atoms: C_7  and  O_6 
REMARK    5  A    between atoms: C_9  and  C_10 
REMARK    6  A    between atoms: N_15  and  C_14 
REMARK    7  A    between atoms: N_20  and  C_19 
REMARK       I    between atoms: C_22  and  N_20 
ROOT
ATOM      1  C   LIG d   1      -1.528  80.159 114.341  0.00  0.00     0.161 C 
ATOM      2  C   LIG d   1      -2.297  79.044 114.714  0.00  0.00     0.016 C 
ATOM      3  C   LIG d   1      -2.669  78.020 113.814  0.00  0.00     0.038 C 
ATOM      4  C   LIG d   1      -2.167  77.964 112.505  0.00  0.00     0.028 C 
ATOM      5  C   LIG d   1      -1.797  79.331 111.939  0.00  0.00    -0.047 C 
ATOM      6  C   LIG d   1      -0.877  80.059 112.945  0.00  0.00     0.091 C 
ENDROOT
BRANCH   1   7
ATOM      7  O   LIG d   1      -0.525  80.418 115.343  0.00  0.00    -0.368 OA
BRANCH   7   8
ATOM      8  C   LIG d   1      -0.714  79.759 116.620  0.00  0.00     0.119 C 
BRANCH   8   9
ATOM      9  C   LIG d   1      -0.836  80.857 117.694  0.00  0.00     0.028 C 
ATOM     10  C   LIG d   1      -2.035  80.631 118.631  0.00  0.00     0.006 C 
ENDBRANCH   8   9
BRANCH   8  11
ATOM     11  C   LIG d   1       0.520  78.942 117.013  0.00  0.00     0.028 C 
ATOM     12  C   LIG d   1       0.189  77.472 117.316  0.00  0.00     0.006 C 
ENDBRANCH   8  11
ENDBRANCH   7   8
ENDBRANCH   1   7
BRANCH   6  13
ATOM     13  N   LIG d   1      -0.537  81.437 112.507  0.00  0.00    -0.311 N 
ATOM     14  C   LIG d   1       0.570  81.740 111.832  0.00  0.00     0.210 C 
ATOM     15  C   LIG d   1       0.737  83.225 111.495  0.00  0.00     0.109 C 
ATOM     16  O   LIG d   1       1.414  80.914 111.451  0.00  0.00    -0.276 OA
ATOM     17  H   LIG d   1      -1.182  82.164 112.747  0.00  0.00     0.149 HD
ENDBRANCH   6  13
BRANCH   5  18
ATOM     18  N   LIG d   1      -1.161  79.112 110.627  0.00  0.00     0.381 N 
ATOM     19  H   LIG d   1      -1.838  79.225 109.899  0.00  0.00    -0.090 HD
ATOM     20  H   LIG d   1      -0.809  78.171 110.588  0.00  0.00    -0.090 HD
ATOM     21  H   LIG d   1      -0.414  79.759 110.498  0.00  0.00    -0.090 HD
ENDBRANCH   5  18
BRANCH   3  22
ATOM     22  C   LIG d   1      -3.586  77.058 114.209  0.00  0.00     0.382 C 
ATOM     23  O   LIG d   1      -3.532  76.577 115.367  0.00  0.00    -0.241 OA
ATOM     24  O   LIG d   1      -4.440  76.632 113.408  0.00  0.00    -0.241 OA
ENDBRANCH   3  22
TORSDOF 7
ENDMDL
MODEL 3
REMARK VINA RESULT:      -4.5      2.462      5.971
REMARK  7 active torsions:
REMARK  status: ('A' for Active; 'I' for Inactive)
REMARK    1  A    between atoms: C_2  and  C_3 
REMARK    2  A    between atoms: C_3  and  O_6 
REMARK    3  A    between atoms: C_3  and  C_4 
REMARK    4  A    between atoms: C_7  and  O_6 
REMARK    5  A    between atoms: C_9  and  C_10 
REMARK    6  A    between atoms: N_15  and  C_14 
REMARK    7  A    between atoms: N_20  and  C_19 
REMARK       I    between atoms: C_22  and  N_20 
ROOT
ATOM      1  C   LIG d   1       0.354  80.495 113.002  0.00  0.00     0.161 C 
ATOM      2  C   LIG d   1       1.368  81.377 112.594  0.00  0.00     0.016 C 
ATOM      3  C   LIG d   1       1.593  81.734 111.245  0.00  0.00     0.038 C 
ATOM      4  C   LIG d   1       0.717  81.348 110.220  0.00  0.00     0.028 C 
ATOM      5  C   LIG d   1      -0.025  80.048 110.515  0.00  0.00    -0.047 C 
ATOM      6  C   LIG d   1      -0.681  80.151 111.910  0.00  0.00     0.091 C 
ENDROOT
BRANCH   1   7
ATOM      7  O   LIG d   1      -0.307  81.017 114.172  0.00  0.00    -0.368 OA
BRANCH   7   8
ATOM      8  C   LIG d   1      -0.098  80.282 115.403  0.00  0.00     0.119 C 
BRANCH   8   9
ATOM      9  C   LIG d   1      -1.460  80.175 116.115  0.00  0.00     0.028 C 
ATOM     10  C   LIG d   1      -1.798  78.731 116.523  0.00  0.00     0.006 C 
ENDBRANCH   8   9
BRANCH   8  11
ATOM     11  C   LIG d   1       0.804  81.057 116.368  0.00  0.00     0.028 C 
ATOM     12  C   LIG d   1       2.123  80.326 116.666  0.00  0.00     0.006 C 
ENDBRANCH   8  11
ENDBRANCH   7   8
ENDBRANCH   1   7
BRANCH   6  13
ATOM     13  N   LIG d   1      -1.357  78.890 112.313  0.00  0.00    -0.311 N 
ATOM     14  C   LIG d   1      -2.576  78.850 112.848  0.00  0.00     0.210 C 
ATOM     15  C   LIG d   1      -3.078  77.449 113.209  0.00  0.00     0.109 C 
ATOM     16  O   LIG d   1      -3.302  79.839 113.029  0.00  0.00    -0.276 OA
ATOM     17  H   LIG d   1      -0.852  78.037 112.172  0.00  0.00     0.149 HD
ENDBRANCH   6  13
BRANCH   5  18
ATOM     18  N   LIG d   1      -1.002  79.837 109.430  0.00  0.00     0.381 N 
ATOM     19  H   LIG d   1      -0.522  79.722 108.560  0.00  0.00    -0.090 HD
ATOM     20  H   LIG d   1      -1.591  80.648 109.360  0.00  0.00    -0.090 HD
ATOM     21  H   LIG d   1      -1.555  79.031 109.622  0.00  0.00    -0.090 HD
ENDBRANCH   5  18
BRANCH   3  22
ATOM     22  C   LIG d   1       2.728  82.454 110.905  0.00  0.00     0.382 C 
ATOM     23  O   LIG d   1       2.691  83.708 110.877  0.00  0.00    -0.241 OA
ATOM     24  O   LIG d   1       3.777  81.864 110.582  0.00  0.00    -0.241 OA
ENDBRANCH   3  22
TORSDOF 7
ENDMDL
MODEL 4
REMARK VINA RESULT:      -4.3      2.984      5.711
REMARK  7 active torsions:
REMARK  status: ('A' for Active; 'I' for Inactive)
REMARK    1  A    between atoms: C_2  and  C_3 
REMARK    2  A    between atoms: C_3  and  O_6 
REMARK    3  A    between atoms: C_3  and  C_4 
REMARK    4  A    between atoms: C_7  and  O_6 
REMARK    5  A    between atoms: C_9  and  C_10 
REMARK    6  A    between atoms: N_15  and  C_14 
REMARK    7  A    between atoms: N_20  and  C_19 
REMARK       I    between atoms: C_22  and  N_20 
ROOT
ATOM      1  C   LIG d   1      -3.303  78.188 115.370  0.00  0.00     0.161 C 
ATOM      2  C   LIG d   1      -3.186  77.964 113.988  0.00  0.00     0.016 C 
ATOM      3  C   LIG d   1      -2.196  78.571 113.182  0.00  0.00     0.038 C 
ATOM      4  C   LIG d   1      -1.154  79.331 113.734  0.00  0.00     0.028 C 
ATOM      5  C   LIG d   1      -1.524  79.995 115.056  0.00  0.00    -0.047 C 
ATOM      6  C   LIG d   1      -2.108  78.927 116.008  0.00  0.00     0.091 C 
ENDROOT
BRANCH   1   7
ATOM      7  O   LIG d   1      -3.541  76.940 116.049  0.00  0.00    -0.368 OA
BRANCH   7   8
ATOM      8  C   LIG d   1      -2.385  76.089 116.242  0.00  0.00     0.119 C 
BRANCH   8   9
ATOM      9  C   LIG d   1      -2.697  74.728 115.590  0.00  0.00     0.028 C 
ATOM     10  C   LIG d   1      -4.185  74.577 115.231  0.00  0.00     0.006 C 
ENDBRANCH   8   9
BRANCH   8  11
ATOM     11  C   LIG d   1      -2.158  75.784 117.726  0.00  0.00     0.028 C 
ATOM     12  C   LIG d   1      -3.378  76.123 118.597  0.00  0.00     0.006 C 
ENDBRANCH   8  11
ENDBRANCH   7   8
ENDBRANCH   1   7
BRANCH   6  13
ATOM     13  N   LIG d   1      -2.574  79.508 117.295  0.00  0.00    -0.311 N 
ATOM     14  C   LIG d   1      -1.830  79.532 118.400  0.00  0.00     0.210 C 
ATOM     15  C   LIG d   1      -2.509  80.159 119.622  0.00  0.00     0.109 C 
ATOM     16  O   LIG d   1      -0.662  79.123 118.475  0.00  0.00    -0.276 OA
ATOM     17  H   LIG d   1      -3.499  79.890 117.314  0.00  0.00     0.149 HD
ENDBRANCH   6  13
BRANCH   5  18
ATOM     18  N   LIG d   1      -0.308  80.640 115.587  0.00  0.00     0.381 N 
ATOM     19  H   LIG d   1       0.394  80.677 114.875  0.00  0.00    -0.090 HD
ATOM     20  H   LIG d   1       0.046  80.088 116.349  0.00  0.00    -0.090 HD
ATOM     21  H   LIG d   1      -0.520  81.560 115.904  0.00  0.00    -0.090 HD
ENDBRANCH   5  18
BRANCH   3  22
ATOM     22  C   LIG d   1      -2.265  78.452 111.802  0.00  0.00     0.382 C 
ATOM     23  O   LIG d   1      -2.897  77.500 111.286  0.00  0.00    -0.241 OA
ATOM     24  O   LIG d   1      -1.666  79.261 111.068  0.00  0.00    -0.241 OA
ENDBRANCH   3  22
TORSDOF 7
ENDMDL
MODEL 5
REMARK VINA RESULT:      -4.3      2.370      5.238
REMARK  7 active torsions:
REMARK  status: ('A' for Active; 'I' for Inactive)
REMARK    1  A    between atoms: C_2  and  C_3 
REMARK    2  A    between atoms: C_3  and  O_6 
REMARK    3  A    between atoms: C_3  and  C_4 
REMARK    4  A    between atoms: C_7  and  O_6 
REMARK    5  A    between atoms: C_9  and  C_10 
REMARK    6  A    between atoms: N_15  and  C_14 
REMARK    7  A    between atoms: N_20  and  C_19 
REMARK       I    between atoms: C_22  and  N_20 
ROOT
ATOM      1  C   LIG d   1      -1.284  78.751 115.556  0.00  0.00     0.161 C 
ATOM      2  C   LIG d   1      -2.061  78.016 114.645  0.00  0.00     0.016 C 
ATOM      3  C   LIG d   1      -2.131  78.314 113.264  0.00  0.00     0.038 C 
ATOM      4  C   LIG d   1      -1.306  79.281 112.672  0.00  0.00     0.028 C 
ATOM      5  C   LIG d   1      -0.879  80.385 113.633  0.00  0.00    -0.047 C 
ATOM      6  C   LIG d   1      -0.291  79.740 114.909  0.00  0.00     0.091 C 
ENDROOT
BRANCH   1   7
ATOM      7  O   LIG d   1      -0.590  77.852 116.443  0.00  0.00    -0.368 OA
BRANCH   7   8
ATOM      8  C   LIG d   1      -1.307  76.653 116.824  0.00  0.00     0.119 C 
BRANCH   8   9
ATOM      9  C   LIG d   1      -1.724  76.811 118.299  0.00  0.00     0.028 C 
ATOM     10  C   LIG d   1      -3.202  77.207 118.452  0.00  0.00     0.006 C 
ENDBRANCH   8   9
BRANCH   8  11
ATOM     11  C   LIG d   1      -0.394  75.423 116.791  0.00  0.00     0.028 C 
ATOM     12  C   LIG d   1      -0.803  74.407 115.712  0.00  0.00     0.006 C 
ENDBRANCH   8  11
ENDBRANCH   7   8
ENDBRANCH   1   7
BRANCH   6  13
ATOM     13  N   LIG d   1       0.074  80.748 115.938  0.00  0.00    -0.311 N 
ATOM     14  C   LIG d   1       1.306  81.232 116.085  0.00  0.00     0.210 C 
ATOM     15  C   LIG d   1       1.471  82.247 117.220  0.00  0.00     0.109 C 
ATOM     16  O   LIG d   1       2.272  80.940 115.364  0.00  0.00    -0.276 OA
ATOM     17  H   LIG d   1      -0.655  81.064 116.546  0.00  0.00     0.149 HD
ENDBRANCH   6  13
BRANCH   5  18
ATOM     18  N   LIG d   1       0.086  81.246 112.924  0.00  0.00     0.381 N 
ATOM     19  H   LIG d   1       0.588  81.807 113.583  0.00  0.00    -0.090 HD
ATOM     20  H   LIG d   1      -0.418  81.859 112.307  0.00  0.00    -0.090 HD
ATOM     21  H   LIG d   1       0.722  80.686 112.400  0.00  0.00    -0.090 HD
ENDBRANCH   5  18
BRANCH   3  22
ATOM     22  C   LIG d   1      -3.065  77.668 112.469  0.00  0.00     0.382 C 
ATOM     23  O   LIG d   1      -4.043  77.085 112.997  0.00  0.00    -0.241 OA
ATOM     24  O   LIG d   1      -2.918  77.622 111.233  0.00  0.00    -0.241 OA
ENDBRANCH   3  22
TORSDOF 7
ENDMDL
MODEL 6
REMARK VINA RESULT:      -4.2      2.969      5.513
REMARK  7 active torsions:
REMARK  status: ('A' for Active; 'I' for Inactive)
REMARK    1  A    between atoms: C_2  and  C_3 
REMARK    2  A    between atoms: C_3  and  O_6 
REMARK    3  A    between atoms: C_3  and  C_4 
REMARK    4  A    between atoms: C_7  and  O_6 
REMARK    5  A    between atoms: C_9  and  C_10 
REMARK    6  A    between atoms: N_15  and  C_14 
REMARK    7  A    between atoms: N_20  and  C_19 
REMARK       I    between atoms: C_22  and  N_20 
ROOT
ATOM      1  C   LIG d   1      -0.627  79.129 114.870  0.00  0.00     0.161 C 
ATOM      2  C   LIG d   1      -1.091  80.291 114.232  0.00  0.00     0.016 C 
ATOM      3  C   LIG d   1      -2.317  80.357 113.530  0.00  0.00     0.038 C 
ATOM      4  C   LIG d   1      -3.239  79.300 113.549  0.00  0.00     0.028 C 
ATOM      5  C   LIG d   1      -2.593  77.935 113.756  0.00  0.00    -0.047 C 
ATOM      6  C   LIG d   1      -1.671  77.999 114.996  0.00  0.00     0.091 C 
ENDROOT
BRANCH   1   7
ATOM      7  O   LIG d   1      -0.093  79.464 116.167  0.00  0.00    -0.368 OA
BRANCH   7   8
ATOM      8  C   LIG d   1      -1.013  79.359 117.281  0.00  0.00     0.119 C 
BRANCH   8   9
ATOM      9  C   LIG d   1      -1.178  80.769 117.880  0.00  0.00     0.028 C 
ATOM     10  C   LIG d   1       0.100  81.615 117.749  0.00  0.00     0.006 C 
ENDBRANCH   8   9
BRANCH   8  11
ATOM     11  C   LIG d   1      -0.427  78.505 118.409  0.00  0.00     0.028 C 
ATOM     12  C   LIG d   1       0.946  77.911 118.055  0.00  0.00     0.006 C 
ENDBRANCH   8  11
ENDBRANCH   7   8
ENDBRANCH   1   7
BRANCH   6  13
ATOM     13  N   LIG d   1      -0.934  76.729 115.220  0.00  0.00    -0.311 N 
ATOM     14  C   LIG d   1      -1.370  75.760 116.024  0.00  0.00     0.210 C 
ATOM     15  C   LIG d   1      -0.447  74.542 116.129  0.00  0.00     0.109 C 
ATOM     16  O   LIG d   1      -2.450  75.780 116.634  0.00  0.00    -0.276 OA
ATOM     17  H   LIG d   1      -0.063  76.615 114.740  0.00  0.00     0.149 HD
ENDBRANCH   6  13
BRANCH   5  18
ATOM     18  N   LIG d   1      -3.677  76.944 113.893  0.00  0.00     0.381 N 
ATOM     19  H   LIG d   1      -4.388  77.125 113.212  0.00  0.00    -0.090 HD
ATOM     20  H   LIG d   1      -4.085  77.033 114.807  0.00  0.00    -0.090 HD
ATOM     21  H   LIG d   1      -3.315  76.024 113.770  0.00  0.00    -0.090 HD
ENDBRANCH   5  18
BRANCH   3  22
ATOM     22  C   LIG d   1      -2.612  81.476 112.767  0.00  0.00     0.382 C 
ATOM     23  O   LIG d   1      -3.800  81.868 112.662  0.00  0.00    -0.241 OA
ATOM     24  O   LIG d   1      -1.712  82.073 112.146  0.00  0.00    -0.241 OA
ENDBRANCH   3  22
TORSDOF 7
ENDMDL
MODEL 7
REMARK VINA RESULT:      -4.2      2.531      5.870
REMARK  7 active torsions:
REMARK  status: ('A' for Active; 'I' for Inactive)
REMARK    1  A    between atoms: C_2  and  C_3 
REMARK    2  A    between atoms: C_3  and  O_6 
REMARK    3  A    between atoms: C_3  and  C_4 
REMARK    4  A    between atoms: C_7  and  O_6 
REMARK    5  A    between atoms: C_9  and  C_10 
REMARK    6  A    between atoms: N_15  and  C_14 
REMARK    7  A    between atoms: N_20  and  C_19 
REMARK       I    between atoms: C_22  and  N_20 
ROOT
ATOM      1  C   LIG d   1      -1.116  79.247 114.486  0.00  0.00     0.161 C 
ATOM      2  C   LIG d   1      -0.357  80.271 113.895  0.00  0.00     0.016 C 
ATOM      3  C   LIG d   1      -0.319  80.508 112.502  0.00  0.00     0.038 C 
ATOM      4  C   LIG d   1      -1.162  79.826 111.611  0.00  0.00     0.028 C 
ATOM      5  C   LIG d   1      -1.572  78.442 112.104  0.00  0.00    -0.047 C 
ATOM      6  C   LIG d   1      -2.128  78.565 113.541  0.00  0.00     0.091 C 
ENDROOT
BRANCH   1   7
ATOM      7  O   LIG d   1      -1.786  79.749 115.659  0.00  0.00    -0.368 OA
BRANCH   7   8
ATOM      8  C   LIG d   1      -1.104  79.542 116.920  0.00  0.00     0.119 C 
BRANCH   8   9
ATOM      9  C   LIG d   1      -0.548  78.105 116.915  0.00  0.00     0.028 C 
ATOM     10  C   LIG d   1      -1.288  77.185 117.901  0.00  0.00     0.006 C 
ENDBRANCH   8   9
BRANCH   8  11
ATOM     11  C   LIG d   1      -2.083  79.593 118.097  0.00  0.00     0.028 C 
ATOM     12  C   LIG d   1      -3.478  80.095 117.691  0.00  0.00     0.006 C 
ENDBRANCH   8  11
ENDBRANCH   7   8
ENDBRANCH   1   7
BRANCH   6  13
ATOM     13  N   LIG d   1      -2.474  77.245 114.129  0.00  0.00    -0.311 N 
ATOM     14  C   LIG d   1      -3.568  77.032 114.859  0.00  0.00     0.210 C 
ATOM     15  C   LIG d   1      -3.724  75.602 115.387  0.00  0.00     0.109 C 
ATOM     16  O   LIG d   1      -4.440  77.882 115.091  0.00  0.00    -0.276 OA
ATOM     17  H   LIG d   1      -1.836  76.491 113.964  0.00  0.00     0.149 HD
ENDBRANCH   6  13
BRANCH   5  18
ATOM     18  N   LIG d   1      -2.556  77.902 111.147  0.00  0.00     0.381 N 
ATOM     19  H   LIG d   1      -3.203  78.620 110.885  0.00  0.00    -0.090 HD
ATOM     20  H   LIG d   1      -3.070  77.162 111.592  0.00  0.00    -0.090 HD
ATOM     21  H   LIG d   1      -2.090  77.554 110.339  0.00  0.00    -0.090 HD
ENDBRANCH   5  18
BRANCH   3  22
ATOM     22  C   LIG d   1       0.598  81.408 111.982  0.00  0.00     0.382 C 
ATOM     23  O   LIG d   1       1.826  81.229 112.168  0.00  0.00    -0.241 OA
ATOM     24  O   LIG d   1       0.212  82.420 111.368  0.00  0.00    -0.241 OA
ENDBRANCH   3  22
TORSDOF 7
ENDMDL
MODEL 8
REMARK VINA RESULT:      -4.1      3.122      5.943
REMARK  7 active torsions:
REMARK  status: ('A' for Active; 'I' for Inactive)
REMARK    1  A    between atoms: C_2  and  C_3 
REMARK    2  A    between atoms: C_3  and  O_6 
REMARK    3  A    between atoms: C_3  and  C_4 
REMARK    4  A    between atoms: C_7  and  O_6 
REMARK    5  A    between atoms: C_9  and  C_10 
REMARK    6  A    between atoms: N_15  and  C_14 
REMARK    7  A    between atoms: N_20  and  C_19 
REMARK       I    between atoms: C_22  and  N_20 
ROOT
ATOM      1  C   LIG d   1      -0.974  79.019 116.027  0.00  0.00     0.161 C 
ATOM      2  C   LIG d   1      -0.110  80.095 115.769  0.00  0.00     0.016 C 
ATOM      3  C   LIG d   1       1.040  80.373 116.544  0.00  0.00     0.038 C 
ATOM      4  C   LIG d   1       1.489  79.498 117.545  0.00  0.00     0.028 C 
ATOM      5  C   LIG d   1       0.372  78.670 118.171  0.00  0.00    -0.047 C 
ATOM      6  C   LIG d   1      -0.439  77.989 117.045  0.00  0.00     0.091 C 
ENDROOT
BRANCH   1   7
ATOM      7  O   LIG d   1      -1.323  78.365 114.791  0.00  0.00    -0.368 OA
BRANCH   7   8
ATOM      8  C   LIG d   1      -2.647  78.646 114.273  0.00  0.00     0.119 C 
BRANCH   8   9
ATOM      9  C   LIG d   1      -3.329  77.294 113.989  0.00  0.00     0.028 C 
ATOM     10  C   LIG d   1      -4.242  76.844 115.141  0.00  0.00     0.006 C 
ENDBRANCH   8   9
BRANCH   8  11
ATOM     11  C   LIG d   1      -2.576  79.358 112.919  0.00  0.00     0.028 C 
ATOM     12  C   LIG d   1      -2.793  80.876 113.031  0.00  0.00     0.006 C 
ENDBRANCH   8  11
ENDBRANCH   7   8
ENDBRANCH   1   7
BRANCH   6  13
ATOM     13  N   LIG d   1      -1.603  77.227 117.567  0.00  0.00    -0.311 N 
ATOM     14  C   LIG d   1      -1.550  75.934 117.884  0.00  0.00     0.210 C 
ATOM     15  C   LIG d   1      -2.869  75.337 118.385  0.00  0.00     0.109 C 
ATOM     16  O   LIG d   1      -0.528  75.234 117.829  0.00  0.00    -0.276 OA
ATOM     17  H   LIG d   1      -2.465  77.725 117.673  0.00  0.00     0.149 HD
ENDBRANCH   6  13
BRANCH   5  18
ATOM     18  N   LIG d   1       0.998  77.707 119.096  0.00  0.00     0.381 N 
ATOM     19  H   LIG d   1       0.369  76.948 119.271  0.00  0.00    -0.090 HD
ATOM     20  H   LIG d   1       1.184  78.168 119.969  0.00  0.00    -0.090 HD
ATOM     21  H   LIG d   1       1.847  77.361 118.707  0.00  0.00    -0.090 HD
ENDBRANCH   5  18
BRANCH   3  22
ATOM     22  C   LIG d   1       1.731  81.559 116.347  0.00  0.00     0.382 C 
ATOM     23  O   LIG d   1       2.907  81.534 115.911  0.00  0.00    -0.241 OA
ATOM     24  O   LIG d   1       1.209  82.651 116.643  0.00  0.00    -0.241 OA
ENDBRANCH   3  22
TORSDOF 7
ENDMDL
MODEL 9
REMARK VINA RESULT:      -4.1      2.307      3.555
REMARK  7 active torsions:
REMARK  status: ('A' for Active; 'I' for Inactive)
REMARK    1  A    between atoms: C_2  and  C_3 
REMARK    2  A    between atoms: C_3  and  O_6 
REMARK    3  A    between atoms: C_3  and  C_4 
REMARK    4  A    between atoms: C_7  and  O_6 
REMARK    5  A    between atoms: C_9  and  C_10 
REMARK    6  A    between atoms: N_15  and  C_14 
REMARK    7  A    between atoms: N_20  and  C_19 
REMARK       I    between atoms: C_22  and  N_20 
ROOT
ATOM      1  C   LIG d   1      -2.142  78.099 114.579  0.00  0.00     0.161 C 
ATOM      2  C   LIG d   1      -2.966  76.969 114.716  0.00  0.00     0.016 C 
ATOM      3  C   LIG d   1      -2.845  76.042 115.776  0.00  0.00     0.038 C 
ATOM      4  C   LIG d   1      -1.985  76.266 116.862  0.00  0.00     0.028 C 
ATOM      5  C   LIG d   1      -0.780  77.131 116.512  0.00  0.00    -0.047 C 
ATOM      6  C   LIG d   1      -1.273  78.419 115.813  0.00  0.00     0.091 C 
ENDROOT
BRANCH   1   7
ATOM      7  O   LIG d   1      -2.939  79.244 114.217  0.00  0.00    -0.368 OA
BRANCH   7   8
ATOM      8  C   LIG d   1      -2.802  79.711 112.853  0.00  0.00     0.119 C 
BRANCH   8   9
ATOM      9  C   LIG d   1      -1.924  78.692 112.101  0.00  0.00     0.028 C 
ATOM     10  C   LIG d   1      -2.712  77.913 111.034  0.00  0.00     0.006 C 
ENDBRANCH   8   9
BRANCH   8  11
ATOM     11  C   LIG d   1      -2.031  81.033 112.792  0.00  0.00     0.028 C 
ATOM     12  C   LIG d   1      -0.646  80.887 112.141  0.00  0.00     0.006 C 
ENDBRANCH   8  11
ENDBRANCH   7   8
ENDBRANCH   1   7
BRANCH   6  13
ATOM     13  N   LIG d   1      -0.151  79.283 115.361  0.00  0.00    -0.311 N 
ATOM     14  C   LIG d   1       0.302  80.322 116.061  0.00  0.00     0.210 C 
ATOM     15  C   LIG d   1       1.452  81.092 115.404  0.00  0.00     0.109 C 
ATOM     16  O   LIG d   1      -0.119  80.660 117.178  0.00  0.00    -0.276 OA
ATOM     17  H   LIG d   1       0.269  79.062 114.479  0.00  0.00     0.149 HD
ENDBRANCH   6  13
BRANCH   5  18
ATOM     18  N   LIG d   1      -0.044  77.398 117.762  0.00  0.00     0.381 N 
ATOM     19  H   LIG d   1      -0.652  77.271 118.547  0.00  0.00    -0.090 HD
ATOM     20  H   LIG d   1       0.270  78.352 117.758  0.00  0.00    -0.090 HD
ATOM     21  H   LIG d   1       0.737  76.784 117.836  0.00  0.00    -0.090 HD
ENDBRANCH   5  18
BRANCH   3  22
ATOM     22  C   LIG d   1      -3.562  74.856 115.737  0.00  0.00     0.382 C 
ATOM     23  O   LIG d   1      -4.090  74.478 114.664  0.00  0.00    -0.241 OA
ATOM     24  O   LIG d   1      -3.725  74.182 116.772  0.00  0.00    -0.241 OA
ENDBRANCH   3  22
TORSDOF 7
ENDMDL
