MODEL 1
REMARK VINA RESULT:      -5.4      0.000      0.000
REMARK  7 active torsions:
REMARK  status: ('A' for Active; 'I' for Inactive)
REMARK    1  A    between atoms: C_2  and  C_3 
REMARK    2  A    between atoms: C_3  and  O_6 
REMARK    3  A    between atoms: C_3  and  C_4 
REMARK    4  A    between atoms: C_7  and  O_6 
REMARK    5  A    between atoms: C_9  and  C_10 
REMARK    6  A    between atoms: N_15  and  C_14 
REMARK    7  A    between atoms: N_20  and  C_19 
REMARK       I    between atoms: C_22  and  N_20 
ROOT
ATOM      1  C   LIG d   1      -0.127  80.194 111.470  0.00  0.00     0.161 C 
ATOM      2  C   LIG d   1      -1.188  79.293 111.289  0.00  0.00     0.016 C 
ATOM      3  C   LIG d   1      -1.963  78.778 112.354  0.00  0.00     0.038 C 
ATOM      4  C   LIG d   1      -1.824  79.251 113.668  0.00  0.00     0.028 C 
ATOM      5  C   LIG d   1      -0.430  79.786 113.975  0.00  0.00    -0.047 C 
ATOM      6  C   LIG d   1      -0.032  80.807 112.884  0.00  0.00     0.091 C 
ENDROOT
BRANCH   1   7
ATOM      7  O   LIG d   1      -0.195  81.236 110.477  0.00  0.00    -0.368 OA
BRANCH   7   8
ATOM      8  C   LIG d   1       0.846  81.226 109.469  0.00  0.00     0.119 C 
BRANCH   8   9
ATOM      9  C   LIG d   1       1.795  80.057 109.797  0.00  0.00     0.028 C 
ATOM     10  C   LIG d   1       3.266  80.500 109.879  0.00  0.00     0.006 C 
ENDBRANCH   8   9
BRANCH   8  11
ATOM     11  C   LIG d   1       1.712  82.486 109.551  0.00  0.00     0.028 C 
ATOM     12  C   LIG d   1       0.893  83.755 109.837  0.00  0.00     0.006 C 
ENDBRANCH   8  11
ENDBRANCH   7   8
ENDBRANCH   1   7
BRANCH   6  13
ATOM     13  N   LIG d   1       1.352  81.317 113.061  0.00  0.00    -0.311 N 
ATOM     14  C   LIG d   1       1.637  82.596 113.298  0.00  0.00     0.210 C 
ATOM     15  C   LIG d   1       3.131  82.912 113.430  0.00  0.00     0.109 C 
ATOM     16  O   LIG d   1       0.794  83.493 113.445  0.00  0.00    -0.276 OA
ATOM     17  H   LIG d   1       2.096  80.651 112.990  0.00  0.00     0.149 HD
ENDBRANCH   6  13
BRANCH   5  18
ATOM     18  N   LIG d   1      -0.465  80.371 115.328  0.00  0.00     0.381 N 
ATOM     19  H   LIG d   1      -1.290  80.070 115.806  0.00  0.00    -0.090 HD
ATOM     20  H   LIG d   1      -0.494  81.373 115.249  0.00  0.00    -0.090 HD
ATOM     21  H   LIG d   1       0.344  80.095 115.840  0.00  0.00    -0.090 HD
ENDBRANCH   5  18
BRANCH   3  22
ATOM     22  C   LIG d   1      -2.862  77.750 112.116  0.00  0.00     0.382 C 
ATOM     23  O   LIG d   1      -3.110  76.913 113.017  0.00  0.00    -0.241 OA
ATOM     24  O   LIG d   1      -3.394  77.623 110.997  0.00  0.00    -0.241 OA
ENDBRANCH   3  22
TORSDOF 7
ENDMDL
MODEL 2
REMARK VINA RESULT:      -4.6      3.113      5.464
REMARK  7 active torsions:
REMARK  status: ('A' for Active; 'I' for Inactive)
REMARK    1  A    between atoms: C_2  and  C_3 
REMARK    2  A    between atoms: C_3  and  O_6 
REMARK    3  A    between atoms: C_3  and  C_4 
REMARK    4  A    between atoms: C_7  and  O_6 
REMARK    5  A    between atoms: C_9  and  C_10 
REMARK    6  A    between atoms: N_15  and  C_14 
REMARK    7  A    between atoms: N_20  and  C_19 
REMARK       I    between atoms: C_22  and  N_20 
ROOT
ATOM      1  C   LIG d   1      -0.574  77.319 114.357  0.00  0.00     0.161 C 
ATOM      2  C   LIG d   1      -0.757  76.511 115.491  0.00  0.00     0.016 C 
ATOM      3  C   LIG d   1      -0.746  77.011 116.813  0.00  0.00     0.038 C 
ATOM      4  C   LIG d   1      -0.703  78.386 117.085  0.00  0.00     0.028 C 
ATOM      5  C   LIG d   1      -0.011  79.198 115.995  0.00  0.00    -0.047 C 
ATOM      6  C   LIG d   1      -0.636  78.837 114.628  0.00  0.00     0.091 C 
ENDROOT
BRANCH   1   7
ATOM      7  O   LIG d   1      -1.524  76.953 113.337  0.00  0.00    -0.368 OA
BRANCH   7   8
ATOM      8  C   LIG d   1      -2.775  77.684 113.341  0.00  0.00     0.119 C 
BRANCH   8   9
ATOM      9  C   LIG d   1      -3.871  76.723 113.841  0.00  0.00     0.028 C 
ATOM     10  C   LIG d   1      -4.358  77.075 115.257  0.00  0.00     0.006 C 
ENDBRANCH   8   9
BRANCH   8  11
ATOM     11  C   LIG d   1      -3.197  78.074 111.921  0.00  0.00     0.028 C 
ATOM     12  C   LIG d   1      -2.072  77.882 110.891  0.00  0.00     0.006 C 
ENDBRANCH   8  11
ENDBRANCH   7   8
ENDBRANCH   1   7
BRANCH   6  13
ATOM     13  N   LIG d   1       0.040  79.524 113.497  0.00  0.00    -0.311 N 
ATOM     14  C   LIG d   1      -0.503  80.537 112.824  0.00  0.00     0.210 C 
ATOM     15  C   LIG d   1       0.354  81.088 111.681  0.00  0.00     0.109 C 
ATOM     16  O   LIG d   1      -1.601  81.052 113.086  0.00  0.00    -0.276 OA
ATOM     17  H   LIG d   1       0.948  79.191 113.237  0.00  0.00     0.149 HD
ENDBRANCH   6  13
BRANCH   5  18
ATOM     18  N   LIG d   1      -0.159  80.624 116.340  0.00  0.00     0.381 N 
ATOM     19  H   LIG d   1       0.559  81.157 115.891  0.00  0.00    -0.090 HD
ATOM     20  H   LIG d   1      -0.056  80.731 117.334  0.00  0.00    -0.090 HD
ATOM     21  H   LIG d   1      -1.054  80.953 116.054  0.00  0.00    -0.090 HD
ENDBRANCH   5  18
BRANCH   3  22
ATOM     22  C   LIG d   1      -0.740  76.128 117.882  0.00  0.00     0.382 C 
ATOM     23  O   LIG d   1      -1.149  76.502 119.008  0.00  0.00    -0.241 OA
ATOM     24  O   LIG d   1      -0.289  74.974 117.746  0.00  0.00    -0.241 OA
ENDBRANCH   3  22
TORSDOF 7
ENDMDL
MODEL 3
REMARK VINA RESULT:      -4.6      2.527      4.519
REMARK  7 active torsions:
REMARK  status: ('A' for Active; 'I' for Inactive)
REMARK    1  A    between atoms: C_2  and  C_3 
REMARK    2  A    between atoms: C_3  and  O_6 
REMARK    3  A    between atoms: C_3  and  C_4 
REMARK    4  A    between atoms: C_7  and  O_6 
REMARK    5  A    between atoms: C_9  and  C_10 
REMARK    6  A    between atoms: N_15  and  C_14 
REMARK    7  A    between atoms: N_20  and  C_19 
REMARK       I    between atoms: C_22  and  N_20 
ROOT
ATOM      1  C   LIG d   1       1.280  83.043 111.902  0.00  0.00     0.161 C 
ATOM      2  C   LIG d   1       0.030  82.616 112.380  0.00  0.00     0.016 C 
ATOM      3  C   LIG d   1      -0.520  81.345 112.095  0.00  0.00     0.038 C 
ATOM      4  C   LIG d   1       0.216  80.351 111.433  0.00  0.00     0.028 C 
ATOM      5  C   LIG d   1       1.283  80.909 110.497  0.00  0.00    -0.047 C 
ATOM      6  C   LIG d   1       2.145  81.932 111.271  0.00  0.00     0.091 C 
ENDROOT
BRANCH   1   7
ATOM      7  O   LIG d   1       2.006  83.705 112.957  0.00  0.00    -0.368 OA
BRANCH   7   8
ATOM      8  C   LIG d   1       2.728  82.844 113.871  0.00  0.00     0.119 C 
BRANCH   8   9
ATOM      9  C   LIG d   1       2.093  83.013 115.265  0.00  0.00     0.028 C 
ATOM     10  C   LIG d   1       1.605  84.450 115.518  0.00  0.00     0.006 C 
ENDBRANCH   8   9
BRANCH   8  11
ATOM     11  C   LIG d   1       4.183  83.296 114.031  0.00  0.00     0.028 C 
ATOM     12  C   LIG d   1       4.518  84.535 113.185  0.00  0.00     0.006 C 
ENDBRANCH   8  11
ENDBRANCH   7   8
ENDBRANCH   1   7
BRANCH   6  13
ATOM     13  N   LIG d   1       3.160  82.589 110.407  0.00  0.00    -0.311 N 
ATOM     14  C   LIG d   1       4.443  82.233 110.383  0.00  0.00     0.210 C 
ATOM     15  C   LIG d   1       5.324  83.053 109.434  0.00  0.00     0.109 C 
ATOM     16  O   LIG d   1       4.929  81.295 111.032  0.00  0.00    -0.276 OA
ATOM     17  H   LIG d   1       2.845  83.339 109.823  0.00  0.00     0.149 HD
ENDBRANCH   6  13
BRANCH   5  18
ATOM     18  N   LIG d   1       2.063  79.769 109.980  0.00  0.00     0.381 N 
ATOM     19  H   LIG d   1       1.664  78.911 110.304  0.00  0.00    -0.090 HD
ATOM     20  H   LIG d   1       3.003  79.832 110.331  0.00  0.00    -0.090 HD
ATOM     21  H   LIG d   1       2.071  79.785 108.984  0.00  0.00    -0.090 HD
ENDBRANCH   5  18
BRANCH   3  22
ATOM     22  C   LIG d   1      -1.835  81.072 112.439  0.00  0.00     0.382 C 
ATOM     23  O   LIG d   1      -2.247  79.886 112.449  0.00  0.00    -0.241 OA
ATOM     24  O   LIG d   1      -2.626  81.998 112.696  0.00  0.00    -0.241 OA
ENDBRANCH   3  22
TORSDOF 7
ENDMDL
MODEL 4
REMARK VINA RESULT:      -4.6      2.135      2.629
REMARK  7 active torsions:
REMARK  status: ('A' for Active; 'I' for Inactive)
REMARK    1  A    between atoms: C_2  and  C_3 
REMARK    2  A    between atoms: C_3  and  O_6 
REMARK    3  A    between atoms: C_3  and  C_4 
REMARK    4  A    between atoms: C_7  and  O_6 
REMARK    5  A    between atoms: C_9  and  C_10 
REMARK    6  A    between atoms: N_15  and  C_14 
REMARK    7  A    between atoms: N_20  and  C_19 
REMARK       I    between atoms: C_22  and  N_20 
ROOT
ATOM      1  C   LIG d   1      -0.535  79.978 113.250  0.00  0.00     0.161 C 
ATOM      2  C   LIG d   1      -1.478  79.434 112.361  0.00  0.00     0.016 C 
ATOM      3  C   LIG d   1      -2.486  78.524 112.757  0.00  0.00     0.038 C 
ATOM      4  C   LIG d   1      -2.714  78.211 114.105  0.00  0.00     0.028 C 
ATOM      5  C   LIG d   1      -1.470  78.343 114.977  0.00  0.00    -0.047 C 
ATOM      6  C   LIG d   1      -0.838  79.734 114.743  0.00  0.00     0.091 C 
ENDROOT
BRANCH   1   7
ATOM      7  O   LIG d   1      -0.379  81.387 112.994  0.00  0.00    -0.368 OA
BRANCH   7   8
ATOM      8  C   LIG d   1       0.394  81.740 111.820  0.00  0.00     0.119 C 
BRANCH   8   9
ATOM      9  C   LIG d   1       1.790  82.181 112.300  0.00  0.00     0.028 C 
ATOM     10  C   LIG d   1       2.898  81.815 111.298  0.00  0.00     0.006 C 
ENDBRANCH   8   9
BRANCH   8  11
ATOM     11  C   LIG d   1      -0.197  82.963 111.111  0.00  0.00     0.028 C 
ATOM     12  C   LIG d   1      -0.470  84.133 112.069  0.00  0.00     0.006 C 
ENDBRANCH   8  11
ENDBRANCH   7   8
ENDBRANCH   1   7
BRANCH   6  13
ATOM     13  N   LIG d   1       0.431  79.913 115.494  0.00  0.00    -0.311 N 
ATOM     14  C   LIG d   1       0.508  80.548 116.663  0.00  0.00     0.210 C 
ATOM     15  C   LIG d   1       1.917  80.639 117.258  0.00  0.00     0.109 C 
ATOM     16  O   LIG d   1      -0.461  81.017 117.278  0.00  0.00    -0.276 OA
ATOM     17  H   LIG d   1       1.262  79.537 115.083  0.00  0.00     0.149 HD
ENDBRANCH   6  13
BRANCH   5  18
ATOM     18  N   LIG d   1      -1.881  78.122 116.376  0.00  0.00     0.381 N 
ATOM     19  H   LIG d   1      -1.109  78.297 116.988  0.00  0.00    -0.090 HD
ATOM     20  H   LIG d   1      -2.159  77.163 116.486  0.00  0.00    -0.090 HD
ATOM     21  H   LIG d   1      -2.640  78.724 116.608  0.00  0.00    -0.090 HD
ENDBRANCH   5  18
BRANCH   3  22
ATOM     22  C   LIG d   1      -3.252  77.887 111.794  0.00  0.00     0.382 C 
ATOM     23  O   LIG d   1      -4.440  77.570 112.046  0.00  0.00    -0.241 OA
ATOM     24  O   LIG d   1      -2.758  77.584 110.691  0.00  0.00    -0.241 OA
ENDBRANCH   3  22
TORSDOF 7
ENDMDL
MODEL 5
REMARK VINA RESULT:      -4.5      3.358      5.697
REMARK  7 active torsions:
REMARK  status: ('A' for Active; 'I' for Inactive)
REMARK    1  A    between atoms: C_2  and  C_3 
REMARK    2  A    between atoms: C_3  and  O_6 
REMARK    3  A    between atoms: C_3  and  C_4 
REMARK    4  A    between atoms: C_7  and  O_6 
REMARK    5  A    between atoms: C_9  and  C_10 
REMARK    6  A    between atoms: N_15  and  C_14 
REMARK    7  A    between atoms: N_20  and  C_19 
REMARK       I    between atoms: C_22  and  N_20 
ROOT
ATOM      1  C   LIG d   1      -2.117  78.635 115.250  0.00  0.00     0.161 C 
ATOM      2  C   LIG d   1      -2.740  78.062 114.129  0.00  0.00     0.016 C 
ATOM      3  C   LIG d   1      -2.337  78.319 112.799  0.00  0.00     0.038 C 
ATOM      4  C   LIG d   1      -1.178  79.053 112.504  0.00  0.00     0.028 C 
ATOM      5  C   LIG d   1      -0.811  80.065 113.583  0.00  0.00    -0.047 C 
ATOM      6  C   LIG d   1      -0.782  79.350 114.953  0.00  0.00     0.091 C 
ENDROOT
BRANCH   1   7
ATOM      7  O   LIG d   1      -1.932  77.634 116.271  0.00  0.00    -0.368 OA
BRANCH   7   8
ATOM      8  C   LIG d   1      -1.605  76.302 115.806  0.00  0.00     0.119 C 
BRANCH   8   9
ATOM      9  C   LIG d   1      -2.479  75.308 116.595  0.00  0.00     0.028 C 
ATOM     10  C   LIG d   1      -3.499  74.584 115.700  0.00  0.00     0.006 C 
ENDBRANCH   8   9
BRANCH   8  11
ATOM     11  C   LIG d   1      -0.159  75.932 116.150  0.00  0.00     0.028 C 
ATOM     12  C   LIG d   1       0.783  76.018 114.938  0.00  0.00     0.006 C 
ENDBRANCH   8  11
ENDBRANCH   7   8
ENDBRANCH   1   7
BRANCH   6  13
ATOM     13  N   LIG d   1      -0.513  80.286 116.076  0.00  0.00    -0.311 N 
ATOM     14  C   LIG d   1       0.410  80.065 117.010  0.00  0.00     0.210 C 
ATOM     15  C   LIG d   1       0.511  81.147 118.089  0.00  0.00     0.109 C 
ATOM     16  O   LIG d   1       1.178  79.091 117.028  0.00  0.00    -0.276 OA
ATOM     17  H   LIG d   1      -1.070  81.117 116.120  0.00  0.00     0.149 HD
ENDBRANCH   6  13
BRANCH   5  18
ATOM     18  N   LIG d   1       0.487  80.660 113.214  0.00  0.00     0.381 N 
ATOM     19  H   LIG d   1       0.631  81.506 113.729  0.00  0.00    -0.090 HD
ATOM     20  H   LIG d   1       0.474  80.886 112.235  0.00  0.00    -0.090 HD
ATOM     21  H   LIG d   1       1.223  80.017 113.404  0.00  0.00    -0.090 HD
ENDBRANCH   5  18
BRANCH   3  22
ATOM     22  C   LIG d   1      -3.119  77.872 111.745  0.00  0.00     0.382 C 
ATOM     23  O   LIG d   1      -4.343  77.655 111.921  0.00  0.00    -0.241 OA
ATOM     24  O   LIG d   1      -2.609  77.640 110.633  0.00  0.00    -0.241 OA
ENDBRANCH   3  22
TORSDOF 7
ENDMDL
MODEL 6
REMARK VINA RESULT:      -4.4      2.841      5.340
REMARK  7 active torsions:
REMARK  status: ('A' for Active; 'I' for Inactive)
REMARK    1  A    between atoms: C_2  and  C_3 
REMARK    2  A    between atoms: C_3  and  O_6 
REMARK    3  A    between atoms: C_3  and  C_4 
REMARK    4  A    between atoms: C_7  and  O_6 
REMARK    5  A    between atoms: C_9  and  C_10 
REMARK    6  A    between atoms: N_15  and  C_14 
REMARK    7  A    between atoms: N_20  and  C_19 
REMARK       I    between atoms: C_22  and  N_20 
ROOT
ATOM      1  C   LIG d   1      -2.373  79.827 114.605  0.00  0.00     0.161 C 
ATOM      2  C   LIG d   1      -2.959  78.623 115.030  0.00  0.00     0.016 C 
ATOM      3  C   LIG d   1      -3.138  77.504 114.185  0.00  0.00     0.038 C 
ATOM      4  C   LIG d   1      -2.602  77.460 112.889  0.00  0.00     0.028 C 
ATOM      5  C   LIG d   1      -2.446  78.836 112.251  0.00  0.00    -0.047 C 
ATOM      6  C   LIG d   1      -1.682  79.758 113.227  0.00  0.00     0.091 C 
ENDROOT
BRANCH   1   7
ATOM      7  O   LIG d   1      -1.450  80.301 115.606  0.00  0.00    -0.368 OA
BRANCH   7   8
ATOM      8  C   LIG d   1      -1.151  79.380 116.684  0.00  0.00     0.119 C 
BRANCH   8   9
ATOM      9  C   LIG d   1      -1.318  80.149 118.009  0.00  0.00     0.028 C 
ATOM     10  C   LIG d   1      -2.755  80.079 118.551  0.00  0.00     0.006 C 
ENDBRANCH   8   9
BRANCH   8  11
ATOM     11  C   LIG d   1       0.316  78.941 116.651  0.00  0.00     0.028 C 
ATOM     12  C   LIG d   1       0.518  77.587 115.954  0.00  0.00     0.006 C 
ENDBRANCH   8  11
ENDBRANCH   7   8
ENDBRANCH   1   7
BRANCH   6  13
ATOM     13  N   LIG d   1      -1.560  81.149 112.716  0.00  0.00    -0.311 N 
ATOM     14  C   LIG d   1      -0.478  81.607 112.089  0.00  0.00     0.210 C 
ATOM     15  C   LIG d   1      -0.552  83.076 111.661  0.00  0.00     0.109 C 
ATOM     16  O   LIG d   1       0.524  80.927 111.817  0.00  0.00    -0.276 OA
ATOM     17  H   LIG d   1      -2.339  81.760 112.865  0.00  0.00     0.149 HD
ENDBRANCH   6  13
BRANCH   5  18
ATOM     18  N   LIG d   1      -1.751  78.654 110.963  0.00  0.00     0.381 N 
ATOM     19  H   LIG d   1      -0.767  78.782 111.088  0.00  0.00    -0.090 HD
ATOM     20  H   LIG d   1      -2.079  79.348 110.315  0.00  0.00    -0.090 HD
ATOM     21  H   LIG d   1      -1.932  77.742 110.603  0.00  0.00    -0.090 HD
ENDBRANCH   5  18
BRANCH   3  22
ATOM     22  C   LIG d   1      -3.896  76.427 114.621  0.00  0.00     0.382 C 
ATOM     23  O   LIG d   1      -4.440  76.460 115.751  0.00  0.00    -0.241 OA
ATOM     24  O   LIG d   1      -4.005  75.406 113.917  0.00  0.00    -0.241 OA
ENDBRANCH   3  22
TORSDOF 7
ENDMDL
MODEL 7
REMARK VINA RESULT:      -4.3      2.729      4.840
REMARK  7 active torsions:
REMARK  status: ('A' for Active; 'I' for Inactive)
REMARK    1  A    between atoms: C_2  and  C_3 
REMARK    2  A    between atoms: C_3  and  O_6 
REMARK    3  A    between atoms: C_3  and  C_4 
REMARK    4  A    between atoms: C_7  and  O_6 
REMARK    5  A    between atoms: C_9  and  C_10 
REMARK    6  A    between atoms: N_15  and  C_14 
REMARK    7  A    between atoms: N_20  and  C_19 
REMARK       I    between atoms: C_22  and  N_20 
ROOT
ATOM      1  C   LIG d   1      -0.740  79.144 114.890  0.00  0.00     0.161 C 
ATOM      2  C   LIG d   1      -1.715  78.193 114.546  0.00  0.00     0.016 C 
ATOM      3  C   LIG d   1      -2.340  78.142 113.279  0.00  0.00     0.038 C 
ATOM      4  C   LIG d   1      -1.920  78.950 112.212  0.00  0.00     0.028 C 
ATOM      5  C   LIG d   1      -1.289  80.264 112.660  0.00  0.00    -0.047 C 
ATOM      6  C   LIG d   1      -0.189  79.963 113.704  0.00  0.00     0.091 C 
ENDROOT
BRANCH   1   7
ATOM      7  O   LIG d   1       0.339  78.504 115.600  0.00  0.00    -0.368 OA
BRANCH   7   8
ATOM      8  C   LIG d   1       0.222  77.071 115.779  0.00  0.00     0.119 C 
BRANCH   8   9
ATOM      9  C   LIG d   1       0.247  76.789 117.294  0.00  0.00     0.028 C 
ATOM     10  C   LIG d   1       1.579  77.199 117.945  0.00  0.00     0.006 C 
ENDBRANCH   8   9
BRANCH   8  11
ATOM     11  C   LIG d   1       1.440  76.337 115.210  0.00  0.00     0.028 C 
ATOM     12  C   LIG d   1       1.056  75.125 114.346  0.00  0.00     0.006 C 
ENDBRANCH   8  11
ENDBRANCH   7   8
ENDBRANCH   1   7
BRANCH   6  13
ATOM     13  N   LIG d   1       0.422  81.200 114.256  0.00  0.00    -0.311 N 
ATOM     14  C   LIG d   1       1.370  81.893 113.628  0.00  0.00     0.210 C 
ATOM     15  C   LIG d   1       1.877  83.126 114.383  0.00  0.00     0.109 C 
ATOM     16  O   LIG d   1       1.817  81.622 112.503  0.00  0.00    -0.276 OA
ATOM     17  H   LIG d   1       0.096  81.509 115.151  0.00  0.00     0.149 HD
ENDBRANCH   6  13
BRANCH   5  18
ATOM     18  N   LIG d   1      -0.773  80.943 111.456  0.00  0.00     0.381 N 
ATOM     19  H   LIG d   1      -1.416  81.652 111.166  0.00  0.00    -0.090 HD
ATOM     20  H   LIG d   1      -0.688  80.271 110.714  0.00  0.00    -0.090 HD
ATOM     21  H   LIG d   1       0.116  81.350 111.649  0.00  0.00    -0.090 HD
ENDBRANCH   5  18
BRANCH   3  22
ATOM     22  C   LIG d   1      -3.425  77.302 113.081  0.00  0.00     0.382 C 
ATOM     23  O   LIG d   1      -3.505  76.221 113.714  0.00  0.00    -0.241 OA
ATOM     24  O   LIG d   1      -4.303  77.589 112.246  0.00  0.00    -0.241 OA
ENDBRANCH   3  22
TORSDOF 7
ENDMDL
MODEL 8
REMARK VINA RESULT:      -4.2      3.361      6.391
REMARK  7 active torsions:
REMARK  status: ('A' for Active; 'I' for Inactive)
REMARK    1  A    between atoms: C_2  and  C_3 
REMARK    2  A    between atoms: C_3  and  O_6 
REMARK    3  A    between atoms: C_3  and  C_4 
REMARK    4  A    between atoms: C_7  and  O_6 
REMARK    5  A    between atoms: C_9  and  C_10 
REMARK    6  A    between atoms: N_15  and  C_14 
REMARK    7  A    between atoms: N_20  and  C_19 
REMARK       I    between atoms: C_22  and  N_20 
ROOT
ATOM      1  C   LIG d   1      -1.853  77.611 114.760  0.00  0.00     0.161 C 
ATOM      2  C   LIG d   1      -2.104  77.424 113.390  0.00  0.00     0.016 C 
ATOM      3  C   LIG d   1      -1.578  78.263 112.381  0.00  0.00     0.038 C 
ATOM      4  C   LIG d   1      -0.636  79.263 112.664  0.00  0.00     0.028 C 
ATOM      5  C   LIG d   1      -0.744  79.811 114.083  0.00  0.00    -0.047 C 
ATOM      6  C   LIG d   1      -0.739  78.630 115.080  0.00  0.00     0.091 C 
ENDROOT
BRANCH   1   7
ATOM      7  O   LIG d   1      -1.567  76.343 115.382  0.00  0.00    -0.368 OA
BRANCH   7   8
ATOM      8  C   LIG d   1      -2.577  75.836 116.289  0.00  0.00     0.119 C 
BRANCH   8   9
ATOM      9  C   LIG d   1      -1.886  75.543 117.635  0.00  0.00     0.028 C 
ATOM     10  C   LIG d   1      -2.285  76.547 118.729  0.00  0.00     0.006 C 
ENDBRANCH   8   9
BRANCH   8  11
ATOM     11  C   LIG d   1      -3.125  74.487 115.813  0.00  0.00     0.028 C 
ATOM     12  C   LIG d   1      -4.438  74.622 115.026  0.00  0.00     0.006 C 
ENDBRANCH   8  11
ENDBRANCH   7   8
ENDBRANCH   1   7
BRANCH   6  13
ATOM     13  N   LIG d   1      -0.925  79.073 116.486  0.00  0.00    -0.311 N 
ATOM     14  C   LIG d   1       0.085  79.281 117.329  0.00  0.00     0.210 C 
ATOM     15  C   LIG d   1      -0.328  79.716 118.738  0.00  0.00     0.109 C 
ATOM     16  O   LIG d   1       1.285  79.177 117.034  0.00  0.00    -0.276 OA
ATOM     17  H   LIG d   1      -1.866  79.212 116.799  0.00  0.00     0.149 HD
ENDBRANCH   6  13
BRANCH   5  18
ATOM     18  N   LIG d   1       0.381  80.744 114.286  0.00  0.00     0.381 N 
ATOM     19  H   LIG d   1       1.128  80.276 114.759  0.00  0.00    -0.090 HD
ATOM     20  H   LIG d   1       0.071  81.506 114.863  0.00  0.00    -0.090 HD
ATOM     21  H   LIG d   1       0.700  81.090 113.408  0.00  0.00    -0.090 HD
ENDBRANCH   5  18
BRANCH   3  22
ATOM     22  C   LIG d   1      -2.026  78.130 111.075  0.00  0.00     0.382 C 
ATOM     23  O   LIG d   1      -1.369  78.635 110.133  0.00  0.00    -0.241 OA
ATOM     24  O   LIG d   1      -3.100  77.549 110.832  0.00  0.00    -0.241 OA
ENDBRANCH   3  22
TORSDOF 7
ENDMDL
MODEL 9
REMARK VINA RESULT:      -4.2      1.445      2.178
REMARK  7 active torsions:
REMARK  status: ('A' for Active; 'I' for Inactive)
REMARK    1  A    between atoms: C_2  and  C_3 
REMARK    2  A    between atoms: C_3  and  O_6 
REMARK    3  A    between atoms: C_3  and  C_4 
REMARK    4  A    between atoms: C_7  and  O_6 
REMARK    5  A    between atoms: C_9  and  C_10 
REMARK    6  A    between atoms: N_15  and  C_14 
REMARK    7  A    between atoms: N_20  and  C_19 
REMARK       I    between atoms: C_22  and  N_20 
ROOT
ATOM      1  C   LIG d   1       0.875  81.193 112.128  0.00  0.00     0.161 C 
ATOM      2  C   LIG d   1       0.040  80.272 111.474  0.00  0.00     0.016 C 
ATOM      3  C   LIG d   1      -0.879  79.437 112.151  0.00  0.00     0.038 C 
ATOM      4  C   LIG d   1      -1.134  79.575 113.523  0.00  0.00     0.028 C 
ATOM      5  C   LIG d   1       0.047  80.141 114.305  0.00  0.00    -0.047 C 
ATOM      6  C   LIG d   1       0.532  81.436 113.613  0.00  0.00     0.091 C 
ENDROOT
BRANCH   1   7
ATOM      7  O   LIG d   1       0.887  82.440 111.406  0.00  0.00    -0.368 OA
BRANCH   7   8
ATOM      8  C   LIG d   1       2.175  82.875 110.907  0.00  0.00     0.119 C 
BRANCH   8   9
ATOM      9  C   LIG d   1       1.964  83.394 109.471  0.00  0.00     0.028 C 
ATOM     10  C   LIG d   1       1.119  84.679 109.430  0.00  0.00     0.006 C 
ENDBRANCH   8   9
BRANCH   8  11
ATOM     11  C   LIG d   1       3.147  81.699 110.774  0.00  0.00     0.028 C 
ATOM     12  C   LIG d   1       4.500  81.964 111.453  0.00  0.00     0.006 C 
ENDBRANCH   8  11
ENDBRANCH   7   8
ENDBRANCH   1   7
BRANCH   6  13
ATOM     13  N   LIG d   1       1.737  82.010 114.265  0.00  0.00    -0.311 N 
ATOM     14  C   LIG d   1       1.843  83.291 114.613  0.00  0.00     0.210 C 
ATOM     15  C   LIG d   1       3.179  83.679 115.254  0.00  0.00     0.109 C 
ATOM     16  O   LIG d   1       0.945  84.136 114.482  0.00  0.00    -0.276 OA
ATOM     17  H   LIG d   1       2.502  81.387 114.438  0.00  0.00     0.149 HD
ENDBRANCH   6  13
BRANCH   5  18
ATOM     18  N   LIG d   1      -0.402  80.361 115.693  0.00  0.00     0.381 N 
ATOM     19  H   LIG d   1       0.288  80.886 116.192  0.00  0.00    -0.090 HD
ATOM     20  H   LIG d   1      -0.509  79.470 116.145  0.00  0.00    -0.090 HD
ATOM     21  H   LIG d   1      -1.270  80.850 115.697  0.00  0.00    -0.090 HD
ENDBRANCH   5  18
BRANCH   3  22
ATOM     22  C   LIG d   1      -1.525  78.423 111.459  0.00  0.00     0.382 C 
ATOM     23  O   LIG d   1      -1.755  77.327 112.024  0.00  0.00    -0.241 OA
ATOM     24  O   LIG d   1      -1.841  78.576 110.264  0.00  0.00    -0.241 OA
ENDBRANCH   3  22
TORSDOF 7
ENDMDL
