MODEL 1
REMARK VINA RESULT:      -5.0      0.000      0.000
REMARK  7 active torsions:
REMARK  status: ('A' for Active; 'I' for Inactive)
REMARK    1  A    between atoms: C_2  and  C_3 
REMARK    2  A    between atoms: C_3  and  O_6 
REMARK    3  A    between atoms: C_3  and  C_4 
REMARK    4  A    between atoms: C_7  and  O_6 
REMARK    5  A    between atoms: C_9  and  C_10 
REMARK    6  A    between atoms: N_15  and  C_14 
REMARK    7  A    between atoms: N_20  and  C_19 
REMARK       I    between atoms: C_22  and  N_20 
ROOT
ATOM      1  C   LIG d   1      -2.176  78.081 115.261  0.00  0.00     0.161 C 
ATOM      2  C   LIG d   1      -2.779  77.738 114.039  0.00  0.00     0.016 C 
ATOM      3  C   LIG d   1      -2.317  78.202 112.786  0.00  0.00     0.038 C 
ATOM      4  C   LIG d   1      -1.121  78.924 112.658  0.00  0.00     0.028 C 
ATOM      5  C   LIG d   1      -0.756  79.718 113.908  0.00  0.00    -0.047 C 
ATOM      6  C   LIG d   1      -0.805  78.776 115.133  0.00  0.00     0.091 C 
ENDROOT
BRANCH   1   7
ATOM      7  O   LIG d   1      -2.069  76.912 116.098  0.00  0.00    -0.368 OA
BRANCH   7   8
ATOM      8  C   LIG d   1      -2.034  75.637 115.410  0.00  0.00     0.119 C 
BRANCH   8   9
ATOM      9  C   LIG d   1      -2.886  74.647 116.228  0.00  0.00     0.028 C 
ATOM     10  C   LIG d   1      -2.214  74.251 117.554  0.00  0.00     0.006 C 
ENDBRANCH   8   9
BRANCH   8  11
ATOM     11  C   LIG d   1      -0.621  75.046 115.403  0.00  0.00     0.028 C 
ATOM     12  C   LIG d   1       0.124  75.301 114.083  0.00  0.00     0.006 C 
ENDBRANCH   8  11
ENDBRANCH   7   8
ENDBRANCH   1   7
BRANCH   6  13
ATOM     13  N   LIG d   1      -0.542  79.492 116.409  0.00  0.00    -0.311 N 
ATOM     14  C   LIG d   1       0.361  79.092 117.301  0.00  0.00     0.210 C 
ATOM     15  C   LIG d   1       0.458  79.962 118.558  0.00  0.00     0.109 C 
ATOM     16  O   LIG d   1       1.115  78.117 117.157  0.00  0.00    -0.276 OA
ATOM     17  H   LIG d   1      -1.088  80.311 116.592  0.00  0.00     0.149 HD
ENDBRANCH   6  13
BRANCH   5  18
ATOM     18  N   LIG d   1       0.577  80.310 113.686  0.00  0.00     0.381 N 
ATOM     19  H   LIG d   1       1.273  79.591 113.696  0.00  0.00    -0.090 HD
ATOM     20  H   LIG d   1       0.776  80.951 114.434  0.00  0.00    -0.090 HD
ATOM     21  H   LIG d   1       0.597  80.789 112.813  0.00  0.00    -0.090 HD
ENDBRANCH   5  18
BRANCH   3  22
ATOM     22  C   LIG d   1      -3.076  77.978 111.648  0.00  0.00     0.382 C 
ATOM     23  O   LIG d   1      -4.310  77.773 111.748  0.00  0.00    -0.241 OA
ATOM     24  O   LIG d   1      -2.535  77.935 110.526  0.00  0.00    -0.241 OA
ENDBRANCH   3  22
TORSDOF 7
ENDMDL
MODEL 2
REMARK VINA RESULT:      -4.9      3.035      4.272
REMARK  7 active torsions:
REMARK  status: ('A' for Active; 'I' for Inactive)
REMARK    1  A    between atoms: C_2  and  C_3 
REMARK    2  A    between atoms: C_3  and  O_6 
REMARK    3  A    between atoms: C_3  and  C_4 
REMARK    4  A    between atoms: C_7  and  O_6 
REMARK    5  A    between atoms: C_9  and  C_10 
REMARK    6  A    between atoms: N_15  and  C_14 
REMARK    7  A    between atoms: N_20  and  C_19 
REMARK       I    between atoms: C_22  and  N_20 
ROOT
ATOM      1  C   LIG d   1      -1.537  77.685 113.334  0.00  0.00     0.161 C 
ATOM      2  C   LIG d   1      -2.116  78.965 113.292  0.00  0.00     0.016 C 
ATOM      3  C   LIG d   1      -1.926  79.870 112.224  0.00  0.00     0.038 C 
ATOM      4  C   LIG d   1      -1.262  79.498 111.045  0.00  0.00     0.028 C 
ATOM      5  C   LIG d   1      -0.232  78.392 111.254  0.00  0.00    -0.047 C 
ATOM      6  C   LIG d   1      -0.901  77.220 112.008  0.00  0.00     0.091 C 
ENDROOT
BRANCH   1   7
ATOM      7  O   LIG d   1      -2.510  76.723 113.788  0.00  0.00    -0.368 OA
BRANCH   7   8
ATOM      8  C   LIG d   1      -2.403  76.314 115.174  0.00  0.00     0.119 C 
BRANCH   8   9
ATOM      9  C   LIG d   1      -1.694  74.947 115.200  0.00  0.00     0.028 C 
ATOM     10  C   LIG d   1      -1.208  74.564 116.608  0.00  0.00     0.006 C 
ENDBRANCH   8   9
BRANCH   8  11
ATOM     11  C   LIG d   1      -3.783  76.067 115.789  0.00  0.00     0.028 C 
ATOM     12  C   LIG d   1      -4.224  77.194 116.737  0.00  0.00     0.006 C 
ENDBRANCH   8  11
ENDBRANCH   7   8
ENDBRANCH   1   7
BRANCH   6  13
ATOM     13  N   LIG d   1       0.059  76.131 112.327  0.00  0.00    -0.311 N 
ATOM     14  C   LIG d   1       0.468  75.229 111.435  0.00  0.00     0.210 C 
ATOM     15  C   LIG d   1       1.443  74.180 111.978  0.00  0.00     0.109 C 
ATOM     16  O   LIG d   1       0.140  75.218 110.239  0.00  0.00    -0.276 OA
ATOM     17  H   LIG d   1       0.400  76.084 113.267  0.00  0.00     0.149 HD
ENDBRANCH   6  13
BRANCH   5  18
ATOM     18  N   LIG d   1       0.283  78.007 109.927  0.00  0.00     0.381 N 
ATOM     19  H   LIG d   1       1.225  77.681 110.011  0.00  0.00    -0.090 HD
ATOM     20  H   LIG d   1       0.281  78.816 109.330  0.00  0.00    -0.090 HD
ATOM     21  H   LIG d   1      -0.289  77.293 109.532  0.00  0.00    -0.090 HD
ENDBRANCH   5  18
BRANCH   3  22
ATOM     22  C   LIG d   1      -2.369  81.179 112.344  0.00  0.00     0.382 C 
ATOM     23  O   LIG d   1      -3.596  81.418 112.449  0.00  0.00    -0.241 OA
ATOM     24  O   LIG d   1      -1.561  82.126 112.305  0.00  0.00    -0.241 OA
ENDBRANCH   3  22
TORSDOF 7
ENDMDL
MODEL 3
REMARK VINA RESULT:      -4.9      2.516      3.900
REMARK  7 active torsions:
REMARK  status: ('A' for Active; 'I' for Inactive)
REMARK    1  A    between atoms: C_2  and  C_3 
REMARK    2  A    between atoms: C_3  and  O_6 
REMARK    3  A    between atoms: C_3  and  C_4 
REMARK    4  A    between atoms: C_7  and  O_6 
REMARK    5  A    between atoms: C_9  and  C_10 
REMARK    6  A    between atoms: N_15  and  C_14 
REMARK    7  A    between atoms: N_20  and  C_19 
REMARK       I    between atoms: C_22  and  N_20 
ROOT
ATOM      1  C   LIG d   1      -2.302  78.458 114.860  0.00  0.00     0.161 C 
ATOM      2  C   LIG d   1      -2.591  79.699 114.268  0.00  0.00     0.016 C 
ATOM      3  C   LIG d   1      -2.304  80.002 112.917  0.00  0.00     0.038 C 
ATOM      4  C   LIG d   1      -1.844  79.027 112.019  0.00  0.00     0.028 C 
ATOM      5  C   LIG d   1      -1.065  77.903 112.694  0.00  0.00    -0.047 C 
ATOM      6  C   LIG d   1      -1.903  77.346 113.867  0.00  0.00     0.091 C 
ENDROOT
BRANCH   1   7
ATOM      7  O   LIG d   1      -3.416  78.031 115.668  0.00  0.00    -0.368 OA
BRANCH   7   8
ATOM      8  C   LIG d   1      -3.242  78.142 117.102  0.00  0.00     0.119 C 
BRANCH   8   9
ATOM      9  C   LIG d   1      -1.756  78.453 117.366  0.00  0.00     0.028 C 
ATOM     10  C   LIG d   1      -1.560  79.764 118.145  0.00  0.00     0.006 C 
ENDBRANCH   8   9
BRANCH   8  11
ATOM     11  C   LIG d   1      -3.506  76.805 117.801  0.00  0.00     0.028 C 
ATOM     12  C   LIG d   1      -2.286  76.288 118.580  0.00  0.00     0.006 C 
ENDBRANCH   8  11
ENDBRANCH   7   8
ENDBRANCH   1   7
BRANCH   6  13
ATOM     13  N   LIG d   1      -1.178  76.298 114.634  0.00  0.00    -0.311 N 
ATOM     14  C   LIG d   1      -1.745  75.164 115.042  0.00  0.00     0.210 C 
ATOM     15  C   LIG d   1      -0.826  74.230 115.834  0.00  0.00     0.109 C 
ATOM     16  O   LIG d   1      -2.914  74.829 114.795  0.00  0.00    -0.276 OA
ATOM     17  H   LIG d   1      -0.217  76.475 114.850  0.00  0.00     0.149 HD
ENDBRANCH   6  13
BRANCH   5  18
ATOM     18  N   LIG d   1      -0.766  76.889 111.665  0.00  0.00     0.381 N 
ATOM     19  H   LIG d   1      -1.412  76.975 110.906  0.00  0.00    -0.090 HD
ATOM     20  H   LIG d   1      -0.872  75.975 112.068  0.00  0.00    -0.090 HD
ATOM     21  H   LIG d   1       0.166  77.006 111.332  0.00  0.00    -0.090 HD
ENDBRANCH   5  18
BRANCH   3  22
ATOM     22  C   LIG d   1      -2.440  81.305 112.461  0.00  0.00     0.382 C 
ATOM     23  O   LIG d   1      -3.502  81.937 112.677  0.00  0.00    -0.241 OA
ATOM     24  O   LIG d   1      -1.532  81.840 111.799  0.00  0.00    -0.241 OA
ENDBRANCH   3  22
TORSDOF 7
ENDMDL
MODEL 4
REMARK VINA RESULT:      -4.9      1.148      2.121
REMARK  7 active torsions:
REMARK  status: ('A' for Active; 'I' for Inactive)
REMARK    1  A    between atoms: C_2  and  C_3 
REMARK    2  A    between atoms: C_3  and  O_6 
REMARK    3  A    between atoms: C_3  and  C_4 
REMARK    4  A    between atoms: C_7  and  O_6 
REMARK    5  A    between atoms: C_9  and  C_10 
REMARK    6  A    between atoms: N_15  and  C_14 
REMARK    7  A    between atoms: N_20  and  C_19 
REMARK       I    between atoms: C_22  and  N_20 
ROOT
ATOM      1  C   LIG d   1      -2.587  77.196 115.687  0.00  0.00     0.161 C 
ATOM      2  C   LIG d   1      -2.918  77.277 114.324  0.00  0.00     0.016 C 
ATOM      3  C   LIG d   1      -2.231  78.102 113.404  0.00  0.00     0.038 C 
ATOM      4  C   LIG d   1      -1.061  78.792 113.757  0.00  0.00     0.028 C 
ATOM      5  C   LIG d   1      -0.985  79.136 115.240  0.00  0.00    -0.047 C 
ATOM      6  C   LIG d   1      -1.245  77.856 116.067  0.00  0.00     0.091 C 
ENDROOT
BRANCH   1   7
ATOM      7  O   LIG d   1      -2.607  75.820 116.113  0.00  0.00    -0.368 OA
BRANCH   7   8
ATOM      8  C   LIG d   1      -1.315  75.197 116.317  0.00  0.00     0.119 C 
BRANCH   8   9
ATOM      9  C   LIG d   1      -0.994  74.373 115.055  0.00  0.00     0.028 C 
ATOM     10  C   LIG d   1       0.097  75.027 114.190  0.00  0.00     0.006 C 
ENDBRANCH   8   9
BRANCH   8  11
ATOM     11  C   LIG d   1      -1.361  74.181 117.463  0.00  0.00     0.028 C 
ATOM     12  C   LIG d   1      -1.939  74.771 118.759  0.00  0.00     0.006 C 
ENDBRANCH   8  11
ENDBRANCH   7   8
ENDBRANCH   1   7
BRANCH   6  13
ATOM     13  N   LIG d   1      -1.272  78.121 117.529  0.00  0.00    -0.311 N 
ATOM     14  C   LIG d   1      -0.190  78.073 118.303  0.00  0.00     0.210 C 
ATOM     15  C   LIG d   1      -0.442  78.359 119.786  0.00  0.00     0.109 C 
ATOM     16  O   LIG d   1       0.961  77.853 117.896  0.00  0.00    -0.276 OA
ATOM     17  H   LIG d   1      -2.161  78.339 117.936  0.00  0.00     0.149 HD
ENDBRANCH   6  13
BRANCH   5  18
ATOM     18  N   LIG d   1       0.342  79.728 115.493  0.00  0.00     0.381 N 
ATOM     19  H   LIG d   1       1.055  79.135 115.117  0.00  0.00    -0.090 HD
ATOM     20  H   LIG d   1       0.482  79.799 116.486  0.00  0.00    -0.090 HD
ATOM     21  H   LIG d   1       0.397  80.631 115.077  0.00  0.00    -0.090 HD
ENDBRANCH   5  18
BRANCH   3  22
ATOM     22  C   LIG d   1      -2.736  78.274 112.124  0.00  0.00     0.382 C 
ATOM     23  O   LIG d   1      -2.090  78.940 111.279  0.00  0.00    -0.241 OA
ATOM     24  O   LIG d   1      -3.850  77.810 111.817  0.00  0.00    -0.241 OA
ENDBRANCH   3  22
TORSDOF 7
ENDMDL
MODEL 5
REMARK VINA RESULT:      -4.9      5.055      7.478
REMARK  7 active torsions:
REMARK  status: ('A' for Active; 'I' for Inactive)
REMARK    1  A    between atoms: C_2  and  C_3 
REMARK    2  A    between atoms: C_3  and  O_6 
REMARK    3  A    between atoms: C_3  and  C_4 
REMARK    4  A    between atoms: C_7  and  O_6 
REMARK    5  A    between atoms: C_9  and  C_10 
REMARK    6  A    between atoms: N_15  and  C_14 
REMARK    7  A    between atoms: N_20  and  C_19 
REMARK       I    between atoms: C_22  and  N_20 
ROOT
ATOM      1  C   LIG d   1       1.889  81.638 112.735  0.00  0.00     0.161 C 
ATOM      2  C   LIG d   1       2.923  82.336 112.089  0.00  0.00     0.016 C 
ATOM      3  C   LIG d   1       2.997  82.495 110.686  0.00  0.00     0.038 C 
ATOM      4  C   LIG d   1       1.955  82.092 109.838  0.00  0.00     0.028 C 
ATOM      5  C   LIG d   1       1.132  80.937 110.397  0.00  0.00    -0.047 C 
ATOM      6  C   LIG d   1       0.686  81.287 111.835  0.00  0.00     0.091 C 
ENDROOT
BRANCH   1   7
ATOM      7  O   LIG d   1       1.451  82.374 113.893  0.00  0.00    -0.368 OA
BRANCH   7   8
ATOM      8  C   LIG d   1       2.488  83.043 114.653  0.00  0.00     0.119 C 
BRANCH   8   9
ATOM      9  C   LIG d   1       2.632  82.298 115.994  0.00  0.00     0.028 C 
ATOM     10  C   LIG d   1       3.918  81.457 116.063  0.00  0.00     0.006 C 
ENDBRANCH   8   9
BRANCH   8  11
ATOM     11  C   LIG d   1       2.074  84.470 115.025  0.00  0.00     0.028 C 
ATOM     12  C   LIG d   1       1.476  84.568 116.437  0.00  0.00     0.006 C 
ENDBRANCH   8  11
ENDBRANCH   7   8
ENDBRANCH   1   7
BRANCH   6  13
ATOM     13  N   LIG d   1      -0.054  80.175 112.486  0.00  0.00    -0.311 N 
ATOM     14  C   LIG d   1      -1.383  80.106 112.533  0.00  0.00     0.210 C 
ATOM     15  C   LIG d   1      -1.942  78.885 113.270  0.00  0.00     0.109 C 
ATOM     16  O   LIG d   1      -2.152  80.924 112.006  0.00  0.00    -0.276 OA
ATOM     17  H   LIG d   1       0.492  79.452 112.912  0.00  0.00     0.149 HD
ENDBRANCH   6  13
BRANCH   5  18
ATOM     18  N   LIG d   1      -0.000  80.711 109.479  0.00  0.00     0.381 N 
ATOM     19  H   LIG d   1       0.173  81.171 108.608  0.00  0.00    -0.090 HD
ATOM     20  H   LIG d   1      -0.831  81.105 109.885  0.00  0.00    -0.090 HD
ATOM     21  H   LIG d   1      -0.127  79.735 109.328  0.00  0.00    -0.090 HD
ENDBRANCH   5  18
BRANCH   3  22
ATOM     22  C   LIG d   1       4.143  83.027 110.115  0.00  0.00     0.382 C 
ATOM     23  O   LIG d   1       4.174  84.237 109.782  0.00  0.00    -0.241 OA
ATOM     24  O   LIG d   1       5.130  82.303 109.886  0.00  0.00    -0.241 OA
ENDBRANCH   3  22
TORSDOF 7
ENDMDL
MODEL 6
REMARK VINA RESULT:      -4.7      2.008      2.771
REMARK  7 active torsions:
REMARK  status: ('A' for Active; 'I' for Inactive)
REMARK    1  A    between atoms: C_2  and  C_3 
REMARK    2  A    between atoms: C_3  and  O_6 
REMARK    3  A    between atoms: C_3  and  C_4 
REMARK    4  A    between atoms: C_7  and  O_6 
REMARK    5  A    between atoms: C_9  and  C_10 
REMARK    6  A    between atoms: N_15  and  C_14 
REMARK    7  A    between atoms: N_20  and  C_19 
REMARK       I    between atoms: C_22  and  N_20 
ROOT
ATOM      1  C   LIG d   1      -2.629  78.147 117.206  0.00  0.00     0.161 C 
ATOM      2  C   LIG d   1      -3.324  77.279 116.347  0.00  0.00     0.016 C 
ATOM      3  C   LIG d   1      -2.969  77.073 114.994  0.00  0.00     0.038 C 
ATOM      4  C   LIG d   1      -1.795  77.611 114.446  0.00  0.00     0.028 C 
ATOM      5  C   LIG d   1      -1.340  78.895 115.130  0.00  0.00    -0.047 C 
ATOM      6  C   LIG d   1      -1.280  78.657 116.656  0.00  0.00     0.091 C 
ENDROOT
BRANCH   1   7
ATOM      7  O   LIG d   1      -2.442  77.519 118.489  0.00  0.00    -0.368 OA
BRANCH   7   8
ATOM      8  C   LIG d   1      -1.348  76.573 118.583  0.00  0.00     0.119 C 
BRANCH   8   9
ATOM      9  C   LIG d   1      -1.946  75.213 118.989  0.00  0.00     0.028 C 
ATOM     10  C   LIG d   1      -1.890  74.183 117.849  0.00  0.00     0.006 C 
ENDBRANCH   8   9
BRANCH   8  11
ATOM     11  C   LIG d   1      -0.384  76.947 119.713  0.00  0.00     0.028 C 
ATOM     12  C   LIG d   1       0.793  75.966 119.840  0.00  0.00     0.006 C 
ENDBRANCH   8  11
ENDBRANCH   7   8
ENDBRANCH   1   7
BRANCH   6  13
ATOM     13  N   LIG d   1      -0.924  79.888 117.409  0.00  0.00    -0.311 N 
ATOM     14  C   LIG d   1       0.317  80.177 117.796  0.00  0.00     0.210 C 
ATOM     15  C   LIG d   1       0.462  81.487 118.578  0.00  0.00     0.109 C 
ATOM     16  O   LIG d   1       1.317  79.490 117.538  0.00  0.00    -0.276 OA
ATOM     17  H   LIG d   1      -1.669  80.517 117.633  0.00  0.00     0.149 HD
ENDBRANCH   6  13
BRANCH   5  18
ATOM     18  N   LIG d   1      -0.035  79.270 114.552  0.00  0.00     0.381 N 
ATOM     19  H   LIG d   1       0.274  80.135 114.947  0.00  0.00    -0.090 HD
ATOM     20  H   LIG d   1      -0.143  79.396 113.561  0.00  0.00    -0.090 HD
ATOM     21  H   LIG d   1       0.635  78.555 114.732  0.00  0.00    -0.090 HD
ENDBRANCH   5  18
BRANCH   3  22
ATOM     22  C   LIG d   1      -3.815  76.354 114.164  0.00  0.00     0.382 C 
ATOM     23  O   LIG d   1      -4.096  75.162 114.436  0.00  0.00    -0.241 OA
ATOM     24  O   LIG d   1      -4.265  76.868 113.122  0.00  0.00    -0.241 OA
ENDBRANCH   3  22
TORSDOF 7
ENDMDL
MODEL 7
REMARK VINA RESULT:      -4.5      3.873      6.473
REMARK  7 active torsions:
REMARK  status: ('A' for Active; 'I' for Inactive)
REMARK    1  A    between atoms: C_2  and  C_3 
REMARK    2  A    between atoms: C_3  and  O_6 
REMARK    3  A    between atoms: C_3  and  C_4 
REMARK    4  A    between atoms: C_7  and  O_6 
REMARK    5  A    between atoms: C_9  and  C_10 
REMARK    6  A    between atoms: N_15  and  C_14 
REMARK    7  A    between atoms: N_20  and  C_19 
REMARK       I    between atoms: C_22  and  N_20 
ROOT
ATOM      1  C   LIG d   1       0.128  80.769 111.547  0.00  0.00     0.161 C 
ATOM      2  C   LIG d   1      -0.871  79.875 111.128  0.00  0.00     0.016 C 
ATOM      3  C   LIG d   1      -1.535  78.984 112.003  0.00  0.00     0.038 C 
ATOM      4  C   LIG d   1      -1.350  79.035 113.392  0.00  0.00     0.028 C 
ATOM      5  C   LIG d   1       0.016  79.573 113.802  0.00  0.00    -0.047 C 
ATOM      6  C   LIG d   1       0.265  80.915 113.077  0.00  0.00     0.091 C 
ENDROOT
BRANCH   1   7
ATOM      7  O   LIG d   1      -0.082  82.057 110.937  0.00  0.00    -0.368 OA
BRANCH   7   8
ATOM      8  C   LIG d   1       0.714  82.344 109.761  0.00  0.00     0.119 C 
BRANCH   8   9
ATOM      9  C   LIG d   1       2.125  81.776 110.008  0.00  0.00     0.028 C 
ATOM     10  C   LIG d   1       3.223  82.842 109.849  0.00  0.00     0.006 C 
ENDBRANCH   8   9
BRANCH   8  11
ATOM     11  C   LIG d   1       0.911  83.851 109.574  0.00  0.00     0.028 C 
ATOM     12  C   LIG d   1      -0.247  84.679 110.153  0.00  0.00     0.006 C 
ENDBRANCH   8  11
ENDBRANCH   7   8
ENDBRANCH   1   7
BRANCH   6  13
ATOM     13  N   LIG d   1       1.615  81.470 113.356  0.00  0.00    -0.311 N 
ATOM     14  C   LIG d   1       1.850  82.767 113.548  0.00  0.00     0.210 C 
ATOM     15  C   LIG d   1       3.317  83.127 113.803  0.00  0.00     0.109 C 
ATOM     16  O   LIG d   1       0.978  83.649 113.563  0.00  0.00    -0.276 OA
ATOM     17  H   LIG d   1       2.376  80.820 113.393  0.00  0.00     0.149 HD
ENDBRANCH   6  13
BRANCH   5  18
ATOM     18  N   LIG d   1       0.023  79.701 115.272  0.00  0.00     0.381 N 
ATOM     19  H   LIG d   1       0.915  80.032 115.579  0.00  0.00    -0.090 HD
ATOM     20  H   LIG d   1      -0.134  78.795 115.677  0.00  0.00    -0.090 HD
ATOM     21  H   LIG d   1      -0.692  80.331 115.562  0.00  0.00    -0.090 HD
ENDBRANCH   5  18
BRANCH   3  22
ATOM     22  C   LIG d   1      -2.367  78.004 111.484  0.00  0.00     0.382 C 
ATOM     23  O   LIG d   1      -1.925  77.191 110.636  0.00  0.00    -0.241 OA
ATOM     24  O   LIG d   1      -3.565  77.949 111.820  0.00  0.00    -0.241 OA
ENDBRANCH   3  22
TORSDOF 7
ENDMDL
MODEL 8
REMARK VINA RESULT:      -4.5      2.533      5.073
REMARK  7 active torsions:
REMARK  status: ('A' for Active; 'I' for Inactive)
REMARK    1  A    between atoms: C_2  and  C_3 
REMARK    2  A    between atoms: C_3  and  O_6 
REMARK    3  A    between atoms: C_3  and  C_4 
REMARK    4  A    between atoms: C_7  and  O_6 
REMARK    5  A    between atoms: C_9  and  C_10 
REMARK    6  A    between atoms: N_15  and  C_14 
REMARK    7  A    between atoms: N_20  and  C_19 
REMARK       I    between atoms: C_22  and  N_20 
ROOT
ATOM      1  C   LIG d   1      -0.214  79.642 113.346  0.00  0.00     0.161 C 
ATOM      2  C   LIG d   1      -1.158  79.285 112.370  0.00  0.00     0.016 C 
ATOM      3  C   LIG d   1      -2.308  78.510 112.646  0.00  0.00     0.038 C 
ATOM      4  C   LIG d   1      -2.673  78.165 113.956  0.00  0.00     0.028 C 
ATOM      5  C   LIG d   1      -1.487  78.073 114.910  0.00  0.00    -0.047 C 
ATOM      6  C   LIG d   1      -0.653  79.369 114.800  0.00  0.00     0.091 C 
ENDROOT
BRANCH   1   7
ATOM      7  O   LIG d   1       0.155  81.026 113.186  0.00  0.00    -0.368 OA
BRANCH   7   8
ATOM      8  C   LIG d   1       0.071  81.556 111.840  0.00  0.00     0.119 C 
BRANCH   8   9
ATOM      9  C   LIG d   1       1.512  81.745 111.326  0.00  0.00     0.028 C 
ATOM     10  C   LIG d   1       1.936  80.636 110.348  0.00  0.00     0.006 C 
ENDBRANCH   8   9
BRANCH   8  11
ATOM     11  C   LIG d   1      -0.549  82.956 111.830  0.00  0.00     0.028 C 
ATOM     12  C   LIG d   1      -0.171  83.767 110.581  0.00  0.00     0.006 C 
ENDBRANCH   8  11
ENDBRANCH   7   8
ENDBRANCH   1   7
BRANCH   6  13
ATOM     13  N   LIG d   1       0.573  79.327 115.639  0.00  0.00    -0.311 N 
ATOM     14  C   LIG d   1       0.631  79.814 116.878  0.00  0.00     0.210 C 
ATOM     15  C   LIG d   1       1.997  79.686 117.559  0.00  0.00     0.109 C 
ATOM     16  O   LIG d   1      -0.327  80.311 117.488  0.00  0.00    -0.276 OA
ATOM     17  H   LIG d   1       1.390  78.912 115.234  0.00  0.00     0.149 HD
ENDBRANCH   6  13
BRANCH   5  18
ATOM     18  N   LIG d   1      -2.023  77.843 116.265  0.00  0.00     0.381 N 
ATOM     19  H   LIG d   1      -3.020  77.771 116.228  0.00  0.00    -0.090 HD
ATOM     20  H   LIG d   1      -1.785  78.627 116.846  0.00  0.00    -0.090 HD
ATOM     21  H   LIG d   1      -1.636  77.008 116.647  0.00  0.00    -0.090 HD
ENDBRANCH   5  18
BRANCH   3  22
ATOM     22  C   LIG d   1      -3.087  78.038 111.600  0.00  0.00     0.382 C 
ATOM     23  O   LIG d   1      -2.584  77.895 110.459  0.00  0.00    -0.241 OA
ATOM     24  O   LIG d   1      -4.296  77.796 111.771  0.00  0.00    -0.241 OA
ENDBRANCH   3  22
TORSDOF 7
ENDMDL
MODEL 9
REMARK VINA RESULT:      -4.4      2.710      3.759
REMARK  7 active torsions:
REMARK  status: ('A' for Active; 'I' for Inactive)
REMARK    1  A    between atoms: C_2  and  C_3 
REMARK    2  A    between atoms: C_3  and  O_6 
REMARK    3  A    between atoms: C_3  and  C_4 
REMARK    4  A    between atoms: C_7  and  O_6 
REMARK    5  A    between atoms: C_9  and  C_10 
REMARK    6  A    between atoms: N_15  and  C_14 
REMARK    7  A    between atoms: N_20  and  C_19 
REMARK       I    between atoms: C_22  and  N_20 
ROOT
ATOM      1  C   LIG d   1      -0.594  80.133 113.272  0.00  0.00     0.161 C 
ATOM      2  C   LIG d   1      -1.203  79.045 112.623  0.00  0.00     0.016 C 
ATOM      3  C   LIG d   1      -0.961  78.711 111.271  0.00  0.00     0.038 C 
ATOM      4  C   LIG d   1       0.028  79.356 110.513  0.00  0.00     0.028 C 
ATOM      5  C   LIG d   1       0.307  80.783 110.971  0.00  0.00    -0.047 C 
ATOM      6  C   LIG d   1       0.571  80.779 112.494  0.00  0.00     0.091 C 
ENDROOT
BRANCH   1   7
ATOM      7  O   LIG d   1      -0.159  79.735 114.587  0.00  0.00    -0.368 OA
BRANCH   7   8
ATOM      8  C   LIG d   1      -0.867  78.621 115.183  0.00  0.00     0.119 C 
BRANCH   8   9
ATOM      9  C   LIG d   1      -1.515  79.128 116.486  0.00  0.00     0.028 C 
ATOM     10  C   LIG d   1      -3.018  78.807 116.558  0.00  0.00     0.006 C 
ENDBRANCH   8   9
BRANCH   8  11
ATOM     11  C   LIG d   1       0.099  77.514 115.615  0.00  0.00     0.028 C 
ATOM     12  C   LIG d   1      -0.082  76.217 114.810  0.00  0.00     0.006 C 
ENDBRANCH   8  11
ENDBRANCH   7   8
ENDBRANCH   1   7
BRANCH   6  13
ATOM     13  N   LIG d   1       0.771  82.148 113.038  0.00  0.00    -0.311 N 
ATOM     14  C   LIG d   1       1.971  82.684 113.252  0.00  0.00     0.210 C 
ATOM     15  C   LIG d   1       1.952  84.100 113.837  0.00  0.00     0.109 C 
ATOM     16  O   LIG d   1       3.050  82.134 112.982  0.00  0.00    -0.276 OA
ATOM     17  H   LIG d   1      -0.051  82.676 113.256  0.00  0.00     0.149 HD
ENDBRANCH   6  13
BRANCH   5  18
ATOM     18  N   LIG d   1       1.451  81.287 110.187  0.00  0.00     0.381 N 
ATOM     19  H   LIG d   1       1.809  80.557 109.604  0.00  0.00    -0.090 HD
ATOM     20  H   LIG d   1       2.178  81.571 110.819  0.00  0.00    -0.090 HD
ATOM     21  H   LIG d   1       1.166  82.060 109.627  0.00  0.00    -0.090 HD
ENDBRANCH   5  18
BRANCH   3  22
ATOM     22  C   LIG d   1      -1.743  77.748 110.651  0.00  0.00     0.382 C 
ATOM     23  O   LIG d   1      -2.955  77.976 110.422  0.00  0.00    -0.241 OA
ATOM     24  O   LIG d   1      -1.261  76.637 110.358  0.00  0.00    -0.241 OA
ENDBRANCH   3  22
TORSDOF 7
ENDMDL
