MODEL 1
REMARK VINA RESULT:      -5.3      0.000      0.000
REMARK  7 active torsions:
REMARK  status: ('A' for Active; 'I' for Inactive)
REMARK    1  A    between atoms: C_2  and  C_3 
REMARK    2  A    between atoms: C_3  and  O_6 
REMARK    3  A    between atoms: C_3  and  C_4 
REMARK    4  A    between atoms: C_7  and  O_6 
REMARK    5  A    between atoms: C_9  and  C_10 
REMARK    6  A    between atoms: N_15  and  C_14 
REMARK    7  A    between atoms: N_20  and  C_19 
REMARK       I    between atoms: C_22  and  N_20 
ROOT
ATOM      1  C   LIG d   1       0.435  80.389 110.798  0.00  0.00     0.161 C 
ATOM      2  C   LIG d   1       0.252  79.119 110.225  0.00  0.00     0.016 C 
ATOM      3  C   LIG d   1      -0.682  78.174 110.709  0.00  0.00     0.038 C 
ATOM      4  C   LIG d   1      -1.609  78.495 111.712  0.00  0.00     0.028 C 
ATOM      5  C   LIG d   1      -1.125  79.589 112.657  0.00  0.00    -0.047 C 
ATOM      6  C   LIG d   1      -0.645  80.798 111.822  0.00  0.00     0.091 C 
ENDROOT
BRANCH   1   7
ATOM      7  O   LIG d   1       0.542  81.382 109.759  0.00  0.00    -0.368 OA
BRANCH   7   8
ATOM      8  C   LIG d   1       1.884  81.818 109.430  0.00  0.00     0.119 C 
BRANCH   8   9
ATOM      9  C   LIG d   1       2.823  81.301 110.537  0.00  0.00     0.028 C 
ATOM     10  C   LIG d   1       3.969  80.440 109.980  0.00  0.00     0.006 C 
ENDBRANCH   8   9
BRANCH   8  11
ATOM     11  C   LIG d   1       2.002  83.344 109.479  0.00  0.00     0.028 C 
ATOM     12  C   LIG d   1       2.886  83.837 110.635  0.00  0.00     0.006 C 
ENDBRANCH   8  11
ENDBRANCH   7   8
ENDBRANCH   1   7
BRANCH   6  13
ATOM     13  N   LIG d   1      -0.076  81.880 112.666  0.00  0.00    -0.311 N 
ATOM     14  C   LIG d   1      -0.322  83.174 112.464  0.00  0.00     0.210 C 
ATOM     15  C   LIG d   1       0.380  84.125 113.438  0.00  0.00     0.109 C 
ATOM     16  O   LIG d   1      -1.081  83.621 111.591  0.00  0.00    -0.276 OA
ATOM     17  H   LIG d   1       0.526  81.605 113.417  0.00  0.00     0.149 HD
ENDBRANCH   6  13
BRANCH   5  18
ATOM     18  N   LIG d   1      -2.240  79.920 113.564  0.00  0.00     0.381 N 
ATOM     19  H   LIG d   1      -3.054  79.399 113.305  0.00  0.00    -0.090 HD
ATOM     20  H   LIG d   1      -2.450  80.899 113.477  0.00  0.00    -0.090 HD
ATOM     21  H   LIG d   1      -1.988  79.709 114.505  0.00  0.00    -0.090 HD
ENDBRANCH   5  18
BRANCH   3  22
ATOM     22  C   LIG d   1      -0.668  76.879 110.215  0.00  0.00     0.382 C 
ATOM     23  O   LIG d   1      -1.724  76.201 110.202  0.00  0.00    -0.241 OA
ATOM     24  O   LIG d   1       0.396  76.363 109.824  0.00  0.00    -0.241 OA
ENDBRANCH   3  22
TORSDOF 7
ENDMDL
MODEL 2
REMARK VINA RESULT:      -5.3      4.192      6.795
REMARK  7 active torsions:
REMARK  status: ('A' for Active; 'I' for Inactive)
REMARK    1  A    between atoms: C_2  and  C_3 
REMARK    2  A    between atoms: C_3  and  O_6 
REMARK    3  A    between atoms: C_3  and  C_4 
REMARK    4  A    between atoms: C_7  and  O_6 
REMARK    5  A    between atoms: C_9  and  C_10 
REMARK    6  A    between atoms: N_15  and  C_14 
REMARK    7  A    between atoms: N_20  and  C_19 
REMARK       I    between atoms: C_22  and  N_20 
ROOT
ATOM      1  C   LIG d   1      -1.965  76.864 113.924  0.00  0.00     0.161 C 
ATOM      2  C   LIG d   1      -1.298  76.580 112.720  0.00  0.00     0.016 C 
ATOM      3  C   LIG d   1      -1.147  77.520 111.674  0.00  0.00     0.038 C 
ATOM      4  C   LIG d   1      -1.524  78.863 111.824  0.00  0.00     0.028 C 
ATOM      5  C   LIG d   1      -2.654  79.067 112.828  0.00  0.00    -0.047 C 
ATOM      6  C   LIG d   1      -2.285  78.356 114.150  0.00  0.00     0.091 C 
ENDROOT
BRANCH   1   7
ATOM      7  O   LIG d   1      -1.212  76.339 115.035  0.00  0.00    -0.368 OA
BRANCH   7   8
ATOM      8  C   LIG d   1      -1.497  74.968 115.407  0.00  0.00     0.119 C 
BRANCH   8   9
ATOM      9  C   LIG d   1      -2.512  75.005 116.567  0.00  0.00     0.028 C 
ATOM     10  C   LIG d   1      -3.964  74.869 116.080  0.00  0.00     0.006 C 
ENDBRANCH   8   9
BRANCH   8  11
ATOM     11  C   LIG d   1      -0.255  74.276 115.977  0.00  0.00     0.028 C 
ATOM     12  C   LIG d   1      -0.277  74.180 117.511  0.00  0.00     0.006 C 
ENDBRANCH   8  11
ENDBRANCH   7   8
ENDBRANCH   1   7
BRANCH   6  13
ATOM     13  N   LIG d   1      -3.374  78.435 115.159  0.00  0.00    -0.311 N 
ATOM     14  C   LIG d   1      -3.165  78.723 116.442  0.00  0.00     0.210 C 
ATOM     15  C   LIG d   1      -4.423  78.733 117.316  0.00  0.00     0.109 C 
ATOM     16  O   LIG d   1      -2.061  79.004 116.933  0.00  0.00    -0.276 OA
ATOM     17  H   LIG d   1      -4.305  78.252 114.840  0.00  0.00     0.149 HD
ENDBRANCH   6  13
BRANCH   5  18
ATOM     18  N   LIG d   1      -2.851  80.520 112.988  0.00  0.00     0.381 N 
ATOM     19  H   LIG d   1      -3.295  80.893 112.173  0.00  0.00    -0.090 HD
ATOM     20  H   LIG d   1      -1.954  80.961 113.087  0.00  0.00    -0.090 HD
ATOM     21  H   LIG d   1      -3.410  80.702 113.792  0.00  0.00    -0.090 HD
ENDBRANCH   5  18
BRANCH   3  22
ATOM     22  C   LIG d   1      -0.650  77.108 110.447  0.00  0.00     0.382 C 
ATOM     23  O   LIG d   1      -0.675  75.893 110.136  0.00  0.00    -0.241 OA
ATOM     24  O   LIG d   1      -0.136  77.931 109.666  0.00  0.00    -0.241 OA
ENDBRANCH   3  22
TORSDOF 7
ENDMDL
MODEL 3
REMARK VINA RESULT:      -4.9      2.181      3.832
REMARK  7 active torsions:
REMARK  status: ('A' for Active; 'I' for Inactive)
REMARK    1  A    between atoms: C_2  and  C_3 
REMARK    2  A    between atoms: C_3  and  O_6 
REMARK    3  A    between atoms: C_3  and  C_4 
REMARK    4  A    between atoms: C_7  and  O_6 
REMARK    5  A    between atoms: C_9  and  C_10 
REMARK    6  A    between atoms: N_15  and  C_14 
REMARK    7  A    between atoms: N_20  and  C_19 
REMARK       I    between atoms: C_22  and  N_20 
ROOT
ATOM      1  C   LIG d   1      -0.592  80.815 112.105  0.00  0.00     0.161 C 
ATOM      2  C   LIG d   1      -1.613  80.021 112.653  0.00  0.00     0.016 C 
ATOM      3  C   LIG d   1      -1.908  78.713 112.203  0.00  0.00     0.038 C 
ATOM      4  C   LIG d   1      -1.097  78.049 111.271  0.00  0.00     0.028 C 
ATOM      5  C   LIG d   1      -0.361  78.994 110.328  0.00  0.00    -0.047 C 
ATOM      6  C   LIG d   1       0.375  80.066 111.164  0.00  0.00     0.091 C 
ENDROOT
BRANCH   1   7
ATOM      7  O   LIG d   1       0.142  81.465 113.162  0.00  0.00    -0.368 OA
BRANCH   7   8
ATOM      8  C   LIG d   1       0.502  82.849 112.930  0.00  0.00     0.119 C 
BRANCH   8   9
ATOM      9  C   LIG d   1       0.960  83.440 114.278  0.00  0.00     0.028 C 
ATOM     10  C   LIG d   1       2.397  83.985 114.221  0.00  0.00     0.006 C 
ENDBRANCH   8   9
BRANCH   8  11
ATOM     11  C   LIG d   1      -0.716  83.680 112.516  0.00  0.00     0.028 C 
ATOM     12  C   LIG d   1      -0.536  84.361 111.151  0.00  0.00     0.006 C 
ENDBRANCH   8  11
ENDBRANCH   7   8
ENDBRANCH   1   7
BRANCH   6  13
ATOM     13  N   LIG d   1       1.052  81.080 110.315  0.00  0.00    -0.311 N 
ATOM     14  C   LIG d   1       2.356  81.345 110.389  0.00  0.00     0.210 C 
ATOM     15  C   LIG d   1       2.847  82.442 109.438  0.00  0.00     0.109 C 
ATOM     16  O   LIG d   1       3.157  80.754 111.128  0.00  0.00    -0.276 OA
ATOM     17  H   LIG d   1       0.483  81.585 109.665  0.00  0.00     0.149 HD
ENDBRANCH   6  13
BRANCH   5  18
ATOM     18  N   LIG d   1       0.551  78.178 109.503  0.00  0.00     0.381 N 
ATOM     19  H   LIG d   1       0.147  78.027 108.600  0.00  0.00    -0.090 HD
ATOM     20  H   LIG d   1       0.679  77.285 109.945  0.00  0.00    -0.090 HD
ATOM     21  H   LIG d   1       1.429  78.639 109.408  0.00  0.00    -0.090 HD
ENDBRANCH   5  18
BRANCH   3  22
ATOM     22  C   LIG d   1      -3.050  78.071 112.659  0.00  0.00     0.382 C 
ATOM     23  O   LIG d   1      -3.652  77.260 111.915  0.00  0.00    -0.241 OA
ATOM     24  O   LIG d   1      -3.510  78.326 113.788  0.00  0.00    -0.241 OA
ENDBRANCH   3  22
TORSDOF 7
ENDMDL
MODEL 4
REMARK VINA RESULT:      -4.8      2.966      5.217
REMARK  7 active torsions:
REMARK  status: ('A' for Active; 'I' for Inactive)
REMARK    1  A    between atoms: C_2  and  C_3 
REMARK    2  A    between atoms: C_3  and  O_6 
REMARK    3  A    between atoms: C_3  and  C_4 
REMARK    4  A    between atoms: C_7  and  O_6 
REMARK    5  A    between atoms: C_9  and  C_10 
REMARK    6  A    between atoms: N_15  and  C_14 
REMARK    7  A    between atoms: N_20  and  C_19 
REMARK       I    between atoms: C_22  and  N_20 
ROOT
ATOM      1  C   LIG d   1       1.563  82.108 111.834  0.00  0.00     0.161 C 
ATOM      2  C   LIG d   1       2.854  82.618 112.049  0.00  0.00     0.016 C 
ATOM      3  C   LIG d   1       3.559  82.465 113.265  0.00  0.00     0.038 C 
ATOM      4  C   LIG d   1       3.078  81.654 114.303  0.00  0.00     0.028 C 
ATOM      5  C   LIG d   1       1.557  81.535 114.324  0.00  0.00    -0.047 C 
ATOM      6  C   LIG d   1       1.067  81.126 112.916  0.00  0.00     0.091 C 
ENDROOT
BRANCH   1   7
ATOM      7  O   LIG d   1       1.491  81.496 110.531  0.00  0.00    -0.368 OA
BRANCH   7   8
ATOM      8  C   LIG d   1       2.357  80.355 110.313  0.00  0.00     0.119 C 
BRANCH   8   9
ATOM      9  C   LIG d   1       3.529  80.824 109.430  0.00  0.00     0.028 C 
ATOM     10  C   LIG d   1       4.898  80.471 110.035  0.00  0.00     0.006 C 
ENDBRANCH   8   9
BRANCH   8  11
ATOM     11  C   LIG d   1       1.649  79.265 109.503  0.00  0.00     0.028 C 
ATOM     12  C   LIG d   1       0.124  79.449 109.461  0.00  0.00     0.006 C 
ENDBRANCH   8  11
ENDBRANCH   7   8
ENDBRANCH   1   7
BRANCH   6  13
ATOM     13  N   LIG d   1      -0.415  81.069 112.826  0.00  0.00    -0.311 N 
ATOM     14  C   LIG d   1      -1.116  79.946 112.977  0.00  0.00     0.210 C 
ATOM     15  C   LIG d   1      -2.632  80.105 112.826  0.00  0.00     0.109 C 
ATOM     16  O   LIG d   1      -0.628  78.840 113.253  0.00  0.00    -0.276 OA
ATOM     17  H   LIG d   1      -0.894  81.927 112.635  0.00  0.00     0.149 HD
ENDBRANCH   6  13
BRANCH   5  18
ATOM     18  N   LIG d   1       1.201  80.554 115.367  0.00  0.00     0.381 N 
ATOM     19  H   LIG d   1       1.795  79.753 115.295  0.00  0.00    -0.090 HD
ATOM     20  H   LIG d   1       0.252  80.258 115.224  0.00  0.00    -0.090 HD
ATOM     21  H   LIG d   1       1.296  80.967 116.269  0.00  0.00    -0.090 HD
ENDBRANCH   5  18
BRANCH   3  22
ATOM     22  C   LIG d   1       4.742  83.159 113.466  0.00  0.00     0.382 C 
ATOM     23  O   LIG d   1       5.804  82.755 112.934  0.00  0.00    -0.241 OA
ATOM     24  O   LIG d   1       4.770  84.159 114.208  0.00  0.00    -0.241 OA
ENDBRANCH   3  22
TORSDOF 7
ENDMDL
MODEL 5
REMARK VINA RESULT:      -4.7      4.126      6.471
REMARK  7 active torsions:
REMARK  status: ('A' for Active; 'I' for Inactive)
REMARK    1  A    between atoms: C_2  and  C_3 
REMARK    2  A    between atoms: C_3  and  O_6 
REMARK    3  A    between atoms: C_3  and  C_4 
REMARK    4  A    between atoms: C_7  and  O_6 
REMARK    5  A    between atoms: C_9  and  C_10 
REMARK    6  A    between atoms: N_15  and  C_14 
REMARK    7  A    between atoms: N_20  and  C_19 
REMARK       I    between atoms: C_22  and  N_20 
ROOT
ATOM      1  C   LIG d   1      -2.547  77.300 114.350  0.00  0.00     0.161 C 
ATOM      2  C   LIG d   1      -2.623  77.121 112.959  0.00  0.00     0.016 C 
ATOM      3  C   LIG d   1      -1.836  77.848 112.036  0.00  0.00     0.038 C 
ATOM      4  C   LIG d   1      -0.805  78.703 112.453  0.00  0.00     0.028 C 
ATOM      5  C   LIG d   1      -1.031  79.294 113.841  0.00  0.00    -0.047 C 
ATOM      6  C   LIG d   1      -1.349  78.148 114.828  0.00  0.00     0.091 C 
ENDROOT
BRANCH   1   7
ATOM      7  O   LIG d   1      -2.548  76.018 115.009  0.00  0.00    -0.368 OA
BRANCH   7   8
ATOM      8  C   LIG d   1      -1.286  75.594 115.580  0.00  0.00     0.119 C 
BRANCH   8   9
ATOM      9  C   LIG d   1      -0.777  74.403 114.745  0.00  0.00     0.028 C 
ATOM     10  C   LIG d   1       0.372  74.795 113.802  0.00  0.00     0.006 C 
ENDBRANCH   8   9
BRANCH   8  11
ATOM     11  C   LIG d   1      -1.473  75.046 116.998  0.00  0.00     0.028 C 
ATOM     12  C   LIG d   1      -0.142  74.862 117.745  0.00  0.00     0.006 C 
ENDBRANCH   8  11
ENDBRANCH   7   8
ENDBRANCH   1   7
BRANCH   6  13
ATOM     13  N   LIG d   1      -1.667  78.646 116.192  0.00  0.00    -0.311 N 
ATOM     14  C   LIG d   1      -0.762  78.749 117.164  0.00  0.00     0.210 C 
ATOM     15  C   LIG d   1      -1.305  79.267 118.500  0.00  0.00     0.109 C 
ATOM     16  O   LIG d   1       0.444  78.490 117.038  0.00  0.00    -0.276 OA
ATOM     17  H   LIG d   1      -2.616  78.908 116.372  0.00  0.00     0.149 HD
ENDBRANCH   6  13
BRANCH   5  18
ATOM     18  N   LIG d   1       0.180  80.052 114.205  0.00  0.00     0.381 N 
ATOM     19  H   LIG d   1       0.122  80.981 113.838  0.00  0.00    -0.090 HD
ATOM     20  H   LIG d   1       0.981  79.601 113.798  0.00  0.00    -0.090 HD
ATOM     21  H   LIG d   1       0.277  80.085 115.196  0.00  0.00    -0.090 HD
ENDBRANCH   5  18
BRANCH   3  22
ATOM     22  C   LIG d   1      -2.105  77.754 110.679  0.00  0.00     0.382 C 
ATOM     23  O   LIG d   1      -3.156  77.192 110.286  0.00  0.00    -0.241 OA
ATOM     24  O   LIG d   1      -1.290  78.185 109.842  0.00  0.00    -0.241 OA
ENDBRANCH   3  22
TORSDOF 7
ENDMDL
MODEL 6
REMARK VINA RESULT:      -4.6      2.782      5.163
REMARK  7 active torsions:
REMARK  status: ('A' for Active; 'I' for Inactive)
REMARK    1  A    between atoms: C_2  and  C_3 
REMARK    2  A    between atoms: C_3  and  O_6 
REMARK    3  A    between atoms: C_3  and  C_4 
REMARK    4  A    between atoms: C_7  and  O_6 
REMARK    5  A    between atoms: C_9  and  C_10 
REMARK    6  A    between atoms: N_15  and  C_14 
REMARK    7  A    between atoms: N_20  and  C_19 
REMARK       I    between atoms: C_22  and  N_20 
ROOT
ATOM      1  C   LIG d   1      -1.087  79.478 113.451  0.00  0.00     0.161 C 
ATOM      2  C   LIG d   1      -1.561  78.388 112.703  0.00  0.00     0.016 C 
ATOM      3  C   LIG d   1      -1.199  78.152 111.357  0.00  0.00     0.038 C 
ATOM      4  C   LIG d   1      -0.212  78.911 110.710  0.00  0.00     0.028 C 
ATOM      5  C   LIG d   1      -0.079  80.326 111.261  0.00  0.00    -0.047 C 
ATOM      6  C   LIG d   1       0.076  80.254 112.798  0.00  0.00     0.091 C 
ENDROOT
BRANCH   1   7
ATOM      7  O   LIG d   1      -0.716  79.039 114.773  0.00  0.00    -0.368 OA
BRANCH   7   8
ATOM      8  C   LIG d   1      -1.402  77.864 115.270  0.00  0.00     0.119 C 
BRANCH   8   9
ATOM      9  C   LIG d   1      -2.238  78.297 116.490  0.00  0.00     0.028 C 
ATOM     10  C   LIG d   1      -3.666  78.716 116.103  0.00  0.00     0.006 C 
ENDBRANCH   8   9
BRANCH   8  11
ATOM     11  C   LIG d   1      -0.411  76.826 115.805  0.00  0.00     0.028 C 
ATOM     12  C   LIG d   1      -0.075  75.736 114.774  0.00  0.00     0.006 C 
ENDBRANCH   8  11
ENDBRANCH   7   8
ENDBRANCH   1   7
BRANCH   6  13
ATOM     13  N   LIG d   1       0.129  81.600 113.426  0.00  0.00    -0.311 N 
ATOM     14  C   LIG d   1       1.266  82.217 113.742  0.00  0.00     0.210 C 
ATOM     15  C   LIG d   1       1.094  83.590 114.400  0.00  0.00     0.109 C 
ATOM     16  O   LIG d   1       2.400  81.773 113.511  0.00  0.00    -0.276 OA
ATOM     17  H   LIG d   1      -0.746  82.047 113.620  0.00  0.00     0.149 HD
ENDBRANCH   6  13
BRANCH   5  18
ATOM     18  N   LIG d   1       1.074  80.958 110.593  0.00  0.00     0.381 N 
ATOM     19  H   LIG d   1       0.924  81.944 110.518  0.00  0.00    -0.090 HD
ATOM     20  H   LIG d   1       1.159  80.581 109.665  0.00  0.00    -0.090 HD
ATOM     21  H   LIG d   1       1.908  80.780 111.109  0.00  0.00    -0.090 HD
ENDBRANCH   5  18
BRANCH   3  22
ATOM     22  C   LIG d   1      -1.856  77.170 110.631  0.00  0.00     0.382 C 
ATOM     23  O   LIG d   1      -1.255  76.114 110.317  0.00  0.00    -0.241 OA
ATOM     24  O   LIG d   1      -3.028  77.346 110.247  0.00  0.00    -0.241 OA
ENDBRANCH   3  22
TORSDOF 7
ENDMDL
MODEL 7
REMARK VINA RESULT:      -4.6      2.864      5.459
REMARK  7 active torsions:
REMARK  status: ('A' for Active; 'I' for Inactive)
REMARK    1  A    between atoms: C_2  and  C_3 
REMARK    2  A    between atoms: C_3  and  O_6 
REMARK    3  A    between atoms: C_3  and  C_4 
REMARK    4  A    between atoms: C_7  and  O_6 
REMARK    5  A    between atoms: C_9  and  C_10 
REMARK    6  A    between atoms: N_15  and  C_14 
REMARK    7  A    between atoms: N_20  and  C_19 
REMARK       I    between atoms: C_22  and  N_20 
ROOT
ATOM      1  C   LIG d   1       1.490  81.401 112.681  0.00  0.00     0.161 C 
ATOM      2  C   LIG d   1       2.225  82.375 111.984  0.00  0.00     0.016 C 
ATOM      3  C   LIG d   1       2.156  82.547 110.582  0.00  0.00     0.038 C 
ATOM      4  C   LIG d   1       1.226  81.851 109.795  0.00  0.00     0.028 C 
ATOM      5  C   LIG d   1       0.821  80.504 110.384  0.00  0.00    -0.047 C 
ATOM      6  C   LIG d   1       0.387  80.708 111.853  0.00  0.00     0.091 C 
ENDROOT
BRANCH   1   7
ATOM      7  O   LIG d   1       0.931  81.976 113.879  0.00  0.00    -0.368 OA
BRANCH   7   8
ATOM      8  C   LIG d   1       1.877  82.572 114.800  0.00  0.00     0.119 C 
BRANCH   8   9
ATOM      9  C   LIG d   1       2.314  81.474 115.790  0.00  0.00     0.028 C 
ATOM     10  C   LIG d   1       3.795  81.095 115.627  0.00  0.00     0.006 C 
ENDBRANCH   8   9
BRANCH   8  11
ATOM     11  C   LIG d   1       1.212  83.651 115.660  0.00  0.00     0.028 C 
ATOM     12  C   LIG d   1       1.125  83.261 117.144  0.00  0.00     0.006 C 
ENDBRANCH   8  11
ENDBRANCH   7   8
ENDBRANCH   1   7
BRANCH   6  13
ATOM     13  N   LIG d   1       0.056  79.427 112.530  0.00  0.00    -0.311 N 
ATOM     14  C   LIG d   1      -1.180  78.935 112.602  0.00  0.00     0.210 C 
ATOM     15  C   LIG d   1      -1.304  77.611 113.362  0.00  0.00     0.109 C 
ATOM     16  O   LIG d   1      -2.179  79.453 112.082  0.00  0.00    -0.276 OA
ATOM     17  H   LIG d   1       0.812  78.926 112.953  0.00  0.00     0.149 HD
ENDBRANCH   6  13
BRANCH   5  18
ATOM     18  N   LIG d   1      -0.252  79.951 109.536  0.00  0.00     0.381 N 
ATOM     19  H   LIG d   1       0.145  79.390 108.809  0.00  0.00    -0.090 HD
ATOM     20  H   LIG d   1      -0.753  80.711 109.110  0.00  0.00    -0.090 HD
ATOM     21  H   LIG d   1      -0.874  79.402 110.087  0.00  0.00    -0.090 HD
ENDBRANCH   5  18
BRANCH   3  22
ATOM     22  C   LIG d   1       3.052  83.394 109.948  0.00  0.00     0.382 C 
ATOM     23  O   LIG d   1       4.198  82.983 109.647  0.00  0.00    -0.241 OA
ATOM     24  O   LIG d   1       2.744  84.578 109.714  0.00  0.00    -0.241 OA
ENDBRANCH   3  22
TORSDOF 7
ENDMDL
MODEL 8
REMARK VINA RESULT:      -4.5      2.938      3.800
REMARK  7 active torsions:
REMARK  status: ('A' for Active; 'I' for Inactive)
REMARK    1  A    between atoms: C_2  and  C_3 
REMARK    2  A    between atoms: C_3  and  O_6 
REMARK    3  A    between atoms: C_3  and  C_4 
REMARK    4  A    between atoms: C_7  and  O_6 
REMARK    5  A    between atoms: C_9  and  C_10 
REMARK    6  A    between atoms: N_15  and  C_14 
REMARK    7  A    between atoms: N_20  and  C_19 
REMARK       I    between atoms: C_22  and  N_20 
ROOT
ATOM      1  C   LIG d   1      -0.530  79.445 113.224  0.00  0.00     0.161 C 
ATOM      2  C   LIG d   1      -1.050  78.871 112.052  0.00  0.00     0.016 C 
ATOM      3  C   LIG d   1      -1.675  77.604 112.017  0.00  0.00     0.038 C 
ATOM      4  C   LIG d   1      -1.960  76.885 113.187  0.00  0.00     0.028 C 
ATOM      5  C   LIG d   1      -1.004  77.193 114.335  0.00  0.00    -0.047 C 
ATOM      6  C   LIG d   1      -0.930  78.725 114.529  0.00  0.00     0.091 C 
ENDROOT
BRANCH   1   7
ATOM      7  O   LIG d   1      -0.894  80.838 113.289  0.00  0.00    -0.368 OA
BRANCH   7   8
ATOM      8  C   LIG d   1      -0.130  81.736 112.447  0.00  0.00     0.119 C 
BRANCH   8   9
ATOM      9  C   LIG d   1       1.326  81.718 112.953  0.00  0.00     0.028 C 
ATOM     10  C   LIG d   1       2.324  81.313 111.854  0.00  0.00     0.006 C 
ENDBRANCH   8   9
BRANCH   8  11
ATOM     11  C   LIG d   1      -0.597  83.186 112.610  0.00  0.00     0.028 C 
ATOM     12  C   LIG d   1       0.345  84.020 113.493  0.00  0.00     0.006 C 
ENDBRANCH   8  11
ENDBRANCH   7   8
ENDBRANCH   1   7
BRANCH   6  13
ATOM     13  N   LIG d   1       0.047  79.117 115.577  0.00  0.00    -0.311 N 
ATOM     14  C   LIG d   1      -0.281  79.298 116.855  0.00  0.00     0.210 C 
ATOM     15  C   LIG d   1       0.876  79.720 117.766  0.00  0.00     0.109 C 
ATOM     16  O   LIG d   1      -1.414  79.117 117.327  0.00  0.00    -0.276 OA
ATOM     17  H   LIG d   1       0.996  79.254 115.288  0.00  0.00     0.149 HD
ENDBRANCH   6  13
BRANCH   5  18
ATOM     18  N   LIG d   1      -1.497  76.482 115.529  0.00  0.00     0.381 N 
ATOM     19  H   LIG d   1      -2.252  76.994 115.941  0.00  0.00    -0.090 HD
ATOM     20  H   LIG d   1      -0.754  76.421 116.202  0.00  0.00    -0.090 HD
ATOM     21  H   LIG d   1      -1.804  75.568 115.279  0.00  0.00    -0.090 HD
ENDBRANCH   5  18
BRANCH   3  22
ATOM     22  C   LIG d   1      -1.987  77.025 110.796  0.00  0.00     0.382 C 
ATOM     23  O   LIG d   1      -1.222  76.165 110.296  0.00  0.00    -0.241 OA
ATOM     24  O   LIG d   1      -3.000  77.384 110.167  0.00  0.00    -0.241 OA
ENDBRANCH   3  22
TORSDOF 7
ENDMDL
MODEL 9
REMARK VINA RESULT:      -4.4      5.285      7.384
REMARK  7 active torsions:
REMARK  status: ('A' for Active; 'I' for Inactive)
REMARK    1  A    between atoms: C_2  and  C_3 
REMARK    2  A    between atoms: C_3  and  O_6 
REMARK    3  A    between atoms: C_3  and  C_4 
REMARK    4  A    between atoms: C_7  and  O_6 
REMARK    5  A    between atoms: C_9  and  C_10 
REMARK    6  A    between atoms: N_15  and  C_14 
REMARK    7  A    between atoms: N_20  and  C_19 
REMARK       I    between atoms: C_22  and  N_20 
ROOT
ATOM      1  C   LIG d   1      -1.259  77.004 115.355  0.00  0.00     0.161 C 
ATOM      2  C   LIG d   1      -0.629  76.288 114.324  0.00  0.00     0.016 C 
ATOM      3  C   LIG d   1       0.088  75.088 114.535  0.00  0.00     0.038 C 
ATOM      4  C   LIG d   1       0.095  74.437 115.777  0.00  0.00     0.028 C 
ATOM      5  C   LIG d   1      -0.104  75.383 116.957  0.00  0.00    -0.047 C 
ATOM      6  C   LIG d   1      -1.356  76.252 116.699  0.00  0.00     0.091 C 
ENDROOT
BRANCH   1   7
ATOM      7  O   LIG d   1      -2.566  77.432 114.925  0.00  0.00    -0.368 OA
BRANCH   7   8
ATOM      8  C   LIG d   1      -3.047  76.862 113.682  0.00  0.00     0.119 C 
BRANCH   8   9
ATOM      9  C   LIG d   1      -3.313  78.028 112.711  0.00  0.00     0.028 C 
ATOM     10  C   LIG d   1      -2.499  79.284 113.064  0.00  0.00     0.006 C 
ENDBRANCH   8   9
BRANCH   8  11
ATOM     11  C   LIG d   1      -4.402  76.174 113.872  0.00  0.00     0.028 C 
ATOM     12  C   LIG d   1      -4.391  75.140 115.009  0.00  0.00     0.006 C 
ENDBRANCH   8  11
ENDBRANCH   7   8
ENDBRANCH   1   7
BRANCH   6  13
ATOM     13  N   LIG d   1      -1.575  77.263 117.766  0.00  0.00    -0.311 N 
ATOM     14  C   LIG d   1      -2.771  77.533 118.286  0.00  0.00     0.210 C 
ATOM     15  C   LIG d   1      -2.777  78.624 119.361  0.00  0.00     0.109 C 
ATOM     16  O   LIG d   1      -3.822  76.950 117.982  0.00  0.00    -0.276 OA
ATOM     17  H   LIG d   1      -0.770  77.761 118.094  0.00  0.00     0.149 HD
ENDBRANCH   6  13
BRANCH   5  18
ATOM     18  N   LIG d   1      -0.213  74.559 118.176  0.00  0.00     0.381 N 
ATOM     19  H   LIG d   1      -0.599  73.664 117.946  0.00  0.00    -0.090 HD
ATOM     20  H   LIG d   1      -0.835  75.013 118.821  0.00  0.00    -0.090 HD
ATOM     21  H   LIG d   1       0.685  74.445 118.592  0.00  0.00    -0.090 HD
ENDBRANCH   5  18
BRANCH   3  22
ATOM     22  C   LIG d   1       0.841  74.547 113.504  0.00  0.00     0.382 C 
ATOM     23  O   LIG d   1       2.088  74.465 113.614  0.00  0.00    -0.241 OA
ATOM     24  O   LIG d   1       0.294  74.181 112.446  0.00  0.00    -0.241 OA
ENDBRANCH   3  22
TORSDOF 7
ENDMDL
