MODEL 1
REMARK VINA RESULT:      -5.6      0.000      0.000
REMARK  7 active torsions:
REMARK  status: ('A' for Active; 'I' for Inactive)
REMARK    1  A    between atoms: C_2  and  C_3 
REMARK    2  A    between atoms: C_3  and  O_6 
REMARK    3  A    between atoms: C_3  and  C_4 
REMARK    4  A    between atoms: C_7  and  O_6 
REMARK    5  A    between atoms: C_9  and  C_10 
REMARK    6  A    between atoms: N_15  and  C_14 
REMARK    7  A    between atoms: N_20  and  C_19 
REMARK       I    between atoms: C_22  and  N_20 
ROOT
ATOM      1  C   LIG d   1       1.287  81.261 112.542  0.00  0.00     0.161 C 
ATOM      2  C   LIG d   1       2.440  81.636 111.832  0.00  0.00     0.016 C 
ATOM      3  C   LIG d   1       2.575  81.488 110.433  0.00  0.00     0.038 C 
ATOM      4  C   LIG d   1       1.501  81.092 109.622  0.00  0.00     0.028 C 
ATOM      5  C   LIG d   1       0.480  80.224 110.350  0.00  0.00    -0.047 C 
ATOM      6  C   LIG d   1       0.064  80.931 111.660  0.00  0.00     0.091 C 
ENDROOT
BRANCH   1   7
ATOM      7  O   LIG d   1       0.951  82.282 113.502  0.00  0.00    -0.368 OA
BRANCH   7   8
ATOM      8  C   LIG d   1       1.790  83.463 113.497  0.00  0.00     0.119 C 
BRANCH   8   9
ATOM      9  C   LIG d   1       2.105  83.813 114.964  0.00  0.00     0.028 C 
ATOM     10  C   LIG d   1       2.633  82.605 115.756  0.00  0.00     0.006 C 
ENDBRANCH   8   9
BRANCH   8  11
ATOM     11  C   LIG d   1       1.040  84.677 112.943  0.00  0.00     0.028 C 
ATOM     12  C   LIG d   1      -0.472  84.433 112.807  0.00  0.00     0.006 C 
ENDBRANCH   8  11
ENDBRANCH   7   8
ENDBRANCH   1   7
BRANCH   6  13
ATOM     13  N   LIG d   1      -0.869  80.111 112.475  0.00  0.00    -0.311 N 
ATOM     14  C   LIG d   1      -2.079  80.527 112.845  0.00  0.00     0.210 C 
ATOM     15  C   LIG d   1      -2.872  79.533 113.699  0.00  0.00     0.109 C 
ATOM     16  O   LIG d   1      -2.584  81.612 112.519  0.00  0.00    -0.276 OA
ATOM     17  H   LIG d   1      -0.553  79.204 112.757  0.00  0.00     0.149 HD
ENDBRANCH   6  13
BRANCH   5  18
ATOM     18  N   LIG d   1      -0.651  79.999 109.430  0.00  0.00     0.381 N 
ATOM     19  H   LIG d   1      -1.216  80.823 109.380  0.00  0.00    -0.090 HD
ATOM     20  H   LIG d   1      -1.217  79.250 109.788  0.00  0.00    -0.090 HD
ATOM     21  H   LIG d   1      -0.311  79.765 108.523  0.00  0.00    -0.090 HD
ENDBRANCH   5  18
BRANCH   3  22
ATOM     22  C   LIG d   1       3.808  81.699 109.835  0.00  0.00     0.382 C 
ATOM     23  O   LIG d   1       4.490  80.722 109.442  0.00  0.00    -0.241 OA
ATOM     24  O   LIG d   1       4.268  82.852 109.725  0.00  0.00    -0.241 OA
ENDBRANCH   3  22
TORSDOF 7
ENDMDL
MODEL 2
REMARK VINA RESULT:      -5.1      1.484      4.927
REMARK  7 active torsions:
REMARK  status: ('A' for Active; 'I' for Inactive)
REMARK    1  A    between atoms: C_2  and  C_3 
REMARK    2  A    between atoms: C_3  and  O_6 
REMARK    3  A    between atoms: C_3  and  C_4 
REMARK    4  A    between atoms: C_7  and  O_6 
REMARK    5  A    between atoms: C_9  and  C_10 
REMARK    6  A    between atoms: N_15  and  C_14 
REMARK    7  A    between atoms: N_20  and  C_19 
REMARK       I    between atoms: C_22  and  N_20 
ROOT
ATOM      1  C   LIG d   1       0.402  81.947 112.124  0.00  0.00     0.161 C 
ATOM      2  C   LIG d   1      -0.820  81.609 112.728  0.00  0.00     0.016 C 
ATOM      3  C   LIG d   1      -1.559  80.451 112.394  0.00  0.00     0.038 C 
ATOM      4  C   LIG d   1      -1.049  79.468 111.534  0.00  0.00     0.028 C 
ATOM      5  C   LIG d   1      -0.050  80.012 110.518  0.00  0.00    -0.047 C 
ATOM      6  C   LIG d   1       1.029  80.830 111.263  0.00  0.00     0.091 C 
ENDROOT
BRANCH   1   7
ATOM      7  O   LIG d   1       1.337  82.392 113.127  0.00  0.00    -0.368 OA
BRANCH   7   8
ATOM      8  C   LIG d   1       1.257  83.790 113.498  0.00  0.00     0.119 C 
BRANCH   8   9
ATOM      9  C   LIG d   1       1.698  84.619 112.276  0.00  0.00     0.028 C 
ATOM     10  C   LIG d   1       3.228  84.679 112.130  0.00  0.00     0.006 C 
ENDBRANCH   8   9
BRANCH   8  11
ATOM     11  C   LIG d   1       2.260  84.131 114.604  0.00  0.00     0.028 C 
ATOM     12  C   LIG d   1       2.725  82.895 115.389  0.00  0.00     0.006 C 
ENDBRANCH   8  11
ENDBRANCH   7   8
ENDBRANCH   1   7
BRANCH   6  13
ATOM     13  N   LIG d   1       1.999  81.468 110.335  0.00  0.00    -0.311 N 
ATOM     14  C   LIG d   1       3.312  81.497 110.554  0.00  0.00     0.210 C 
ATOM     15  C   LIG d   1       4.131  82.223 109.481  0.00  0.00     0.109 C 
ATOM     16  O   LIG d   1       3.881  80.963 111.518  0.00  0.00    -0.276 OA
ATOM     17  H   LIG d   1       1.627  81.899 109.512  0.00  0.00     0.149 HD
ENDBRANCH   6  13
BRANCH   5  18
ATOM     18  N   LIG d   1       0.505  78.862 109.779  0.00  0.00     0.381 N 
ATOM     19  H   LIG d   1       1.198  79.179 109.130  0.00  0.00    -0.090 HD
ATOM     20  H   LIG d   1      -0.234  78.421 109.261  0.00  0.00    -0.090 HD
ATOM     21  H   LIG d   1       0.909  78.210 110.415  0.00  0.00    -0.090 HD
ENDBRANCH   5  18
BRANCH   3  22
ATOM     22  C   LIG d   1      -2.843  80.288 112.892  0.00  0.00     0.382 C 
ATOM     23  O   LIG d   1      -3.696  81.194 112.736  0.00  0.00    -0.241 OA
ATOM     24  O   LIG d   1      -3.146  79.265 113.535  0.00  0.00    -0.241 OA
ENDBRANCH   3  22
TORSDOF 7
ENDMDL
MODEL 3
REMARK VINA RESULT:      -5.0      1.429      1.963
REMARK  7 active torsions:
REMARK  status: ('A' for Active; 'I' for Inactive)
REMARK    1  A    between atoms: C_2  and  C_3 
REMARK    2  A    between atoms: C_3  and  O_6 
REMARK    3  A    between atoms: C_3  and  C_4 
REMARK    4  A    between atoms: C_7  and  O_6 
REMARK    5  A    between atoms: C_9  and  C_10 
REMARK    6  A    between atoms: N_15  and  C_14 
REMARK    7  A    between atoms: N_20  and  C_19 
REMARK       I    between atoms: C_22  and  N_20 
ROOT
ATOM      1  C   LIG d   1       1.755  81.950 112.936  0.00  0.00     0.161 C 
ATOM      2  C   LIG d   1       2.740  82.669 112.237  0.00  0.00     0.016 C 
ATOM      3  C   LIG d   1       2.693  82.897 110.843  0.00  0.00     0.038 C 
ATOM      4  C   LIG d   1       1.574  82.550 110.071  0.00  0.00     0.028 C 
ATOM      5  C   LIG d   1       0.785  81.377 110.643  0.00  0.00    -0.047 C 
ATOM      6  C   LIG d   1       0.472  81.660 112.130  0.00  0.00     0.091 C 
ENDROOT
BRANCH   1   7
ATOM      7  O   LIG d   1       1.432  82.633 114.164  0.00  0.00    -0.368 OA
BRANCH   7   8
ATOM      8  C   LIG d   1       2.554  83.001 115.003  0.00  0.00     0.119 C 
BRANCH   8   9
ATOM      9  C   LIG d   1       2.945  81.757 115.824  0.00  0.00     0.028 C 
ATOM     10  C   LIG d   1       4.402  81.328 115.581  0.00  0.00     0.006 C 
ENDBRANCH   8   9
BRANCH   8  11
ATOM     11  C   LIG d   1       2.154  84.059 116.036  0.00  0.00     0.028 C 
ATOM     12  C   LIG d   1       1.911  83.467 117.433  0.00  0.00     0.006 C 
ENDBRANCH   8  11
ENDBRANCH   7   8
ENDBRANCH   1   7
BRANCH   6  13
ATOM     13  N   LIG d   1      -0.225  80.524 112.789  0.00  0.00    -0.311 N 
ATOM     14  C   LIG d   1      -1.551  80.426 112.869  0.00  0.00     0.210 C 
ATOM     15  C   LIG d   1      -2.064  79.185 113.607  0.00  0.00     0.109 C 
ATOM     16  O   LIG d   1      -2.352  81.231 112.370  0.00  0.00    -0.276 OA
ATOM     17  H   LIG d   1       0.348  79.810 113.193  0.00  0.00     0.149 HD
ENDBRANCH   6  13
BRANCH   5  18
ATOM     18  N   LIG d   1      -0.427  81.211 109.818  0.00  0.00     0.381 N 
ATOM     19  H   LIG d   1      -0.606  80.237 109.672  0.00  0.00    -0.090 HD
ATOM     20  H   LIG d   1      -0.272  81.641 108.924  0.00  0.00    -0.090 HD
ATOM     21  H   LIG d   1      -1.207  81.636 110.269  0.00  0.00    -0.090 HD
ENDBRANCH   5  18
BRANCH   3  22
ATOM     22  C   LIG d   1       3.793  83.444 110.199  0.00  0.00     0.382 C 
ATOM     23  O   LIG d   1       4.654  82.693 109.682  0.00  0.00    -0.241 OA
ATOM     24  O   LIG d   1       3.957  84.678 110.168  0.00  0.00    -0.241 OA
ENDBRANCH   3  22
TORSDOF 7
ENDMDL
MODEL 4
REMARK VINA RESULT:      -4.9      2.541      4.861
REMARK  7 active torsions:
REMARK  status: ('A' for Active; 'I' for Inactive)
REMARK    1  A    between atoms: C_2  and  C_3 
REMARK    2  A    between atoms: C_3  and  O_6 
REMARK    3  A    between atoms: C_3  and  C_4 
REMARK    4  A    between atoms: C_7  and  O_6 
REMARK    5  A    between atoms: C_9  and  C_10 
REMARK    6  A    between atoms: N_15  and  C_14 
REMARK    7  A    between atoms: N_20  and  C_19 
REMARK       I    between atoms: C_22  and  N_20 
ROOT
ATOM      1  C   LIG d   1       0.227  80.539 110.831  0.00  0.00     0.161 C 
ATOM      2  C   LIG d   1      -0.314  79.290 110.482  0.00  0.00     0.016 C 
ATOM      3  C   LIG d   1      -1.481  78.754 111.075  0.00  0.00     0.038 C 
ATOM      4  C   LIG d   1      -2.276  79.503 111.955  0.00  0.00     0.028 C 
ATOM      5  C   LIG d   1      -1.497  80.569 112.718  0.00  0.00    -0.047 C 
ATOM      6  C   LIG d   1      -0.689  81.418 111.709  0.00  0.00     0.091 C 
ENDROOT
BRANCH   1   7
ATOM      7  O   LIG d   1       0.615  81.253 109.641  0.00  0.00    -0.368 OA
BRANCH   7   8
ATOM      8  C   LIG d   1       2.028  81.539 109.502  0.00  0.00     0.119 C 
BRANCH   8   9
ATOM      9  C   LIG d   1       2.725  81.066 110.793  0.00  0.00     0.028 C 
ATOM     10  C   LIG d   1       4.111  81.708 110.980  0.00  0.00     0.006 C 
ENDBRANCH   8   9
BRANCH   8  11
ATOM     11  C   LIG d   1       2.287  83.047 109.431  0.00  0.00     0.028 C 
ATOM     12  C   LIG d   1       0.992  83.874 109.431  0.00  0.00     0.006 C 
ENDBRANCH   8  11
ENDBRANCH   7   8
ENDBRANCH   1   7
BRANCH   6  13
ATOM     13  N   LIG d   1       0.168  82.431 112.379  0.00  0.00    -0.311 N 
ATOM     14  C   LIG d   1      -0.237  83.671 112.647  0.00  0.00     0.210 C 
ATOM     15  C   LIG d   1       0.810  84.561 113.324  0.00  0.00     0.109 C 
ATOM     16  O   LIG d   1      -1.374  84.109 112.417  0.00  0.00    -0.276 OA
ATOM     17  H   LIG d   1       1.096  82.150 112.628  0.00  0.00     0.149 HD
ENDBRANCH   6  13
BRANCH   5  18
ATOM     18  N   LIG d   1      -2.469  81.363 113.493  0.00  0.00     0.381 N 
ATOM     19  H   LIG d   1      -1.994  81.873 114.210  0.00  0.00    -0.090 HD
ATOM     20  H   LIG d   1      -3.123  80.738 113.930  0.00  0.00    -0.090 HD
ATOM     21  H   LIG d   1      -2.952  81.993 112.891  0.00  0.00    -0.090 HD
ENDBRANCH   5  18
BRANCH   3  22
ATOM     22  C   LIG d   1      -1.841  77.440 110.818  0.00  0.00     0.382 C 
ATOM     23  O   LIG d   1      -3.029  77.160 110.531  0.00  0.00    -0.241 OA
ATOM     24  O   LIG d   1      -1.001  76.525 110.913  0.00  0.00    -0.241 OA
ENDBRANCH   3  22
TORSDOF 7
ENDMDL
MODEL 5
REMARK VINA RESULT:      -4.6      2.542      5.538
REMARK  7 active torsions:
REMARK  status: ('A' for Active; 'I' for Inactive)
REMARK    1  A    between atoms: C_2  and  C_3 
REMARK    2  A    between atoms: C_3  and  O_6 
REMARK    3  A    between atoms: C_3  and  C_4 
REMARK    4  A    between atoms: C_7  and  O_6 
REMARK    5  A    between atoms: C_9  and  C_10 
REMARK    6  A    between atoms: N_15  and  C_14 
REMARK    7  A    between atoms: N_20  and  C_19 
REMARK       I    between atoms: C_22  and  N_20 
ROOT
ATOM      1  C   LIG d   1      -0.527  80.074 111.678  0.00  0.00     0.161 C 
ATOM      2  C   LIG d   1      -1.663  79.337 111.303  0.00  0.00     0.016 C 
ATOM      3  C   LIG d   1      -2.483  78.649 112.227  0.00  0.00     0.038 C 
ATOM      4  C   LIG d   1      -2.308  78.776 113.613  0.00  0.00     0.028 C 
ATOM      5  C   LIG d   1      -0.873  79.100 114.015  0.00  0.00    -0.047 C 
ATOM      6  C   LIG d   1      -0.384  80.316 113.195  0.00  0.00     0.091 C 
ENDROOT
BRANCH   1   7
ATOM      7  O   LIG d   1      -0.501  81.327 110.966  0.00  0.00    -0.368 OA
BRANCH   7   8
ATOM      8  C   LIG d   1       0.462  81.427 109.888  0.00  0.00     0.119 C 
BRANCH   8   9
ATOM      9  C   LIG d   1       1.474  80.278 110.062  0.00  0.00     0.028 C 
ATOM     10  C   LIG d   1       2.929  80.774 110.075  0.00  0.00     0.006 C 
ENDBRANCH   8   9
BRANCH   8  11
ATOM     11  C   LIG d   1       1.287  82.713 109.995  0.00  0.00     0.028 C 
ATOM     12  C   LIG d   1       0.415  83.968 110.160  0.00  0.00     0.006 C 
ENDBRANCH   8  11
ENDBRANCH   7   8
ENDBRANCH   1   7
BRANCH   6  13
ATOM     13  N   LIG d   1       1.039  80.646 113.466  0.00  0.00    -0.311 N 
ATOM     14  C   LIG d   1       1.492  81.893 113.588  0.00  0.00     0.210 C 
ATOM     15  C   LIG d   1       2.997  82.012 113.846  0.00  0.00     0.109 C 
ATOM     16  O   LIG d   1       0.784  82.910 113.539  0.00  0.00    -0.276 OA
ATOM     17  H   LIG d   1       1.677  79.880 113.551  0.00  0.00     0.149 HD
ENDBRANCH   6  13
BRANCH   5  18
ATOM     18  N   LIG d   1      -0.861  79.341 115.470  0.00  0.00     0.381 N 
ATOM     19  H   LIG d   1      -0.289  78.656 115.922  0.00  0.00    -0.090 HD
ATOM     20  H   LIG d   1      -1.798  79.251 115.822  0.00  0.00    -0.090 HD
ATOM     21  H   LIG d   1      -0.513  80.254 115.661  0.00  0.00    -0.090 HD
ENDBRANCH   5  18
BRANCH   3  22
ATOM     22  C   LIG d   1      -3.469  77.790 111.764  0.00  0.00     0.382 C 
ATOM     23  O   LIG d   1      -3.512  77.483 110.548  0.00  0.00    -0.241 OA
ATOM     24  O   LIG d   1      -4.341  77.353 112.538  0.00  0.00    -0.241 OA
ENDBRANCH   3  22
TORSDOF 7
ENDMDL
MODEL 6
REMARK VINA RESULT:      -4.6      4.827      6.733
REMARK  7 active torsions:
REMARK  status: ('A' for Active; 'I' for Inactive)
REMARK    1  A    between atoms: C_2  and  C_3 
REMARK    2  A    between atoms: C_3  and  O_6 
REMARK    3  A    between atoms: C_3  and  C_4 
REMARK    4  A    between atoms: C_7  and  O_6 
REMARK    5  A    between atoms: C_9  and  C_10 
REMARK    6  A    between atoms: N_15  and  C_14 
REMARK    7  A    between atoms: N_20  and  C_19 
REMARK       I    between atoms: C_22  and  N_20 
ROOT
ATOM      1  C   LIG d   1      -1.948  78.266 115.007  0.00  0.00     0.161 C 
ATOM      2  C   LIG d   1      -2.493  79.484 114.569  0.00  0.00     0.016 C 
ATOM      3  C   LIG d   1      -2.646  79.823 113.205  0.00  0.00     0.038 C 
ATOM      4  C   LIG d   1      -2.404  78.896 112.180  0.00  0.00     0.028 C 
ATOM      5  C   LIG d   1      -1.377  77.833 112.554  0.00  0.00    -0.047 C 
ATOM      6  C   LIG d   1      -1.781  77.199 113.905  0.00  0.00     0.091 C 
ENDROOT
BRANCH   1   7
ATOM      7  O   LIG d   1      -2.734  77.742 116.096  0.00  0.00    -0.368 OA
BRANCH   7   8
ATOM      8  C   LIG d   1      -2.392  78.225 117.419  0.00  0.00     0.119 C 
BRANCH   8   9
ATOM      9  C   LIG d   1      -0.887  77.971 117.629  0.00  0.00     0.028 C 
ATOM     10  C   LIG d   1      -0.143  79.226 118.115  0.00  0.00     0.006 C 
ENDBRANCH   8   9
BRANCH   8  11
ATOM     11  C   LIG d   1      -3.097  77.411 118.508  0.00  0.00     0.028 C 
ATOM     12  C   LIG d   1      -3.560  76.031 118.015  0.00  0.00     0.006 C 
ENDBRANCH   8  11
ENDBRANCH   7   8
ENDBRANCH   1   7
BRANCH   6  13
ATOM     13  N   LIG d   1      -0.784  76.207 114.386  0.00  0.00    -0.311 N 
ATOM     14  C   LIG d   1      -1.117  75.047 114.949  0.00  0.00     0.210 C 
ATOM     15  C   LIG d   1       0.065  74.180 115.392  0.00  0.00     0.109 C 
ATOM     16  O   LIG d   1      -2.280  74.638 115.093  0.00  0.00    -0.276 OA
ATOM     17  H   LIG d   1       0.183  76.444 114.280  0.00  0.00     0.149 HD
ENDBRANCH   6  13
BRANCH   5  18
ATOM     18  N   LIG d   1      -1.323  76.857 111.450  0.00  0.00     0.381 N 
ATOM     19  H   LIG d   1      -2.251  76.637 111.147  0.00  0.00    -0.090 HD
ATOM     20  H   LIG d   1      -0.892  76.012 111.783  0.00  0.00    -0.090 HD
ATOM     21  H   LIG d   1      -0.797  77.229 110.691  0.00  0.00    -0.090 HD
ENDBRANCH   5  18
BRANCH   3  22
ATOM     22  C   LIG d   1      -3.010  81.114 112.854  0.00  0.00     0.382 C 
ATOM     23  O   LIG d   1      -2.171  82.044 112.929  0.00  0.00    -0.241 OA
ATOM     24  O   LIG d   1      -4.178  81.368 112.504  0.00  0.00    -0.241 OA
ENDBRANCH   3  22
TORSDOF 7
ENDMDL
MODEL 7
REMARK VINA RESULT:      -4.5      5.724      8.308
REMARK  7 active torsions:
REMARK  status: ('A' for Active; 'I' for Inactive)
REMARK    1  A    between atoms: C_2  and  C_3 
REMARK    2  A    between atoms: C_3  and  O_6 
REMARK    3  A    between atoms: C_3  and  C_4 
REMARK    4  A    between atoms: C_7  and  O_6 
REMARK    5  A    between atoms: C_9  and  C_10 
REMARK    6  A    between atoms: N_15  and  C_14 
REMARK    7  A    between atoms: N_20  and  C_19 
REMARK       I    between atoms: C_22  and  N_20 
ROOT
ATOM      1  C   LIG d   1      -2.142  77.632 116.977  0.00  0.00     0.161 C 
ATOM      2  C   LIG d   1      -2.989  76.911 116.119  0.00  0.00     0.016 C 
ATOM      3  C   LIG d   1      -2.980  77.057 114.713  0.00  0.00     0.038 C 
ATOM      4  C   LIG d   1      -2.012  77.829 114.054  0.00  0.00     0.028 C 
ATOM      5  C   LIG d   1      -1.461  78.967 114.907  0.00  0.00    -0.047 C 
ATOM      6  C   LIG d   1      -1.004  78.396 116.269  0.00  0.00     0.091 C 
ENDROOT
BRANCH   1   7
ATOM      7  O   LIG d   1      -1.605  76.753 117.985  0.00  0.00    -0.368 OA
BRANCH   7   8
ATOM      8  C   LIG d   1      -1.437  75.367 117.599  0.00  0.00     0.119 C 
BRANCH   8   9
ATOM      9  C   LIG d   1      -1.255  74.545 118.889  0.00  0.00     0.028 C 
ATOM     10  C   LIG d   1       0.040  74.905 119.637  0.00  0.00     0.006 C 
ENDBRANCH   8   9
BRANCH   8  11
ATOM     11  C   LIG d   1      -0.144  75.164 116.803  0.00  0.00     0.028 C 
ATOM     12  C   LIG d   1      -0.318  74.196 115.621  0.00  0.00     0.006 C 
ENDBRANCH   8  11
ENDBRANCH   7   8
ENDBRANCH   1   7
BRANCH   6  13
ATOM     13  N   LIG d   1      -0.528  79.456 117.197  0.00  0.00    -0.311 N 
ATOM     14  C   LIG d   1       0.643  79.406 117.828  0.00  0.00     0.210 C 
ATOM     15  C   LIG d   1       0.930  80.592 118.754  0.00  0.00     0.109 C 
ATOM     16  O   LIG d   1       1.487  78.508 117.684  0.00  0.00    -0.276 OA
ATOM     17  H   LIG d   1      -1.137  80.237 117.347  0.00  0.00     0.149 HD
ENDBRANCH   6  13
BRANCH   5  18
ATOM     18  N   LIG d   1      -0.366  79.602 114.150  0.00  0.00     0.381 N 
ATOM     19  H   LIG d   1       0.114  80.257 114.733  0.00  0.00    -0.090 HD
ATOM     20  H   LIG d   1      -0.757  80.101 113.370  0.00  0.00    -0.090 HD
ATOM     21  H   LIG d   1       0.271  78.908 113.824  0.00  0.00    -0.090 HD
ENDBRANCH   5  18
BRANCH   3  22
ATOM     22  C   LIG d   1      -3.973  76.458 113.954  0.00  0.00     0.382 C 
ATOM     23  O   LIG d   1      -4.440  77.050 112.951  0.00  0.00    -0.241 OA
ATOM     24  O   LIG d   1      -4.440  75.351 114.284  0.00  0.00    -0.241 OA
ENDBRANCH   3  22
TORSDOF 7
ENDMDL
MODEL 8
REMARK VINA RESULT:      -4.5      3.139      5.602
REMARK  7 active torsions:
REMARK  status: ('A' for Active; 'I' for Inactive)
REMARK    1  A    between atoms: C_2  and  C_3 
REMARK    2  A    between atoms: C_3  and  O_6 
REMARK    3  A    between atoms: C_3  and  C_4 
REMARK    4  A    between atoms: C_7  and  O_6 
REMARK    5  A    between atoms: C_9  and  C_10 
REMARK    6  A    between atoms: N_15  and  C_14 
REMARK    7  A    between atoms: N_20  and  C_19 
REMARK       I    between atoms: C_22  and  N_20 
ROOT
ATOM      1  C   LIG d   1      -1.327  79.903 113.247  0.00  0.00     0.161 C 
ATOM      2  C   LIG d   1      -1.870  78.740 112.676  0.00  0.00     0.016 C 
ATOM      3  C   LIG d   1      -1.587  78.315 111.358  0.00  0.00     0.038 C 
ATOM      4  C   LIG d   1      -0.616  78.948 110.568  0.00  0.00     0.028 C 
ATOM      5  C   LIG d   1      -0.414  80.418 110.917  0.00  0.00    -0.047 C 
ATOM      6  C   LIG d   1      -0.179  80.545 112.439  0.00  0.00     0.091 C 
ENDROOT
BRANCH   1   7
ATOM      7  O   LIG d   1      -0.898  79.631 114.596  0.00  0.00    -0.368 OA
BRANCH   7   8
ATOM      8  C   LIG d   1      -1.399  78.408 115.189  0.00  0.00     0.119 C 
BRANCH   8   9
ATOM      9  C   LIG d   1      -2.351  78.804 116.335  0.00  0.00     0.028 C 
ATOM     10  C   LIG d   1      -3.802  78.371 116.068  0.00  0.00     0.006 C 
ENDBRANCH   8   9
BRANCH   8  11
ATOM     11  C   LIG d   1      -0.274  77.610 115.855  0.00  0.00     0.028 C 
ATOM     12  C   LIG d   1      -0.241  76.140 115.408  0.00  0.00     0.006 C 
ENDBRANCH   8  11
ENDBRANCH   7   8
ENDBRANCH   1   7
BRANCH   6  13
ATOM     13  N   LIG d   1      -0.057  81.960 112.878  0.00  0.00    -0.311 N 
ATOM     14  C   LIG d   1      -0.720  82.964 112.308  0.00  0.00     0.210 C 
ATOM     15  C   LIG d   1      -0.433  84.347 112.901  0.00  0.00     0.109 C 
ATOM     16  O   LIG d   1      -1.542  82.837 111.389  0.00  0.00    -0.276 OA
ATOM     17  H   LIG d   1       0.566  82.149 113.639  0.00  0.00     0.149 HD
ENDBRANCH   6  13
BRANCH   5  18
ATOM     18  N   LIG d   1       0.718  80.916 110.114  0.00  0.00     0.381 N 
ATOM     19  H   LIG d   1       0.412  81.661 109.520  0.00  0.00    -0.090 HD
ATOM     20  H   LIG d   1       1.058  80.170 109.533  0.00  0.00    -0.090 HD
ATOM     21  H   LIG d   1       1.446  81.238 110.713  0.00  0.00    -0.090 HD
ENDBRANCH   5  18
BRANCH   3  22
ATOM     22  C   LIG d   1      -2.309  77.269 110.803  0.00  0.00     0.382 C 
ATOM     23  O   LIG d   1      -1.773  76.143 110.663  0.00  0.00    -0.241 OA
ATOM     24  O   LIG d   1      -3.473  77.449 110.400  0.00  0.00    -0.241 OA
ENDBRANCH   3  22
TORSDOF 7
ENDMDL
MODEL 9
REMARK VINA RESULT:      -4.4      4.696      7.124
REMARK  7 active torsions:
REMARK  status: ('A' for Active; 'I' for Inactive)
REMARK    1  A    between atoms: C_2  and  C_3 
REMARK    2  A    between atoms: C_3  and  O_6 
REMARK    3  A    between atoms: C_3  and  C_4 
REMARK    4  A    between atoms: C_7  and  O_6 
REMARK    5  A    between atoms: C_9  and  C_10 
REMARK    6  A    between atoms: N_15  and  C_14 
REMARK    7  A    between atoms: N_20  and  C_19 
REMARK       I    between atoms: C_22  and  N_20 
ROOT
ATOM      1  C   LIG d   1      -2.706  77.890 114.781  0.00  0.00     0.161 C 
ATOM      2  C   LIG d   1      -2.929  79.227 114.412  0.00  0.00     0.016 C 
ATOM      3  C   LIG d   1      -2.609  79.745 113.136  0.00  0.00     0.038 C 
ATOM      4  C   LIG d   1      -2.181  78.920 112.086  0.00  0.00     0.028 C 
ATOM      5  C   LIG d   1      -1.464  77.660 112.560  0.00  0.00    -0.047 C 
ATOM      6  C   LIG d   1      -2.343  76.948 113.614  0.00  0.00     0.091 C 
ENDROOT
BRANCH   1   7
ATOM      7  O   LIG d   1      -3.850  77.383 115.496  0.00  0.00    -0.368 OA
BRANCH   7   8
ATOM      8  C   LIG d   1      -3.635  77.051 116.890  0.00  0.00     0.119 C 
BRANCH   8   9
ATOM      9  C   LIG d   1      -4.437  75.770 117.190  0.00  0.00     0.028 C 
ATOM     10  C   LIG d   1      -4.420  74.778 116.015  0.00  0.00     0.006 C 
ENDBRANCH   8   9
BRANCH   8  11
ATOM     11  C   LIG d   1      -4.220  78.122 117.815  0.00  0.00     0.028 C 
ATOM     12  C   LIG d   1      -3.138  78.958 118.517  0.00  0.00     0.006 C 
ENDBRANCH   8  11
ENDBRANCH   7   8
ENDBRANCH   1   7
BRANCH   6  13
ATOM     13  N   LIG d   1      -1.678  75.751 114.191  0.00  0.00    -0.311 N 
ATOM     14  C   LIG d   1      -0.667  75.820 115.055  0.00  0.00     0.210 C 
ATOM     15  C   LIG d   1      -0.114  74.466 115.512  0.00  0.00     0.109 C 
ATOM     16  O   LIG d   1      -0.196  76.873 115.512  0.00  0.00    -0.276 OA
ATOM     17  H   LIG d   1      -2.017  74.856 113.899  0.00  0.00     0.149 HD
ENDBRANCH   6  13
BRANCH   5  18
ATOM     18  N   LIG d   1      -1.195  76.826 111.373  0.00  0.00     0.381 N 
ATOM     19  H   LIG d   1      -0.977  75.892 111.657  0.00  0.00    -0.090 HD
ATOM     20  H   LIG d   1      -0.401  77.202 110.885  0.00  0.00    -0.090 HD
ATOM     21  H   LIG d   1      -1.991  76.821 110.773  0.00  0.00    -0.090 HD
ENDBRANCH   5  18
BRANCH   3  22
ATOM     22  C   LIG d   1      -2.679  81.112 112.912  0.00  0.00     0.382 C 
ATOM     23  O   LIG d   1      -3.656  81.769 113.346  0.00  0.00    -0.241 OA
ATOM     24  O   LIG d   1      -1.800  81.689 112.245  0.00  0.00    -0.241 OA
ENDBRANCH   3  22
TORSDOF 7
ENDMDL
