MODEL 1
REMARK VINA RESULT:      -5.3      0.000      0.000
REMARK  7 active torsions:
REMARK  status: ('A' for Active; 'I' for Inactive)
REMARK    1  A    between atoms: C_2  and  C_3 
REMARK    2  A    between atoms: C_3  and  O_6 
REMARK    3  A    between atoms: C_3  and  C_4 
REMARK    4  A    between atoms: C_7  and  O_6 
REMARK    5  A    between atoms: C_9  and  C_10 
REMARK    6  A    between atoms: N_15  and  C_14 
REMARK    7  A    between atoms: N_20  and  C_19 
REMARK       I    between atoms: C_22  and  N_20 
ROOT
ATOM      1  C   LIG d   1       0.525  82.975 112.507  0.00  0.00     0.161 C 
ATOM      2  C   LIG d   1      -0.670  82.668 113.180  0.00  0.00     0.016 C 
ATOM      3  C   LIG d   1      -1.413  81.489 112.946  0.00  0.00     0.038 C 
ATOM      4  C   LIG d   1      -0.930  80.457 112.127  0.00  0.00     0.028 C 
ATOM      5  C   LIG d   1       0.024  80.943 111.041  0.00  0.00    -0.047 C 
ATOM      6  C   LIG d   1       1.125  81.811 111.692  0.00  0.00     0.091 C 
ENDROOT
BRANCH   1   7
ATOM      7  O   LIG d   1       1.496  83.484 113.443  0.00  0.00    -0.368 OA
BRANCH   7   8
ATOM      8  C   LIG d   1       1.154  83.362 114.845  0.00  0.00     0.119 C 
BRANCH   8   9
ATOM      9  C   LIG d   1       1.557  84.679 115.536  0.00  0.00     0.028 C 
ATOM     10  C   LIG d   1       2.600  84.464 116.646  0.00  0.00     0.006 C 
ENDBRANCH   8   9
BRANCH   8  11
ATOM     11  C   LIG d   1       1.986  82.274 115.530  0.00  0.00     0.028 C 
ATOM     12  C   LIG d   1       1.132  81.103 116.040  0.00  0.00     0.006 C 
ENDBRANCH   8  11
ENDBRANCH   7   8
ENDBRANCH   1   7
BRANCH   6  13
ATOM     13  N   LIG d   1       2.053  82.396 110.688  0.00  0.00    -0.311 N 
ATOM     14  C   LIG d   1       3.370  82.196 110.703  0.00  0.00     0.210 C 
ATOM     15  C   LIG d   1       4.144  82.907 109.589  0.00  0.00     0.109 C 
ATOM     16  O   LIG d   1       3.966  81.470 111.513  0.00  0.00    -0.276 OA
ATOM     17  H   LIG d   1       1.650  82.973 109.976  0.00  0.00     0.149 HD
ENDBRANCH   6  13
BRANCH   5  18
ATOM     18  N   LIG d   1       0.557  79.753 110.351  0.00  0.00     0.381 N 
ATOM     19  H   LIG d   1       0.849  79.074 111.025  0.00  0.00    -0.090 HD
ATOM     20  H   LIG d   1       1.359  80.024 109.809  0.00  0.00    -0.090 HD
ATOM     21  H   LIG d   1      -0.140  79.363 109.755  0.00  0.00    -0.090 HD
ENDBRANCH   5  18
BRANCH   3  22
ATOM     22  C   LIG d   1      -2.675  81.350 113.505  0.00  0.00     0.382 C 
ATOM     23  O   LIG d   1      -2.805  80.817 114.633  0.00  0.00    -0.241 OA
ATOM     24  O   LIG d   1      -3.687  81.710 112.875  0.00  0.00    -0.241 OA
ENDBRANCH   3  22
TORSDOF 7
ENDMDL
MODEL 2
REMARK VINA RESULT:      -5.2      3.823      5.710
REMARK  7 active torsions:
REMARK  status: ('A' for Active; 'I' for Inactive)
REMARK    1  A    between atoms: C_2  and  C_3 
REMARK    2  A    between atoms: C_3  and  O_6 
REMARK    3  A    between atoms: C_3  and  C_4 
REMARK    4  A    between atoms: C_7  and  O_6 
REMARK    5  A    between atoms: C_9  and  C_10 
REMARK    6  A    between atoms: N_15  and  C_14 
REMARK    7  A    between atoms: N_20  and  C_19 
REMARK       I    between atoms: C_22  and  N_20 
ROOT
ATOM      1  C   LIG d   1      -0.626  79.705 115.146  0.00  0.00     0.161 C 
ATOM      2  C   LIG d   1      -0.850  81.041 114.773  0.00  0.00     0.016 C 
ATOM      3  C   LIG d   1      -1.543  81.415 113.599  0.00  0.00     0.038 C 
ATOM      4  C   LIG d   1      -2.195  80.473 112.791  0.00  0.00     0.028 C 
ATOM      5  C   LIG d   1      -1.568  79.084 112.854  0.00  0.00    -0.047 C 
ATOM      6  C   LIG d   1      -1.425  78.664 114.335  0.00  0.00     0.091 C 
ENDROOT
BRANCH   1   7
ATOM      7  O   LIG d   1      -0.878  79.542 116.556  0.00  0.00    -0.368 OA
BRANCH   7   8
ATOM      8  C   LIG d   1      -2.192  79.050 116.916  0.00  0.00     0.119 C 
BRANCH   8   9
ATOM      9  C   LIG d   1      -2.896  80.156 117.725  0.00  0.00     0.028 C 
ATOM     10  C   LIG d   1      -2.323  80.299 119.145  0.00  0.00     0.006 C 
ENDBRANCH   8   9
BRANCH   8  11
ATOM     11  C   LIG d   1      -2.097  77.851 117.865  0.00  0.00     0.028 C 
ATOM     12  C   LIG d   1      -3.278  76.879 117.716  0.00  0.00     0.006 C 
ENDBRANCH   8  11
ENDBRANCH   7   8
ENDBRANCH   1   7
BRANCH   6  13
ATOM     13  N   LIG d   1      -0.743  77.353 114.489  0.00  0.00    -0.311 N 
ATOM     14  C   LIG d   1      -1.389  76.188 114.500  0.00  0.00     0.210 C 
ATOM     15  C   LIG d   1      -0.497  74.957 114.691  0.00  0.00     0.109 C 
ATOM     16  O   LIG d   1      -2.611  76.055 114.337  0.00  0.00    -0.276 OA
ATOM     17  H   LIG d   1       0.252  77.366 114.596  0.00  0.00     0.149 HD
ENDBRANCH   6  13
BRANCH   5  18
ATOM     18  N   LIG d   1      -2.426  78.172 112.075  0.00  0.00     0.381 N 
ATOM     19  H   LIG d   1      -1.860  77.495 111.602  0.00  0.00    -0.090 HD
ATOM     20  H   LIG d   1      -2.924  78.705 111.384  0.00  0.00    -0.090 HD
ATOM     21  H   LIG d   1      -3.071  77.712 112.678  0.00  0.00    -0.090 HD
ENDBRANCH   5  18
BRANCH   3  22
ATOM     22  C   LIG d   1      -1.554  82.744 113.202  0.00  0.00     0.382 C 
ATOM     23  O   LIG d   1      -1.534  83.034 111.982  0.00  0.00    -0.241 OA
ATOM     24  O   LIG d   1      -1.541  83.657 114.050  0.00  0.00    -0.241 OA
ENDBRANCH   3  22
TORSDOF 7
ENDMDL
MODEL 3
REMARK VINA RESULT:      -5.2      1.549      4.641
REMARK  7 active torsions:
REMARK  status: ('A' for Active; 'I' for Inactive)
REMARK    1  A    between atoms: C_2  and  C_3 
REMARK    2  A    between atoms: C_3  and  O_6 
REMARK    3  A    between atoms: C_3  and  C_4 
REMARK    4  A    between atoms: C_7  and  O_6 
REMARK    5  A    between atoms: C_9  and  C_10 
REMARK    6  A    between atoms: N_15  and  C_14 
REMARK    7  A    between atoms: N_20  and  C_19 
REMARK       I    between atoms: C_22  and  N_20 
ROOT
ATOM      1  C   LIG d   1       1.190  82.209 112.526  0.00  0.00     0.161 C 
ATOM      2  C   LIG d   1       2.215  82.869 111.829  0.00  0.00     0.016 C 
ATOM      3  C   LIG d   1       2.447  82.704 110.444  0.00  0.00     0.038 C 
ATOM      4  C   LIG d   1       1.568  81.977 109.627  0.00  0.00     0.028 C 
ATOM      5  C   LIG d   1       0.811  80.884 110.374  0.00  0.00    -0.047 C 
ATOM      6  C   LIG d   1       0.153  81.498 111.630  0.00  0.00     0.091 C 
ENDROOT
BRANCH   1   7
ATOM      7  O   LIG d   1       0.534  83.130 113.418  0.00  0.00    -0.368 OA
BRANCH   7   8
ATOM      8  C   LIG d   1       0.815  82.961 114.830  0.00  0.00     0.119 C 
BRANCH   8   9
ATOM      9  C   LIG d   1       1.812  84.063 115.238  0.00  0.00     0.028 C 
ATOM     10  C   LIG d   1       3.228  83.513 115.477  0.00  0.00     0.006 C 
ENDBRANCH   8   9
BRANCH   8  11
ATOM     11  C   LIG d   1       1.540  81.638 115.098  0.00  0.00     0.028 C 
ATOM     12  C   LIG d   1       0.788  80.738 116.092  0.00  0.00     0.006 C 
ENDBRANCH   8  11
ENDBRANCH   7   8
ENDBRANCH   1   7
BRANCH   6  13
ATOM     13  N   LIG d   1      -0.538  80.480 112.463  0.00  0.00    -0.311 N 
ATOM     14  C   LIG d   1      -1.762  80.649 112.962  0.00  0.00     0.210 C 
ATOM     15  C   LIG d   1      -2.281  79.484 113.810  0.00  0.00     0.109 C 
ATOM     16  O   LIG d   1      -2.480  81.639 112.755  0.00  0.00    -0.276 OA
ATOM     17  H   LIG d   1      -0.040  79.633 112.655  0.00  0.00     0.149 HD
ENDBRANCH   6  13
BRANCH   5  18
ATOM     18  N   LIG d   1      -0.167  80.299 109.436  0.00  0.00     0.381 N 
ATOM     19  H   LIG d   1      -0.973  79.986 109.940  0.00  0.00    -0.090 HD
ATOM     20  H   LIG d   1       0.251  79.506 108.984  0.00  0.00    -0.090 HD
ATOM     21  H   LIG d   1      -0.434  80.976 108.756  0.00  0.00    -0.090 HD
ENDBRANCH   5  18
BRANCH   3  22
ATOM     22  C   LIG d   1       3.592  83.236 109.870  0.00  0.00     0.382 C 
ATOM     23  O   LIG d   1       4.486  82.474 109.432  0.00  0.00    -0.241 OA
ATOM     24  O   LIG d   1       3.761  84.470 109.826  0.00  0.00    -0.241 OA
ENDBRANCH   3  22
TORSDOF 7
ENDMDL
MODEL 4
REMARK VINA RESULT:      -5.1      2.654      4.551
REMARK  7 active torsions:
REMARK  status: ('A' for Active; 'I' for Inactive)
REMARK    1  A    between atoms: C_2  and  C_3 
REMARK    2  A    between atoms: C_3  and  O_6 
REMARK    3  A    between atoms: C_3  and  C_4 
REMARK    4  A    between atoms: C_7  and  O_6 
REMARK    5  A    between atoms: C_9  and  C_10 
REMARK    6  A    between atoms: N_15  and  C_14 
REMARK    7  A    between atoms: N_20  and  C_19 
REMARK       I    between atoms: C_22  and  N_20 
ROOT
ATOM      1  C   LIG d   1       0.919  81.632 113.712  0.00  0.00     0.161 C 
ATOM      2  C   LIG d   1      -0.350  81.574 113.111  0.00  0.00     0.016 C 
ATOM      3  C   LIG d   1      -1.501  81.083 113.769  0.00  0.00     0.038 C 
ATOM      4  C   LIG d   1      -1.492  80.755 115.133  0.00  0.00     0.028 C 
ATOM      5  C   LIG d   1      -0.122  80.320 115.642  0.00  0.00    -0.047 C 
ATOM      6  C   LIG d   1       0.925  81.382 115.235  0.00  0.00     0.091 C 
ENDROOT
BRANCH   1   7
ATOM      7  O   LIG d   1       1.546  82.893 113.409  0.00  0.00    -0.368 OA
BRANCH   7   8
ATOM      8  C   LIG d   1       2.197  82.988 112.117  0.00  0.00     0.119 C 
BRANCH   8   9
ATOM      9  C   LIG d   1       3.042  81.713 111.931  0.00  0.00     0.028 C 
ATOM     10  C   LIG d   1       2.833  81.067 110.550  0.00  0.00     0.006 C 
ENDBRANCH   8   9
BRANCH   8  11
ATOM     11  C   LIG d   1       3.198  84.146 112.081  0.00  0.00     0.028 C 
ATOM     12  C   LIG d   1       3.440  84.680 110.660  0.00  0.00     0.006 C 
ENDBRANCH   8  11
ENDBRANCH   7   8
ENDBRANCH   1   7
BRANCH   6  13
ATOM     13  N   LIG d   1       2.307  80.994 115.621  0.00  0.00    -0.311 N 
ATOM     14  C   LIG d   1       2.876  81.355 116.770  0.00  0.00     0.210 C 
ATOM     15  C   LIG d   1       4.314  80.864 116.961  0.00  0.00     0.109 C 
ATOM     16  O   LIG d   1       2.315  82.009 117.662  0.00  0.00    -0.276 OA
ATOM     17  H   LIG d   1       2.823  80.436 114.969  0.00  0.00     0.149 HD
ENDBRANCH   6  13
BRANCH   5  18
ATOM     18  N   LIG d   1      -0.226  80.142 117.103  0.00  0.00     0.381 N 
ATOM     19  H   LIG d   1      -1.186  80.173 117.381  0.00  0.00    -0.090 HD
ATOM     20  H   LIG d   1       0.259  80.896 117.558  0.00  0.00    -0.090 HD
ATOM     21  H   LIG d   1       0.177  79.270 117.369  0.00  0.00    -0.090 HD
ENDBRANCH   5  18
BRANCH   3  22
ATOM     22  C   LIG d   1      -2.669  80.879 113.050  0.00  0.00     0.382 C 
ATOM     23  O   LIG d   1      -3.501  81.809 112.928  0.00  0.00    -0.241 OA
ATOM     24  O   LIG d   1      -2.921  79.762 112.559  0.00  0.00    -0.241 OA
ENDBRANCH   3  22
TORSDOF 7
ENDMDL
MODEL 5
REMARK VINA RESULT:      -5.1      4.400      6.841
REMARK  7 active torsions:
REMARK  status: ('A' for Active; 'I' for Inactive)
REMARK    1  A    between atoms: C_2  and  C_3 
REMARK    2  A    between atoms: C_3  and  O_6 
REMARK    3  A    between atoms: C_3  and  C_4 
REMARK    4  A    between atoms: C_7  and  O_6 
REMARK    5  A    between atoms: C_9  and  C_10 
REMARK    6  A    between atoms: N_15  and  C_14 
REMARK    7  A    between atoms: N_20  and  C_19 
REMARK       I    between atoms: C_22  and  N_20 
ROOT
ATOM      1  C   LIG d   1      -1.942  78.871 115.507  0.00  0.00     0.161 C 
ATOM      2  C   LIG d   1      -2.462  79.702 114.501  0.00  0.00     0.016 C 
ATOM      3  C   LIG d   1      -1.776  80.827 113.988  0.00  0.00     0.038 C 
ATOM      4  C   LIG d   1      -0.449  81.111 114.342  0.00  0.00     0.028 C 
ATOM      5  C   LIG d   1      -0.068  80.595 115.726  0.00  0.00    -0.047 C 
ATOM      6  C   LIG d   1      -0.449  79.100 115.826  0.00  0.00     0.091 C 
ENDROOT
BRANCH   1   7
ATOM      7  O   LIG d   1      -2.175  77.490 115.169  0.00  0.00    -0.368 OA
BRANCH   7   8
ATOM      8  C   LIG d   1      -2.948  76.722 116.124  0.00  0.00     0.119 C 
BRANCH   8   9
ATOM      9  C   LIG d   1      -2.295  75.331 116.237  0.00  0.00     0.028 C 
ATOM     10  C   LIG d   1      -2.058  74.911 117.697  0.00  0.00     0.006 C 
ENDBRANCH   8   9
BRANCH   8  11
ATOM     11  C   LIG d   1      -4.368  76.462 115.612  0.00  0.00     0.028 C 
ATOM     12  C   LIG d   1      -4.389  75.763 114.243  0.00  0.00     0.006 C 
ENDBRANCH   8  11
ENDBRANCH   7   8
ENDBRANCH   1   7
BRANCH   6  13
ATOM     13  N   LIG d   1      -0.188  78.538 117.177  0.00  0.00    -0.311 N 
ATOM     14  C   LIG d   1       0.547  77.447 117.387  0.00  0.00     0.210 C 
ATOM     15  C   LIG d   1       0.675  77.027 118.854  0.00  0.00     0.109 C 
ATOM     16  O   LIG d   1       1.132  76.807 116.500  0.00  0.00    -0.276 OA
ATOM     17  H   LIG d   1      -0.598  79.013 117.956  0.00  0.00     0.149 HD
ENDBRANCH   6  13
BRANCH   5  18
ATOM     18  N   LIG d   1       1.376  80.836 115.910  0.00  0.00     0.381 N 
ATOM     19  H   LIG d   1       1.716  80.289 116.675  0.00  0.00    -0.090 HD
ATOM     20  H   LIG d   1       1.517  81.807 116.128  0.00  0.00    -0.090 HD
ATOM     21  H   LIG d   1       1.870  80.600 115.077  0.00  0.00    -0.090 HD
ENDBRANCH   5  18
BRANCH   3  22
ATOM     22  C   LIG d   1      -2.433  81.705 113.139  0.00  0.00     0.382 C 
ATOM     23  O   LIG d   1      -3.657  81.555 112.907  0.00  0.00    -0.241 OA
ATOM     24  O   LIG d   1      -1.809  82.619 112.568  0.00  0.00    -0.241 OA
ENDBRANCH   3  22
TORSDOF 7
ENDMDL
MODEL 6
REMARK VINA RESULT:      -5.1      4.254      6.797
REMARK  7 active torsions:
REMARK  status: ('A' for Active; 'I' for Inactive)
REMARK    1  A    between atoms: C_2  and  C_3 
REMARK    2  A    between atoms: C_3  and  O_6 
REMARK    3  A    between atoms: C_3  and  C_4 
REMARK    4  A    between atoms: C_7  and  O_6 
REMARK    5  A    between atoms: C_9  and  C_10 
REMARK    6  A    between atoms: N_15  and  C_14 
REMARK    7  A    between atoms: N_20  and  C_19 
REMARK       I    between atoms: C_22  and  N_20 
ROOT
ATOM      1  C   LIG d   1      -2.364  79.273 116.055  0.00  0.00     0.161 C 
ATOM      2  C   LIG d   1      -2.802  80.018 114.948  0.00  0.00     0.016 C 
ATOM      3  C   LIG d   1      -1.948  80.836 114.173  0.00  0.00     0.038 C 
ATOM      4  C   LIG d   1      -0.559  80.847 114.364  0.00  0.00     0.028 C 
ATOM      5  C   LIG d   1      -0.140  80.502 115.789  0.00  0.00    -0.047 C 
ATOM      6  C   LIG d   1      -0.831  79.185 116.210  0.00  0.00     0.091 C 
ENDROOT
BRANCH   1   7
ATOM      7  O   LIG d   1      -2.940  77.952 116.015  0.00  0.00    -0.368 OA
BRANCH   7   8
ATOM      8  C   LIG d   1      -2.282  76.997 115.147  0.00  0.00     0.119 C 
BRANCH   8   9
ATOM      9  C   LIG d   1      -3.217  76.739 113.949  0.00  0.00     0.028 C 
ATOM     10  C   LIG d   1      -4.311  75.706 114.270  0.00  0.00     0.006 C 
ENDBRANCH   8   9
BRANCH   8  11
ATOM     11  C   LIG d   1      -2.121  75.638 115.835  0.00  0.00     0.028 C 
ATOM     12  C   LIG d   1      -2.430  75.691 117.339  0.00  0.00     0.006 C 
ENDBRANCH   8  11
ENDBRANCH   7   8
ENDBRANCH   1   7
BRANCH   6  13
ATOM     13  N   LIG d   1      -0.542  78.820 117.621  0.00  0.00    -0.311 N 
ATOM     14  C   LIG d   1       0.409  77.956 117.975  0.00  0.00     0.210 C 
ATOM     15  C   LIG d   1       0.527  77.706 119.482  0.00  0.00     0.109 C 
ATOM     16  O   LIG d   1       1.186  77.399 117.186  0.00  0.00    -0.276 OA
ATOM     17  H   LIG d   1      -1.106  79.249 118.329  0.00  0.00     0.149 HD
ENDBRANCH   6  13
BRANCH   5  18
ATOM     18  N   LIG d   1       1.333  80.415 115.812  0.00  0.00     0.381 N 
ATOM     19  H   LIG d   1       1.712  81.213 116.281  0.00  0.00    -0.090 HD
ATOM     20  H   LIG d   1       1.673  80.414 114.867  0.00  0.00    -0.090 HD
ATOM     21  H   LIG d   1       1.617  79.581 116.276  0.00  0.00    -0.090 HD
ENDBRANCH   5  18
BRANCH   3  22
ATOM     22  C   LIG d   1      -2.489  81.686 113.220  0.00  0.00     0.382 C 
ATOM     23  O   LIG d   1      -1.790  82.607 112.733  0.00  0.00    -0.241 OA
ATOM     24  O   LIG d   1      -3.680  81.572 112.875  0.00  0.00    -0.241 OA
ENDBRANCH   3  22
TORSDOF 7
ENDMDL
MODEL 7
REMARK VINA RESULT:      -5.0      3.410      4.878
REMARK  7 active torsions:
REMARK  status: ('A' for Active; 'I' for Inactive)
REMARK    1  A    between atoms: C_2  and  C_3 
REMARK    2  A    between atoms: C_3  and  O_6 
REMARK    3  A    between atoms: C_3  and  C_4 
REMARK    4  A    between atoms: C_7  and  O_6 
REMARK    5  A    between atoms: C_9  and  C_10 
REMARK    6  A    between atoms: N_15  and  C_14 
REMARK    7  A    between atoms: N_20  and  C_19 
REMARK       I    between atoms: C_22  and  N_20 
ROOT
ATOM      1  C   LIG d   1      -2.371  79.954 115.063  0.00  0.00     0.161 C 
ATOM      2  C   LIG d   1      -2.866  78.642 115.156  0.00  0.00     0.016 C 
ATOM      3  C   LIG d   1      -2.775  77.700 114.106  0.00  0.00     0.038 C 
ATOM      4  C   LIG d   1      -2.045  77.960 112.937  0.00  0.00     0.028 C 
ATOM      5  C   LIG d   1      -1.961  79.443 112.593  0.00  0.00    -0.047 C 
ATOM      6  C   LIG d   1      -1.473  80.220 113.837  0.00  0.00     0.091 C 
ENDROOT
BRANCH   1   7
ATOM      7  O   LIG d   1      -1.678  80.302 116.278  0.00  0.00    -0.368 OA
BRANCH   7   8
ATOM      8  C   LIG d   1      -1.831  79.381 117.386  0.00  0.00     0.119 C 
BRANCH   8   9
ATOM      9  C   LIG d   1      -2.463  80.163 118.553  0.00  0.00     0.028 C 
ATOM     10  C   LIG d   1      -3.983  80.332 118.392  0.00  0.00     0.006 C 
ENDBRANCH   8   9
BRANCH   8  11
ATOM     11  C   LIG d   1      -0.472  78.903 117.905  0.00  0.00     0.028 C 
ATOM     12  C   LIG d   1       0.214  77.910 116.954  0.00  0.00     0.006 C 
ENDBRANCH   8  11
ENDBRANCH   7   8
ENDBRANCH   1   7
BRANCH   6  13
ATOM     13  N   LIG d   1      -1.443  81.689 113.612  0.00  0.00    -0.311 N 
ATOM     14  C   LIG d   1      -0.359  82.346 113.204  0.00  0.00     0.210 C 
ATOM     15  C   LIG d   1      -0.539  83.860 113.055  0.00  0.00     0.109 C 
ATOM     16  O   LIG d   1       0.726  81.815 112.922  0.00  0.00    -0.276 OA
ATOM     17  H   LIG d   1      -2.289  82.195 113.788  0.00  0.00     0.149 HD
ENDBRANCH   6  13
BRANCH   5  18
ATOM     18  N   LIG d   1      -1.058  79.582 111.434  0.00  0.00     0.381 N 
ATOM     19  H   LIG d   1      -1.476  79.163 110.627  0.00  0.00    -0.090 HD
ATOM     20  H   LIG d   1      -0.200  79.098 111.631  0.00  0.00    -0.090 HD
ATOM     21  H   LIG d   1      -0.873  80.545 111.260  0.00  0.00    -0.090 HD
ENDBRANCH   5  18
BRANCH   3  22
ATOM     22  C   LIG d   1      -3.455  76.495 114.203  0.00  0.00     0.382 C 
ATOM     23  O   LIG d   1      -3.196  75.703 115.141  0.00  0.00    -0.241 OA
ATOM     24  O   LIG d   1      -4.292  76.171 113.340  0.00  0.00    -0.241 OA
ENDBRANCH   3  22
TORSDOF 7
ENDMDL
MODEL 8
REMARK VINA RESULT:      -4.9      2.691      4.513
REMARK  7 active torsions:
REMARK  status: ('A' for Active; 'I' for Inactive)
REMARK    1  A    between atoms: C_2  and  C_3 
REMARK    2  A    between atoms: C_3  and  O_6 
REMARK    3  A    between atoms: C_3  and  C_4 
REMARK    4  A    between atoms: C_7  and  O_6 
REMARK    5  A    between atoms: C_9  and  C_10 
REMARK    6  A    between atoms: N_15  and  C_14 
REMARK    7  A    between atoms: N_20  and  C_19 
REMARK       I    between atoms: C_22  and  N_20 
ROOT
ATOM      1  C   LIG d   1      -0.419  80.738 112.488  0.00  0.00     0.161 C 
ATOM      2  C   LIG d   1      -1.339  79.758 112.081  0.00  0.00     0.016 C 
ATOM      3  C   LIG d   1      -2.093  78.975 112.985  0.00  0.00     0.038 C 
ATOM      4  C   LIG d   1      -2.089  79.226 114.365  0.00  0.00     0.028 C 
ATOM      5  C   LIG d   1      -0.798  79.867 114.861  0.00  0.00    -0.047 C 
ATOM      6  C   LIG d   1      -0.483  81.102 113.986  0.00  0.00     0.091 C 
ENDROOT
BRANCH   1   7
ATOM      7  O   LIG d   1      -0.573  81.920 111.678  0.00  0.00    -0.368 OA
BRANCH   7   8
ATOM      8  C   LIG d   1       0.438  82.132 110.662  0.00  0.00     0.119 C 
BRANCH   8   9
ATOM      9  C   LIG d   1       1.704  81.372 111.102  0.00  0.00     0.028 C 
ATOM     10  C   LIG d   1       2.914  82.303 111.285  0.00  0.00     0.006 C 
ENDBRANCH   8   9
BRANCH   8  11
ATOM     11  C   LIG d   1       0.854  83.604 110.589  0.00  0.00     0.028 C 
ATOM     12  C   LIG d   1      -0.311  84.567 110.869  0.00  0.00     0.006 C 
ENDBRANCH   8  11
ENDBRANCH   7   8
ENDBRANCH   1   7
BRANCH   6  13
ATOM     13  N   LIG d   1       0.809  81.740 114.350  0.00  0.00    -0.311 N 
ATOM     14  C   LIG d   1       0.967  83.056 114.480  0.00  0.00     0.210 C 
ATOM     15  C   LIG d   1       2.386  83.505 114.841  0.00  0.00     0.109 C 
ATOM     16  O   LIG d   1       0.058  83.892 114.363  0.00  0.00    -0.276 OA
ATOM     17  H   LIG d   1       1.593  81.133 114.494  0.00  0.00     0.149 HD
ENDBRANCH   6  13
BRANCH   5  18
ATOM     18  N   LIG d   1      -0.983  80.199 116.286  0.00  0.00     0.381 N 
ATOM     19  H   LIG d   1      -1.708  80.882 116.383  0.00  0.00    -0.090 HD
ATOM     20  H   LIG d   1      -0.130  80.593 116.642  0.00  0.00    -0.090 HD
ATOM     21  H   LIG d   1      -1.219  79.379 116.799  0.00  0.00    -0.090 HD
ENDBRANCH   5  18
BRANCH   3  22
ATOM     22  C   LIG d   1      -2.833  77.901 112.513  0.00  0.00     0.382 C 
ATOM     23  O   LIG d   1      -3.568  78.040 111.506  0.00  0.00    -0.241 OA
ATOM     24  O   LIG d   1      -2.808  76.807 113.108  0.00  0.00    -0.241 OA
ENDBRANCH   3  22
TORSDOF 7
ENDMDL
MODEL 9
REMARK VINA RESULT:      -4.8      5.234      6.567
REMARK  7 active torsions:
REMARK  status: ('A' for Active; 'I' for Inactive)
REMARK    1  A    between atoms: C_2  and  C_3 
REMARK    2  A    between atoms: C_3  and  O_6 
REMARK    3  A    between atoms: C_3  and  C_4 
REMARK    4  A    between atoms: C_7  and  O_6 
REMARK    5  A    between atoms: C_9  and  C_10 
REMARK    6  A    between atoms: N_15  and  C_14 
REMARK    7  A    between atoms: N_20  and  C_19 
REMARK       I    between atoms: C_22  and  N_20 
ROOT
ATOM      1  C   LIG d   1      -0.601  78.959 115.743  0.00  0.00     0.161 C 
ATOM      2  C   LIG d   1      -1.394  79.112 114.593  0.00  0.00     0.016 C 
ATOM      3  C   LIG d   1      -1.846  78.025 113.809  0.00  0.00     0.038 C 
ATOM      4  C   LIG d   1      -1.659  76.694 114.211  0.00  0.00     0.028 C 
ATOM      5  C   LIG d   1      -0.433  76.493 115.094  0.00  0.00    -0.047 C 
ATOM      6  C   LIG d   1      -0.481  77.510 116.258  0.00  0.00     0.091 C 
ENDROOT
BRANCH   1   7
ATOM      7  O   LIG d   1      -1.086  79.824 116.789  0.00  0.00    -0.368 OA
BRANCH   7   8
ATOM      8  C   LIG d   1      -2.157  79.295 117.608  0.00  0.00     0.119 C 
BRANCH   8   9
ATOM      9  C   LIG d   1      -3.401  80.172 117.367  0.00  0.00     0.028 C 
ATOM     10  C   LIG d   1      -4.198  80.428 118.658  0.00  0.00     0.006 C 
ENDBRANCH   8   9
BRANCH   8  11
ATOM     11  C   LIG d   1      -1.842  79.440 119.100  0.00  0.00     0.028 C 
ATOM     12  C   LIG d   1      -0.467  80.077 119.359  0.00  0.00     0.006 C 
ENDBRANCH   8  11
ENDBRANCH   7   8
ENDBRANCH   1   7
BRANCH   6  13
ATOM     13  N   LIG d   1       0.725  77.438 117.124  0.00  0.00    -0.311 N 
ATOM     14  C   LIG d   1       0.782  76.721 118.244  0.00  0.00     0.210 C 
ATOM     15  C   LIG d   1       2.113  76.802 118.997  0.00  0.00     0.109 C 
ATOM     16  O   LIG d   1      -0.133  75.999 118.669  0.00  0.00    -0.276 OA
ATOM     17  H   LIG d   1       1.524  77.969 116.837  0.00  0.00     0.149 HD
ENDBRANCH   6  13
BRANCH   5  18
ATOM     18  N   LIG d   1      -0.436  75.091 115.551  0.00  0.00     0.381 N 
ATOM     19  H   LIG d   1       0.388  74.626 115.226  0.00  0.00    -0.090 HD
ATOM     20  H   LIG d   1      -1.236  74.624 115.161  0.00  0.00    -0.090 HD
ATOM     21  H   LIG d   1      -0.475  75.056 116.546  0.00  0.00    -0.090 HD
ENDBRANCH   5  18
BRANCH   3  22
ATOM     22  C   LIG d   1      -2.457  78.265 112.589  0.00  0.00     0.382 C 
ATOM     23  O   LIG d   1      -2.130  79.268 111.910  0.00  0.00    -0.241 OA
ATOM     24  O   LIG d   1      -3.364  77.517 112.178  0.00  0.00    -0.241 OA
ENDBRANCH   3  22
TORSDOF 7
ENDMDL
