MODEL 1
REMARK VINA RESULT:      -5.1      0.000      0.000
REMARK  7 active torsions:
REMARK  status: ('A' for Active; 'I' for Inactive)
REMARK    1  A    between atoms: C_2  and  C_3 
REMARK    2  A    between atoms: C_3  and  O_6 
REMARK    3  A    between atoms: C_3  and  C_4 
REMARK    4  A    between atoms: C_7  and  O_6 
REMARK    5  A    between atoms: C_9  and  C_10 
REMARK    6  A    between atoms: N_15  and  C_14 
REMARK    7  A    between atoms: N_20  and  C_19 
REMARK       I    between atoms: C_22  and  N_20 
ROOT
ATOM      1  C   LIG d   1       0.157  81.405 111.514  0.00  0.00     0.161 C 
ATOM      2  C   LIG d   1      -1.083  80.972 112.014  0.00  0.00     0.016 C 
ATOM      3  C   LIG d   1      -1.544  79.640 111.906  0.00  0.00     0.038 C 
ATOM      4  C   LIG d   1      -0.725  78.609 111.421  0.00  0.00     0.028 C 
ATOM      5  C   LIG d   1       0.341  79.092 110.444  0.00  0.00    -0.047 C 
ATOM      6  C   LIG d   1       1.110  80.271 111.082  0.00  0.00     0.091 C 
ENDROOT
BRANCH   1   7
ATOM      7  O   LIG d   1       0.801  82.260 112.479  0.00  0.00    -0.368 OA
BRANCH   7   8
ATOM      8  C   LIG d   1       0.533  83.678 112.353  0.00  0.00     0.119 C 
BRANCH   8   9
ATOM      9  C   LIG d   1       0.646  84.040 110.859  0.00  0.00     0.028 C 
ATOM     10  C   LIG d   1       2.025  84.619 110.499  0.00  0.00     0.006 C 
ENDBRANCH   8   9
BRANCH   8  11
ATOM     11  C   LIG d   1       1.607  84.514 113.055  0.00  0.00     0.028 C 
ATOM     12  C   LIG d   1       1.980  83.961 114.440  0.00  0.00     0.006 C 
ENDBRANCH   8  11
ENDBRANCH   7   8
ENDBRANCH   1   7
BRANCH   6  13
ATOM     13  N   LIG d   1       2.116  80.858 110.158  0.00  0.00    -0.311 N 
ATOM     14  C   LIG d   1       3.349  81.194 110.535  0.00  0.00     0.210 C 
ATOM     15  C   LIG d   1       4.219  81.801 109.430  0.00  0.00     0.109 C 
ATOM     16  O   LIG d   1       3.814  81.018 111.671  0.00  0.00    -0.276 OA
ATOM     17  H   LIG d   1       1.833  81.006 109.209  0.00  0.00     0.149 HD
ENDBRANCH   6  13
BRANCH   5  18
ATOM     18  N   LIG d   1       1.207  77.941 110.125  0.00  0.00     0.381 N 
ATOM     19  H   LIG d   1       1.479  77.478 110.969  0.00  0.00    -0.090 HD
ATOM     20  H   LIG d   1       2.037  78.276 109.668  0.00  0.00    -0.090 HD
ATOM     21  H   LIG d   1       0.725  77.305 109.529  0.00  0.00    -0.090 HD
ENDBRANCH   5  18
BRANCH   3  22
ATOM     22  C   LIG d   1      -2.852  79.336 112.249  0.00  0.00     0.382 C 
ATOM     23  O   LIG d   1      -3.220  78.138 112.318  0.00  0.00    -0.241 OA
ATOM     24  O   LIG d   1      -3.681  80.244 112.447  0.00  0.00    -0.241 OA
ENDBRANCH   3  22
TORSDOF 7
ENDMDL
MODEL 2
REMARK VINA RESULT:      -4.9      0.580      1.605
REMARK  7 active torsions:
REMARK  status: ('A' for Active; 'I' for Inactive)
REMARK    1  A    between atoms: C_2  and  C_3 
REMARK    2  A    between atoms: C_3  and  O_6 
REMARK    3  A    between atoms: C_3  and  C_4 
REMARK    4  A    between atoms: C_7  and  O_6 
REMARK    5  A    between atoms: C_9  and  C_10 
REMARK    6  A    between atoms: N_15  and  C_14 
REMARK    7  A    between atoms: N_20  and  C_19 
REMARK       I    between atoms: C_22  and  N_20 
ROOT
ATOM      1  C   LIG d   1       0.117  81.413 111.585  0.00  0.00     0.161 C 
ATOM      2  C   LIG d   1      -1.061  80.802 112.046  0.00  0.00     0.016 C 
ATOM      3  C   LIG d   1      -1.389  79.451 111.788  0.00  0.00     0.038 C 
ATOM      4  C   LIG d   1      -0.483  78.572 111.175  0.00  0.00     0.028 C 
ATOM      5  C   LIG d   1       0.506  79.271 110.248  0.00  0.00    -0.047 C 
ATOM      6  C   LIG d   1       1.168  80.441 111.011  0.00  0.00     0.091 C 
ENDROOT
BRANCH   1   7
ATOM      7  O   LIG d   1       0.695  82.213 112.636  0.00  0.00    -0.368 OA
BRANCH   7   8
ATOM      8  C   LIG d   1       1.182  83.521 112.246  0.00  0.00     0.119 C 
BRANCH   8   9
ATOM      9  C   LIG d   1       1.234  84.393 113.516  0.00  0.00     0.028 C 
ATOM     10  C   LIG d   1       2.637  84.430 114.145  0.00  0.00     0.006 C 
ENDBRANCH   8   9
BRANCH   8  11
ATOM     11  C   LIG d   1       0.197  84.227 111.310  0.00  0.00     0.028 C 
ATOM     12  C   LIG d   1       0.844  84.669 109.988  0.00  0.00     0.006 C 
ENDBRANCH   8  11
ENDBRANCH   7   8
ENDBRANCH   1   7
BRANCH   6  13
ATOM     13  N   LIG d   1       2.088  81.230 110.151  0.00  0.00    -0.311 N 
ATOM     14  C   LIG d   1       3.373  81.430 110.441  0.00  0.00     0.210 C 
ATOM     15  C   LIG d   1       4.138  82.290 109.430  0.00  0.00     0.109 C 
ATOM     16  O   LIG d   1       3.959  80.951 111.423  0.00  0.00    -0.276 OA
ATOM     17  H   LIG d   1       1.703  81.630 109.317  0.00  0.00     0.149 HD
ENDBRANCH   6  13
BRANCH   5  18
ATOM     18  N   LIG d   1       1.476  78.259 109.787  0.00  0.00     0.381 N 
ATOM     19  H   LIG d   1       1.328  77.400 110.277  0.00  0.00    -0.090 HD
ATOM     20  H   LIG d   1       2.405  78.583 109.990  0.00  0.00    -0.090 HD
ATOM     21  H   LIG d   1       1.374  78.112 108.807  0.00  0.00    -0.090 HD
ENDBRANCH   5  18
BRANCH   3  22
ATOM     22  C   LIG d   1      -2.652  78.977 112.108  0.00  0.00     0.382 C 
ATOM     23  O   LIG d   1      -3.136  78.006 111.478  0.00  0.00    -0.241 OA
ATOM     24  O   LIG d   1      -3.331  79.535 112.990  0.00  0.00    -0.241 OA
ENDBRANCH   3  22
TORSDOF 7
ENDMDL
MODEL 3
REMARK VINA RESULT:      -4.8      2.167      5.227
REMARK  7 active torsions:
REMARK  status: ('A' for Active; 'I' for Inactive)
REMARK    1  A    between atoms: C_2  and  C_3 
REMARK    2  A    between atoms: C_3  and  O_6 
REMARK    3  A    between atoms: C_3  and  C_4 
REMARK    4  A    between atoms: C_7  and  O_6 
REMARK    5  A    between atoms: C_9  and  C_10 
REMARK    6  A    between atoms: N_15  and  C_14 
REMARK    7  A    between atoms: N_20  and  C_19 
REMARK       I    between atoms: C_22  and  N_20 
ROOT
ATOM      1  C   LIG d   1       1.712  81.214 112.562  0.00  0.00     0.161 C 
ATOM      2  C   LIG d   1       2.591  82.066 111.871  0.00  0.00     0.016 C 
ATOM      3  C   LIG d   1       2.517  82.296 110.478  0.00  0.00     0.038 C 
ATOM      4  C   LIG d   1       1.458  81.804 109.701  0.00  0.00     0.028 C 
ATOM      5  C   LIG d   1       0.836  80.530 110.261  0.00  0.00    -0.047 C 
ATOM      6  C   LIG d   1       0.483  80.756 111.749  0.00  0.00     0.091 C 
ENDROOT
BRANCH   1   7
ATOM      7  O   LIG d   1       1.295  81.836 113.793  0.00  0.00    -0.368 OA
BRANCH   7   8
ATOM      8  C   LIG d   1       2.354  82.201 114.713  0.00  0.00     0.119 C 
BRANCH   8   9
ATOM      9  C   LIG d   1       2.318  81.197 115.882  0.00  0.00     0.028 C 
ATOM     10  C   LIG d   1       3.676  81.076 116.593  0.00  0.00     0.006 C 
ENDBRANCH   8   9
BRANCH   8  11
ATOM     11  C   LIG d   1       2.093  83.571 115.347  0.00  0.00     0.028 C 
ATOM     12  C   LIG d   1       1.831  84.670 114.305  0.00  0.00     0.006 C 
ENDBRANCH   8  11
ENDBRANCH   7   8
ENDBRANCH   1   7
BRANCH   6  13
ATOM     13  N   LIG d   1      -0.053  79.531 112.397  0.00  0.00    -0.311 N 
ATOM     14  C   LIG d   1      -1.355  79.268 112.504  0.00  0.00     0.210 C 
ATOM     15  C   LIG d   1      -1.693  77.960 113.226  0.00  0.00     0.109 C 
ATOM     16  O   LIG d   1      -2.260  79.978 112.041  0.00  0.00    -0.276 OA
ATOM     17  H   LIG d   1       0.613  78.885 112.773  0.00  0.00     0.149 HD
ENDBRANCH   6  13
BRANCH   5  18
ATOM     18  N   LIG d   1      -0.340  80.205 109.431  0.00  0.00     0.381 N 
ATOM     19  H   LIG d   1      -0.322  79.236 109.184  0.00  0.00    -0.090 HD
ATOM     20  H   LIG d   1      -0.301  80.747 108.586  0.00  0.00    -0.090 HD
ATOM     21  H   LIG d   1      -1.177  80.413 109.930  0.00  0.00    -0.090 HD
ENDBRANCH   5  18
BRANCH   3  22
ATOM     22  C   LIG d   1       3.533  82.993 109.842  0.00  0.00     0.382 C 
ATOM     23  O   LIG d   1       4.549  82.384 109.430  0.00  0.00    -0.241 OA
ATOM     24  O   LIG d   1       3.466  84.231 109.715  0.00  0.00    -0.241 OA
ENDBRANCH   3  22
TORSDOF 7
ENDMDL
MODEL 4
REMARK VINA RESULT:      -4.2      2.798      3.994
REMARK  7 active torsions:
REMARK  status: ('A' for Active; 'I' for Inactive)
REMARK    1  A    between atoms: C_2  and  C_3 
REMARK    2  A    between atoms: C_3  and  O_6 
REMARK    3  A    between atoms: C_3  and  C_4 
REMARK    4  A    between atoms: C_7  and  O_6 
REMARK    5  A    between atoms: C_9  and  C_10 
REMARK    6  A    between atoms: N_15  and  C_14 
REMARK    7  A    between atoms: N_20  and  C_19 
REMARK       I    between atoms: C_22  and  N_20 
ROOT
ATOM      1  C   LIG d   1       0.079  80.043 112.815  0.00  0.00     0.161 C 
ATOM      2  C   LIG d   1      -0.917  79.379 112.079  0.00  0.00     0.016 C 
ATOM      3  C   LIG d   1      -1.839  78.477 112.656  0.00  0.00     0.038 C 
ATOM      4  C   LIG d   1      -1.926  78.291 114.044  0.00  0.00     0.028 C 
ATOM      5  C   LIG d   1      -0.613  78.555 114.773  0.00  0.00    -0.047 C 
ATOM      6  C   LIG d   1      -0.072  79.939 114.347  0.00  0.00     0.091 C 
ENDROOT
BRANCH   1   7
ATOM      7  O   LIG d   1       0.145  81.425 112.411  0.00  0.00    -0.368 OA
BRANCH   7   8
ATOM      8  C   LIG d   1       0.835  81.693 111.166  0.00  0.00     0.119 C 
BRANCH   8   9
ATOM      9  C   LIG d   1       2.348  81.639 111.454  0.00  0.00     0.028 C 
ATOM     10  C   LIG d   1       3.097  80.708 110.486  0.00  0.00     0.006 C 
ENDBRANCH   8   9
BRANCH   8  11
ATOM     11  C   LIG d   1       0.567  83.119 110.675  0.00  0.00     0.028 C 
ATOM     12  C   LIG d   1      -0.729  83.713 111.250  0.00  0.00     0.006 C 
ENDBRANCH   8  11
ENDBRANCH   7   8
ENDBRANCH   1   7
BRANCH   6  13
ATOM     13  N   LIG d   1       1.253  80.240 114.950  0.00  0.00    -0.311 N 
ATOM     14  C   LIG d   1       1.401  80.829 116.136  0.00  0.00     0.210 C 
ATOM     15  C   LIG d   1       2.854  81.065 116.563  0.00  0.00     0.109 C 
ATOM     16  O   LIG d   1       0.469  81.148 116.889  0.00  0.00    -0.276 OA
ATOM     17  H   LIG d   1       2.064  79.985 114.421  0.00  0.00     0.149 HD
ENDBRANCH   6  13
BRANCH   5  18
ATOM     18  N   LIG d   1      -0.881  78.460 116.221  0.00  0.00     0.381 N 
ATOM     19  H   LIG d   1      -0.642  77.546 116.550  0.00  0.00    -0.090 HD
ATOM     20  H   LIG d   1      -1.862  78.607 116.380  0.00  0.00    -0.090 HD
ATOM     21  H   LIG d   1      -0.351  79.147 116.711  0.00  0.00    -0.090 HD
ENDBRANCH   5  18
BRANCH   3  22
ATOM     22  C   LIG d   1      -2.662  77.718 111.837  0.00  0.00     0.382 C 
ATOM     23  O   LIG d   1      -3.907  77.864 111.890  0.00  0.00    -0.241 OA
ATOM     24  O   LIG d   1      -2.177  76.857 111.079  0.00  0.00    -0.241 OA
ENDBRANCH   3  22
TORSDOF 7
ENDMDL
MODEL 5
REMARK VINA RESULT:      -4.1      5.590      6.652
REMARK  7 active torsions:
REMARK  status: ('A' for Active; 'I' for Inactive)
REMARK    1  A    between atoms: C_2  and  C_3 
REMARK    2  A    between atoms: C_3  and  O_6 
REMARK    3  A    between atoms: C_3  and  C_4 
REMARK    4  A    between atoms: C_7  and  O_6 
REMARK    5  A    between atoms: C_9  and  C_10 
REMARK    6  A    between atoms: N_15  and  C_14 
REMARK    7  A    between atoms: N_20  and  C_19 
REMARK       I    between atoms: C_22  and  N_20 
ROOT
ATOM      1  C   LIG d   1       0.023  78.304 116.249  0.00  0.00     0.161 C 
ATOM      2  C   LIG d   1      -1.065  78.588 115.406  0.00  0.00     0.016 C 
ATOM      3  C   LIG d   1      -1.825  77.591 114.753  0.00  0.00     0.038 C 
ATOM      4  C   LIG d   1      -1.642  76.226 115.021  0.00  0.00     0.028 C 
ATOM      5  C   LIG d   1      -0.228  75.882 115.476  0.00  0.00    -0.047 C 
ATOM      6  C   LIG d   1       0.166  76.819 116.640  0.00  0.00     0.091 C 
ENDROOT
BRANCH   1   7
ATOM      7  O   LIG d   1      -0.046  79.129 117.429  0.00  0.00    -0.368 OA
BRANCH   7   8
ATOM      8  C   LIG d   1       0.624  80.412 117.349  0.00  0.00     0.119 C 
BRANCH   8   9
ATOM      9  C   LIG d   1       2.069  80.211 117.844  0.00  0.00     0.028 C 
ATOM     10  C   LIG d   1       2.130  79.499 119.206  0.00  0.00     0.006 C 
ENDBRANCH   8   9
BRANCH   8  11
ATOM     11  C   LIG d   1       0.002  81.425 118.314  0.00  0.00     0.028 C 
ATOM     12  C   LIG d   1       0.519  82.855 118.091  0.00  0.00     0.006 C 
ENDBRANCH   8  11
ENDBRANCH   7   8
ENDBRANCH   1   7
BRANCH   6  13
ATOM     13  N   LIG d   1       1.567  76.606 117.090  0.00  0.00    -0.311 N 
ATOM     14  C   LIG d   1       1.898  75.805 118.101  0.00  0.00     0.210 C 
ATOM     15  C   LIG d   1       3.397  75.744 118.413  0.00  0.00     0.109 C 
ATOM     16  O   LIG d   1       1.097  75.115 118.749  0.00  0.00    -0.276 OA
ATOM     17  H   LIG d   1       2.284  77.103 116.599  0.00  0.00     0.149 HD
ENDBRANCH   6  13
BRANCH   5  18
ATOM     18  N   LIG d   1      -0.216  74.455 115.852  0.00  0.00     0.381 N 
ATOM     19  H   LIG d   1       0.233  74.343 116.739  0.00  0.00    -0.090 HD
ATOM     20  H   LIG d   1       0.309  73.943 115.165  0.00  0.00    -0.090 HD
ATOM     21  H   LIG d   1      -1.148  74.106 115.897  0.00  0.00    -0.090 HD
ENDBRANCH   5  18
BRANCH   3  22
ATOM     22  C   LIG d   1      -2.754  77.954 113.790  0.00  0.00     0.382 C 
ATOM     23  O   LIG d   1      -2.969  79.168 113.554  0.00  0.00    -0.241 OA
ATOM     24  O   LIG d   1      -3.412  77.086 113.187  0.00  0.00    -0.241 OA
ENDBRANCH   3  22
TORSDOF 7
ENDMDL
MODEL 6
REMARK VINA RESULT:      -4.1      5.282      7.786
REMARK  7 active torsions:
REMARK  status: ('A' for Active; 'I' for Inactive)
REMARK    1  A    between atoms: C_2  and  C_3 
REMARK    2  A    between atoms: C_3  and  O_6 
REMARK    3  A    between atoms: C_3  and  C_4 
REMARK    4  A    between atoms: C_7  and  O_6 
REMARK    5  A    between atoms: C_9  and  C_10 
REMARK    6  A    between atoms: N_15  and  C_14 
REMARK    7  A    between atoms: N_20  and  C_19 
REMARK       I    between atoms: C_22  and  N_20 
ROOT
ATOM      1  C   LIG d   1      -2.095  76.879 115.301  0.00  0.00     0.161 C 
ATOM      2  C   LIG d   1      -2.551  77.014 113.979  0.00  0.00     0.016 C 
ATOM      3  C   LIG d   1      -2.063  77.993 113.084  0.00  0.00     0.038 C 
ATOM      4  C   LIG d   1      -0.971  78.813 113.405  0.00  0.00     0.028 C 
ATOM      5  C   LIG d   1      -0.814  79.053 114.903  0.00  0.00    -0.047 C 
ATOM      6  C   LIG d   1      -0.826  77.691 115.634  0.00  0.00     0.091 C 
ENDROOT
BRANCH   1   7
ATOM      7  O   LIG d   1      -1.893  75.485 115.608  0.00  0.00    -0.368 OA
BRANCH   7   8
ATOM      8  C   LIG d   1      -2.882  74.873 116.471  0.00  0.00     0.119 C 
BRANCH   8   9
ATOM      9  C   LIG d   1      -3.737  76.005 117.073  0.00  0.00     0.028 C 
ATOM     10  C   LIG d   1      -3.772  75.960 118.610  0.00  0.00     0.006 C 
ENDBRANCH   8   9
BRANCH   8  11
ATOM     11  C   LIG d   1      -2.225  74.180 117.669  0.00  0.00     0.028 C 
ATOM     12  C   LIG d   1      -0.690  74.180 117.588  0.00  0.00     0.006 C 
ENDBRANCH   8  11
ENDBRANCH   7   8
ENDBRANCH   1   7
BRANCH   6  13
ATOM     13  N   LIG d   1      -0.762  77.840 117.111  0.00  0.00    -0.311 N 
ATOM     14  C   LIG d   1       0.297  77.487 117.838  0.00  0.00     0.210 C 
ATOM     15  C   LIG d   1       0.148  77.707 119.347  0.00  0.00     0.109 C 
ATOM     16  O   LIG d   1       1.358  77.043 117.373  0.00  0.00    -0.276 OA
ATOM     17  H   LIG d   1      -1.568  78.222 117.567  0.00  0.00     0.149 HD
ENDBRANCH   6  13
BRANCH   5  18
ATOM     18  N   LIG d   1       0.439  79.806 115.104  0.00  0.00     0.381 N 
ATOM     19  H   LIG d   1       1.007  79.343 115.785  0.00  0.00    -0.090 HD
ATOM     20  H   LIG d   1       0.215  80.722 115.451  0.00  0.00    -0.090 HD
ATOM     21  H   LIG d   1       0.934  79.881 114.243  0.00  0.00    -0.090 HD
ENDBRANCH   5  18
BRANCH   3  22
ATOM     22  C   LIG d   1      -2.697  78.187 111.866  0.00  0.00     0.382 C 
ATOM     23  O   LIG d   1      -2.126  78.840 110.959  0.00  0.00    -0.241 OA
ATOM     24  O   LIG d   1      -3.850  77.755 111.677  0.00  0.00    -0.241 OA
ENDBRANCH   3  22
TORSDOF 7
ENDMDL
MODEL 7
REMARK VINA RESULT:      -4.0      6.034      7.215
REMARK  7 active torsions:
REMARK  status: ('A' for Active; 'I' for Inactive)
REMARK    1  A    between atoms: C_2  and  C_3 
REMARK    2  A    between atoms: C_3  and  O_6 
REMARK    3  A    between atoms: C_3  and  C_4 
REMARK    4  A    between atoms: C_7  and  O_6 
REMARK    5  A    between atoms: C_9  and  C_10 
REMARK    6  A    between atoms: N_15  and  C_14 
REMARK    7  A    between atoms: N_20  and  C_19 
REMARK       I    between atoms: C_22  and  N_20 
ROOT
ATOM      1  C   LIG d   1       0.119  78.179 116.293  0.00  0.00     0.161 C 
ATOM      2  C   LIG d   1      -0.998  78.450 115.486  0.00  0.00     0.016 C 
ATOM      3  C   LIG d   1      -1.820  77.443 114.930  0.00  0.00     0.038 C 
ATOM      4  C   LIG d   1      -1.668  76.090 115.272  0.00  0.00     0.028 C 
ATOM      5  C   LIG d   1      -0.246  75.725 115.681  0.00  0.00    -0.047 C 
ATOM      6  C   LIG d   1       0.234  76.715 116.767  0.00  0.00     0.091 C 
ENDROOT
BRANCH   1   7
ATOM      7  O   LIG d   1       0.134  79.074 117.423  0.00  0.00    -0.368 OA
BRANCH   7   8
ATOM      8  C   LIG d   1      -0.773  78.749 118.505  0.00  0.00     0.119 C 
BRANCH   8   9
ATOM      9  C   LIG d   1      -1.743  79.935 118.668  0.00  0.00     0.028 C 
ATOM     10  C   LIG d   1      -3.188  79.566 118.293  0.00  0.00     0.006 C 
ENDBRANCH   8   9
BRANCH   8  11
ATOM     11  C   LIG d   1      -0.031  78.646 119.841  0.00  0.00     0.028 C 
ATOM     12  C   LIG d   1       1.446  79.058 119.737  0.00  0.00     0.006 C 
ENDBRANCH   8  11
ENDBRANCH   7   8
ENDBRANCH   1   7
BRANCH   6  13
ATOM     13  N   LIG d   1       1.647  76.480 117.164  0.00  0.00    -0.311 N 
ATOM     14  C   LIG d   1       2.001  75.730 118.205  0.00  0.00     0.210 C 
ATOM     15  C   LIG d   1       3.510  75.635 118.451  0.00  0.00     0.109 C 
ATOM     16  O   LIG d   1       1.210  75.107 118.930  0.00  0.00    -0.276 OA
ATOM     17  H   LIG d   1       2.355  76.922 116.611  0.00  0.00     0.149 HD
ENDBRANCH   6  13
BRANCH   5  18
ATOM     18  N   LIG d   1      -0.261  74.324 116.142  0.00  0.00     0.381 N 
ATOM     19  H   LIG d   1       0.376  73.780 115.594  0.00  0.00    -0.090 HD
ATOM     20  H   LIG d   1      -1.185  73.950 116.016  0.00  0.00    -0.090 HD
ATOM     21  H   LIG d   1      -0.005  74.278 117.104  0.00  0.00    -0.090 HD
ENDBRANCH   5  18
BRANCH   3  22
ATOM     22  C   LIG d   1      -2.782  77.781 113.991  0.00  0.00     0.382 C 
ATOM     23  O   LIG d   1      -3.560  76.903 113.546  0.00  0.00    -0.241 OA
ATOM     24  O   LIG d   1      -2.854  78.944 113.551  0.00  0.00    -0.241 OA
ENDBRANCH   3  22
TORSDOF 7
ENDMDL
MODEL 8
REMARK VINA RESULT:      -4.0      2.861      4.168
REMARK  7 active torsions:
REMARK  status: ('A' for Active; 'I' for Inactive)
REMARK    1  A    between atoms: C_2  and  C_3 
REMARK    2  A    between atoms: C_3  and  O_6 
REMARK    3  A    between atoms: C_3  and  C_4 
REMARK    4  A    between atoms: C_7  and  O_6 
REMARK    5  A    between atoms: C_9  and  C_10 
REMARK    6  A    between atoms: N_15  and  C_14 
REMARK    7  A    between atoms: N_20  and  C_19 
REMARK       I    between atoms: C_22  and  N_20 
ROOT
ATOM      1  C   LIG d   1      -0.750  79.792 113.702  0.00  0.00     0.161 C 
ATOM      2  C   LIG d   1      -1.736  78.835 113.410  0.00  0.00     0.016 C 
ATOM      3  C   LIG d   1      -2.087  78.455 112.095  0.00  0.00     0.038 C 
ATOM      4  C   LIG d   1      -1.365  78.900 110.977  0.00  0.00     0.028 C 
ATOM      5  C   LIG d   1      -0.693  80.253 111.189  0.00  0.00    -0.047 C 
ATOM      6  C   LIG d   1       0.125  80.206 112.500  0.00  0.00     0.091 C 
ENDROOT
BRANCH   1   7
ATOM      7  O   LIG d   1       0.077  79.327 114.787  0.00  0.00    -0.368 OA
BRANCH   7   8
ATOM      8  C   LIG d   1      -0.467  79.492 116.119  0.00  0.00     0.119 C 
BRANCH   8   9
ATOM      9  C   LIG d   1       0.683  79.955 117.035  0.00  0.00     0.028 C 
ATOM     10  C   LIG d   1       1.633  80.939 116.332  0.00  0.00     0.006 C 
ENDBRANCH   8   9
BRANCH   8  11
ATOM     11  C   LIG d   1      -0.934  78.155 116.700  0.00  0.00     0.028 C 
ATOM     12  C   LIG d   1      -0.073  76.970 116.235  0.00  0.00     0.006 C 
ENDBRANCH   8  11
ENDBRANCH   7   8
ENDBRANCH   1   7
BRANCH   6  13
ATOM     13  N   LIG d   1       0.747  81.516 112.827  0.00  0.00    -0.311 N 
ATOM     14  C   LIG d   1       1.990  81.844 112.479  0.00  0.00     0.210 C 
ATOM     15  C   LIG d   1       2.443  83.236 112.932  0.00  0.00     0.109 C 
ATOM     16  O   LIG d   1       2.750  81.127 111.811  0.00  0.00    -0.276 OA
ATOM     17  H   LIG d   1       0.190  82.170 113.340  0.00  0.00     0.149 HD
ENDBRANCH   6  13
BRANCH   5  18
ATOM     18  N   LIG d   1       0.136  80.530 110.001  0.00  0.00     0.381 N 
ATOM     19  H   LIG d   1       1.089  80.294 110.190  0.00  0.00    -0.090 HD
ATOM     20  H   LIG d   1       0.089  81.512 109.794  0.00  0.00    -0.090 HD
ATOM     21  H   LIG d   1      -0.197  80.003 109.223  0.00  0.00    -0.090 HD
ENDBRANCH   5  18
BRANCH   3  22
ATOM     22  C   LIG d   1      -3.197  77.652 111.884  0.00  0.00     0.382 C 
ATOM     23  O   LIG d   1      -3.774  77.112 112.859  0.00  0.00    -0.241 OA
ATOM     24  O   LIG d   1      -3.602  77.424 110.729  0.00  0.00    -0.241 OA
ENDBRANCH   3  22
TORSDOF 7
ENDMDL
MODEL 9
REMARK VINA RESULT:      -3.9      5.935      8.162
REMARK  7 active torsions:
REMARK  status: ('A' for Active; 'I' for Inactive)
REMARK    1  A    between atoms: C_2  and  C_3 
REMARK    2  A    between atoms: C_3  and  O_6 
REMARK    3  A    between atoms: C_3  and  C_4 
REMARK    4  A    between atoms: C_7  and  O_6 
REMARK    5  A    between atoms: C_9  and  C_10 
REMARK    6  A    between atoms: N_15  and  C_14 
REMARK    7  A    between atoms: N_20  and  C_19 
REMARK       I    between atoms: C_22  and  N_20 
ROOT
ATOM      1  C   LIG d   1      -1.982  77.488 117.263  0.00  0.00     0.161 C 
ATOM      2  C   LIG d   1      -2.772  77.002 116.209  0.00  0.00     0.016 C 
ATOM      3  C   LIG d   1      -2.546  77.328 114.852  0.00  0.00     0.038 C 
ATOM      4  C   LIG d   1      -1.414  78.047 114.441  0.00  0.00     0.028 C 
ATOM      5  C   LIG d   1      -0.867  78.982 115.515  0.00  0.00    -0.047 C 
ATOM      6  C   LIG d   1      -0.676  78.184 116.825  0.00  0.00     0.091 C 
ENDROOT
BRANCH   1   7
ATOM      7  O   LIG d   1      -1.695  76.423 118.191  0.00  0.00    -0.368 OA
BRANCH   7   8
ATOM      8  C   LIG d   1      -1.755  75.078 117.655  0.00  0.00     0.119 C 
BRANCH   8   9
ATOM      9  C   LIG d   1      -2.437  74.189 118.712  0.00  0.00     0.028 C 
ATOM     10  C   LIG d   1      -3.931  74.514 118.877  0.00  0.00     0.006 C 
ENDBRANCH   8   9
BRANCH   8  11
ATOM     11  C   LIG d   1      -0.353  74.488 117.472  0.00  0.00     0.028 C 
ATOM     12  C   LIG d   1       0.617  74.899 118.591  0.00  0.00     0.006 C 
ENDBRANCH   8  11
ENDBRANCH   7   8
ENDBRANCH   1   7
BRANCH   6  13
ATOM     13  N   LIG d   1      -0.224  79.042 117.951  0.00  0.00    -0.311 N 
ATOM     14  C   LIG d   1       0.971  78.927 118.527  0.00  0.00     0.210 C 
ATOM     15  C   LIG d   1       1.228  79.898 119.684  0.00  0.00     0.109 C 
ATOM     16  O   LIG d   1       1.856  78.135 118.168  0.00  0.00    -0.276 OA
ATOM     17  H   LIG d   1      -0.868  79.733 118.285  0.00  0.00     0.149 HD
ENDBRANCH   6  13
BRANCH   5  18
ATOM     18  N   LIG d   1       0.388  79.563 115.004  0.00  0.00     0.381 N 
ATOM     19  H   LIG d   1       0.710  80.276 115.627  0.00  0.00    -0.090 HD
ATOM     20  H   LIG d   1       0.210  79.984 114.109  0.00  0.00    -0.090 HD
ATOM     21  H   LIG d   1       1.081  78.853 114.913  0.00  0.00    -0.090 HD
ENDBRANCH   5  18
BRANCH   3  22
ATOM     22  C   LIG d   1      -3.480  76.967 113.893  0.00  0.00     0.382 C 
ATOM     23  O   LIG d   1      -4.436  76.215 114.201  0.00  0.00    -0.241 OA
ATOM     24  O   LIG d   1      -3.354  77.347 112.714  0.00  0.00    -0.241 OA
ENDBRANCH   3  22
TORSDOF 7
ENDMDL
