MODEL 1
REMARK VINA RESULT:      -5.6      0.000      0.000
REMARK  7 active torsions:
REMARK  status: ('A' for Active; 'I' for Inactive)
REMARK    1  A    between atoms: C_2  and  C_3 
REMARK    2  A    between atoms: C_3  and  O_6 
REMARK    3  A    between atoms: C_3  and  C_4 
REMARK    4  A    between atoms: C_7  and  O_6 
REMARK    5  A    between atoms: C_9  and  C_10 
REMARK    6  A    between atoms: N_15  and  C_14 
REMARK    7  A    between atoms: N_20  and  C_19 
REMARK       I    between atoms: C_22  and  N_20 
ROOT
ATOM      1  C   LIG d   1       0.161  83.121 112.084  0.00  0.00     0.161 C 
ATOM      2  C   LIG d   1      -1.051  82.629 112.595  0.00  0.00     0.016 C 
ATOM      3  C   LIG d   1      -1.532  81.324 112.336  0.00  0.00     0.038 C 
ATOM      4  C   LIG d   1      -0.754  80.367 111.668  0.00  0.00     0.028 C 
ATOM      5  C   LIG d   1       0.257  80.974 110.702  0.00  0.00    -0.047 C 
ATOM      6  C   LIG d   1       1.075  82.054 111.446  0.00  0.00     0.091 C 
ENDROOT
BRANCH   1   7
ATOM      7  O   LIG d   1       0.870  83.837 113.115  0.00  0.00    -0.368 OA
BRANCH   7   8
ATOM      8  C   LIG d   1       1.370  83.039 114.217  0.00  0.00     0.119 C 
BRANCH   8   9
ATOM      9  C   LIG d   1       0.710  83.566 115.506  0.00  0.00     0.028 C 
ATOM     10  C   LIG d   1      -0.149  82.499 116.204  0.00  0.00     0.006 C 
ENDBRANCH   8   9
BRANCH   8  11
ATOM     11  C   LIG d   1       2.874  83.245 114.417  0.00  0.00     0.028 C 
ATOM     12  C   LIG d   1       3.430  84.416 113.591  0.00  0.00     0.006 C 
ENDBRANCH   8  11
ENDBRANCH   7   8
ENDBRANCH   1   7
BRANCH   6  13
ATOM     13  N   LIG d   1       2.031  82.758 110.552  0.00  0.00    -0.311 N 
ATOM     14  C   LIG d   1       3.304  82.392 110.406  0.00  0.00     0.210 C 
ATOM     15  C   LIG d   1       4.122  83.265 109.450  0.00  0.00     0.109 C 
ATOM     16  O   LIG d   1       3.824  81.407 110.953  0.00  0.00    -0.276 OA
ATOM     17  H   LIG d   1       1.685  83.549 110.046  0.00  0.00     0.149 HD
ENDBRANCH   6  13
BRANCH   5  18
ATOM     18  N   LIG d   1       1.091  79.875 110.180  0.00  0.00     0.381 N 
ATOM     19  H   LIG d   1       1.110  79.122 110.839  0.00  0.00    -0.090 HD
ATOM     20  H   LIG d   1       2.031  80.209 110.057  0.00  0.00    -0.090 HD
ATOM     21  H   LIG d   1       0.728  79.555 109.310  0.00  0.00    -0.090 HD
ENDBRANCH   5  18
BRANCH   3  22
ATOM     22  C   LIG d   1      -2.821  80.980 112.712  0.00  0.00     0.382 C 
ATOM     23  O   LIG d   1      -3.772  81.768 112.487  0.00  0.00    -0.241 OA
ATOM     24  O   LIG d   1      -3.040  79.911 113.314  0.00  0.00    -0.241 OA
ENDBRANCH   3  22
TORSDOF 7
ENDMDL
MODEL 2
REMARK VINA RESULT:      -5.3      3.919      6.541
REMARK  7 active torsions:
REMARK  status: ('A' for Active; 'I' for Inactive)
REMARK    1  A    between atoms: C_2  and  C_3 
REMARK    2  A    between atoms: C_3  and  O_6 
REMARK    3  A    between atoms: C_3  and  C_4 
REMARK    4  A    between atoms: C_7  and  O_6 
REMARK    5  A    between atoms: C_9  and  C_10 
REMARK    6  A    between atoms: N_15  and  C_14 
REMARK    7  A    between atoms: N_20  and  C_19 
REMARK       I    between atoms: C_22  and  N_20 
ROOT
ATOM      1  C   LIG d   1      -2.358  80.020 115.244  0.00  0.00     0.161 C 
ATOM      2  C   LIG d   1      -2.152  81.180 114.480  0.00  0.00     0.016 C 
ATOM      3  C   LIG d   1      -1.760  81.158 113.121  0.00  0.00     0.038 C 
ATOM      4  C   LIG d   1      -1.694  79.964 112.388  0.00  0.00     0.028 C 
ATOM      5  C   LIG d   1      -1.403  78.739 113.249  0.00  0.00    -0.047 C 
ATOM      6  C   LIG d   1      -2.399  78.709 114.431  0.00  0.00     0.091 C 
ENDROOT
BRANCH   1   7
ATOM      7  O   LIG d   1      -3.558  80.159 116.030  0.00  0.00    -0.368 OA
BRANCH   7   8
ATOM      8  C   LIG d   1      -3.374  80.578 117.405  0.00  0.00     0.119 C 
BRANCH   8   9
ATOM      9  C   LIG d   1      -1.988  80.080 117.859  0.00  0.00     0.028 C 
ATOM     10  C   LIG d   1      -1.572  80.663 119.220  0.00  0.00     0.006 C 
ENDBRANCH   8   9
BRANCH   8  11
ATOM     11  C   LIG d   1      -4.377  79.890 118.336  0.00  0.00     0.028 C 
ATOM     12  C   LIG d   1      -4.439  78.369 118.126  0.00  0.00     0.006 C 
ENDBRANCH   8  11
ENDBRANCH   7   8
ENDBRANCH   1   7
BRANCH   6  13
ATOM     13  N   LIG d   1      -2.130  77.589 115.370  0.00  0.00    -0.311 N 
ATOM     14  C   LIG d   1      -2.786  76.430 115.336  0.00  0.00     0.210 C 
ATOM     15  C   LIG d   1      -2.366  75.418 116.407  0.00  0.00     0.109 C 
ATOM     16  O   LIG d   1      -3.652  76.132 114.500  0.00  0.00    -0.276 OA
ATOM     17  H   LIG d   1      -1.420  77.733 116.061  0.00  0.00     0.149 HD
ENDBRANCH   6  13
BRANCH   5  18
ATOM     18  N   LIG d   1      -1.499  77.551 112.381  0.00  0.00     0.381 N 
ATOM     19  H   LIG d   1      -2.205  77.694 111.687  0.00  0.00    -0.090 HD
ATOM     20  H   LIG d   1      -1.763  76.760 112.941  0.00  0.00    -0.090 HD
ATOM     21  H   LIG d   1      -0.621  77.378 111.942  0.00  0.00    -0.090 HD
ENDBRANCH   5  18
BRANCH   3  22
ATOM     22  C   LIG d   1      -1.391  82.338 112.493  0.00  0.00     0.382 C 
ATOM     23  O   LIG d   1      -1.375  83.413 113.139  0.00  0.00    -0.241 OA
ATOM     24  O   LIG d   1      -1.116  82.347 111.278  0.00  0.00    -0.241 OA
ENDBRANCH   3  22
TORSDOF 7
ENDMDL
MODEL 3
REMARK VINA RESULT:      -5.1      1.765      4.798
REMARK  7 active torsions:
REMARK  status: ('A' for Active; 'I' for Inactive)
REMARK    1  A    between atoms: C_2  and  C_3 
REMARK    2  A    between atoms: C_3  and  O_6 
REMARK    3  A    between atoms: C_3  and  C_4 
REMARK    4  A    between atoms: C_7  and  O_6 
REMARK    5  A    between atoms: C_9  and  C_10 
REMARK    6  A    between atoms: N_15  and  C_14 
REMARK    7  A    between atoms: N_20  and  C_19 
REMARK       I    between atoms: C_22  and  N_20 
ROOT
ATOM      1  C   LIG d   1       0.927  81.779 112.983  0.00  0.00     0.161 C 
ATOM      2  C   LIG d   1       1.939  82.663 112.573  0.00  0.00     0.016 C 
ATOM      3  C   LIG d   1       2.348  82.807 111.227  0.00  0.00     0.038 C 
ATOM      4  C   LIG d   1       1.664  82.182 110.173  0.00  0.00     0.028 C 
ATOM      5  C   LIG d   1       0.962  80.893 110.587  0.00  0.00    -0.047 C 
ATOM      6  C   LIG d   1       0.094  81.172 111.835  0.00  0.00     0.091 C 
ENDROOT
BRANCH   1   7
ATOM      7  O   LIG d   1       0.066  82.432 113.937  0.00  0.00    -0.368 OA
BRANCH   7   8
ATOM      8  C   LIG d   1       0.117  81.925 115.293  0.00  0.00     0.119 C 
BRANCH   8   9
ATOM      9  C   LIG d   1      -1.316  81.522 115.690  0.00  0.00     0.028 C 
ATOM     10  C   LIG d   1      -2.378  82.456 115.086  0.00  0.00     0.006 C 
ENDBRANCH   8   9
BRANCH   8  11
ATOM     11  C   LIG d   1       0.518  83.023 116.283  0.00  0.00     0.028 C 
ATOM     12  C   LIG d   1       0.656  84.402 115.620  0.00  0.00     0.006 C 
ENDBRANCH   8  11
ENDBRANCH   7   8
ENDBRANCH   1   7
BRANCH   6  13
ATOM     13  N   LIG d   1      -0.561  79.944 112.356  0.00  0.00    -0.311 N 
ATOM     14  C   LIG d   1      -1.882  79.802 112.451  0.00  0.00     0.210 C 
ATOM     15  C   LIG d   1      -2.348  78.464 113.034  0.00  0.00     0.109 C 
ATOM     16  O   LIG d   1      -2.712  80.644 112.079  0.00  0.00    -0.276 OA
ATOM     17  H   LIG d   1       0.038  79.198 112.651  0.00  0.00     0.149 HD
ENDBRANCH   6  13
BRANCH   5  18
ATOM     18  N   LIG d   1       0.177  80.422 109.430  0.00  0.00     0.381 N 
ATOM     19  H   LIG d   1       0.232  81.091 108.689  0.00  0.00    -0.090 HD
ATOM     20  H   LIG d   1      -0.785  80.334 109.705  0.00  0.00    -0.090 HD
ATOM     21  H   LIG d   1       0.523  79.541 109.119  0.00  0.00    -0.090 HD
ENDBRANCH   5  18
BRANCH   3  22
ATOM     22  C   LIG d   1       3.478  83.552 110.928  0.00  0.00     0.382 C 
ATOM     23  O   LIG d   1       4.323  83.797 111.823  0.00  0.00    -0.241 OA
ATOM     24  O   LIG d   1       3.642  84.021 109.785  0.00  0.00    -0.241 OA
ENDBRANCH   3  22
TORSDOF 7
ENDMDL
MODEL 4
REMARK VINA RESULT:      -4.6      4.218      5.796
REMARK  7 active torsions:
REMARK  status: ('A' for Active; 'I' for Inactive)
REMARK    1  A    between atoms: C_2  and  C_3 
REMARK    2  A    between atoms: C_3  and  O_6 
REMARK    3  A    between atoms: C_3  and  C_4 
REMARK    4  A    between atoms: C_7  and  O_6 
REMARK    5  A    between atoms: C_9  and  C_10 
REMARK    6  A    between atoms: N_15  and  C_14 
REMARK    7  A    between atoms: N_20  and  C_19 
REMARK       I    between atoms: C_22  and  N_20 
ROOT
ATOM      1  C   LIG d   1      -0.974  80.153 115.631  0.00  0.00     0.161 C 
ATOM      2  C   LIG d   1      -1.646  80.968 114.705  0.00  0.00     0.016 C 
ATOM      3  C   LIG d   1      -2.165  80.489 113.480  0.00  0.00     0.038 C 
ATOM      4  C   LIG d   1      -2.179  79.122 113.165  0.00  0.00     0.028 C 
ATOM      5  C   LIG d   1      -1.062  78.333 113.840  0.00  0.00    -0.047 C 
ATOM      6  C   LIG d   1      -1.077  78.639 115.355  0.00  0.00     0.091 C 
ENDROOT
BRANCH   1   7
ATOM      7  O   LIG d   1      -1.429  80.452 116.966  0.00  0.00    -0.368 OA
BRANCH   7   8
ATOM      8  C   LIG d   1      -0.578  81.323 117.750  0.00  0.00     0.119 C 
BRANCH   8   9
ATOM      9  C   LIG d   1       0.879  81.049 117.329  0.00  0.00     0.028 C 
ATOM     10  C   LIG d   1       1.723  80.473 118.478  0.00  0.00     0.006 C 
ENDBRANCH   8   9
BRANCH   8  11
ATOM     11  C   LIG d   1      -0.643  80.973 119.239  0.00  0.00     0.028 C 
ATOM     12  C   LIG d   1      -2.045  80.530 119.687  0.00  0.00     0.006 C 
ENDBRANCH   8  11
ENDBRANCH   7   8
ENDBRANCH   1   7
BRANCH   6  13
ATOM     13  N   LIG d   1       0.037  77.973 116.079  0.00  0.00    -0.311 N 
ATOM     14  C   LIG d   1      -0.103  77.400 117.273  0.00  0.00     0.210 C 
ATOM     15  C   LIG d   1       1.177  76.788 117.851  0.00  0.00     0.109 C 
ATOM     16  O   LIG d   1      -1.173  77.312 117.894  0.00  0.00    -0.276 OA
ATOM     17  H   LIG d   1       0.934  77.970 115.633  0.00  0.00     0.149 HD
ENDBRANCH   6  13
BRANCH   5  18
ATOM     18  N   LIG d   1      -1.278  76.906 113.536  0.00  0.00     0.381 N 
ATOM     19  H   LIG d   1      -2.239  76.750 113.309  0.00  0.00    -0.090 HD
ATOM     20  H   LIG d   1      -1.053  76.363 114.351  0.00  0.00    -0.090 HD
ATOM     21  H   LIG d   1      -0.700  76.629 112.773  0.00  0.00    -0.090 HD
ENDBRANCH   5  18
BRANCH   3  22
ATOM     22  C   LIG d   1      -2.642  81.387 112.538  0.00  0.00     0.382 C 
ATOM     23  O   LIG d   1      -1.853  81.911 111.715  0.00  0.00    -0.241 OA
ATOM     24  O   LIG d   1      -3.844  81.714 112.529  0.00  0.00    -0.241 OA
ENDBRANCH   3  22
TORSDOF 7
ENDMDL
MODEL 5
REMARK VINA RESULT:      -4.5      2.707      4.414
REMARK  7 active torsions:
REMARK  status: ('A' for Active; 'I' for Inactive)
REMARK    1  A    between atoms: C_2  and  C_3 
REMARK    2  A    between atoms: C_3  and  O_6 
REMARK    3  A    between atoms: C_3  and  C_4 
REMARK    4  A    between atoms: C_7  and  O_6 
REMARK    5  A    between atoms: C_9  and  C_10 
REMARK    6  A    between atoms: N_15  and  C_14 
REMARK    7  A    between atoms: N_20  and  C_19 
REMARK       I    between atoms: C_22  and  N_20 
ROOT
ATOM      1  C   LIG d   1      -0.850  81.359 112.488  0.00  0.00     0.161 C 
ATOM      2  C   LIG d   1      -1.312  80.051 112.268  0.00  0.00     0.016 C 
ATOM      3  C   LIG d   1      -2.003  79.296 113.243  0.00  0.00     0.038 C 
ATOM      4  C   LIG d   1      -2.414  79.857 114.462  0.00  0.00     0.028 C 
ATOM      5  C   LIG d   1      -1.530  81.010 114.926  0.00  0.00    -0.047 C 
ATOM      6  C   LIG d   1      -1.385  82.028 113.771  0.00  0.00     0.091 C 
ENDROOT
BRANCH   1   7
ATOM      7  O   LIG d   1      -1.138  82.179 111.338  0.00  0.00    -0.368 OA
BRANCH   7   8
ATOM      8  C   LIG d   1      -0.001  82.559 110.524  0.00  0.00     0.119 C 
BRANCH   8   9
ATOM      9  C   LIG d   1       1.222  81.781 111.047  0.00  0.00     0.028 C 
ATOM     10  C   LIG d   1       1.832  80.859 109.978  0.00  0.00     0.006 C 
ENDBRANCH   8   9
BRANCH   8  11
ATOM     11  C   LIG d   1       0.349  84.038 110.711  0.00  0.00     0.028 C 
ATOM     12  C   LIG d   1       0.928  84.678 109.440  0.00  0.00     0.006 C 
ENDBRANCH   8  11
ENDBRANCH   7   8
ENDBRANCH   1   7
BRANCH   6  13
ATOM     13  N   LIG d   1      -0.468  83.146 114.113  0.00  0.00    -0.311 N 
ATOM     14  C   LIG d   1       0.793  82.966 114.503  0.00  0.00     0.210 C 
ATOM     15  C   LIG d   1       1.559  84.253 114.826  0.00  0.00     0.109 C 
ATOM     16  O   LIG d   1       1.359  81.866 114.582  0.00  0.00    -0.276 OA
ATOM     17  H   LIG d   1      -0.836  84.074 114.046  0.00  0.00     0.149 HD
ENDBRANCH   6  13
BRANCH   5  18
ATOM     18  N   LIG d   1      -2.150  81.589 116.133  0.00  0.00     0.381 N 
ATOM     19  H   LIG d   1      -3.127  81.734 115.975  0.00  0.00    -0.090 HD
ATOM     20  H   LIG d   1      -1.726  82.480 116.320  0.00  0.00    -0.090 HD
ATOM     21  H   LIG d   1      -2.018  80.980 116.910  0.00  0.00    -0.090 HD
ENDBRANCH   5  18
BRANCH   3  22
ATOM     22  C   LIG d   1      -2.256  77.951 113.020  0.00  0.00     0.382 C 
ATOM     23  O   LIG d   1      -1.429  77.087 113.399  0.00  0.00    -0.241 OA
ATOM     24  O   LIG d   1      -3.278  77.594 112.404  0.00  0.00    -0.241 OA
ENDBRANCH   3  22
TORSDOF 7
ENDMDL
MODEL 6
REMARK VINA RESULT:      -4.5      2.033      4.768
REMARK  7 active torsions:
REMARK  status: ('A' for Active; 'I' for Inactive)
REMARK    1  A    between atoms: C_2  and  C_3 
REMARK    2  A    between atoms: C_3  and  O_6 
REMARK    3  A    between atoms: C_3  and  C_4 
REMARK    4  A    between atoms: C_7  and  O_6 
REMARK    5  A    between atoms: C_9  and  C_10 
REMARK    6  A    between atoms: N_15  and  C_14 
REMARK    7  A    between atoms: N_20  and  C_19 
REMARK       I    between atoms: C_22  and  N_20 
ROOT
ATOM      1  C   LIG d   1       1.168  81.934 113.264  0.00  0.00     0.161 C 
ATOM      2  C   LIG d   1       2.005  81.783 112.145  0.00  0.00     0.016 C 
ATOM      3  C   LIG d   1       1.603  81.136 110.954  0.00  0.00     0.038 C 
ATOM      4  C   LIG d   1       0.278  80.727 110.744  0.00  0.00     0.028 C 
ATOM      5  C   LIG d   1      -0.469  80.405 112.034  0.00  0.00    -0.047 C 
ATOM      6  C   LIG d   1      -0.316  81.592 113.012  0.00  0.00     0.091 C 
ENDROOT
BRANCH   1   7
ATOM      7  O   LIG d   1       1.292  83.270 113.790  0.00  0.00    -0.368 OA
BRANCH   7   8
ATOM      8  C   LIG d   1       2.211  83.435 114.898  0.00  0.00     0.119 C 
BRANCH   8   9
ATOM      9  C   LIG d   1       2.355  82.065 115.589  0.00  0.00     0.028 C 
ATOM     10  C   LIG d   1       3.732  81.883 116.250  0.00  0.00     0.006 C 
ENDBRANCH   8   9
BRANCH   8  11
ATOM     11  C   LIG d   1       1.634  84.369 115.966  0.00  0.00     0.028 C 
ATOM     12  C   LIG d   1       0.098  84.421 115.945  0.00  0.00     0.006 C 
ENDBRANCH   8  11
ENDBRANCH   7   8
ENDBRANCH   1   7
BRANCH   6  13
ATOM     13  N   LIG d   1      -0.946  81.325 114.331  0.00  0.00    -0.311 N 
ATOM     14  C   LIG d   1      -2.189  81.692 114.637  0.00  0.00     0.210 C 
ATOM     15  C   LIG d   1      -2.636  81.337 116.058  0.00  0.00     0.109 C 
ATOM     16  O   LIG d   1      -2.975  82.249 113.856  0.00  0.00    -0.276 OA
ATOM     17  H   LIG d   1      -0.390  80.849 115.014  0.00  0.00     0.149 HD
ENDBRANCH   6  13
BRANCH   5  18
ATOM     18  N   LIG d   1      -1.873  80.127 111.678  0.00  0.00     0.381 N 
ATOM     19  H   LIG d   1      -2.476  80.776 112.143  0.00  0.00    -0.090 HD
ATOM     20  H   LIG d   1      -2.110  79.200 111.988  0.00  0.00    -0.090 HD
ATOM     21  H   LIG d   1      -1.996  80.196 110.692  0.00  0.00    -0.090 HD
ENDBRANCH   5  18
BRANCH   3  22
ATOM     22  C   LIG d   1       2.542  80.857 109.973  0.00  0.00     0.382 C 
ATOM     23  O   LIG d   1       3.336  81.751 109.592  0.00  0.00    -0.241 OA
ATOM     24  O   LIG d   1       2.577  79.735 109.432  0.00  0.00    -0.241 OA
ENDBRANCH   3  22
TORSDOF 7
ENDMDL
MODEL 7
REMARK VINA RESULT:      -4.5      4.377      5.710
REMARK  7 active torsions:
REMARK  status: ('A' for Active; 'I' for Inactive)
REMARK    1  A    between atoms: C_2  and  C_3 
REMARK    2  A    between atoms: C_3  and  O_6 
REMARK    3  A    between atoms: C_3  and  C_4 
REMARK    4  A    between atoms: C_7  and  O_6 
REMARK    5  A    between atoms: C_9  and  C_10 
REMARK    6  A    between atoms: N_15  and  C_14 
REMARK    7  A    between atoms: N_20  and  C_19 
REMARK       I    between atoms: C_22  and  N_20 
ROOT
ATOM      1  C   LIG d   1      -0.601  79.468 115.684  0.00  0.00     0.161 C 
ATOM      2  C   LIG d   1      -1.226  80.701 115.435  0.00  0.00     0.016 C 
ATOM      3  C   LIG d   1      -2.014  80.956 114.289  0.00  0.00     0.038 C 
ATOM      4  C   LIG d   1      -2.356  79.941 113.383  0.00  0.00     0.028 C 
ATOM      5  C   LIG d   1      -1.335  78.810 113.327  0.00  0.00    -0.047 C 
ATOM      6  C   LIG d   1      -1.054  78.315 114.764  0.00  0.00     0.091 C 
ENDROOT
BRANCH   1   7
ATOM      7  O   LIG d   1      -0.775  79.103 117.067  0.00  0.00    -0.368 OA
BRANCH   7   8
ATOM      8  C   LIG d   1       0.297  79.480 117.966  0.00  0.00     0.119 C 
BRANCH   8   9
ATOM      9  C   LIG d   1       0.455  78.347 118.999  0.00  0.00     0.028 C 
ATOM     10  C   LIG d   1       0.588  76.965 118.338  0.00  0.00     0.006 C 
ENDBRANCH   8   9
BRANCH   8  11
ATOM     11  C   LIG d   1      -0.071  80.723 118.781  0.00  0.00     0.028 C 
ATOM     12  C   LIG d   1       0.856  81.916 118.499  0.00  0.00     0.006 C 
ENDBRANCH   8  11
ENDBRANCH   7   8
ENDBRANCH   1   7
BRANCH   6  13
ATOM     13  N   LIG d   1      -0.003  77.265 114.807  0.00  0.00    -0.311 N 
ATOM     14  C   LIG d   1      -0.267  75.961 114.751  0.00  0.00     0.210 C 
ATOM     15  C   LIG d   1       0.961  75.049 114.831  0.00  0.00     0.109 C 
ATOM     16  O   LIG d   1      -1.399  75.474 114.612  0.00  0.00    -0.276 OA
ATOM     17  H   LIG d   1       0.946  77.573 114.888  0.00  0.00     0.149 HD
ENDBRANCH   6  13
BRANCH   5  18
ATOM     18  N   LIG d   1      -1.883  77.758 112.450  0.00  0.00     0.381 N 
ATOM     19  H   LIG d   1      -1.436  77.795 111.556  0.00  0.00    -0.090 HD
ATOM     20  H   LIG d   1      -2.866  77.924 112.318  0.00  0.00    -0.090 HD
ATOM     21  H   LIG d   1      -1.743  76.862 112.863  0.00  0.00    -0.090 HD
ENDBRANCH   5  18
BRANCH   3  22
ATOM     22  C   LIG d   1      -2.435  82.250 114.018  0.00  0.00     0.382 C 
ATOM     23  O   LIG d   1      -2.069  82.820 112.963  0.00  0.00    -0.241 OA
ATOM     24  O   LIG d   1      -3.139  82.869 114.838  0.00  0.00    -0.241 OA
ENDBRANCH   3  22
TORSDOF 7
ENDMDL
MODEL 8
REMARK VINA RESULT:      -4.5      1.872      2.167
REMARK  7 active torsions:
REMARK  status: ('A' for Active; 'I' for Inactive)
REMARK    1  A    between atoms: C_2  and  C_3 
REMARK    2  A    between atoms: C_3  and  O_6 
REMARK    3  A    between atoms: C_3  and  C_4 
REMARK    4  A    between atoms: C_7  and  O_6 
REMARK    5  A    between atoms: C_9  and  C_10 
REMARK    6  A    between atoms: N_15  and  C_14 
REMARK    7  A    between atoms: N_20  and  C_19 
REMARK       I    between atoms: C_22  and  N_20 
ROOT
ATOM      1  C   LIG d   1      -1.433  82.701 113.246  0.00  0.00     0.161 C 
ATOM      2  C   LIG d   1      -1.978  81.728 114.101  0.00  0.00     0.016 C 
ATOM      3  C   LIG d   1      -1.813  80.338 113.903  0.00  0.00     0.038 C 
ATOM      4  C   LIG d   1      -0.959  79.826 112.915  0.00  0.00     0.028 C 
ATOM      5  C   LIG d   1      -0.791  80.756 111.718  0.00  0.00    -0.047 C 
ATOM      6  C   LIG d   1      -0.406  82.164 112.227  0.00  0.00     0.091 C 
ENDROOT
BRANCH   1   7
ATOM      7  O   LIG d   1      -0.855  83.767 114.025  0.00  0.00    -0.368 OA
BRANCH   7   8
ATOM      8  C   LIG d   1       0.389  83.461 114.702  0.00  0.00     0.119 C 
BRANCH   8   9
ATOM      9  C   LIG d   1       0.124  83.547 116.217  0.00  0.00     0.028 C 
ATOM     10  C   LIG d   1       1.043  82.617 117.028  0.00  0.00     0.006 C 
ENDBRANCH   8   9
BRANCH   8  11
ATOM     11  C   LIG d   1       1.455  84.521 114.415  0.00  0.00     0.028 C 
ATOM     12  C   LIG d   1       2.787  83.915 113.946  0.00  0.00     0.006 C 
ENDBRANCH   8  11
ENDBRANCH   7   8
ENDBRANCH   1   7
BRANCH   6  13
ATOM     13  N   LIG d   1      -0.304  83.156 111.125  0.00  0.00    -0.311 N 
ATOM     14  C   LIG d   1       0.843  83.474 110.529  0.00  0.00     0.210 C 
ATOM     15  C   LIG d   1       0.728  84.536 109.430  0.00  0.00     0.109 C 
ATOM     16  O   LIG d   1       1.940  82.955 110.783  0.00  0.00    -0.276 OA
ATOM     17  H   LIG d   1      -1.152  83.604 110.835  0.00  0.00     0.149 HD
ENDBRANCH   6  13
BRANCH   5  18
ATOM     18  N   LIG d   1       0.229  80.163 110.832  0.00  0.00     0.381 N 
ATOM     19  H   LIG d   1       0.223  80.631 109.948  0.00  0.00    -0.090 HD
ATOM     20  H   LIG d   1       0.003  79.196 110.679  0.00  0.00    -0.090 HD
ATOM     21  H   LIG d   1       1.130  80.238 111.251  0.00  0.00    -0.090 HD
ENDBRANCH   5  18
BRANCH   3  22
ATOM     22  C   LIG d   1      -2.539  79.443 114.675  0.00  0.00     0.382 C 
ATOM     23  O   LIG d   1      -2.530  78.221 114.392  0.00  0.00    -0.241 OA
ATOM     24  O   LIG d   1      -3.237  79.849 115.623  0.00  0.00    -0.241 OA
ENDBRANCH   3  22
TORSDOF 7
ENDMDL
MODEL 9
REMARK VINA RESULT:      -4.4      2.725      3.696
REMARK  7 active torsions:
REMARK  status: ('A' for Active; 'I' for Inactive)
REMARK    1  A    between atoms: C_2  and  C_3 
REMARK    2  A    between atoms: C_3  and  O_6 
REMARK    3  A    between atoms: C_3  and  C_4 
REMARK    4  A    between atoms: C_7  and  O_6 
REMARK    5  A    between atoms: C_9  and  C_10 
REMARK    6  A    between atoms: N_15  and  C_14 
REMARK    7  A    between atoms: N_20  and  C_19 
REMARK       I    between atoms: C_22  and  N_20 
ROOT
ATOM      1  C   LIG d   1      -1.883  80.991 114.747  0.00  0.00     0.161 C 
ATOM      2  C   LIG d   1      -2.256  79.674 115.060  0.00  0.00     0.016 C 
ATOM      3  C   LIG d   1      -2.106  78.589 114.166  0.00  0.00     0.038 C 
ATOM      4  C   LIG d   1      -1.428  78.723 112.945  0.00  0.00     0.028 C 
ATOM      5  C   LIG d   1      -1.484  80.135 112.373  0.00  0.00    -0.047 C 
ATOM      6  C   LIG d   1      -1.040  81.137 113.463  0.00  0.00     0.091 C 
ENDROOT
BRANCH   1   7
ATOM      7  O   LIG d   1      -1.196  81.584 115.868  0.00  0.00    -0.368 OA
BRANCH   7   8
ATOM      8  C   LIG d   1       0.181  81.178 116.058  0.00  0.00     0.119 C 
BRANCH   8   9
ATOM      9  C   LIG d   1       0.306  80.617 117.487  0.00  0.00     0.028 C 
ATOM     10  C   LIG d   1      -0.937  80.912 118.344  0.00  0.00     0.006 C 
ENDBRANCH   8   9
BRANCH   8  11
ATOM     11  C   LIG d   1       1.128  82.381 116.011  0.00  0.00     0.028 C 
ATOM     12  C   LIG d   1       0.398  83.721 116.193  0.00  0.00     0.006 C 
ENDBRANCH   8  11
ENDBRANCH   7   8
ENDBRANCH   1   7
BRANCH   6  13
ATOM     13  N   LIG d   1      -1.146  82.549 113.013  0.00  0.00    -0.311 N 
ATOM     14  C   LIG d   1      -0.128  83.230 112.489  0.00  0.00     0.210 C 
ATOM     15  C   LIG d   1      -0.448  84.679 112.110  0.00  0.00     0.109 C 
ATOM     16  O   LIG d   1       0.999  82.762 112.273  0.00  0.00    -0.276 OA
ATOM     17  H   LIG d   1      -2.035  82.997 113.123  0.00  0.00     0.149 HD
ENDBRANCH   6  13
BRANCH   5  18
ATOM     18  N   LIG d   1      -0.624  80.165 111.175  0.00  0.00     0.381 N 
ATOM     19  H   LIG d   1       0.096  80.850 111.292  0.00  0.00    -0.090 HD
ATOM     20  H   LIG d   1      -1.182  80.426 110.381  0.00  0.00    -0.090 HD
ATOM     21  H   LIG d   1      -0.218  79.268 111.024  0.00  0.00    -0.090 HD
ENDBRANCH   5  18
BRANCH   3  22
ATOM     22  C   LIG d   1      -2.673  77.361 114.473  0.00  0.00     0.382 C 
ATOM     23  O   LIG d   1      -2.412  76.807 115.568  0.00  0.00    -0.241 OA
ATOM     24  O   LIG d   1      -3.406  76.781 113.651  0.00  0.00    -0.241 OA
ENDBRANCH   3  22
TORSDOF 7
ENDMDL
