MODEL 1
REMARK VINA RESULT:      -4.6      0.000      0.000
REMARK  7 active torsions:
REMARK  status: ('A' for Active; 'I' for Inactive)
REMARK    1  A    between atoms: C_2  and  C_3 
REMARK    2  A    between atoms: C_3  and  O_6 
REMARK    3  A    between atoms: C_3  and  C_4 
REMARK    4  A    between atoms: C_7  and  O_6 
REMARK    5  A    between atoms: C_9  and  C_10 
REMARK    6  A    between atoms: N_15  and  C_14 
REMARK    7  A    between atoms: N_20  and  C_19 
REMARK       I    between atoms: C_22  and  N_20 
ROOT
ATOM      1  C   LIG d   1      -1.934  78.328 114.306  0.00  0.00     0.161 C 
ATOM      2  C   LIG d   1      -2.945  77.358 114.406  0.00  0.00     0.016 C 
ATOM      3  C   LIG d   1      -3.000  76.396 115.440  0.00  0.00     0.038 C 
ATOM      4  C   LIG d   1      -2.126  76.434 116.536  0.00  0.00     0.028 C 
ATOM      5  C   LIG d   1      -0.784  77.084 116.218  0.00  0.00    -0.047 C 
ATOM      6  C   LIG d   1      -1.035  78.457 115.553  0.00  0.00     0.091 C 
ENDROOT
BRANCH   1   7
ATOM      7  O   LIG d   1      -2.514  79.605 113.973  0.00  0.00    -0.368 OA
BRANCH   7   8
ATOM      8  C   LIG d   1      -2.342  80.046 112.603  0.00  0.00     0.119 C 
BRANCH   8   9
ATOM      9  C   LIG d   1      -1.306  79.115 111.944  0.00  0.00     0.028 C 
ATOM     10  C   LIG d   1      -1.909  78.280 110.802  0.00  0.00     0.006 C 
ENDBRANCH   8   9
BRANCH   8  11
ATOM     11  C   LIG d   1      -1.726  81.446 112.541  0.00  0.00     0.028 C 
ATOM     12  C   LIG d   1      -0.223  81.423 112.223  0.00  0.00     0.006 C 
ENDBRANCH   8  11
ENDBRANCH   7   8
ENDBRANCH   1   7
BRANCH   6  13
ATOM     13  N   LIG d   1       0.225  79.122 115.133  0.00  0.00    -0.311 N 
ATOM     14  C   LIG d   1       0.868  80.016 115.883  0.00  0.00     0.210 C 
ATOM     15  C   LIG d   1       2.138  80.596 115.253  0.00  0.00     0.109 C 
ATOM     16  O   LIG d   1       0.524  80.360 117.024  0.00  0.00    -0.276 OA
ATOM     17  H   LIG d   1       0.592  78.878 114.234  0.00  0.00     0.149 HD
ENDBRANCH   6  13
BRANCH   5  18
ATOM     18  N   LIG d   1      -0.026  77.182 117.480  0.00  0.00     0.381 N 
ATOM     19  H   LIG d   1      -0.636  77.017 118.255  0.00  0.00    -0.090 HD
ATOM     20  H   LIG d   1       0.346  78.112 117.564  0.00  0.00    -0.090 HD
ATOM     21  H   LIG d   1       0.717  76.518 117.484  0.00  0.00    -0.090 HD
ENDBRANCH   5  18
BRANCH   3  22
ATOM     22  C   LIG d   1      -3.914  75.356 115.363  0.00  0.00     0.382 C 
ATOM     23  O   LIG d   1      -4.440  75.063 114.261  0.00  0.00    -0.241 OA
ATOM     24  O   LIG d   1      -4.253  74.735 116.388  0.00  0.00    -0.241 OA
ENDBRANCH   3  22
TORSDOF 7
ENDMDL
MODEL 2
REMARK VINA RESULT:      -4.6      4.223      7.699
REMARK  7 active torsions:
REMARK  status: ('A' for Active; 'I' for Inactive)
REMARK    1  A    between atoms: C_2  and  C_3 
REMARK    2  A    between atoms: C_3  and  O_6 
REMARK    3  A    between atoms: C_3  and  C_4 
REMARK    4  A    between atoms: C_7  and  O_6 
REMARK    5  A    between atoms: C_9  and  C_10 
REMARK    6  A    between atoms: N_15  and  C_14 
REMARK    7  A    between atoms: N_20  and  C_19 
REMARK       I    between atoms: C_22  and  N_20 
ROOT
ATOM      1  C   LIG d   1       1.596  81.610 112.722  0.00  0.00     0.161 C 
ATOM      2  C   LIG d   1       2.792  81.393 112.018  0.00  0.00     0.016 C 
ATOM      3  C   LIG d   1       3.016  81.860 110.703  0.00  0.00     0.038 C 
ATOM      4  C   LIG d   1       2.110  82.712 110.054  0.00  0.00     0.028 C 
ATOM      5  C   LIG d   1       0.671  82.542 110.530  0.00  0.00    -0.047 C 
ATOM      6  C   LIG d   1       0.639  82.632 112.073  0.00  0.00     0.091 C 
ENDROOT
BRANCH   1   7
ATOM      7  O   LIG d   1       1.891  81.993 114.080  0.00  0.00    -0.368 OA
BRANCH   7   8
ATOM      8  C   LIG d   1       2.350  80.933 114.955  0.00  0.00     0.119 C 
BRANCH   8   9
ATOM      9  C   LIG d   1       1.113  80.126 115.394  0.00  0.00     0.028 C 
ATOM     10  C   LIG d   1       1.306  79.455 116.765  0.00  0.00     0.006 C 
ENDBRANCH   8   9
BRANCH   8  11
ATOM     11  C   LIG d   1       2.946  81.498 116.248  0.00  0.00     0.028 C 
ATOM     12  C   LIG d   1       2.982  83.034 116.267  0.00  0.00     0.006 C 
ENDBRANCH   8  11
ENDBRANCH   7   8
ENDBRANCH   1   7
BRANCH   6  13
ATOM     13  N   LIG d   1      -0.719  82.392 112.627  0.00  0.00    -0.311 N 
ATOM     14  C   LIG d   1      -1.419  81.283 112.396  0.00  0.00     0.210 C 
ATOM     15  C   LIG d   1      -2.806  81.247 113.046  0.00  0.00     0.109 C 
ATOM     16  O   LIG d   1      -1.011  80.312 111.742  0.00  0.00    -0.276 OA
ATOM     17  H   LIG d   1      -1.114  83.116 113.195  0.00  0.00     0.149 HD
ENDBRANCH   6  13
BRANCH   5  18
ATOM     18  N   LIG d   1      -0.141  83.584 109.873  0.00  0.00     0.381 N 
ATOM     19  H   LIG d   1      -0.229  83.380 108.898  0.00  0.00    -0.090 HD
ATOM     20  H   LIG d   1       0.324  84.469 109.970  0.00  0.00    -0.090 HD
ATOM     21  H   LIG d   1      -1.044  83.627 110.293  0.00  0.00    -0.090 HD
ENDBRANCH   5  18
BRANCH   3  22
ATOM     22  C   LIG d   1       4.140  81.442 110.007  0.00  0.00     0.382 C 
ATOM     23  O   LIG d   1       4.922  82.289 109.512  0.00  0.00    -0.241 OA
ATOM     24  O   LIG d   1       4.359  80.228 109.831  0.00  0.00    -0.241 OA
ENDBRANCH   3  22
TORSDOF 7
ENDMDL
MODEL 3
REMARK VINA RESULT:      -4.5      2.591      4.245
REMARK  7 active torsions:
REMARK  status: ('A' for Active; 'I' for Inactive)
REMARK    1  A    between atoms: C_2  and  C_3 
REMARK    2  A    between atoms: C_3  and  O_6 
REMARK    3  A    between atoms: C_3  and  C_4 
REMARK    4  A    between atoms: C_7  and  O_6 
REMARK    5  A    between atoms: C_9  and  C_10 
REMARK    6  A    between atoms: N_15  and  C_14 
REMARK    7  A    between atoms: N_20  and  C_19 
REMARK       I    between atoms: C_22  and  N_20 
ROOT
ATOM      1  C   LIG d   1      -0.281  78.159 115.963  0.00  0.00     0.161 C 
ATOM      2  C   LIG d   1      -1.485  77.996 115.257  0.00  0.00     0.016 C 
ATOM      3  C   LIG d   1      -2.175  76.766 115.169  0.00  0.00     0.038 C 
ATOM      4  C   LIG d   1      -1.784  75.641 115.911  0.00  0.00     0.028 C 
ATOM      5  C   LIG d   1      -0.295  75.618 116.237  0.00  0.00    -0.047 C 
ATOM      6  C   LIG d   1       0.101  76.971 116.871  0.00  0.00     0.091 C 
ENDROOT
BRANCH   1   7
ATOM      7  O   LIG d   1      -0.324  79.380 116.728  0.00  0.00    -0.368 OA
BRANCH   7   8
ATOM      8  C   LIG d   1      -0.744  79.253 118.108  0.00  0.00     0.119 C 
BRANCH   8   9
ATOM      9  C   LIG d   1      -2.175  79.816 118.211  0.00  0.00     0.028 C 
ATOM     10  C   LIG d   1      -3.221  78.717 118.464  0.00  0.00     0.006 C 
ENDBRANCH   8   9
BRANCH   8  11
ATOM     11  C   LIG d   1       0.104  80.133 119.032  0.00  0.00     0.028 C 
ATOM     12  C   LIG d   1      -0.292  81.617 118.970  0.00  0.00     0.006 C 
ENDBRANCH   8  11
ENDBRANCH   7   8
ENDBRANCH   1   7
BRANCH   6  13
ATOM     13  N   LIG d   1       1.560  77.065 117.143  0.00  0.00    -0.311 N 
ATOM     14  C   LIG d   1       2.097  76.851 118.343  0.00  0.00     0.210 C 
ATOM     15  C   LIG d   1       3.618  77.019 118.409  0.00  0.00     0.109 C 
ATOM     16  O   LIG d   1       1.461  76.508 119.351  0.00  0.00    -0.276 OA
ATOM     17  H   LIG d   1       2.152  77.308 116.373  0.00  0.00     0.149 HD
ENDBRANCH   6  13
BRANCH   5  18
ATOM     18  N   LIG d   1      -0.051  74.468 117.128  0.00  0.00     0.381 N 
ATOM     19  H   LIG d   1      -0.241  74.728 118.075  0.00  0.00    -0.090 HD
ATOM     20  H   LIG d   1       0.917  74.205 117.061  0.00  0.00    -0.090 HD
ATOM     21  H   LIG d   1      -0.630  73.703 116.862  0.00  0.00    -0.090 HD
ENDBRANCH   5  18
BRANCH   3  22
ATOM     22  C   LIG d   1      -3.247  76.640 114.298  0.00  0.00     0.382 C 
ATOM     23  O   LIG d   1      -4.025  75.660 114.399  0.00  0.00    -0.241 OA
ATOM     24  O   LIG d   1      -3.421  77.470 113.386  0.00  0.00    -0.241 OA
ENDBRANCH   3  22
TORSDOF 7
ENDMDL
MODEL 4
REMARK VINA RESULT:      -4.5      2.182      5.179
REMARK  7 active torsions:
REMARK  status: ('A' for Active; 'I' for Inactive)
REMARK    1  A    between atoms: C_2  and  C_3 
REMARK    2  A    between atoms: C_3  and  O_6 
REMARK    3  A    between atoms: C_3  and  C_4 
REMARK    4  A    between atoms: C_7  and  O_6 
REMARK    5  A    between atoms: C_9  and  C_10 
REMARK    6  A    between atoms: N_15  and  C_14 
REMARK    7  A    between atoms: N_20  and  C_19 
REMARK       I    between atoms: C_22  and  N_20 
ROOT
ATOM      1  C   LIG d   1      -1.786  77.165 115.977  0.00  0.00     0.161 C 
ATOM      2  C   LIG d   1      -2.290  77.342 114.678  0.00  0.00     0.016 C 
ATOM      3  C   LIG d   1      -1.812  78.328 113.785  0.00  0.00     0.038 C 
ATOM      4  C   LIG d   1      -0.686  79.112 114.079  0.00  0.00     0.028 C 
ATOM      5  C   LIG d   1      -0.464  79.314 115.574  0.00  0.00    -0.047 C 
ATOM      6  C   LIG d   1      -0.483  77.937 116.276  0.00  0.00     0.091 C 
ENDROOT
BRANCH   1   7
ATOM      7  O   LIG d   1      -1.608  75.760 116.246  0.00  0.00    -0.368 OA
BRANCH   7   8
ATOM      8  C   LIG d   1      -2.490  75.186 117.241  0.00  0.00     0.119 C 
BRANCH   8   9
ATOM      9  C   LIG d   1      -3.452  76.297 117.705  0.00  0.00     0.028 C 
ATOM     10  C   LIG d   1      -3.271  76.648 119.191  0.00  0.00     0.006 C 
ENDBRANCH   8   9
BRANCH   8  11
ATOM     11  C   LIG d   1      -1.717  74.769 118.496  0.00  0.00     0.028 C 
ATOM     12  C   LIG d   1      -0.240  74.455 118.210  0.00  0.00     0.006 C 
ENDBRANCH   8  11
ENDBRANCH   7   8
ENDBRANCH   1   7
BRANCH   6  13
ATOM     13  N   LIG d   1      -0.357  78.051 117.752  0.00  0.00    -0.311 N 
ATOM     14  C   LIG d   1       0.802  77.936 118.399  0.00  0.00     0.210 C 
ATOM     15  C   LIG d   1       0.707  78.066 119.923  0.00  0.00     0.109 C 
ATOM     16  O   LIG d   1       1.903  77.770 117.854  0.00  0.00    -0.276 OA
ATOM     17  H   LIG d   1      -1.197  78.217 118.271  0.00  0.00     0.149 HD
ENDBRANCH   6  13
BRANCH   5  18
ATOM     18  N   LIG d   1       0.815  80.030 115.741  0.00  0.00     0.381 N 
ATOM     19  H   LIG d   1       1.571  79.448 115.439  0.00  0.00    -0.090 HD
ATOM     20  H   LIG d   1       0.947  80.237 116.716  0.00  0.00    -0.090 HD
ATOM     21  H   LIG d   1       0.805  80.875 115.213  0.00  0.00    -0.090 HD
ENDBRANCH   5  18
BRANCH   3  22
ATOM     22  C   LIG d   1      -2.488  78.566 112.597  0.00  0.00     0.382 C 
ATOM     23  O   LIG d   1      -3.579  77.990 112.371  0.00  0.00    -0.241 OA
ATOM     24  O   LIG d   1      -1.997  79.313 111.730  0.00  0.00    -0.241 OA
ENDBRANCH   3  22
TORSDOF 7
ENDMDL
MODEL 5
REMARK VINA RESULT:      -4.4      2.695      5.673
REMARK  7 active torsions:
REMARK  status: ('A' for Active; 'I' for Inactive)
REMARK    1  A    between atoms: C_2  and  C_3 
REMARK    2  A    between atoms: C_3  and  O_6 
REMARK    3  A    between atoms: C_3  and  C_4 
REMARK    4  A    between atoms: C_7  and  O_6 
REMARK    5  A    between atoms: C_9  and  C_10 
REMARK    6  A    between atoms: N_15  and  C_14 
REMARK    7  A    between atoms: N_20  and  C_19 
REMARK       I    between atoms: C_22  and  N_20 
ROOT
ATOM      1  C   LIG d   1      -2.430  78.753 116.366  0.00  0.00     0.161 C 
ATOM      2  C   LIG d   1      -2.717  79.658 115.331  0.00  0.00     0.016 C 
ATOM      3  C   LIG d   1      -2.246  79.501 114.007  0.00  0.00     0.038 C 
ATOM      4  C   LIG d   1      -1.577  78.339 113.591  0.00  0.00     0.028 C 
ATOM      5  C   LIG d   1      -0.830  77.634 114.718  0.00  0.00    -0.047 C 
ATOM      6  C   LIG d   1      -1.796  77.424 115.906  0.00  0.00     0.091 C 
ENDROOT
BRANCH   1   7
ATOM      7  O   LIG d   1      -3.622  78.499 117.137  0.00  0.00    -0.368 OA
BRANCH   7   8
ATOM      8  C   LIG d   1      -3.786  79.296 118.336  0.00  0.00     0.119 C 
BRANCH   8   9
ATOM      9  C   LIG d   1      -2.379  79.658 118.848  0.00  0.00     0.028 C 
ATOM     10  C   LIG d   1      -2.360  80.989 119.619  0.00  0.00     0.006 C 
ENDBRANCH   8   9
BRANCH   8  11
ATOM     11  C   LIG d   1      -4.430  78.481 119.462  0.00  0.00     0.028 C 
ATOM     12  C   LIG d   1      -3.549  77.312 119.930  0.00  0.00     0.006 C 
ENDBRANCH   8  11
ENDBRANCH   7   8
ENDBRANCH   1   7
BRANCH   6  13
ATOM     13  N   LIG d   1      -1.123  76.815 117.083  0.00  0.00    -0.311 N 
ATOM     14  C   LIG d   1      -1.348  75.568 117.493  0.00  0.00     0.210 C 
ATOM     15  C   LIG d   1      -0.564  75.146 118.740  0.00  0.00     0.109 C 
ATOM     16  O   LIG d   1      -2.098  74.761 116.924  0.00  0.00    -0.276 OA
ATOM     17  H   LIG d   1      -0.475  77.390 117.586  0.00  0.00     0.149 HD
ENDBRANCH   6  13
BRANCH   5  18
ATOM     18  N   LIG d   1      -0.296  76.371 114.176  0.00  0.00     0.381 N 
ATOM     19  H   LIG d   1       0.303  75.939 114.851  0.00  0.00    -0.090 HD
ATOM     20  H   LIG d   1       0.248  76.573 113.356  0.00  0.00    -0.090 HD
ATOM     21  H   LIG d   1      -1.044  75.756 113.944  0.00  0.00    -0.090 HD
ENDBRANCH   5  18
BRANCH   3  22
ATOM     22  C   LIG d   1      -2.408  80.530 113.093  0.00  0.00     0.382 C 
ATOM     23  O   LIG d   1      -1.667  80.594 112.082  0.00  0.00    -0.241 OA
ATOM     24  O   LIG d   1      -3.256  81.421 113.289  0.00  0.00    -0.241 OA
ENDBRANCH   3  22
TORSDOF 7
ENDMDL
MODEL 6
REMARK VINA RESULT:      -4.3      2.472      5.317
REMARK  7 active torsions:
REMARK  status: ('A' for Active; 'I' for Inactive)
REMARK    1  A    between atoms: C_2  and  C_3 
REMARK    2  A    between atoms: C_3  and  O_6 
REMARK    3  A    between atoms: C_3  and  C_4 
REMARK    4  A    between atoms: C_7  and  O_6 
REMARK    5  A    between atoms: C_9  and  C_10 
REMARK    6  A    between atoms: N_15  and  C_14 
REMARK    7  A    between atoms: N_20  and  C_19 
REMARK       I    between atoms: C_22  and  N_20 
ROOT
ATOM      1  C   LIG d   1      -0.797  77.251 115.977  0.00  0.00     0.161 C 
ATOM      2  C   LIG d   1      -1.071  77.960 114.795  0.00  0.00     0.016 C 
ATOM      3  C   LIG d   1      -2.258  77.794 114.045  0.00  0.00     0.038 C 
ATOM      4  C   LIG d   1      -3.326  77.011 114.510  0.00  0.00     0.028 C 
ATOM      5  C   LIG d   1      -2.890  75.886 115.443  0.00  0.00    -0.047 C 
ATOM      6  C   LIG d   1      -1.998  76.476 116.559  0.00  0.00     0.091 C 
ENDROOT
BRANCH   1   7
ATOM      7  O   LIG d   1      -0.250  78.144 116.967  0.00  0.00    -0.368 OA
BRANCH   7   8
ATOM      8  C   LIG d   1       1.132  77.916 117.336  0.00  0.00     0.119 C 
BRANCH   8   9
ATOM      9  C   LIG d   1       1.171  77.678 118.858  0.00  0.00     0.028 C 
ATOM     10  C   LIG d   1       1.951  76.407 119.234  0.00  0.00     0.006 C 
ENDBRANCH   8   9
BRANCH   8  11
ATOM     11  C   LIG d   1       1.986  79.165 117.099  0.00  0.00     0.028 C 
ATOM     12  C   LIG d   1       1.222  80.470 117.375  0.00  0.00     0.006 C 
ENDBRANCH   8  11
ENDBRANCH   7   8
ENDBRANCH   1   7
BRANCH   6  13
ATOM     13  N   LIG d   1      -1.460  75.430 117.467  0.00  0.00    -0.311 N 
ATOM     14  C   LIG d   1      -1.786  75.339 118.755  0.00  0.00     0.210 C 
ATOM     15  C   LIG d   1      -1.103  74.199 119.516  0.00  0.00     0.109 C 
ATOM     16  O   LIG d   1      -2.601  76.075 119.332  0.00  0.00    -0.276 OA
ATOM     17  H   LIG d   1      -0.816  74.772 117.074  0.00  0.00     0.149 HD
ENDBRANCH   6  13
BRANCH   5  18
ATOM     18  N   LIG d   1      -4.111  75.239 115.960  0.00  0.00     0.381 N 
ATOM     19  H   LIG d   1      -4.765  75.105 115.215  0.00  0.00    -0.090 HD
ATOM     20  H   LIG d   1      -4.533  75.841 116.645  0.00  0.00    -0.090 HD
ATOM     21  H   LIG d   1      -3.883  74.362 116.374  0.00  0.00    -0.090 HD
ENDBRANCH   5  18
BRANCH   3  22
ATOM     22  C   LIG d   1      -2.369  78.383 112.795  0.00  0.00     0.382 C 
ATOM     23  O   LIG d   1      -2.911  79.508 112.678  0.00  0.00    -0.241 OA
ATOM     24  O   LIG d   1      -1.975  77.783 111.777  0.00  0.00    -0.241 OA
ENDBRANCH   3  22
TORSDOF 7
ENDMDL
MODEL 7
REMARK VINA RESULT:      -4.3      2.446      4.608
REMARK  7 active torsions:
REMARK  status: ('A' for Active; 'I' for Inactive)
REMARK    1  A    between atoms: C_2  and  C_3 
REMARK    2  A    between atoms: C_3  and  O_6 
REMARK    3  A    between atoms: C_3  and  C_4 
REMARK    4  A    between atoms: C_7  and  O_6 
REMARK    5  A    between atoms: C_9  and  C_10 
REMARK    6  A    between atoms: N_15  and  C_14 
REMARK    7  A    between atoms: N_20  and  C_19 
REMARK       I    between atoms: C_22  and  N_20 
ROOT
ATOM      1  C   LIG d   1       0.271  78.404 116.450  0.00  0.00     0.161 C 
ATOM      2  C   LIG d   1      -0.846  78.642 115.633  0.00  0.00     0.016 C 
ATOM      3  C   LIG d   1      -1.684  77.614 115.143  0.00  0.00     0.038 C 
ATOM      4  C   LIG d   1      -1.549  76.283 115.564  0.00  0.00     0.028 C 
ATOM      5  C   LIG d   1      -0.129  75.923 115.988  0.00  0.00    -0.047 C 
ATOM      6  C   LIG d   1       0.370  76.970 117.011  0.00  0.00     0.091 C 
ENDROOT
BRANCH   1   7
ATOM      7  O   LIG d   1       0.304  79.365 117.524  0.00  0.00    -0.368 OA
BRANCH   7   8
ATOM      8  C   LIG d   1       1.536  80.114 117.672  0.00  0.00     0.119 C 
BRANCH   8   9
ATOM      9  C   LIG d   1       1.156  81.562 118.038  0.00  0.00     0.028 C 
ATOM     10  C   LIG d   1      -0.178  81.644 118.799  0.00  0.00     0.006 C 
ENDBRANCH   8   9
BRANCH   8  11
ATOM     11  C   LIG d   1       2.289  80.216 116.342  0.00  0.00     0.028 C 
ATOM     12  C   LIG d   1       3.731  79.695 116.433  0.00  0.00     0.006 C 
ENDBRANCH   8  11
ENDBRANCH   7   8
ENDBRANCH   1   7
BRANCH   6  13
ATOM     13  N   LIG d   1       1.781  76.740 117.414  0.00  0.00    -0.311 N 
ATOM     14  C   LIG d   1       2.183  76.694 118.683  0.00  0.00     0.210 C 
ATOM     15  C   LIG d   1       3.685  76.466 118.879  0.00  0.00     0.109 C 
ATOM     16  O   LIG d   1       1.432  76.787 119.666  0.00  0.00    -0.276 OA
ATOM     17  H   LIG d   1       2.452  76.623 116.680  0.00  0.00     0.149 HD
ENDBRANCH   6  13
BRANCH   5  18
ATOM     18  N   LIG d   1      -0.160  74.552 116.532  0.00  0.00     0.381 N 
ATOM     19  H   LIG d   1      -0.968  74.071 116.191  0.00  0.00    -0.090 HD
ATOM     20  H   LIG d   1      -0.222  74.602 117.534  0.00  0.00    -0.090 HD
ATOM     21  H   LIG d   1       0.665  74.062 116.267  0.00  0.00    -0.090 HD
ENDBRANCH   5  18
BRANCH   3  22
ATOM     22  C   LIG d   1      -2.647  77.909 114.190  0.00  0.00     0.382 C 
ATOM     23  O   LIG d   1      -3.406  77.004 113.764  0.00  0.00    -0.241 OA
ATOM     24  O   LIG d   1      -2.738  79.057 113.717  0.00  0.00    -0.241 OA
ENDBRANCH   3  22
TORSDOF 7
ENDMDL
MODEL 8
REMARK VINA RESULT:      -4.3      2.256      5.550
REMARK  7 active torsions:
REMARK  status: ('A' for Active; 'I' for Inactive)
REMARK    1  A    between atoms: C_2  and  C_3 
REMARK    2  A    between atoms: C_3  and  O_6 
REMARK    3  A    between atoms: C_3  and  C_4 
REMARK    4  A    between atoms: C_7  and  O_6 
REMARK    5  A    between atoms: C_9  and  C_10 
REMARK    6  A    between atoms: N_15  and  C_14 
REMARK    7  A    between atoms: N_20  and  C_19 
REMARK       I    between atoms: C_22  and  N_20 
ROOT
ATOM      1  C   LIG d   1       0.172  78.629 116.458  0.00  0.00     0.161 C 
ATOM      2  C   LIG d   1       1.194  79.586 116.347  0.00  0.00     0.016 C 
ATOM      3  C   LIG d   1       2.469  79.435 116.939  0.00  0.00     0.038 C 
ATOM      4  C   LIG d   1       2.862  78.240 117.560  0.00  0.00     0.028 C 
ATOM      5  C   LIG d   1       1.694  77.444 118.133  0.00  0.00    -0.047 C 
ATOM      6  C   LIG d   1       0.619  77.270 117.037  0.00  0.00     0.091 C 
ENDROOT
BRANCH   1   7
ATOM      7  O   LIG d   1      -0.465  78.443 115.178  0.00  0.00    -0.368 OA
BRANCH   7   8
ATOM      8  C   LIG d   1      -1.650  79.240 114.934  0.00  0.00     0.119 C 
BRANCH   8   9
ATOM      9  C   LIG d   1      -2.865  78.421 115.412  0.00  0.00     0.028 C 
ATOM     10  C   LIG d   1      -3.050  77.123 114.608  0.00  0.00     0.006 C 
ENDBRANCH   8   9
BRANCH   8  11
ATOM     11  C   LIG d   1      -1.874  79.461 113.436  0.00  0.00     0.028 C 
ATOM     12  C   LIG d   1      -2.538  80.811 113.125  0.00  0.00     0.006 C 
ENDBRANCH   8  11
ENDBRANCH   7   8
ENDBRANCH   1   7
BRANCH   6  13
ATOM     13  N   LIG d   1      -0.595  76.574 117.539  0.00  0.00    -0.311 N 
ATOM     14  C   LIG d   1      -0.982  75.374 117.111  0.00  0.00     0.210 C 
ATOM     15  C   LIG d   1      -2.273  74.846 117.744  0.00  0.00     0.109 C 
ATOM     16  O   LIG d   1      -0.361  74.682 116.290  0.00  0.00    -0.276 OA
ATOM     17  H   LIG d   1      -1.141  77.050 118.230  0.00  0.00     0.149 HD
ENDBRANCH   6  13
BRANCH   5  18
ATOM     18  N   LIG d   1       2.230  76.161 118.627  0.00  0.00     0.381 N 
ATOM     19  H   LIG d   1       1.512  75.657 119.108  0.00  0.00    -0.090 HD
ATOM     20  H   LIG d   1       2.974  76.347 119.276  0.00  0.00    -0.090 HD
ATOM     21  H   LIG d   1       2.572  75.618 117.864  0.00  0.00    -0.090 HD
ENDBRANCH   5  18
BRANCH   3  22
ATOM     22  C   LIG d   1       3.353  80.503 116.948  0.00  0.00     0.382 C 
ATOM     23  O   LIG d   1       2.973  81.628 117.354  0.00  0.00    -0.241 OA
ATOM     24  O   LIG d   1       4.513  80.367 116.515  0.00  0.00    -0.241 OA
ENDBRANCH   3  22
TORSDOF 7
ENDMDL
MODEL 9
REMARK VINA RESULT:      -4.3      3.960      7.745
REMARK  7 active torsions:
REMARK  status: ('A' for Active; 'I' for Inactive)
REMARK    1  A    between atoms: C_2  and  C_3 
REMARK    2  A    between atoms: C_3  and  O_6 
REMARK    3  A    between atoms: C_3  and  C_4 
REMARK    4  A    between atoms: C_7  and  O_6 
REMARK    5  A    between atoms: C_9  and  C_10 
REMARK    6  A    between atoms: N_15  and  C_14 
REMARK    7  A    between atoms: N_20  and  C_19 
REMARK       I    between atoms: C_22  and  N_20 
ROOT
ATOM      1  C   LIG d   1       1.868  81.769 112.807  0.00  0.00     0.161 C 
ATOM      2  C   LIG d   1       2.909  82.146 111.942  0.00  0.00     0.016 C 
ATOM      3  C   LIG d   1       2.896  81.892 110.551  0.00  0.00     0.038 C 
ATOM      4  C   LIG d   1       1.765  81.375 109.903  0.00  0.00     0.028 C 
ATOM      5  C   LIG d   1       0.888  80.515 110.807  0.00  0.00    -0.047 C 
ATOM      6  C   LIG d   1       0.578  81.303 112.100  0.00  0.00     0.091 C 
ENDROOT
BRANCH   1   7
ATOM      7  O   LIG d   1       1.579  82.844 113.721  0.00  0.00    -0.368 OA
BRANCH   7   8
ATOM      8  C   LIG d   1       2.160  82.730 115.044  0.00  0.00     0.119 C 
BRANCH   8   9
ATOM      9  C   LIG d   1       3.404  83.639 115.083  0.00  0.00     0.028 C 
ATOM     10  C   LIG d   1       4.276  83.387 116.324  0.00  0.00     0.006 C 
ENDBRANCH   8   9
BRANCH   8  11
ATOM     11  C   LIG d   1       2.683  81.314 115.302  0.00  0.00     0.028 C 
ATOM     12  C   LIG d   1       1.780  80.509 116.250  0.00  0.00     0.006 C 
ENDBRANCH   8  11
ENDBRANCH   7   8
ENDBRANCH   1   7
BRANCH   6  13
ATOM     13  N   LIG d   1      -0.206  80.503 113.077  0.00  0.00    -0.311 N 
ATOM     14  C   LIG d   1      -1.534  80.542 113.159  0.00  0.00     0.210 C 
ATOM     15  C   LIG d   1      -2.142  79.654 114.250  0.00  0.00     0.109 C 
ATOM     16  O   LIG d   1      -2.270  81.204 112.412  0.00  0.00    -0.276 OA
ATOM     17  H   LIG d   1       0.310  79.914 113.702  0.00  0.00     0.149 HD
ENDBRANCH   6  13
BRANCH   5  18
ATOM     18  N   LIG d   1      -0.322  80.156 110.044  0.00  0.00     0.381 N 
ATOM     19  H   LIG d   1      -1.127  80.228 110.633  0.00  0.00    -0.090 HD
ATOM     20  H   LIG d   1      -0.241  79.203 109.736  0.00  0.00    -0.090 HD
ATOM     21  H   LIG d   1      -0.421  80.760 109.258  0.00  0.00    -0.090 HD
ENDBRANCH   5  18
BRANCH   3  22
ATOM     22  C   LIG d   1       4.039  82.120 109.800  0.00  0.00     0.382 C 
ATOM     23  O   LIG d   1       4.338  83.288 109.451  0.00  0.00    -0.241 OA
ATOM     24  O   LIG d   1       4.752  81.168 109.430  0.00  0.00    -0.241 OA
ENDBRANCH   3  22
TORSDOF 7
ENDMDL
