MODEL 1
REMARK VINA RESULT:      -6.0      0.000      0.000
REMARK  7 active torsions:
REMARK  status: ('A' for Active; 'I' for Inactive)
REMARK    1  A    between atoms: C_2  and  C_3 
REMARK    2  A    between atoms: C_3  and  O_6 
REMARK    3  A    between atoms: C_3  and  C_4 
REMARK    4  A    between atoms: C_7  and  O_6 
REMARK    5  A    between atoms: C_9  and  C_10 
REMARK    6  A    between atoms: N_15  and  C_14 
REMARK    7  A    between atoms: N_20  and  C_19 
REMARK       I    between atoms: C_22  and  N_20 
ROOT
ATOM      1  C   LIG d   1      -1.283  77.763 113.586  0.00  0.00     0.161 C 
ATOM      2  C   LIG d   1      -1.908  79.020 113.556  0.00  0.00     0.016 C 
ATOM      3  C   LIG d   1      -1.745  79.946 112.499  0.00  0.00     0.038 C 
ATOM      4  C   LIG d   1      -1.062  79.612 111.321  0.00  0.00     0.028 C 
ATOM      5  C   LIG d   1       0.006  78.543 111.522  0.00  0.00    -0.047 C 
ATOM      6  C   LIG d   1      -0.623  77.337 112.258  0.00  0.00     0.091 C 
ENDROOT
BRANCH   1   7
ATOM      7  O   LIG d   1      -2.222  76.760 114.022  0.00  0.00    -0.368 OA
BRANCH   7   8
ATOM      8  C   LIG d   1      -2.000  76.213 115.345  0.00  0.00     0.119 C 
BRANCH   8   9
ATOM      9  C   LIG d   1      -1.217  74.897 115.176  0.00  0.00     0.028 C 
ATOM     10  C   LIG d   1      -0.713  74.337 116.518  0.00  0.00     0.006 C 
ENDBRANCH   8   9
BRANCH   8  11
ATOM     11  C   LIG d   1      -3.321  75.815 116.012  0.00  0.00     0.028 C 
ATOM     12  C   LIG d   1      -4.440  75.533 114.997  0.00  0.00     0.006 C 
ENDBRANCH   8  11
ENDBRANCH   7   8
ENDBRANCH   1   7
BRANCH   6  13
ATOM     13  N   LIG d   1       0.375  76.280 112.570  0.00  0.00    -0.311 N 
ATOM     14  C   LIG d   1       0.632  75.254 111.760  0.00  0.00     0.210 C 
ATOM     15  C   LIG d   1       1.682  74.267 112.282  0.00  0.00     0.109 C 
ATOM     16  O   LIG d   1       0.115  75.085 110.646  0.00  0.00    -0.276 OA
ATOM     17  H   LIG d   1       0.863  76.357 113.440  0.00  0.00     0.149 HD
ENDBRANCH   6  13
BRANCH   5  18
ATOM     18  N   LIG d   1       0.543  78.193 110.193  0.00  0.00     0.381 N 
ATOM     19  H   LIG d   1       1.116  77.376 110.264  0.00  0.00    -0.090 HD
ATOM     20  H   LIG d   1       1.115  78.951 109.864  0.00  0.00    -0.090 HD
ATOM     21  H   LIG d   1      -0.205  78.030 109.556  0.00  0.00    -0.090 HD
ENDBRANCH   5  18
BRANCH   3  22
ATOM     22  C   LIG d   1      -2.237  81.235 112.633  0.00  0.00     0.382 C 
ATOM     23  O   LIG d   1      -3.382  81.423 113.111  0.00  0.00    -0.241 OA
ATOM     24  O   LIG d   1      -1.568  82.210 112.242  0.00  0.00    -0.241 OA
ENDBRANCH   3  22
TORSDOF 7
ENDMDL
MODEL 2
REMARK VINA RESULT:      -5.3      2.395      3.547
REMARK  7 active torsions:
REMARK  status: ('A' for Active; 'I' for Inactive)
REMARK    1  A    between atoms: C_2  and  C_3 
REMARK    2  A    between atoms: C_3  and  O_6 
REMARK    3  A    between atoms: C_3  and  C_4 
REMARK    4  A    between atoms: C_7  and  O_6 
REMARK    5  A    between atoms: C_9  and  C_10 
REMARK    6  A    between atoms: N_15  and  C_14 
REMARK    7  A    between atoms: N_20  and  C_19 
REMARK       I    between atoms: C_22  and  N_20 
ROOT
ATOM      1  C   LIG d   1      -2.486  78.391 115.480  0.00  0.00     0.161 C 
ATOM      2  C   LIG d   1      -2.729  79.538 114.706  0.00  0.00     0.016 C 
ATOM      3  C   LIG d   1      -2.129  79.768 113.447  0.00  0.00     0.038 C 
ATOM      4  C   LIG d   1      -1.357  78.789 112.803  0.00  0.00     0.028 C 
ATOM      5  C   LIG d   1      -0.677  77.824 113.767  0.00  0.00    -0.047 C 
ATOM      6  C   LIG d   1      -1.734  77.262 114.745  0.00  0.00     0.091 C 
ENDROOT
BRANCH   1   7
ATOM      7  O   LIG d   1      -3.726  77.897 116.023  0.00  0.00    -0.368 OA
BRANCH   7   8
ATOM      8  C   LIG d   1      -3.956  78.159 117.429  0.00  0.00     0.119 C 
BRANCH   8   9
ATOM      9  C   LIG d   1      -4.440  79.617 117.555  0.00  0.00     0.028 C 
ATOM     10  C   LIG d   1      -3.928  80.297 118.836  0.00  0.00     0.006 C 
ENDBRANCH   8   9
BRANCH   8  11
ATOM     11  C   LIG d   1      -2.651  78.095 118.229  0.00  0.00     0.028 C 
ATOM     12  C   LIG d   1      -2.548  76.833 119.100  0.00  0.00     0.006 C 
ENDBRANCH   8  11
ENDBRANCH   7   8
ENDBRANCH   1   7
BRANCH   6  13
ATOM     13  N   LIG d   1      -1.138  76.373 115.776  0.00  0.00    -0.311 N 
ATOM     14  C   LIG d   1      -1.040  75.052 115.637  0.00  0.00     0.210 C 
ATOM     15  C   LIG d   1      -0.410  74.322 116.827  0.00  0.00     0.109 C 
ATOM     16  O   LIG d   1      -1.385  74.419 114.628  0.00  0.00    -0.276 OA
ATOM     17  H   LIG d   1      -0.803  76.807 116.614  0.00  0.00     0.149 HD
ENDBRANCH   6  13
BRANCH   5  18
ATOM     18  N   LIG d   1      -0.021  76.777 112.961  0.00  0.00     0.381 N 
ATOM     19  H   LIG d   1       0.614  76.257 113.533  0.00  0.00    -0.090 HD
ATOM     20  H   LIG d   1       0.505  77.215 112.225  0.00  0.00    -0.090 HD
ATOM     21  H   LIG d   1      -0.706  76.167 112.572  0.00  0.00    -0.090 HD
ENDBRANCH   5  18
BRANCH   3  22
ATOM     22  C   LIG d   1      -2.267  81.005 112.836  0.00  0.00     0.382 C 
ATOM     23  O   LIG d   1      -3.383  81.579 112.826  0.00  0.00    -0.241 OA
ATOM     24  O   LIG d   1      -1.300  81.535 112.256  0.00  0.00    -0.241 OA
ENDBRANCH   3  22
TORSDOF 7
ENDMDL
MODEL 3
REMARK VINA RESULT:      -5.2      3.428      6.348
REMARK  7 active torsions:
REMARK  status: ('A' for Active; 'I' for Inactive)
REMARK    1  A    between atoms: C_2  and  C_3 
REMARK    2  A    between atoms: C_3  and  O_6 
REMARK    3  A    between atoms: C_3  and  C_4 
REMARK    4  A    between atoms: C_7  and  O_6 
REMARK    5  A    between atoms: C_9  and  C_10 
REMARK    6  A    between atoms: N_15  and  C_14 
REMARK    7  A    between atoms: N_20  and  C_19 
REMARK       I    between atoms: C_22  and  N_20 
ROOT
ATOM      1  C   LIG d   1      -0.037  80.138 112.893  0.00  0.00     0.161 C 
ATOM      2  C   LIG d   1      -1.074  79.525 112.170  0.00  0.00     0.016 C 
ATOM      3  C   LIG d   1      -1.954  78.570 112.729  0.00  0.00     0.038 C 
ATOM      4  C   LIG d   1      -1.952  78.273 114.100  0.00  0.00     0.028 C 
ATOM      5  C   LIG d   1      -0.597  78.491 114.765  0.00  0.00    -0.047 C 
ATOM      6  C   LIG d   1      -0.090  79.909 114.418  0.00  0.00     0.091 C 
ENDROOT
BRANCH   1   7
ATOM      7  O   LIG d   1      -0.003  81.548 112.599  0.00  0.00    -0.368 OA
BRANCH   7   8
ATOM      8  C   LIG d   1       0.667  81.927 111.371  0.00  0.00     0.119 C 
BRANCH   8   9
ATOM      9  C   LIG d   1       2.103  82.347 111.738  0.00  0.00     0.028 C 
ATOM     10  C   LIG d   1       3.160  81.389 111.162  0.00  0.00     0.006 C 
ENDBRANCH   8   9
BRANCH   8  11
ATOM     11  C   LIG d   1       0.027  83.171 110.748  0.00  0.00     0.028 C 
ATOM     12  C   LIG d   1      -0.385  84.218 111.796  0.00  0.00     0.006 C 
ENDBRANCH   8  11
ENDBRANCH   7   8
ENDBRANCH   1   7
BRANCH   6  13
ATOM     13  N   LIG d   1       1.269  80.174 114.960  0.00  0.00    -0.311 N 
ATOM     14  C   LIG d   1       1.489  80.676 116.174  0.00  0.00     0.210 C 
ATOM     15  C   LIG d   1       2.964  80.889 116.527  0.00  0.00     0.109 C 
ATOM     16  O   LIG d   1       0.605  80.934 117.003  0.00  0.00    -0.276 OA
ATOM     17  H   LIG d   1       2.046  79.963 114.365  0.00  0.00     0.149 HD
ENDBRANCH   6  13
BRANCH   5  18
ATOM     18  N   LIG d   1      -0.772  78.278 116.214  0.00  0.00     0.381 N 
ATOM     19  H   LIG d   1      -1.730  78.066 116.412  0.00  0.00    -0.090 HD
ATOM     20  H   LIG d   1      -0.529  79.124 116.699  0.00  0.00    -0.090 HD
ATOM     21  H   LIG d   1      -0.189  77.531 116.522  0.00  0.00    -0.090 HD
ENDBRANCH   5  18
BRANCH   3  22
ATOM     22  C   LIG d   1      -2.823  77.871 111.905  0.00  0.00     0.382 C 
ATOM     23  O   LIG d   1      -2.500  77.625 110.718  0.00  0.00    -0.241 OA
ATOM     24  O   LIG d   1      -3.945  77.523 112.321  0.00  0.00    -0.241 OA
ENDBRANCH   3  22
TORSDOF 7
ENDMDL
MODEL 4
REMARK VINA RESULT:      -4.9      3.000      4.333
REMARK  7 active torsions:
REMARK  status: ('A' for Active; 'I' for Inactive)
REMARK    1  A    between atoms: C_2  and  C_3 
REMARK    2  A    between atoms: C_3  and  O_6 
REMARK    3  A    between atoms: C_3  and  C_4 
REMARK    4  A    between atoms: C_7  and  O_6 
REMARK    5  A    between atoms: C_9  and  C_10 
REMARK    6  A    between atoms: N_15  and  C_14 
REMARK    7  A    between atoms: N_20  and  C_19 
REMARK       I    between atoms: C_22  and  N_20 
ROOT
ATOM      1  C   LIG d   1      -1.945  77.396 115.763  0.00  0.00     0.161 C 
ATOM      2  C   LIG d   1      -2.417  77.343 114.442  0.00  0.00     0.016 C 
ATOM      3  C   LIG d   1      -1.856  78.095 113.384  0.00  0.00     0.038 C 
ATOM      4  C   LIG d   1      -0.679  78.841 113.548  0.00  0.00     0.028 C 
ATOM      5  C   LIG d   1      -0.462  79.323 114.978  0.00  0.00    -0.047 C 
ATOM      6  C   LIG d   1      -0.593  78.119 115.939  0.00  0.00     0.091 C 
ENDROOT
BRANCH   1   7
ATOM      7  O   LIG d   1      -1.876  76.064 116.311  0.00  0.00    -0.368 OA
BRANCH   7   8
ATOM      8  C   LIG d   1      -0.622  75.363 116.124  0.00  0.00     0.119 C 
BRANCH   8   9
ATOM      9  C   LIG d   1      -0.857  74.268 115.066  0.00  0.00     0.028 C 
ATOM     10  C   LIG d   1       0.171  74.325 113.924  0.00  0.00     0.006 C 
ENDBRANCH   8   9
BRANCH   8  11
ATOM     11  C   LIG d   1      -0.207  74.616 117.395  0.00  0.00     0.028 C 
ATOM     12  C   LIG d   1      -1.408  74.181 118.250  0.00  0.00     0.006 C 
ENDBRANCH   8  11
ENDBRANCH   7   8
ENDBRANCH   1   7
BRANCH   6  13
ATOM     13  N   LIG d   1      -0.478  78.517 117.366  0.00  0.00    -0.311 N 
ATOM     14  C   LIG d   1       0.587  78.246 118.119  0.00  0.00     0.210 C 
ATOM     15  C   LIG d   1       0.493  78.729 119.570  0.00  0.00     0.109 C 
ATOM     16  O   LIG d   1       1.615  77.681 117.714  0.00  0.00    -0.276 OA
ATOM     17  H   LIG d   1      -1.253  79.007 117.767  0.00  0.00     0.149 HD
ENDBRANCH   6  13
BRANCH   5  18
ATOM     18  N   LIG d   1       0.864  79.966 115.035  0.00  0.00     0.381 N 
ATOM     19  H   LIG d   1       0.937  80.519 115.866  0.00  0.00    -0.090 HD
ATOM     20  H   LIG d   1       0.965  80.574 114.242  0.00  0.00    -0.090 HD
ATOM     21  H   LIG d   1       1.580  79.273 115.025  0.00  0.00    -0.090 HD
ENDBRANCH   5  18
BRANCH   3  22
ATOM     22  C   LIG d   1      -2.496  78.136 112.155  0.00  0.00     0.382 C 
ATOM     23  O   LIG d   1      -3.637  77.631 112.025  0.00  0.00    -0.241 OA
ATOM     24  O   LIG d   1      -1.929  78.633 111.163  0.00  0.00    -0.241 OA
ENDBRANCH   3  22
TORSDOF 7
ENDMDL
MODEL 5
REMARK VINA RESULT:      -4.8      3.223      4.694
REMARK  7 active torsions:
REMARK  status: ('A' for Active; 'I' for Inactive)
REMARK    1  A    between atoms: C_2  and  C_3 
REMARK    2  A    between atoms: C_3  and  O_6 
REMARK    3  A    between atoms: C_3  and  C_4 
REMARK    4  A    between atoms: C_7  and  O_6 
REMARK    5  A    between atoms: C_9  and  C_10 
REMARK    6  A    between atoms: N_15  and  C_14 
REMARK    7  A    between atoms: N_20  and  C_19 
REMARK       I    between atoms: C_22  and  N_20 
ROOT
ATOM      1  C   LIG d   1      -0.515  80.270 113.593  0.00  0.00     0.161 C 
ATOM      2  C   LIG d   1      -1.449  79.287 113.228  0.00  0.00     0.016 C 
ATOM      3  C   LIG d   1      -1.549  78.757 111.921  0.00  0.00     0.038 C 
ATOM      4  C   LIG d   1      -0.616  79.067 110.921  0.00  0.00     0.028 C 
ATOM      5  C   LIG d   1       0.035  80.434 111.103  0.00  0.00    -0.047 C 
ATOM      6  C   LIG d   1       0.584  80.540 112.544  0.00  0.00     0.091 C 
ENDROOT
BRANCH   1   7
ATOM      7  O   LIG d   1       0.077  79.934 114.864  0.00  0.00    -0.368 OA
BRANCH   7   8
ATOM      8  C   LIG d   1      -0.675  79.014 115.693  0.00  0.00     0.119 C 
BRANCH   8   9
ATOM      9  C   LIG d   1      -1.070  79.767 116.978  0.00  0.00     0.028 C 
ATOM     10  C   LIG d   1       0.134  80.438 117.659  0.00  0.00     0.006 C 
ENDBRANCH   8   9
BRANCH   8  11
ATOM     11  C   LIG d   1       0.197  77.845 116.160  0.00  0.00     0.028 C 
ATOM     12  C   LIG d   1       0.048  76.599 115.273  0.00  0.00     0.006 C 
ENDBRANCH   8  11
ENDBRANCH   7   8
ENDBRANCH   1   7
BRANCH   6  13
ATOM     13  N   LIG d   1       1.163  81.878 112.833  0.00  0.00    -0.311 N 
ATOM     14  C   LIG d   1       2.449  82.174 112.659  0.00  0.00     0.210 C 
ATOM     15  C   LIG d   1       2.841  83.606 113.036  0.00  0.00     0.109 C 
ATOM     16  O   LIG d   1       3.297  81.396 112.196  0.00  0.00    -0.276 OA
ATOM     17  H   LIG d   1       0.539  82.579 113.183  0.00  0.00     0.149 HD
ENDBRANCH   6  13
BRANCH   5  18
ATOM     18  N   LIG d   1       1.083  80.570 110.074  0.00  0.00     0.381 N 
ATOM     19  H   LIG d   1       1.142  81.523 109.775  0.00  0.00    -0.090 HD
ATOM     20  H   LIG d   1       0.834  80.005 109.281  0.00  0.00    -0.090 HD
ATOM     21  H   LIG d   1       1.961  80.273 110.440  0.00  0.00    -0.090 HD
ENDBRANCH   5  18
BRANCH   3  22
ATOM     22  C   LIG d   1      -2.617  77.935 111.593  0.00  0.00     0.382 C 
ATOM     23  O   LIG d   1      -3.441  77.594 112.476  0.00  0.00    -0.241 OA
ATOM     24  O   LIG d   1      -2.743  77.495 110.434  0.00  0.00    -0.241 OA
ENDBRANCH   3  22
TORSDOF 7
ENDMDL
MODEL 6
REMARK VINA RESULT:      -4.8      3.038      4.379
REMARK  7 active torsions:
REMARK  status: ('A' for Active; 'I' for Inactive)
REMARK    1  A    between atoms: C_2  and  C_3 
REMARK    2  A    between atoms: C_3  and  O_6 
REMARK    3  A    between atoms: C_3  and  C_4 
REMARK    4  A    between atoms: C_7  and  O_6 
REMARK    5  A    between atoms: C_9  and  C_10 
REMARK    6  A    between atoms: N_15  and  C_14 
REMARK    7  A    between atoms: N_20  and  C_19 
REMARK       I    between atoms: C_22  and  N_20 
ROOT
ATOM      1  C   LIG d   1      -1.648  77.326 115.590  0.00  0.00     0.161 C 
ATOM      2  C   LIG d   1      -2.223  77.237 114.311  0.00  0.00     0.016 C 
ATOM      3  C   LIG d   1      -1.832  78.051 113.223  0.00  0.00     0.038 C 
ATOM      4  C   LIG d   1      -0.727  78.912 113.301  0.00  0.00     0.028 C 
ATOM      5  C   LIG d   1      -0.439  79.401 114.717  0.00  0.00    -0.047 C 
ATOM      6  C   LIG d   1      -0.366  78.182 115.664  0.00  0.00     0.091 C 
ENDROOT
BRANCH   1   7
ATOM      7  O   LIG d   1      -1.399  76.004 116.107  0.00  0.00    -0.368 OA
BRANCH   7   8
ATOM      8  C   LIG d   1      -2.360  75.505 117.070  0.00  0.00     0.119 C 
BRANCH   8   9
ATOM      9  C   LIG d   1      -2.870  76.711 117.882  0.00  0.00     0.028 C 
ATOM     10  C   LIG d   1      -2.523  76.600 119.377  0.00  0.00     0.006 C 
ENDBRANCH   8   9
BRANCH   8  11
ATOM     11  C   LIG d   1      -1.694  74.579 118.092  0.00  0.00     0.028 C 
ATOM     12  C   LIG d   1      -0.264  74.181 117.693  0.00  0.00     0.006 C 
ENDBRANCH   8  11
ENDBRANCH   7   8
ENDBRANCH   1   7
BRANCH   6  13
ATOM     13  N   LIG d   1      -0.172  78.578 117.083  0.00  0.00    -0.311 N 
ATOM     14  C   LIG d   1       0.751  78.035 117.875  0.00  0.00     0.210 C 
ATOM     15  C   LIG d   1       0.770  78.574 119.310  0.00  0.00     0.109 C 
ATOM     16  O   LIG d   1       1.578  77.183 117.518  0.00  0.00    -0.276 OA
ATOM     17  H   LIG d   1      -0.779  79.286 117.447  0.00  0.00     0.149 HD
ENDBRANCH   6  13
BRANCH   5  18
ATOM     18  N   LIG d   1       0.815  80.176 114.674  0.00  0.00     0.381 N 
ATOM     19  H   LIG d   1       0.619  81.126 114.427  0.00  0.00    -0.090 HD
ATOM     20  H   LIG d   1       1.415  79.785 113.969  0.00  0.00    -0.090 HD
ATOM     21  H   LIG d   1       1.267  80.143 115.561  0.00  0.00    -0.090 HD
ENDBRANCH   5  18
BRANCH   3  22
ATOM     22  C   LIG d   1      -2.575  78.037 112.052  0.00  0.00     0.382 C 
ATOM     23  O   LIG d   1      -2.048  78.395 110.971  0.00  0.00    -0.241 OA
ATOM     24  O   LIG d   1      -3.778  77.715 112.071  0.00  0.00    -0.241 OA
ENDBRANCH   3  22
TORSDOF 7
ENDMDL
MODEL 7
REMARK VINA RESULT:      -4.6      2.367      5.995
REMARK  7 active torsions:
REMARK  status: ('A' for Active; 'I' for Inactive)
REMARK    1  A    between atoms: C_2  and  C_3 
REMARK    2  A    between atoms: C_3  and  O_6 
REMARK    3  A    between atoms: C_3  and  C_4 
REMARK    4  A    between atoms: C_7  and  O_6 
REMARK    5  A    between atoms: C_9  and  C_10 
REMARK    6  A    between atoms: N_15  and  C_14 
REMARK    7  A    between atoms: N_20  and  C_19 
REMARK       I    between atoms: C_22  and  N_20 
ROOT
ATOM      1  C   LIG d   1      -1.222  77.553 113.836  0.00  0.00     0.161 C 
ATOM      2  C   LIG d   1      -1.393  76.422 114.652  0.00  0.00     0.016 C 
ATOM      3  C   LIG d   1      -2.114  76.442 115.868  0.00  0.00     0.038 C 
ATOM      4  C   LIG d   1      -2.845  77.567 116.279  0.00  0.00     0.028 C 
ATOM      5  C   LIG d   1      -2.286  78.881 115.742  0.00  0.00    -0.047 C 
ATOM      6  C   LIG d   1      -2.105  78.761 114.212  0.00  0.00     0.091 C 
ENDROOT
BRANCH   1   7
ATOM      7  O   LIG d   1      -1.424  77.195 112.455  0.00  0.00    -0.368 OA
BRANCH   7   8
ATOM      8  C   LIG d   1      -0.317  77.458 111.559  0.00  0.00     0.119 C 
BRANCH   8   9
ATOM      9  C   LIG d   1      -0.858  78.304 110.390  0.00  0.00     0.028 C 
ATOM     10  C   LIG d   1       0.172  79.324 109.876  0.00  0.00     0.006 C 
ENDBRANCH   8   9
BRANCH   8  11
ATOM     11  C   LIG d   1       0.203  76.167 110.919  0.00  0.00     0.028 C 
ATOM     12  C   LIG d   1       0.978  75.282 111.909  0.00  0.00     0.006 C 
ENDBRANCH   8  11
ENDBRANCH   7   8
ENDBRANCH   1   7
BRANCH   6  13
ATOM     13  N   LIG d   1      -1.484  79.974 113.618  0.00  0.00    -0.311 N 
ATOM     14  C   LIG d   1      -2.148  80.837 112.851  0.00  0.00     0.210 C 
ATOM     15  C   LIG d   1      -1.314  82.009 112.325  0.00  0.00     0.109 C 
ATOM     16  O   LIG d   1      -3.357  80.760 112.582  0.00  0.00    -0.276 OA
ATOM     17  H   LIG d   1      -0.514  80.131 113.811  0.00  0.00     0.149 HD
ENDBRANCH   6  13
BRANCH   5  18
ATOM     18  N   LIG d   1      -3.221  79.954 116.132  0.00  0.00     0.381 N 
ATOM     19  H   LIG d   1      -3.441  80.517 115.335  0.00  0.00    -0.090 HD
ATOM     20  H   LIG d   1      -2.776  80.538 116.818  0.00  0.00    -0.090 HD
ATOM     21  H   LIG d   1      -4.054  79.560 116.510  0.00  0.00    -0.090 HD
ENDBRANCH   5  18
BRANCH   3  22
ATOM     22  C   LIG d   1      -2.075  75.339 116.708  0.00  0.00     0.382 C 
ATOM     23  O   LIG d   1      -2.103  75.497 117.952  0.00  0.00    -0.241 OA
ATOM     24  O   LIG d   1      -1.967  74.191 116.238  0.00  0.00    -0.241 OA
ENDBRANCH   3  22
TORSDOF 7
ENDMDL
MODEL 8
REMARK VINA RESULT:      -4.4      3.096      4.443
REMARK  7 active torsions:
REMARK  status: ('A' for Active; 'I' for Inactive)
REMARK    1  A    between atoms: C_2  and  C_3 
REMARK    2  A    between atoms: C_3  and  O_6 
REMARK    3  A    between atoms: C_3  and  C_4 
REMARK    4  A    between atoms: C_7  and  O_6 
REMARK    5  A    between atoms: C_9  and  C_10 
REMARK    6  A    between atoms: N_15  and  C_14 
REMARK    7  A    between atoms: N_20  and  C_19 
REMARK       I    between atoms: C_22  and  N_20 
ROOT
ATOM      1  C   LIG d   1      -1.182  78.844 116.033  0.00  0.00     0.161 C 
ATOM      2  C   LIG d   1      -2.045  79.051 114.945  0.00  0.00     0.016 C 
ATOM      3  C   LIG d   1      -2.008  78.275 113.764  0.00  0.00     0.038 C 
ATOM      4  C   LIG d   1      -1.200  77.134 113.652  0.00  0.00     0.028 C 
ATOM      5  C   LIG d   1       0.048  77.187 114.527  0.00  0.00    -0.047 C 
ATOM      6  C   LIG d   1      -0.369  77.534 115.974  0.00  0.00     0.091 C 
ENDROOT
BRANCH   1   7
ATOM      7  O   LIG d   1      -1.924  78.918 117.267  0.00  0.00    -0.368 OA
BRANCH   7   8
ATOM      8  C   LIG d   1      -3.347  78.663 117.170  0.00  0.00     0.119 C 
BRANCH   8   9
ATOM      9  C   LIG d   1      -4.059  79.644 118.122  0.00  0.00     0.028 C 
ATOM     10  C   LIG d   1      -3.071  80.431 119.000  0.00  0.00     0.006 C 
ENDBRANCH   8   9
BRANCH   8  11
ATOM     11  C   LIG d   1      -3.699  77.266 117.689  0.00  0.00     0.028 C 
ATOM     12  C   LIG d   1      -3.856  76.233 116.562  0.00  0.00     0.006 C 
ENDBRANCH   8  11
ENDBRANCH   7   8
ENDBRANCH   1   7
BRANCH   6  13
ATOM     13  N   LIG d   1       0.800  77.690 116.879  0.00  0.00    -0.311 N 
ATOM     14  C   LIG d   1       1.096  76.826 117.849  0.00  0.00     0.210 C 
ATOM     15  C   LIG d   1       2.333  77.185 118.679  0.00  0.00     0.109 C 
ATOM     16  O   LIG d   1       0.470  75.781 118.081  0.00  0.00    -0.276 OA
ATOM     17  H   LIG d   1       1.380  78.494 116.741  0.00  0.00     0.149 HD
ENDBRANCH   6  13
BRANCH   5  18
ATOM     18  N   LIG d   1       0.725  75.881 114.418  0.00  0.00     0.381 N 
ATOM     19  H   LIG d   1       1.081  75.761 113.490  0.00  0.00    -0.090 HD
ATOM     20  H   LIG d   1       0.057  75.153 114.596  0.00  0.00    -0.090 HD
ATOM     21  H   LIG d   1       1.470  75.827 115.077  0.00  0.00    -0.090 HD
ENDBRANCH   5  18
BRANCH   3  22
ATOM     22  C   LIG d   1      -2.758  78.661 112.663  0.00  0.00     0.382 C 
ATOM     23  O   LIG d   1      -2.907  79.880 112.403  0.00  0.00    -0.241 OA
ATOM     24  O   LIG d   1      -3.323  77.809 111.953  0.00  0.00    -0.241 OA
ENDBRANCH   3  22
TORSDOF 7
ENDMDL
MODEL 9
REMARK VINA RESULT:      -4.4      3.310      4.462
REMARK  7 active torsions:
REMARK  status: ('A' for Active; 'I' for Inactive)
REMARK    1  A    between atoms: C_2  and  C_3 
REMARK    2  A    between atoms: C_3  and  O_6 
REMARK    3  A    between atoms: C_3  and  C_4 
REMARK    4  A    between atoms: C_7  and  O_6 
REMARK    5  A    between atoms: C_9  and  C_10 
REMARK    6  A    between atoms: N_15  and  C_14 
REMARK    7  A    between atoms: N_20  and  C_19 
REMARK       I    between atoms: C_22  and  N_20 
ROOT
ATOM      1  C   LIG d   1      -1.689  78.689 116.343  0.00  0.00     0.161 C 
ATOM      2  C   LIG d   1      -2.193  79.328 115.198  0.00  0.00     0.016 C 
ATOM      3  C   LIG d   1      -1.835  78.960 113.881  0.00  0.00     0.038 C 
ATOM      4  C   LIG d   1      -1.060  77.822 113.613  0.00  0.00     0.028 C 
ATOM      5  C   LIG d   1      -0.119  77.448 114.754  0.00  0.00    -0.047 C 
ATOM      6  C   LIG d   1      -0.929  77.374 116.068  0.00  0.00     0.091 C 
ENDROOT
BRANCH   1   7
ATOM      7  O   LIG d   1      -2.755  78.463 117.286  0.00  0.00    -0.368 OA
BRANCH   7   8
ATOM      8  C   LIG d   1      -2.877  79.435 118.354  0.00  0.00     0.119 C 
BRANCH   8   9
ATOM      9  C   LIG d   1      -2.651  78.691 119.685  0.00  0.00     0.028 C 
ATOM     10  C   LIG d   1      -2.949  77.186 119.574  0.00  0.00     0.006 C 
ENDBRANCH   8   9
BRANCH   8  11
ATOM     11  C   LIG d   1      -4.300  79.994 118.439  0.00  0.00     0.028 C 
ATOM     12  C   LIG d   1      -4.440  81.112 119.484  0.00  0.00     0.006 C 
ENDBRANCH   8  11
ENDBRANCH   7   8
ENDBRANCH   1   7
BRANCH   6  13
ATOM     13  N   LIG d   1      -0.069  77.097 117.248  0.00  0.00    -0.311 N 
ATOM     14  C   LIG d   1       0.183  75.869 117.699  0.00  0.00     0.210 C 
ATOM     15  C   LIG d   1       1.078  75.807 118.941  0.00  0.00     0.109 C 
ATOM     16  O   LIG d   1      -0.223  74.824 117.170  0.00  0.00    -0.276 OA
ATOM     17  H   LIG d   1       0.327  77.886 117.720  0.00  0.00     0.149 HD
ENDBRANCH   6  13
BRANCH   5  18
ATOM     18  N   LIG d   1       0.526  76.170 114.399  0.00  0.00     0.381 N 
ATOM     19  H   LIG d   1       1.495  76.321 114.205  0.00  0.00    -0.090 HD
ATOM     20  H   LIG d   1       0.091  75.806 113.569  0.00  0.00    -0.090 HD
ATOM     21  H   LIG d   1       0.426  75.519 115.147  0.00  0.00    -0.090 HD
ENDBRANCH   5  18
BRANCH   3  22
ATOM     22  C   LIG d   1      -2.222  79.758 112.815  0.00  0.00     0.382 C 
ATOM     23  O   LIG d   1      -3.135  80.606 112.966  0.00  0.00    -0.241 OA
ATOM     24  O   LIG d   1      -1.701  79.612 111.693  0.00  0.00    -0.241 OA
ENDBRANCH   3  22
TORSDOF 7
ENDMDL
