MODEL 1
REMARK VINA RESULT:      -5.1      0.000      0.000
REMARK  7 active torsions:
REMARK  status: ('A' for Active; 'I' for Inactive)
REMARK    1  A    between atoms: C_2  and  C_3 
REMARK    2  A    between atoms: C_3  and  O_6 
REMARK    3  A    between atoms: C_3  and  C_4 
REMARK    4  A    between atoms: C_7  and  O_6 
REMARK    5  A    between atoms: C_9  and  C_10 
REMARK    6  A    between atoms: N_15  and  C_14 
REMARK    7  A    between atoms: N_20  and  C_19 
REMARK       I    between atoms: C_22  and  N_20 
ROOT
ATOM      1  C   LIG d   1       1.139  81.238 112.509  0.00  0.00     0.161 C 
ATOM      2  C   LIG d   1       2.144  81.924 111.808  0.00  0.00     0.016 C 
ATOM      3  C   LIG d   1       2.377  81.760 110.423  0.00  0.00     0.038 C 
ATOM      4  C   LIG d   1       1.517  81.006 109.610  0.00  0.00     0.028 C 
ATOM      5  C   LIG d   1       0.792  79.895 110.363  0.00  0.00    -0.047 C 
ATOM      6  C   LIG d   1       0.120  80.496 111.619  0.00  0.00     0.091 C 
ENDROOT
BRANCH   1   7
ATOM      7  O   LIG d   1       0.459  82.144 113.400  0.00  0.00    -0.368 OA
BRANCH   7   8
ATOM      8  C   LIG d   1       0.596  83.555 113.101  0.00  0.00     0.119 C 
BRANCH   8   9
ATOM      9  C   LIG d   1       0.690  84.306 114.443  0.00  0.00     0.028 C 
ATOM     10  C   LIG d   1      -0.422  83.898 115.423  0.00  0.00     0.006 C 
ENDBRANCH   8   9
BRANCH   8  11
ATOM     11  C   LIG d   1      -0.659  84.104 112.416  0.00  0.00     0.028 C 
ATOM     12  C   LIG d   1      -0.454  84.360 110.914  0.00  0.00     0.006 C 
ENDBRANCH   8  11
ENDBRANCH   7   8
ENDBRANCH   1   7
BRANCH   6  13
ATOM     13  N   LIG d   1      -0.541  79.462 112.457  0.00  0.00    -0.311 N 
ATOM     14  C   LIG d   1      -1.787  79.575 112.914  0.00  0.00     0.210 C 
ATOM     15  C   LIG d   1      -2.268  78.404 113.777  0.00  0.00     0.109 C 
ATOM     16  O   LIG d   1      -2.550  80.519 112.659  0.00  0.00    -0.276 OA
ATOM     17  H   LIG d   1      -0.004  78.648 112.686  0.00  0.00     0.149 HD
ENDBRANCH   6  13
BRANCH   5  18
ATOM     18  N   LIG d   1      -0.171  79.280 109.430  0.00  0.00     0.381 N 
ATOM     19  H   LIG d   1      -1.016  79.055 109.916  0.00  0.00    -0.090 HD
ATOM     20  H   LIG d   1       0.223  78.428 109.071  0.00  0.00    -0.090 HD
ATOM     21  H   LIG d   1      -0.367  79.906 108.680  0.00  0.00    -0.090 HD
ENDBRANCH   5  18
BRANCH   3  22
ATOM     22  C   LIG d   1       3.505  82.322 109.845  0.00  0.00     0.382 C 
ATOM     23  O   LIG d   1       3.580  83.565 109.695  0.00  0.00    -0.241 OA
ATOM     24  O   LIG d   1       4.430  81.598 109.430  0.00  0.00    -0.241 OA
ENDBRANCH   3  22
TORSDOF 7
ENDMDL
MODEL 2
REMARK VINA RESULT:      -5.1      1.460      4.752
REMARK  7 active torsions:
REMARK  status: ('A' for Active; 'I' for Inactive)
REMARK    1  A    between atoms: C_2  and  C_3 
REMARK    2  A    between atoms: C_3  and  O_6 
REMARK    3  A    between atoms: C_3  and  C_4 
REMARK    4  A    between atoms: C_7  and  O_6 
REMARK    5  A    between atoms: C_9  and  C_10 
REMARK    6  A    between atoms: N_15  and  C_14 
REMARK    7  A    between atoms: N_20  and  C_19 
REMARK       I    between atoms: C_22  and  N_20 
ROOT
ATOM      1  C   LIG d   1      -0.387  81.207 112.272  0.00  0.00     0.161 C 
ATOM      2  C   LIG d   1      -1.388  80.471 112.926  0.00  0.00     0.016 C 
ATOM      3  C   LIG d   1      -1.673  79.117 112.637  0.00  0.00     0.038 C 
ATOM      4  C   LIG d   1      -0.869  78.358 111.773  0.00  0.00     0.028 C 
ATOM      5  C   LIG d   1      -0.161  79.195 110.713  0.00  0.00    -0.047 C 
ATOM      6  C   LIG d   1       0.574  80.365 111.406  0.00  0.00     0.091 C 
ENDROOT
BRANCH   1   7
ATOM      7  O   LIG d   1       0.355  81.984 113.233  0.00  0.00    -0.368 OA
BRANCH   7   8
ATOM      8  C   LIG d   1       0.416  83.411 112.989  0.00  0.00     0.119 C 
BRANCH   8   9
ATOM      9  C   LIG d   1       0.159  84.121 114.332  0.00  0.00     0.028 C 
ATOM     10  C   LIG d   1      -0.884  83.389 115.194  0.00  0.00     0.006 C 
ENDBRANCH   8   9
BRANCH   8  11
ATOM     11  C   LIG d   1      -0.718  83.867 112.066  0.00  0.00     0.028 C 
ATOM     12  C   LIG d   1      -0.208  84.599 110.814  0.00  0.00     0.006 C 
ENDBRANCH   8  11
ENDBRANCH   7   8
ENDBRANCH   1   7
BRANCH   6  13
ATOM     13  N   LIG d   1       1.223  81.282 110.434  0.00  0.00    -0.311 N 
ATOM     14  C   LIG d   1       2.495  81.668 110.526  0.00  0.00     0.210 C 
ATOM     15  C   LIG d   1       2.959  82.632 109.430  0.00  0.00     0.109 C 
ATOM     16  O   LIG d   1       3.291  81.277 111.393  0.00  0.00    -0.276 OA
ATOM     17  H   LIG d   1       0.658  81.622 109.680  0.00  0.00     0.149 HD
ENDBRANCH   6  13
BRANCH   5  18
ATOM     18  N   LIG d   1       0.747  78.300 109.972  0.00  0.00     0.381 N 
ATOM     19  H   LIG d   1       0.452  77.350 110.083  0.00  0.00    -0.090 HD
ATOM     20  H   LIG d   1       1.673  78.389 110.352  0.00  0.00    -0.090 HD
ATOM     21  H   LIG d   1       0.752  78.543 109.006  0.00  0.00    -0.090 HD
ENDBRANCH   5  18
BRANCH   3  22
ATOM     22  C   LIG d   1      -2.798  78.519 113.185  0.00  0.00     0.382 C 
ATOM     23  O   LIG d   1      -3.004  78.585 114.421  0.00  0.00    -0.241 OA
ATOM     24  O   LIG d   1      -3.586  77.876 112.465  0.00  0.00    -0.241 OA
ENDBRANCH   3  22
TORSDOF 7
ENDMDL
MODEL 3
REMARK VINA RESULT:      -5.1      0.952      1.847
REMARK  7 active torsions:
REMARK  status: ('A' for Active; 'I' for Inactive)
REMARK    1  A    between atoms: C_2  and  C_3 
REMARK    2  A    between atoms: C_3  and  O_6 
REMARK    3  A    between atoms: C_3  and  C_4 
REMARK    4  A    between atoms: C_7  and  O_6 
REMARK    5  A    between atoms: C_9  and  C_10 
REMARK    6  A    between atoms: N_15  and  C_14 
REMARK    7  A    between atoms: N_20  and  C_19 
REMARK       I    between atoms: C_22  and  N_20 
ROOT
ATOM      1  C   LIG d   1       0.882  80.918 112.876  0.00  0.00     0.161 C 
ATOM      2  C   LIG d   1       1.815  81.671 112.144  0.00  0.00     0.016 C 
ATOM      3  C   LIG d   1       1.964  81.575 110.741  0.00  0.00     0.038 C 
ATOM      4  C   LIG d   1       1.080  80.823 109.952  0.00  0.00     0.028 C 
ATOM      5  C   LIG d   1       0.445  79.655 110.698  0.00  0.00    -0.047 C 
ATOM      6  C   LIG d   1      -0.165  80.176 112.020  0.00  0.00     0.091 C 
ENDROOT
BRANCH   1   7
ATOM      7  O   LIG d   1       0.230  81.760 113.848  0.00  0.00    -0.368 OA
BRANCH   7   8
ATOM      8  C   LIG d   1      -0.947  82.470 113.388  0.00  0.00     0.119 C 
BRANCH   8   9
ATOM      9  C   LIG d   1      -0.530  83.928 113.116  0.00  0.00     0.028 C 
ATOM     10  C   LIG d   1      -0.640  84.302 111.628  0.00  0.00     0.006 C 
ENDBRANCH   8   9
BRANCH   8  11
ATOM     11  C   LIG d   1      -2.012  82.551 114.485  0.00  0.00     0.028 C 
ATOM     12  C   LIG d   1      -1.650  83.550 115.595  0.00  0.00     0.006 C 
ENDBRANCH   8  11
ENDBRANCH   7   8
ENDBRANCH   1   7
BRANCH   6  13
ATOM     13  N   LIG d   1      -0.734  79.084 112.851  0.00  0.00    -0.311 N 
ATOM     14  C   LIG d   1      -2.033  78.965 113.117  0.00  0.00     0.210 C 
ATOM     15  C   LIG d   1      -2.405  77.778 114.011  0.00  0.00     0.109 C 
ATOM     16  O   LIG d   1      -2.917  79.712 112.671  0.00  0.00    -0.276 OA
ATOM     17  H   LIG d   1      -0.090  78.415 113.228  0.00  0.00     0.149 HD
ENDBRANCH   6  13
BRANCH   5  18
ATOM     18  N   LIG d   1      -0.554  79.044 109.802  0.00  0.00     0.381 N 
ATOM     19  H   LIG d   1      -1.265  79.712 109.581  0.00  0.00    -0.090 HD
ATOM     20  H   LIG d   1      -0.986  78.270 110.276  0.00  0.00    -0.090 HD
ATOM     21  H   LIG d   1      -0.114  78.728 108.966  0.00  0.00    -0.090 HD
ENDBRANCH   5  18
BRANCH   3  22
ATOM     22  C   LIG d   1       3.031  82.203 110.118  0.00  0.00     0.382 C 
ATOM     23  O   LIG d   1       4.197  81.769 110.282  0.00  0.00    -0.241 OA
ATOM     24  O   LIG d   1       2.849  83.226 109.431  0.00  0.00    -0.241 OA
ENDBRANCH   3  22
TORSDOF 7
ENDMDL
MODEL 4
REMARK VINA RESULT:      -5.1      2.324      4.383
REMARK  7 active torsions:
REMARK  status: ('A' for Active; 'I' for Inactive)
REMARK    1  A    between atoms: C_2  and  C_3 
REMARK    2  A    between atoms: C_3  and  O_6 
REMARK    3  A    between atoms: C_3  and  C_4 
REMARK    4  A    between atoms: C_7  and  O_6 
REMARK    5  A    between atoms: C_9  and  C_10 
REMARK    6  A    between atoms: N_15  and  C_14 
REMARK    7  A    between atoms: N_20  and  C_19 
REMARK       I    between atoms: C_22  and  N_20 
ROOT
ATOM      1  C   LIG d   1       1.729  82.021 112.325  0.00  0.00     0.161 C 
ATOM      2  C   LIG d   1       1.483  81.133 111.265  0.00  0.00     0.016 C 
ATOM      3  C   LIG d   1       0.454  80.163 111.286  0.00  0.00     0.038 C 
ATOM      4  C   LIG d   1      -0.501  80.116 112.313  0.00  0.00     0.028 C 
ATOM      5  C   LIG d   1       0.012  80.662 113.641  0.00  0.00    -0.047 C 
ATOM      6  C   LIG d   1       0.629  82.060 113.406  0.00  0.00     0.091 C 
ENDROOT
BRANCH   1   7
ATOM      7  O   LIG d   1       1.969  83.345 111.807  0.00  0.00    -0.368 OA
BRANCH   7   8
ATOM      8  C   LIG d   1       2.180  83.441 110.377  0.00  0.00     0.119 C 
BRANCH   8   9
ATOM      9  C   LIG d   1       3.614  83.962 110.154  0.00  0.00     0.028 C 
ATOM     10  C   LIG d   1       4.557  82.873 109.616  0.00  0.00     0.006 C 
ENDBRANCH   8   9
BRANCH   8  11
ATOM     11  C   LIG d   1       1.264  84.494 109.747  0.00  0.00     0.028 C 
ATOM     12  C   LIG d   1      -0.051  84.679 110.522  0.00  0.00     0.006 C 
ENDBRANCH   8  11
ENDBRANCH   7   8
ENDBRANCH   1   7
BRANCH   6  13
ATOM     13  N   LIG d   1       1.230  82.629 114.640  0.00  0.00    -0.311 N 
ATOM     14  C   LIG d   1       0.578  83.451 115.461  0.00  0.00     0.210 C 
ATOM     15  C   LIG d   1       1.390  83.939 116.665  0.00  0.00     0.109 C 
ATOM     16  O   LIG d   1      -0.605  83.797 115.323  0.00  0.00    -0.276 OA
ATOM     17  H   LIG d   1       2.177  82.376 114.845  0.00  0.00     0.149 HD
ENDBRANCH   6  13
BRANCH   5  18
ATOM     18  N   LIG d   1      -1.123  80.682 114.583  0.00  0.00     0.381 N 
ATOM     19  H   LIG d   1      -1.943  80.327 114.133  0.00  0.00    -0.090 HD
ATOM     20  H   LIG d   1      -1.301  81.632 114.858  0.00  0.00    -0.090 HD
ATOM     21  H   LIG d   1      -0.911  80.131 115.385  0.00  0.00    -0.090 HD
ENDBRANCH   5  18
BRANCH   3  22
ATOM     22  C   LIG d   1       0.397  79.200 110.290  0.00  0.00     0.382 C 
ATOM     23  O   LIG d   1       1.412  78.511 110.026  0.00  0.00    -0.241 OA
ATOM     24  O   LIG d   1      -0.643  79.041 109.623  0.00  0.00    -0.241 OA
ENDBRANCH   3  22
TORSDOF 7
ENDMDL
MODEL 5
REMARK VINA RESULT:      -5.0      1.689      2.343
REMARK  7 active torsions:
REMARK  status: ('A' for Active; 'I' for Inactive)
REMARK    1  A    between atoms: C_2  and  C_3 
REMARK    2  A    between atoms: C_3  and  O_6 
REMARK    3  A    between atoms: C_3  and  C_4 
REMARK    4  A    between atoms: C_7  and  O_6 
REMARK    5  A    between atoms: C_9  and  C_10 
REMARK    6  A    between atoms: N_15  and  C_14 
REMARK    7  A    between atoms: N_20  and  C_19 
REMARK       I    between atoms: C_22  and  N_20 
ROOT
ATOM      1  C   LIG d   1       0.908  82.179 112.796  0.00  0.00     0.161 C 
ATOM      2  C   LIG d   1       1.936  81.927 111.872  0.00  0.00     0.016 C 
ATOM      3  C   LIG d   1       1.902  80.865 110.940  0.00  0.00     0.038 C 
ATOM      4  C   LIG d   1       0.760  80.068 110.766  0.00  0.00     0.028 C 
ATOM      5  C   LIG d   1      -0.103  79.965 112.018  0.00  0.00    -0.047 C 
ATOM      6  C   LIG d   1      -0.393  81.389 112.546  0.00  0.00     0.091 C 
ENDROOT
BRANCH   1   7
ATOM      7  O   LIG d   1       0.634  83.593 112.848  0.00  0.00    -0.368 OA
BRANCH   7   8
ATOM      8  C   LIG d   1       0.956  84.259 114.093  0.00  0.00     0.119 C 
BRANCH   8   9
ATOM      9  C   LIG d   1       1.647  83.227 115.005  0.00  0.00     0.028 C 
ATOM     10  C   LIG d   1       3.052  83.677 115.441  0.00  0.00     0.006 C 
ENDBRANCH   8   9
BRANCH   8  11
ATOM     11  C   LIG d   1      -0.311  84.680 114.844  0.00  0.00     0.028 C 
ATOM     12  C   LIG d   1      -0.449  83.993 116.212  0.00  0.00     0.006 C 
ENDBRANCH   8  11
ENDBRANCH   7   8
ENDBRANCH   1   7
BRANCH   6  13
ATOM     13  N   LIG d   1      -1.163  81.376 113.817  0.00  0.00    -0.311 N 
ATOM     14  C   LIG d   1      -2.486  81.523 113.875  0.00  0.00     0.210 C 
ATOM     15  C   LIG d   1      -3.077  81.499 115.288  0.00  0.00     0.109 C 
ATOM     16  O   LIG d   1      -3.228  81.638 112.889  0.00  0.00    -0.276 OA
ATOM     17  H   LIG d   1      -0.643  81.256 114.664  0.00  0.00     0.149 HD
ENDBRANCH   6  13
BRANCH   5  18
ATOM     18  N   LIG d   1      -1.326  79.222 111.657  0.00  0.00     0.381 N 
ATOM     19  H   LIG d   1      -2.107  79.590 112.161  0.00  0.00    -0.090 HD
ATOM     20  H   LIG d   1      -1.209  78.259 111.915  0.00  0.00    -0.090 HD
ATOM     21  H   LIG d   1      -1.491  79.293 110.677  0.00  0.00    -0.090 HD
ENDBRANCH   5  18
BRANCH   3  22
ATOM     22  C   LIG d   1       3.034  80.565 110.197  0.00  0.00     0.382 C 
ATOM     23  O   LIG d   1       3.890  81.455 109.973  0.00  0.00    -0.241 OA
ATOM     24  O   LIG d   1       3.188  79.429 109.711  0.00  0.00    -0.241 OA
ENDBRANCH   3  22
TORSDOF 7
ENDMDL
MODEL 6
REMARK VINA RESULT:      -5.0      2.548      5.301
REMARK  7 active torsions:
REMARK  status: ('A' for Active; 'I' for Inactive)
REMARK    1  A    between atoms: C_2  and  C_3 
REMARK    2  A    between atoms: C_3  and  O_6 
REMARK    3  A    between atoms: C_3  and  C_4 
REMARK    4  A    between atoms: C_7  and  O_6 
REMARK    5  A    between atoms: C_9  and  C_10 
REMARK    6  A    between atoms: N_15  and  C_14 
REMARK    7  A    between atoms: N_20  and  C_19 
REMARK       I    between atoms: C_22  and  N_20 
ROOT
ATOM      1  C   LIG d   1       0.072  81.043 113.159  0.00  0.00     0.161 C 
ATOM      2  C   LIG d   1      -0.545  79.981 112.477  0.00  0.00     0.016 C 
ATOM      3  C   LIG d   1      -1.905  79.632 112.646  0.00  0.00     0.038 C 
ATOM      4  C   LIG d   1      -2.784  80.423 113.401  0.00  0.00     0.028 C 
ATOM      5  C   LIG d   1      -2.092  81.211 114.508  0.00  0.00    -0.047 C 
ATOM      6  C   LIG d   1      -0.899  81.985 113.902  0.00  0.00     0.091 C 
ENDROOT
BRANCH   1   7
ATOM      7  O   LIG d   1       0.899  81.794 112.248  0.00  0.00    -0.368 OA
BRANCH   7   8
ATOM      8  C   LIG d   1       0.266  82.223 111.018  0.00  0.00     0.119 C 
BRANCH   8   9
ATOM      9  C   LIG d   1       1.146  81.737 109.850  0.00  0.00     0.028 C 
ATOM     10  C   LIG d   1       2.537  81.275 110.316  0.00  0.00     0.006 C 
ENDBRANCH   8   9
BRANCH   8  11
ATOM     11  C   LIG d   1       0.248  83.750 110.903  0.00  0.00     0.028 C 
ATOM     12  C   LIG d   1       1.180  84.434 111.915  0.00  0.00     0.006 C 
ENDBRANCH   8  11
ENDBRANCH   7   8
ENDBRANCH   1   7
BRANCH   6  13
ATOM     13  N   LIG d   1      -0.116  82.717 114.932  0.00  0.00    -0.311 N 
ATOM     14  C   LIG d   1      -0.353  83.983 115.270  0.00  0.00     0.210 C 
ATOM     15  C   LIG d   1       0.585  84.552 116.340  0.00  0.00     0.109 C 
ATOM     16  O   LIG d   1      -1.270  84.678 114.809  0.00  0.00    -0.276 OA
ATOM     17  H   LIG d   1       0.628  82.218 115.379  0.00  0.00     0.149 HD
ENDBRANCH   6  13
BRANCH   5  18
ATOM     18  N   LIG d   1      -3.100  82.093 115.124  0.00  0.00     0.381 N 
ATOM     19  H   LIG d   1      -4.013  81.702 115.003  0.00  0.00    -0.090 HD
ATOM     20  H   LIG d   1      -3.076  82.986 114.664  0.00  0.00    -0.090 HD
ATOM     21  H   LIG d   1      -2.907  82.207 116.095  0.00  0.00    -0.090 HD
ENDBRANCH   5  18
BRANCH   3  22
ATOM     22  C   LIG d   1      -2.388  78.459 112.088  0.00  0.00     0.382 C 
ATOM     23  O   LIG d   1      -3.400  77.902 112.578  0.00  0.00    -0.241 OA
ATOM     24  O   LIG d   1      -1.798  77.926 111.129  0.00  0.00    -0.241 OA
ENDBRANCH   3  22
TORSDOF 7
ENDMDL
MODEL 7
REMARK VINA RESULT:      -4.9      2.128      5.202
REMARK  7 active torsions:
REMARK  status: ('A' for Active; 'I' for Inactive)
REMARK    1  A    between atoms: C_2  and  C_3 
REMARK    2  A    between atoms: C_3  and  O_6 
REMARK    3  A    between atoms: C_3  and  C_4 
REMARK    4  A    between atoms: C_7  and  O_6 
REMARK    5  A    between atoms: C_9  and  C_10 
REMARK    6  A    between atoms: N_15  and  C_14 
REMARK    7  A    between atoms: N_20  and  C_19 
REMARK       I    between atoms: C_22  and  N_20 
ROOT
ATOM      1  C   LIG d   1      -1.579  82.167 112.915  0.00  0.00     0.161 C 
ATOM      2  C   LIG d   1      -2.336  81.044 113.290  0.00  0.00     0.016 C 
ATOM      3  C   LIG d   1      -1.931  79.713 113.038  0.00  0.00     0.038 C 
ATOM      4  C   LIG d   1      -0.660  79.409 112.527  0.00  0.00     0.028 C 
ATOM      5  C   LIG d   1      -0.069  80.523 111.670  0.00  0.00    -0.047 C 
ATOM      6  C   LIG d   1      -0.139  81.852 112.457  0.00  0.00     0.091 C 
ENDROOT
BRANCH   1   7
ATOM      7  O   LIG d   1      -1.563  83.127 113.991  0.00  0.00    -0.368 OA
BRANCH   7   8
ATOM      8  C   LIG d   1      -1.346  82.591 115.320  0.00  0.00     0.119 C 
BRANCH   8   9
ATOM      9  C   LIG d   1      -2.452  83.155 116.232  0.00  0.00     0.028 C 
ATOM     10  C   LIG d   1      -2.061  83.118 117.719  0.00  0.00     0.006 C 
ENDBRANCH   8   9
BRANCH   8  11
ATOM     11  C   LIG d   1      -0.030  83.099 115.916  0.00  0.00     0.028 C 
ATOM     12  C   LIG d   1       0.493  84.363 115.216  0.00  0.00     0.006 C 
ENDBRANCH   8  11
ENDBRANCH   7   8
ENDBRANCH   1   7
BRANCH   6  13
ATOM     13  N   LIG d   1       0.342  83.010 111.659  0.00  0.00    -0.311 N 
ATOM     14  C   LIG d   1       1.593  83.464 111.706  0.00  0.00     0.210 C 
ATOM     15  C   LIG d   1       1.873  84.680 110.818  0.00  0.00     0.109 C 
ATOM     16  O   LIG d   1       2.505  82.955 112.374  0.00  0.00    -0.276 OA
ATOM     17  H   LIG d   1      -0.325  83.463 111.065  0.00  0.00     0.149 HD
ENDBRANCH   6  13
BRANCH   5  18
ATOM     18  N   LIG d   1       1.309  80.132 111.318  0.00  0.00     0.381 N 
ATOM     19  H   LIG d   1       1.569  80.552 110.448  0.00  0.00    -0.090 HD
ATOM     20  H   LIG d   1       1.345  79.134 111.210  0.00  0.00    -0.090 HD
ATOM     21  H   LIG d   1       1.938  80.418 112.035  0.00  0.00    -0.090 HD
ENDBRANCH   5  18
BRANCH   3  22
ATOM     22  C   LIG d   1      -2.817  78.671 113.263  0.00  0.00     0.382 C 
ATOM     23  O   LIG d   1      -3.336  78.069 112.291  0.00  0.00    -0.241 OA
ATOM     24  O   LIG d   1      -3.139  78.354 114.423  0.00  0.00    -0.241 OA
ENDBRANCH   3  22
TORSDOF 7
ENDMDL
MODEL 8
REMARK VINA RESULT:      -4.9      1.214      1.743
REMARK  7 active torsions:
REMARK  status: ('A' for Active; 'I' for Inactive)
REMARK    1  A    between atoms: C_2  and  C_3 
REMARK    2  A    between atoms: C_3  and  O_6 
REMARK    3  A    between atoms: C_3  and  C_4 
REMARK    4  A    between atoms: C_7  and  O_6 
REMARK    5  A    between atoms: C_9  and  C_10 
REMARK    6  A    between atoms: N_15  and  C_14 
REMARK    7  A    between atoms: N_20  and  C_19 
REMARK       I    between atoms: C_22  and  N_20 
ROOT
ATOM      1  C   LIG d   1       0.732  81.190 112.830  0.00  0.00     0.161 C 
ATOM      2  C   LIG d   1       1.674  81.980 112.150  0.00  0.00     0.016 C 
ATOM      3  C   LIG d   1       1.956  81.841 110.772  0.00  0.00     0.038 C 
ATOM      4  C   LIG d   1       1.201  80.999 109.942  0.00  0.00     0.028 C 
ATOM      5  C   LIG d   1       0.582  79.817 110.681  0.00  0.00    -0.047 C 
ATOM      6  C   LIG d   1      -0.180  80.343 111.919  0.00  0.00     0.091 C 
ENDROOT
BRANCH   1   7
ATOM      7  O   LIG d   1      -0.062  82.019 113.702  0.00  0.00    -0.368 OA
BRANCH   7   8
ATOM      8  C   LIG d   1       0.440  82.189 115.051  0.00  0.00     0.119 C 
BRANCH   8   9
ATOM      9  C   LIG d   1      -0.038  80.981 115.879  0.00  0.00     0.028 C 
ATOM     10  C   LIG d   1      -1.528  81.075 116.249  0.00  0.00     0.006 C 
ENDBRANCH   8   9
BRANCH   8  11
ATOM     11  C   LIG d   1      -0.182  83.415 115.726  0.00  0.00     0.028 C 
ATOM     12  C   LIG d   1      -0.699  84.453 114.718  0.00  0.00     0.006 C 
ENDBRANCH   8  11
ENDBRANCH   7   8
ENDBRANCH   1   7
BRANCH   6  13
ATOM     13  N   LIG d   1      -0.745  79.244 112.745  0.00  0.00    -0.311 N 
ATOM     14  C   LIG d   1      -2.023  79.189 113.116  0.00  0.00     0.210 C 
ATOM     15  C   LIG d   1      -2.394  77.982 113.982  0.00  0.00     0.109 C 
ATOM     16  O   LIG d   1      -2.892  80.009 112.782  0.00  0.00    -0.276 OA
ATOM     17  H   LIG d   1      -0.116  78.521 113.034  0.00  0.00     0.149 HD
ENDBRANCH   6  13
BRANCH   5  18
ATOM     18  N   LIG d   1      -0.287  79.101 109.728  0.00  0.00     0.381 N 
ATOM     19  H   LIG d   1       0.094  79.168 108.806  0.00  0.00    -0.090 HD
ATOM     20  H   LIG d   1      -1.194  79.535 109.727  0.00  0.00    -0.090 HD
ATOM     21  H   LIG d   1      -0.369  78.145 109.993  0.00  0.00    -0.090 HD
ENDBRANCH   5  18
BRANCH   3  22
ATOM     22  C   LIG d   1       3.030  82.521 110.218  0.00  0.00     0.382 C 
ATOM     23  O   LIG d   1       2.829  83.513 109.476  0.00  0.00    -0.241 OA
ATOM     24  O   LIG d   1       4.196  82.128 110.414  0.00  0.00    -0.241 OA
ENDBRANCH   3  22
TORSDOF 7
ENDMDL
MODEL 9
REMARK VINA RESULT:      -4.7      1.816      5.027
REMARK  7 active torsions:
REMARK  status: ('A' for Active; 'I' for Inactive)
REMARK    1  A    between atoms: C_2  and  C_3 
REMARK    2  A    between atoms: C_3  and  O_6 
REMARK    3  A    between atoms: C_3  and  C_4 
REMARK    4  A    between atoms: C_7  and  O_6 
REMARK    5  A    between atoms: C_9  and  C_10 
REMARK    6  A    between atoms: N_15  and  C_14 
REMARK    7  A    between atoms: N_20  and  C_19 
REMARK       I    between atoms: C_22  and  N_20 
ROOT
ATOM      1  C   LIG d   1      -0.815  81.616 112.656  0.00  0.00     0.161 C 
ATOM      2  C   LIG d   1      -1.762  80.704 113.151  0.00  0.00     0.016 C 
ATOM      3  C   LIG d   1      -1.778  79.333 112.806  0.00  0.00     0.038 C 
ATOM      4  C   LIG d   1      -0.748  78.746 112.055  0.00  0.00     0.028 C 
ATOM      5  C   LIG d   1      -0.048  79.725 111.118  0.00  0.00    -0.047 C 
ATOM      6  C   LIG d   1       0.381  80.972 111.924  0.00  0.00     0.091 C 
ENDROOT
BRANCH   1   7
ATOM      7  O   LIG d   1      -0.350  82.466 113.723  0.00  0.00    -0.368 OA
BRANCH   7   8
ATOM      8  C   LIG d   1       0.261  81.795 114.852  0.00  0.00     0.119 C 
BRANCH   8   9
ATOM      9  C   LIG d   1      -0.348  82.396 116.134  0.00  0.00     0.028 C 
ATOM     10  C   LIG d   1      -1.474  83.399 115.833  0.00  0.00     0.006 C 
ENDBRANCH   8   9
BRANCH   8  11
ATOM     11  C   LIG d   1       1.760  82.097 114.935  0.00  0.00     0.028 C 
ATOM     12  C   LIG d   1       2.119  83.488 114.388  0.00  0.00     0.006 C 
ENDBRANCH   8  11
ENDBRANCH   7   8
ENDBRANCH   1   7
BRANCH   6  13
ATOM     13  N   LIG d   1       0.999  82.016 111.066  0.00  0.00    -0.311 N 
ATOM     14  C   LIG d   1       2.311  82.116 110.862  0.00  0.00     0.210 C 
ATOM     15  C   LIG d   1       2.739  83.277 109.960  0.00  0.00     0.109 C 
ATOM     16  O   LIG d   1       3.159  81.334 111.317  0.00  0.00    -0.276 OA
ATOM     17  H   LIG d   1       0.381  82.674 110.632  0.00  0.00     0.149 HD
ENDBRANCH   6  13
BRANCH   5  18
ATOM     18  N   LIG d   1       1.088  79.015 110.500  0.00  0.00     0.381 N 
ATOM     19  H   LIG d   1       0.954  78.027 110.579  0.00  0.00    -0.090 HD
ATOM     20  H   LIG d   1       1.930  79.259 110.993  0.00  0.00    -0.090 HD
ATOM     21  H   LIG d   1       1.170  79.272 109.541  0.00  0.00    -0.090 HD
ENDBRANCH   5  18
BRANCH   3  22
ATOM     22  C   LIG d   1      -2.853  78.542 113.180  0.00  0.00     0.382 C 
ATOM     23  O   LIG d   1      -3.119  78.380 114.395  0.00  0.00    -0.241 OA
ATOM     24  O   LIG d   1      -3.534  77.954 112.319  0.00  0.00    -0.241 OA
ENDBRANCH   3  22
TORSDOF 7
ENDMDL
