MODEL 1
REMARK VINA RESULT:      -5.6      0.000      0.000
REMARK  7 active torsions:
REMARK  status: ('A' for Active; 'I' for Inactive)
REMARK    1  A    between atoms: C_2  and  C_3 
REMARK    2  A    between atoms: C_3  and  O_6 
REMARK    3  A    between atoms: C_3  and  C_4 
REMARK    4  A    between atoms: C_7  and  O_6 
REMARK    5  A    between atoms: C_9  and  C_10 
REMARK    6  A    between atoms: N_15  and  C_14 
REMARK    7  A    between atoms: N_20  and  C_19 
REMARK       I    between atoms: C_22  and  N_20 
ROOT
ATOM      1  C   LIG d   1       0.434  80.252 111.445  0.00  0.00     0.161 C 
ATOM      2  C   LIG d   1      -0.711  79.463 111.246  0.00  0.00     0.016 C 
ATOM      3  C   LIG d   1      -1.573  79.063 112.294  0.00  0.00     0.038 C 
ATOM      4  C   LIG d   1      -1.429  79.555 113.600  0.00  0.00     0.028 C 
ATOM      5  C   LIG d   1       0.003  79.947 113.946  0.00  0.00    -0.047 C 
ATOM      6  C   LIG d   1       0.544  80.890 112.846  0.00  0.00     0.091 C 
ENDROOT
BRANCH   1   7
ATOM      7  O   LIG d   1       0.511  81.268 110.425  0.00  0.00    -0.368 OA
BRANCH   7   8
ATOM      8  C   LIG d   1       1.567  81.108 109.446  0.00  0.00     0.119 C 
BRANCH   8   9
ATOM      9  C   LIG d   1       2.424  79.904 109.881  0.00  0.00     0.028 C 
ATOM     10  C   LIG d   1       3.931  80.208 109.834  0.00  0.00     0.006 C 
ENDBRANCH   8   9
BRANCH   8  11
ATOM     11  C   LIG d   1       2.520  82.308 109.454  0.00  0.00     0.028 C 
ATOM     12  C   LIG d   1       1.781  83.655 109.431  0.00  0.00     0.006 C 
ENDBRANCH   8  11
ENDBRANCH   7   8
ENDBRANCH   1   7
BRANCH   6  13
ATOM     13  N   LIG d   1       1.968  81.255 113.063  0.00  0.00    -0.311 N 
ATOM     14  C   LIG d   1       2.407  82.512 113.090  0.00  0.00     0.210 C 
ATOM     15  C   LIG d   1       3.915  82.666 113.308  0.00  0.00     0.109 C 
ATOM     16  O   LIG d   1       1.685  83.515 112.987  0.00  0.00    -0.276 OA
ATOM     17  H   LIG d   1       2.618  80.503 113.187  0.00  0.00     0.149 HD
ENDBRANCH   6  13
BRANCH   5  18
ATOM     18  N   LIG d   1      -0.016  80.570 115.283  0.00  0.00     0.381 N 
ATOM     19  H   LIG d   1       0.123  79.870 115.984  0.00  0.00    -0.090 HD
ATOM     20  H   LIG d   1      -0.916  80.992 115.432  0.00  0.00    -0.090 HD
ATOM     21  H   LIG d   1       0.698  81.261 115.347  0.00  0.00    -0.090 HD
ENDBRANCH   5  18
BRANCH   3  22
ATOM     22  C   LIG d   1      -2.568  78.130 112.046  0.00  0.00     0.382 C 
ATOM     23  O   LIG d   1      -2.648  77.583 110.920  0.00  0.00    -0.241 OA
ATOM     24  O   LIG d   1      -3.413  77.860 112.921  0.00  0.00    -0.241 OA
ENDBRANCH   3  22
TORSDOF 7
ENDMDL
MODEL 2
REMARK VINA RESULT:      -5.0      4.076      7.114
REMARK  7 active torsions:
REMARK  status: ('A' for Active; 'I' for Inactive)
REMARK    1  A    between atoms: C_2  and  C_3 
REMARK    2  A    between atoms: C_3  and  O_6 
REMARK    3  A    between atoms: C_3  and  C_4 
REMARK    4  A    between atoms: C_7  and  O_6 
REMARK    5  A    between atoms: C_9  and  C_10 
REMARK    6  A    between atoms: N_15  and  C_14 
REMARK    7  A    between atoms: N_20  and  C_19 
REMARK       I    between atoms: C_22  and  N_20 
ROOT
ATOM      1  C   LIG d   1      -1.460  78.370 114.844  0.00  0.00     0.161 C 
ATOM      2  C   LIG d   1      -2.030  79.573 114.396  0.00  0.00     0.016 C 
ATOM      3  C   LIG d   1      -2.087  79.948 113.034  0.00  0.00     0.038 C 
ATOM      4  C   LIG d   1      -1.710  79.069 112.007  0.00  0.00     0.028 C 
ATOM      5  C   LIG d   1      -0.662  78.048 112.437  0.00  0.00    -0.047 C 
ATOM      6  C   LIG d   1      -1.144  77.350 113.730  0.00  0.00     0.091 C 
ENDROOT
BRANCH   1   7
ATOM      7  O   LIG d   1      -2.305  77.771 115.846  0.00  0.00    -0.368 OA
BRANCH   7   8
ATOM      8  C   LIG d   1      -3.732  77.949 115.665  0.00  0.00     0.119 C 
BRANCH   8   9
ATOM      9  C   LIG d   1      -4.351  78.171 117.059  0.00  0.00     0.028 C 
ATOM     10  C   LIG d   1      -3.335  78.727 118.071  0.00  0.00     0.006 C 
ENDBRANCH   8   9
BRANCH   8  11
ATOM     11  C   LIG d   1      -4.389  76.674 115.127  0.00  0.00     0.028 C 
ATOM     12  C   LIG d   1      -4.438  75.545 116.169  0.00  0.00     0.006 C 
ENDBRANCH   8  11
ENDBRANCH   7   8
ENDBRANCH   1   7
BRANCH   6  13
ATOM     13  N   LIG d   1      -0.139  76.395 114.266  0.00  0.00    -0.311 N 
ATOM     14  C   LIG d   1      -0.431  75.144 114.619  0.00  0.00     0.210 C 
ATOM     15  C   LIG d   1       0.748  74.335 115.167  0.00  0.00     0.109 C 
ATOM     16  O   LIG d   1      -1.548  74.619 114.500  0.00  0.00    -0.276 OA
ATOM     17  H   LIG d   1       0.800  76.729 114.366  0.00  0.00     0.149 HD
ENDBRANCH   6  13
BRANCH   5  18
ATOM     18  N   LIG d   1      -0.463  77.113 111.314  0.00  0.00     0.381 N 
ATOM     19  H   LIG d   1      -0.850  76.220 111.545  0.00  0.00    -0.090 HD
ATOM     20  H   LIG d   1       0.522  76.999 111.157  0.00  0.00    -0.090 HD
ATOM     21  H   LIG d   1      -0.899  77.470 110.492  0.00  0.00    -0.090 HD
ENDBRANCH   5  18
BRANCH   3  22
ATOM     22  C   LIG d   1      -2.488  81.229 112.690  0.00  0.00     0.382 C 
ATOM     23  O   LIG d   1      -1.642  82.067 112.294  0.00  0.00    -0.241 OA
ATOM     24  O   LIG d   1      -3.680  81.573 112.812  0.00  0.00    -0.241 OA
ENDBRANCH   3  22
TORSDOF 7
ENDMDL
MODEL 3
REMARK VINA RESULT:      -5.0      4.278      7.445
REMARK  7 active torsions:
REMARK  status: ('A' for Active; 'I' for Inactive)
REMARK    1  A    between atoms: C_2  and  C_3 
REMARK    2  A    between atoms: C_3  and  O_6 
REMARK    3  A    between atoms: C_3  and  C_4 
REMARK    4  A    between atoms: C_7  and  O_6 
REMARK    5  A    between atoms: C_9  and  C_10 
REMARK    6  A    between atoms: N_15  and  C_14 
REMARK    7  A    between atoms: N_20  and  C_19 
REMARK       I    between atoms: C_22  and  N_20 
ROOT
ATOM      1  C   LIG d   1      -2.236  78.498 115.557  0.00  0.00     0.161 C 
ATOM      2  C   LIG d   1      -2.602  79.636 114.819  0.00  0.00     0.016 C 
ATOM      3  C   LIG d   1      -2.270  79.819 113.457  0.00  0.00     0.038 C 
ATOM      4  C   LIG d   1      -1.676  78.802 112.695  0.00  0.00     0.028 C 
ATOM      5  C   LIG d   1      -0.837  77.835 113.524  0.00  0.00    -0.047 C 
ATOM      6  C   LIG d   1      -1.685  77.329 114.714  0.00  0.00     0.091 C 
ENDROOT
BRANCH   1   7
ATOM      7  O   LIG d   1      -3.350  78.056 116.357  0.00  0.00    -0.368 OA
BRANCH   7   8
ATOM      8  C   LIG d   1      -3.221  78.243 117.788  0.00  0.00     0.119 C 
BRANCH   8   9
ATOM      9  C   LIG d   1      -3.754  76.968 118.471  0.00  0.00     0.028 C 
ATOM     10  C   LIG d   1      -2.625  76.022 118.911  0.00  0.00     0.006 C 
ENDBRANCH   8   9
BRANCH   8  11
ATOM     11  C   LIG d   1      -4.122  79.377 118.286  0.00  0.00     0.028 C 
ATOM     12  C   LIG d   1      -3.375  80.713 118.425  0.00  0.00     0.006 C 
ENDBRANCH   8  11
ENDBRANCH   7   8
ENDBRANCH   1   7
BRANCH   6  13
ATOM     13  N   LIG d   1      -0.913  76.443 115.623  0.00  0.00    -0.311 N 
ATOM     14  C   LIG d   1      -0.790  75.130 115.437  0.00  0.00     0.210 C 
ATOM     15  C   LIG d   1       0.033  74.400 116.504  0.00  0.00     0.109 C 
ATOM     16  O   LIG d   1      -1.256  74.506 114.473  0.00  0.00    -0.276 OA
ATOM     17  H   LIG d   1      -0.475  76.872 116.415  0.00  0.00     0.149 HD
ENDBRANCH   6  13
BRANCH   5  18
ATOM     18  N   LIG d   1      -0.392  76.751 112.629  0.00  0.00     0.381 N 
ATOM     19  H   LIG d   1       0.546  76.924 112.327  0.00  0.00    -0.090 HD
ATOM     20  H   LIG d   1      -0.986  76.734 111.818  0.00  0.00    -0.090 HD
ATOM     21  H   LIG d   1      -0.440  75.876 113.103  0.00  0.00    -0.090 HD
ENDBRANCH   5  18
BRANCH   3  22
ATOM     22  C   LIG d   1      -2.497  81.047 112.853  0.00  0.00     0.382 C 
ATOM     23  O   LIG d   1      -3.651  81.538 112.845  0.00  0.00    -0.241 OA
ATOM     24  O   LIG d   1      -1.570  81.649 112.279  0.00  0.00    -0.241 OA
ENDBRANCH   3  22
TORSDOF 7
ENDMDL
MODEL 4
REMARK VINA RESULT:      -4.9      2.033      2.426
REMARK  7 active torsions:
REMARK  status: ('A' for Active; 'I' for Inactive)
REMARK    1  A    between atoms: C_2  and  C_3 
REMARK    2  A    between atoms: C_3  and  O_6 
REMARK    3  A    between atoms: C_3  and  C_4 
REMARK    4  A    between atoms: C_7  and  O_6 
REMARK    5  A    between atoms: C_9  and  C_10 
REMARK    6  A    between atoms: N_15  and  C_14 
REMARK    7  A    between atoms: N_20  and  C_19 
REMARK       I    between atoms: C_22  and  N_20 
ROOT
ATOM      1  C   LIG d   1      -0.196  80.058 112.939  0.00  0.00     0.161 C 
ATOM      2  C   LIG d   1      -1.198  79.425 112.184  0.00  0.00     0.016 C 
ATOM      3  C   LIG d   1      -2.236  78.656 112.758  0.00  0.00     0.038 C 
ATOM      4  C   LIG d   1      -2.430  78.591 114.146  0.00  0.00     0.028 C 
ATOM      5  C   LIG d   1      -1.150  78.799 114.948  0.00  0.00    -0.047 C 
ATOM      6  C   LIG d   1      -0.456  80.091 114.460  0.00  0.00     0.091 C 
ENDROOT
BRANCH   1   7
ATOM      7  O   LIG d   1       0.023  81.392 112.439  0.00  0.00    -0.368 OA
BRANCH   7   8
ATOM      8  C   LIG d   1       0.724  81.492 111.175  0.00  0.00     0.119 C 
BRANCH   8   9
ATOM      9  C   LIG d   1       2.190  81.090 111.426  0.00  0.00     0.028 C 
ATOM     10  C   LIG d   1       2.790  80.299 110.252  0.00  0.00     0.006 C 
ENDBRANCH   8   9
BRANCH   8  11
ATOM     11  C   LIG d   1       0.779  82.941 110.682  0.00  0.00     0.028 C 
ATOM     12  C   LIG d   1      -0.353  83.809 111.254  0.00  0.00     0.006 C 
ENDBRANCH   8  11
ENDBRANCH   7   8
ENDBRANCH   1   7
BRANCH   6  13
ATOM     13  N   LIG d   1       0.848  80.324 115.134  0.00  0.00    -0.311 N 
ATOM     14  C   LIG d   1       0.971  80.988 116.282  0.00  0.00     0.210 C 
ATOM     15  C   LIG d   1       2.408  81.132 116.794  0.00  0.00     0.109 C 
ATOM     16  O   LIG d   1       0.025  81.444 116.940  0.00  0.00    -0.276 OA
ATOM     17  H   LIG d   1       1.665  79.961 114.684  0.00  0.00     0.149 HD
ENDBRANCH   6  13
BRANCH   5  18
ATOM     18  N   LIG d   1      -1.519  78.844 116.375  0.00  0.00     0.381 N 
ATOM     19  H   LIG d   1      -1.293  77.973 116.811  0.00  0.00    -0.090 HD
ATOM     20  H   LIG d   1      -2.511  78.986 116.449  0.00  0.00    -0.090 HD
ATOM     21  H   LIG d   1      -1.035  79.587 116.829  0.00  0.00    -0.090 HD
ENDBRANCH   5  18
BRANCH   3  22
ATOM     22  C   LIG d   1      -3.069  77.907 111.941  0.00  0.00     0.382 C 
ATOM     23  O   LIG d   1      -4.214  77.584 112.341  0.00  0.00    -0.241 OA
ATOM     24  O   LIG d   1      -2.674  77.514 110.827  0.00  0.00    -0.241 OA
ENDBRANCH   3  22
TORSDOF 7
ENDMDL
MODEL 5
REMARK VINA RESULT:      -4.6      2.361      5.672
REMARK  7 active torsions:
REMARK  status: ('A' for Active; 'I' for Inactive)
REMARK    1  A    between atoms: C_2  and  C_3 
REMARK    2  A    between atoms: C_3  and  O_6 
REMARK    3  A    between atoms: C_3  and  C_4 
REMARK    4  A    between atoms: C_7  and  O_6 
REMARK    5  A    between atoms: C_9  and  C_10 
REMARK    6  A    between atoms: N_15  and  C_14 
REMARK    7  A    between atoms: N_20  and  C_19 
REMARK       I    between atoms: C_22  and  N_20 
ROOT
ATOM      1  C   LIG d   1       2.008  81.761 112.567  0.00  0.00     0.161 C 
ATOM      2  C   LIG d   1       3.113  81.893 111.710  0.00  0.00     0.016 C 
ATOM      3  C   LIG d   1       3.183  81.292 110.432  0.00  0.00     0.038 C 
ATOM      4  C   LIG d   1       2.082  80.639 109.859  0.00  0.00     0.028 C 
ATOM      5  C   LIG d   1       1.123  80.050 110.888  0.00  0.00    -0.047 C 
ATOM      6  C   LIG d   1       0.753  81.145 111.914  0.00  0.00     0.091 C 
ENDROOT
BRANCH   1   7
ATOM      7  O   LIG d   1       1.691  83.038 113.155  0.00  0.00    -0.368 OA
BRANCH   7   8
ATOM      8  C   LIG d   1       2.324  83.329 114.426  0.00  0.00     0.119 C 
BRANCH   8   9
ATOM      9  C   LIG d   1       3.576  84.180 114.134  0.00  0.00     0.028 C 
ATOM     10  C   LIG d   1       4.853  83.569 114.734  0.00  0.00     0.006 C 
ENDBRANCH   8   9
BRANCH   8  11
ATOM     11  C   LIG d   1       2.847  82.054 115.093  0.00  0.00     0.028 C 
ATOM     12  C   LIG d   1       2.034  81.654 116.334  0.00  0.00     0.006 C 
ENDBRANCH   8  11
ENDBRANCH   7   8
ENDBRANCH   1   7
BRANCH   6  13
ATOM     13  N   LIG d   1      -0.116  80.630 113.004  0.00  0.00    -0.311 N 
ATOM     14  C   LIG d   1      -1.441  80.762 113.010  0.00  0.00     0.210 C 
ATOM     15  C   LIG d   1      -2.143  80.177 114.240  0.00  0.00     0.109 C 
ATOM     16  O   LIG d   1      -2.105  81.279 112.099  0.00  0.00    -0.276 OA
ATOM     17  H   LIG d   1       0.338  80.169 113.769  0.00  0.00     0.149 HD
ENDBRANCH   6  13
BRANCH   5  18
ATOM     18  N   LIG d   1      -0.045  79.522 110.158  0.00  0.00     0.381 N 
ATOM     19  H   LIG d   1      -0.693  80.261 109.976  0.00  0.00    -0.090 HD
ATOM     20  H   LIG d   1      -0.503  78.835 110.732  0.00  0.00    -0.090 HD
ATOM     21  H   LIG d   1       0.247  79.107 109.301  0.00  0.00    -0.090 HD
ENDBRANCH   5  18
BRANCH   3  22
ATOM     22  C   LIG d   1       4.378  81.308 109.730  0.00  0.00     0.382 C 
ATOM     23  O   LIG d   1       4.943  80.228 109.430  0.00  0.00    -0.241 OA
ATOM     24  O   LIG d   1       4.922  82.388 109.431  0.00  0.00    -0.241 OA
ENDBRANCH   3  22
TORSDOF 7
ENDMDL
MODEL 6
REMARK VINA RESULT:      -4.6      2.077      4.726
REMARK  7 active torsions:
REMARK  status: ('A' for Active; 'I' for Inactive)
REMARK    1  A    between atoms: C_2  and  C_3 
REMARK    2  A    between atoms: C_3  and  O_6 
REMARK    3  A    between atoms: C_3  and  C_4 
REMARK    4  A    between atoms: C_7  and  O_6 
REMARK    5  A    between atoms: C_9  and  C_10 
REMARK    6  A    between atoms: N_15  and  C_14 
REMARK    7  A    between atoms: N_20  and  C_19 
REMARK       I    between atoms: C_22  and  N_20 
ROOT
ATOM      1  C   LIG d   1      -0.476  80.517 112.977  0.00  0.00     0.161 C 
ATOM      2  C   LIG d   1      -1.016  79.291 112.553  0.00  0.00     0.016 C 
ATOM      3  C   LIG d   1      -0.627  78.641 111.359  0.00  0.00     0.038 C 
ATOM      4  C   LIG d   1       0.445  79.101 110.580  0.00  0.00     0.028 C 
ATOM      5  C   LIG d   1       0.681  80.603 110.701  0.00  0.00    -0.047 C 
ATOM      6  C   LIG d   1       0.773  80.978 112.197  0.00  0.00     0.091 C 
ENDROOT
BRANCH   1   7
ATOM      7  O   LIG d   1      -0.194  80.463 114.390  0.00  0.00    -0.368 OA
BRANCH   7   8
ATOM      8  C   LIG d   1      -0.794  79.365 115.119  0.00  0.00     0.119 C 
BRANCH   8   9
ATOM      9  C   LIG d   1      -1.739  79.972 116.174  0.00  0.00     0.028 C 
ATOM     10  C   LIG d   1      -3.216  79.644 115.898  0.00  0.00     0.006 C 
ENDBRANCH   8   9
BRANCH   8  11
ATOM     11  C   LIG d   1       0.255  78.584 115.915  0.00  0.00     0.028 C 
ATOM     12  C   LIG d   1       0.082  77.062 115.796  0.00  0.00     0.006 C 
ENDBRANCH   8  11
ENDBRANCH   7   8
ENDBRANCH   1   7
BRANCH   6  13
ATOM     13  N   LIG d   1       0.920  82.442 112.407  0.00  0.00    -0.311 N 
ATOM     14  C   LIG d   1       2.098  83.051 112.528  0.00  0.00     0.210 C 
ATOM     15  C   LIG d   1       2.023  84.564 112.759  0.00  0.00     0.109 C 
ATOM     16  O   LIG d   1       3.198  82.487 112.434  0.00  0.00    -0.276 OA
ATOM     17  H   LIG d   1       0.078  82.981 112.464  0.00  0.00     0.149 HD
ENDBRANCH   6  13
BRANCH   5  18
ATOM     18  N   LIG d   1       1.909  80.923 109.948  0.00  0.00     0.381 N 
ATOM     19  H   LIG d   1       2.118  81.897 110.040  0.00  0.00    -0.090 HD
ATOM     20  H   LIG d   1       1.755  80.724 108.975  0.00  0.00    -0.090 HD
ATOM     21  H   LIG d   1       2.670  80.378 110.289  0.00  0.00    -0.090 HD
ENDBRANCH   5  18
BRANCH   3  22
ATOM     22  C   LIG d   1      -1.340  77.539 110.913  0.00  0.00     0.382 C 
ATOM     23  O   LIG d   1      -2.592  77.585 110.852  0.00  0.00    -0.241 OA
ATOM     24  O   LIG d   1      -0.750  76.484 110.613  0.00  0.00    -0.241 OA
ENDBRANCH   3  22
TORSDOF 7
ENDMDL
MODEL 7
REMARK VINA RESULT:      -4.5      1.930      5.061
REMARK  7 active torsions:
REMARK  status: ('A' for Active; 'I' for Inactive)
REMARK    1  A    between atoms: C_2  and  C_3 
REMARK    2  A    between atoms: C_3  and  O_6 
REMARK    3  A    between atoms: C_3  and  C_4 
REMARK    4  A    between atoms: C_7  and  O_6 
REMARK    5  A    between atoms: C_9  and  C_10 
REMARK    6  A    between atoms: N_15  and  C_14 
REMARK    7  A    between atoms: N_20  and  C_19 
REMARK       I    between atoms: C_22  and  N_20 
ROOT
ATOM      1  C   LIG d   1       0.352  81.343 111.481  0.00  0.00     0.161 C 
ATOM      2  C   LIG d   1       1.357  81.918 110.687  0.00  0.00     0.016 C 
ATOM      3  C   LIG d   1       2.635  82.268 111.181  0.00  0.00     0.038 C 
ATOM      4  C   LIG d   1       3.048  81.925 112.477  0.00  0.00     0.028 C 
ATOM      5  C   LIG d   1       1.894  81.798 113.467  0.00  0.00    -0.047 C 
ATOM      6  C   LIG d   1       0.821  80.859 112.869  0.00  0.00     0.091 C 
ENDROOT
BRANCH   1   7
ATOM      7  O   LIG d   1      -0.281  80.265 110.763  0.00  0.00    -0.368 OA
BRANCH   7   8
ATOM      8  C   LIG d   1       0.414  78.994 110.778  0.00  0.00     0.119 C 
BRANCH   8   9
ATOM      9  C   LIG d   1       1.147  78.851 109.430  0.00  0.00     0.028 C 
ATOM     10  C   LIG d   1       2.675  78.943 109.581  0.00  0.00     0.006 C 
ENDBRANCH   8   9
BRANCH   8  11
ATOM     11  C   LIG d   1      -0.570  77.821 110.831  0.00  0.00     0.028 C 
ATOM     12  C   LIG d   1      -1.972  78.241 111.301  0.00  0.00     0.006 C 
ENDBRANCH   8  11
ENDBRANCH   7   8
ENDBRANCH   1   7
BRANCH   6  13
ATOM     13  N   LIG d   1      -0.380  80.746 113.736  0.00  0.00    -0.311 N 
ATOM     14  C   LIG d   1      -0.735  79.621 114.354  0.00  0.00     0.210 C 
ATOM     15  C   LIG d   1      -2.020  79.717 115.184  0.00  0.00     0.109 C 
ATOM     16  O   LIG d   1      -0.092  78.562 114.320  0.00  0.00    -0.276 OA
ATOM     17  H   LIG d   1      -0.943  81.567 113.845  0.00  0.00     0.149 HD
ENDBRANCH   6  13
BRANCH   5  18
ATOM     18  N   LIG d   1       2.451  81.303 114.740  0.00  0.00     0.381 N 
ATOM     19  H   LIG d   1       3.380  80.960 114.593  0.00  0.00    -0.090 HD
ATOM     20  H   LIG d   1       1.883  80.543 115.070  0.00  0.00    -0.090 HD
ATOM     21  H   LIG d   1       2.463  82.036 115.415  0.00  0.00    -0.090 HD
ENDBRANCH   5  18
BRANCH   3  22
ATOM     22  C   LIG d   1       3.501  83.005 110.388  0.00  0.00     0.382 C 
ATOM     23  O   LIG d   1       4.621  82.533 110.076  0.00  0.00    -0.241 OA
ATOM     24  O   LIG d   1       3.194  84.154 110.017  0.00  0.00    -0.241 OA
ENDBRANCH   3  22
TORSDOF 7
ENDMDL
MODEL 8
REMARK VINA RESULT:      -4.5      4.183      6.505
REMARK  7 active torsions:
REMARK  status: ('A' for Active; 'I' for Inactive)
REMARK    1  A    between atoms: C_2  and  C_3 
REMARK    2  A    between atoms: C_3  and  O_6 
REMARK    3  A    between atoms: C_3  and  C_4 
REMARK    4  A    between atoms: C_7  and  O_6 
REMARK    5  A    between atoms: C_9  and  C_10 
REMARK    6  A    between atoms: N_15  and  C_14 
REMARK    7  A    between atoms: N_20  and  C_19 
REMARK       I    between atoms: C_22  and  N_20 
ROOT
ATOM      1  C   LIG d   1      -0.294  78.784 115.033  0.00  0.00     0.161 C 
ATOM      2  C   LIG d   1      -0.809  79.911 114.372  0.00  0.00     0.016 C 
ATOM      3  C   LIG d   1      -2.043  79.912 113.682  0.00  0.00     0.038 C 
ATOM      4  C   LIG d   1      -2.924  78.821 113.737  0.00  0.00     0.028 C 
ATOM      5  C   LIG d   1      -2.222  77.488 113.970  0.00  0.00    -0.047 C 
ATOM      6  C   LIG d   1      -1.292  77.618 115.198  0.00  0.00     0.091 C 
ENDROOT
BRANCH   1   7
ATOM      7  O   LIG d   1       0.239  79.171 116.315  0.00  0.00    -0.368 OA
BRANCH   7   8
ATOM      8  C   LIG d   1      -0.351  80.346 116.923  0.00  0.00     0.119 C 
BRANCH   8   9
ATOM      9  C   LIG d   1       0.784  81.138 117.599  0.00  0.00     0.028 C 
ATOM     10  C   LIG d   1       2.150  80.885 116.939  0.00  0.00     0.006 C 
ENDBRANCH   8   9
BRANCH   8  11
ATOM     11  C   LIG d   1      -1.311  79.967 118.054  0.00  0.00     0.028 C 
ATOM     12  C   LIG d   1      -2.788  80.094 117.650  0.00  0.00     0.006 C 
ENDBRANCH   8  11
ENDBRANCH   7   8
ENDBRANCH   1   7
BRANCH   6  13
ATOM     13  N   LIG d   1      -0.504  76.383 115.445  0.00  0.00    -0.311 N 
ATOM     14  C   LIG d   1      -0.920  75.393 116.233  0.00  0.00     0.210 C 
ATOM     15  C   LIG d   1       0.055  74.219 116.367  0.00  0.00     0.109 C 
ATOM     16  O   LIG d   1      -2.019  75.361 116.808  0.00  0.00    -0.276 OA
ATOM     17  H   LIG d   1       0.387  76.311 114.993  0.00  0.00     0.149 HD
ENDBRANCH   6  13
BRANCH   5  18
ATOM     18  N   LIG d   1      -3.266  76.459 114.142  0.00  0.00     0.381 N 
ATOM     19  H   LIG d   1      -2.848  75.599 114.436  0.00  0.00    -0.090 HD
ATOM     20  H   LIG d   1      -3.719  76.305 113.259  0.00  0.00    -0.090 HD
ATOM     21  H   LIG d   1      -3.933  76.761 114.818  0.00  0.00    -0.090 HD
ENDBRANCH   5  18
BRANCH   3  22
ATOM     22  C   LIG d   1      -2.389  81.000 112.895  0.00  0.00     0.382 C 
ATOM     23  O   LIG d   1      -3.587  81.369 112.828  0.00  0.00    -0.241 OA
ATOM     24  O   LIG d   1      -1.527  81.589 112.217  0.00  0.00    -0.241 OA
ENDBRANCH   3  22
TORSDOF 7
ENDMDL
MODEL 9
REMARK VINA RESULT:      -4.4      2.177      4.384
REMARK  7 active torsions:
REMARK  status: ('A' for Active; 'I' for Inactive)
REMARK    1  A    between atoms: C_2  and  C_3 
REMARK    2  A    between atoms: C_3  and  O_6 
REMARK    3  A    between atoms: C_3  and  C_4 
REMARK    4  A    between atoms: C_7  and  O_6 
REMARK    5  A    between atoms: C_9  and  C_10 
REMARK    6  A    between atoms: N_15  and  C_14 
REMARK    7  A    between atoms: N_20  and  C_19 
REMARK       I    between atoms: C_22  and  N_20 
ROOT
ATOM      1  C   LIG d   1      -1.201  80.510 113.254  0.00  0.00     0.161 C 
ATOM      2  C   LIG d   1      -2.180  79.533 113.008  0.00  0.00     0.016 C 
ATOM      3  C   LIG d   1      -2.063  78.554 111.995  0.00  0.00     0.038 C 
ATOM      4  C   LIG d   1      -0.884  78.390 111.254  0.00  0.00     0.028 C 
ATOM      5  C   LIG d   1      -0.067  79.671 111.124  0.00  0.00    -0.047 C 
ATOM      6  C   LIG d   1       0.141  80.278 112.530  0.00  0.00     0.091 C 
ENDROOT
BRANCH   1   7
ATOM      7  O   LIG d   1      -0.989  80.642 114.674  0.00  0.00    -0.368 OA
BRANCH   7   8
ATOM      8  C   LIG d   1       0.108  79.874 115.228  0.00  0.00     0.119 C 
BRANCH   8   9
ATOM      9  C   LIG d   1      -0.499  78.667 115.969  0.00  0.00     0.028 C 
ATOM     10  C   LIG d   1      -0.251  77.340 115.232  0.00  0.00     0.006 C 
ENDBRANCH   8   9
BRANCH   8  11
ATOM     11  C   LIG d   1       0.861  80.670 116.298  0.00  0.00     0.028 C 
ATOM     12  C   LIG d   1       1.276  79.808 117.501  0.00  0.00     0.006 C 
ENDBRANCH   8  11
ENDBRANCH   7   8
ENDBRANCH   1   7
BRANCH   6  13
ATOM     13  N   LIG d   1       0.859  81.579 112.485  0.00  0.00    -0.311 N 
ATOM     14  C   LIG d   1       0.443  82.621 111.768  0.00  0.00     0.210 C 
ATOM     15  C   LIG d   1       1.341  83.860 111.847  0.00  0.00     0.109 C 
ATOM     16  O   LIG d   1      -0.602  82.649 111.100  0.00  0.00    -0.276 OA
ATOM     17  H   LIG d   1       1.700  81.654 113.023  0.00  0.00     0.149 HD
ENDBRANCH   6  13
BRANCH   5  18
ATOM     18  N   LIG d   1       1.199  79.326 110.450  0.00  0.00     0.381 N 
ATOM     19  H   LIG d   1       1.590  78.504 110.864  0.00  0.00    -0.090 HD
ATOM     20  H   LIG d   1       1.849  80.082 110.573  0.00  0.00    -0.090 HD
ATOM     21  H   LIG d   1       1.037  79.173 109.479  0.00  0.00    -0.090 HD
ENDBRANCH   5  18
BRANCH   3  22
ATOM     22  C   LIG d   1      -3.151  77.750 111.688  0.00  0.00     0.382 C 
ATOM     23  O   LIG d   1      -3.869  77.288 112.608  0.00  0.00    -0.241 OA
ATOM     24  O   LIG d   1      -3.397  77.445 110.506  0.00  0.00    -0.241 OA
ENDBRANCH   3  22
TORSDOF 7
ENDMDL
