MODEL 1
REMARK VINA RESULT:      -4.7      0.000      0.000
REMARK  7 active torsions:
REMARK  status: ('A' for Active; 'I' for Inactive)
REMARK    1  A    between atoms: C_2  and  C_3 
REMARK    2  A    between atoms: C_3  and  O_6 
REMARK    3  A    between atoms: C_3  and  C_4 
REMARK    4  A    between atoms: C_7  and  O_6 
REMARK    5  A    between atoms: C_9  and  C_10 
REMARK    6  A    between atoms: N_15  and  C_14 
REMARK    7  A    between atoms: N_20  and  C_19 
REMARK       I    between atoms: C_22  and  N_20 
ROOT
ATOM      1  C   LIG d   1      -0.139  78.339 116.138  0.00  0.00     0.161 C 
ATOM      2  C   LIG d   1      -1.229  78.718 115.337  0.00  0.00     0.016 C 
ATOM      3  C   LIG d   1      -2.034  77.795 114.631  0.00  0.00     0.038 C 
ATOM      4  C   LIG d   1      -1.895  76.409 114.800  0.00  0.00     0.028 C 
ATOM      5  C   LIG d   1      -0.486  75.987 115.203  0.00  0.00    -0.047 C 
ATOM      6  C   LIG d   1      -0.040  76.826 116.422  0.00  0.00     0.091 C 
ENDROOT
BRANCH   1   7
ATOM      7  O   LIG d   1      -0.159  79.081 117.374  0.00  0.00    -0.368 OA
BRANCH   7   8
ATOM      8  C   LIG d   1      -1.467  79.461 117.867  0.00  0.00     0.119 C 
BRANCH   8   9
ATOM      9  C   LIG d   1      -1.281  80.703 118.760  0.00  0.00     0.028 C 
ATOM     10  C   LIG d   1      -2.570  81.087 119.508  0.00  0.00     0.006 C 
ENDBRANCH   8   9
BRANCH   8  11
ATOM     11  C   LIG d   1      -2.051  78.385 118.787  0.00  0.00     0.028 C 
ATOM     12  C   LIG d   1      -3.307  77.719 118.203  0.00  0.00     0.006 C 
ENDBRANCH   8  11
ENDBRANCH   7   8
ENDBRANCH   1   7
BRANCH   6  13
ATOM     13  N   LIG d   1       1.359  76.535 116.830  0.00  0.00    -0.311 N 
ATOM     14  C   LIG d   1       1.720  76.284 118.087  0.00  0.00     0.210 C 
ATOM     15  C   LIG d   1       3.216  76.029 118.292  0.00  0.00     0.109 C 
ATOM     16  O   LIG d   1       0.937  76.218 119.047  0.00  0.00    -0.276 OA
ATOM     17  H   LIG d   1       2.054  76.538 116.109  0.00  0.00     0.149 HD
ENDBRANCH   6  13
BRANCH   5  18
ATOM     18  N   LIG d   1      -0.517  74.538 115.478  0.00  0.00     0.381 N 
ATOM     19  H   LIG d   1      -1.323  74.129 115.050  0.00  0.00    -0.090 HD
ATOM     20  H   LIG d   1      -0.582  74.397 116.471  0.00  0.00    -0.090 HD
ATOM     21  H   LIG d   1       0.310  74.106 115.128  0.00  0.00    -0.090 HD
ENDBRANCH   5  18
BRANCH   3  22
ATOM     22  C   LIG d   1      -2.966  78.256 113.714  0.00  0.00     0.382 C 
ATOM     23  O   LIG d   1      -3.670  77.441 113.071  0.00  0.00    -0.241 OA
ATOM     24  O   LIG d   1      -3.079  79.476 113.488  0.00  0.00    -0.241 OA
ENDBRANCH   3  22
TORSDOF 7
ENDMDL
MODEL 2
REMARK VINA RESULT:      -4.5      0.860      1.688
REMARK  7 active torsions:
REMARK  status: ('A' for Active; 'I' for Inactive)
REMARK    1  A    between atoms: C_2  and  C_3 
REMARK    2  A    between atoms: C_3  and  O_6 
REMARK    3  A    between atoms: C_3  and  C_4 
REMARK    4  A    between atoms: C_7  and  O_6 
REMARK    5  A    between atoms: C_9  and  C_10 
REMARK    6  A    between atoms: N_15  and  C_14 
REMARK    7  A    between atoms: N_20  and  C_19 
REMARK       I    between atoms: C_22  and  N_20 
ROOT
ATOM      1  C   LIG d   1      -0.417  78.450 115.642  0.00  0.00     0.161 C 
ATOM      2  C   LIG d   1      -1.561  78.601 114.842  0.00  0.00     0.016 C 
ATOM      3  C   LIG d   1      -2.339  77.512 114.384  0.00  0.00     0.038 C 
ATOM      4  C   LIG d   1      -2.110  76.200 114.824  0.00  0.00     0.028 C 
ATOM      5  C   LIG d   1      -0.662  75.941 115.227  0.00  0.00    -0.047 C 
ATOM      6  C   LIG d   1      -0.215  77.035 116.224  0.00  0.00     0.091 C 
ENDROOT
BRANCH   1   7
ATOM      7  O   LIG d   1      -0.428  79.430 116.700  0.00  0.00    -0.368 OA
BRANCH   7   8
ATOM      8  C   LIG d   1      -1.015  79.006 117.955  0.00  0.00     0.119 C 
BRANCH   8   9
ATOM      9  C   LIG d   1      -2.510  79.380 117.916  0.00  0.00     0.028 C 
ATOM     10  C   LIG d   1      -3.425  78.160 118.112  0.00  0.00     0.006 C 
ENDBRANCH   8   9
BRANCH   8  11
ATOM     11  C   LIG d   1      -0.432  79.788 119.135  0.00  0.00     0.028 C 
ATOM     12  C   LIG d   1       0.037  81.198 118.743  0.00  0.00     0.006 C 
ENDBRANCH   8  11
ENDBRANCH   7   8
ENDBRANCH   1   7
BRANCH   6  13
ATOM     13  N   LIG d   1       1.215  76.905 116.605  0.00  0.00    -0.311 N 
ATOM     14  C   LIG d   1       1.620  76.486 117.803  0.00  0.00     0.210 C 
ATOM     15  C   LIG d   1       3.139  76.444 117.994  0.00  0.00     0.109 C 
ATOM     16  O   LIG d   1       0.865  76.115 118.714  0.00  0.00    -0.276 OA
ATOM     17  H   LIG d   1       1.896  77.156 115.914  0.00  0.00     0.149 HD
ENDBRANCH   6  13
BRANCH   5  18
ATOM     18  N   LIG d   1      -0.594  74.581 115.794  0.00  0.00     0.381 N 
ATOM     19  H   LIG d   1      -0.913  74.592 116.742  0.00  0.00    -0.090 HD
ATOM     20  H   LIG d   1       0.363  74.273 115.787  0.00  0.00    -0.090 HD
ATOM     21  H   LIG d   1      -1.155  73.958 115.255  0.00  0.00    -0.090 HD
ENDBRANCH   5  18
BRANCH   3  22
ATOM     22  C   LIG d   1      -3.336  77.727 113.444  0.00  0.00     0.382 C 
ATOM     23  O   LIG d   1      -3.306  78.753 112.722  0.00  0.00    -0.241 OA
ATOM     24  O   LIG d   1      -4.288  76.931 113.340  0.00  0.00    -0.241 OA
ENDBRANCH   3  22
TORSDOF 7
ENDMDL
MODEL 3
REMARK VINA RESULT:      -4.5      2.281      3.910
REMARK  7 active torsions:
REMARK  status: ('A' for Active; 'I' for Inactive)
REMARK    1  A    between atoms: C_2  and  C_3 
REMARK    2  A    between atoms: C_3  and  O_6 
REMARK    3  A    between atoms: C_3  and  C_4 
REMARK    4  A    between atoms: C_7  and  O_6 
REMARK    5  A    between atoms: C_9  and  C_10 
REMARK    6  A    between atoms: N_15  and  C_14 
REMARK    7  A    between atoms: N_20  and  C_19 
REMARK       I    between atoms: C_22  and  N_20 
ROOT
ATOM      1  C   LIG d   1      -2.375  77.891 117.382  0.00  0.00     0.161 C 
ATOM      2  C   LIG d   1      -3.145  77.060 116.551  0.00  0.00     0.016 C 
ATOM      3  C   LIG d   1      -2.979  76.993 115.148  0.00  0.00     0.038 C 
ATOM      4  C   LIG d   1      -1.923  77.645 114.495  0.00  0.00     0.028 C 
ATOM      5  C   LIG d   1      -1.435  78.891 115.226  0.00  0.00    -0.047 C 
ATOM      6  C   LIG d   1      -1.145  78.526 116.700  0.00  0.00     0.091 C 
ENDROOT
BRANCH   1   7
ATOM      7  O   LIG d   1      -1.976  77.167 118.562  0.00  0.00    -0.368 OA
BRANCH   7   8
ATOM      8  C   LIG d   1      -0.740  76.418 118.463  0.00  0.00     0.119 C 
BRANCH   8   9
ATOM      9  C   LIG d   1      -1.092  74.924 118.596  0.00  0.00     0.028 C 
ATOM     10  C   LIG d   1      -1.032  74.184 117.250  0.00  0.00     0.006 C 
ENDBRANCH   8   9
BRANCH   8  11
ATOM     11  C   LIG d   1       0.192  76.721 119.639  0.00  0.00     0.028 C 
ATOM     12  C   LIG d   1       1.679  76.664 119.253  0.00  0.00     0.006 C 
ENDBRANCH   8  11
ENDBRANCH   7   8
ENDBRANCH   1   7
BRANCH   6  13
ATOM     13  N   LIG d   1      -0.742  79.707 117.508  0.00  0.00    -0.311 N 
ATOM     14  C   LIG d   1       0.526  80.059 117.711  0.00  0.00     0.210 C 
ATOM     15  C   LIG d   1       0.721  81.298 118.590  0.00  0.00     0.109 C 
ATOM     16  O   LIG d   1       1.507  79.481 117.219  0.00  0.00    -0.276 OA
ATOM     17  H   LIG d   1      -1.477  80.251 117.918  0.00  0.00     0.149 HD
ENDBRANCH   6  13
BRANCH   5  18
ATOM     18  N   LIG d   1      -0.246  79.392 114.510  0.00  0.00     0.381 N 
ATOM     19  H   LIG d   1       0.114  78.676 113.910  0.00  0.00    -0.090 HD
ATOM     20  H   LIG d   1       0.463  79.626 115.181  0.00  0.00    -0.090 HD
ATOM     21  H   LIG d   1      -0.485  80.196 113.973  0.00  0.00    -0.090 HD
ENDBRANCH   5  18
BRANCH   3  22
ATOM     22  C   LIG d   1      -3.901  76.299 114.380  0.00  0.00     0.382 C 
ATOM     23  O   LIG d   1      -4.407  76.840 113.368  0.00  0.00    -0.241 OA
ATOM     24  O   LIG d   1      -4.265  75.155 114.711  0.00  0.00    -0.241 OA
ENDBRANCH   3  22
TORSDOF 7
ENDMDL
MODEL 4
REMARK VINA RESULT:      -4.5      2.467      3.771
REMARK  7 active torsions:
REMARK  status: ('A' for Active; 'I' for Inactive)
REMARK    1  A    between atoms: C_2  and  C_3 
REMARK    2  A    between atoms: C_3  and  O_6 
REMARK    3  A    between atoms: C_3  and  C_4 
REMARK    4  A    between atoms: C_7  and  O_6 
REMARK    5  A    between atoms: C_9  and  C_10 
REMARK    6  A    between atoms: N_15  and  C_14 
REMARK    7  A    between atoms: N_20  and  C_19 
REMARK       I    between atoms: C_22  and  N_20 
ROOT
ATOM      1  C   LIG d   1      -2.637  78.169 116.022  0.00  0.00     0.161 C 
ATOM      2  C   LIG d   1      -3.150  77.764 114.779  0.00  0.00     0.016 C 
ATOM      3  C   LIG d   1      -2.533  78.071 113.544  0.00  0.00     0.038 C 
ATOM      4  C   LIG d   1      -1.271  78.680 113.477  0.00  0.00     0.028 C 
ATOM      5  C   LIG d   1      -0.956  79.555 114.686  0.00  0.00    -0.047 C 
ATOM      6  C   LIG d   1      -1.203  78.739 115.975  0.00  0.00     0.091 C 
ENDROOT
BRANCH   1   7
ATOM      7  O   LIG d   1      -2.712  77.078 116.961  0.00  0.00    -0.368 OA
BRANCH   7   8
ATOM      8  C   LIG d   1      -1.509  76.286 117.115  0.00  0.00     0.119 C 
BRANCH   8   9
ATOM      9  C   LIG d   1      -1.801  74.886 116.541  0.00  0.00     0.028 C 
ATOM     10  C   LIG d   1      -1.030  74.613 115.238  0.00  0.00     0.006 C 
ENDBRANCH   8   9
BRANCH   8  11
ATOM     11  C   LIG d   1      -1.178  76.057 118.592  0.00  0.00     0.028 C 
ATOM     12  C   LIG d   1      -1.985  76.966 119.532  0.00  0.00     0.006 C 
ENDBRANCH   8  11
ENDBRANCH   7   8
ENDBRANCH   1   7
BRANCH   6  13
ATOM     13  N   LIG d   1      -1.000  79.546 117.206  0.00  0.00    -0.311 N 
ATOM     14  C   LIG d   1       0.150  79.583 117.877  0.00  0.00     0.210 C 
ATOM     15  C   LIG d   1       0.139  80.464 119.130  0.00  0.00     0.109 C 
ATOM     16  O   LIG d   1       1.187  78.995 117.535  0.00  0.00    -0.276 OA
ATOM     17  H   LIG d   1      -1.781  80.079 117.536  0.00  0.00     0.149 HD
ENDBRANCH   6  13
BRANCH   5  18
ATOM     18  N   LIG d   1       0.438  80.016 114.552  0.00  0.00     0.381 N 
ATOM     19  H   LIG d   1       0.776  80.336 115.437  0.00  0.00    -0.090 HD
ATOM     20  H   LIG d   1       0.466  80.786 113.907  0.00  0.00    -0.090 HD
ATOM     21  H   LIG d   1       1.012  79.273 114.218  0.00  0.00    -0.090 HD
ENDBRANCH   5  18
BRANCH   3  22
ATOM     22  C   LIG d   1      -3.199  77.804 112.358  0.00  0.00     0.382 C 
ATOM     23  O   LIG d   1      -2.555  77.711 111.285  0.00  0.00    -0.241 OA
ATOM     24  O   LIG d   1      -4.440  77.698 112.340  0.00  0.00    -0.241 OA
ENDBRANCH   3  22
TORSDOF 7
ENDMDL
MODEL 5
REMARK VINA RESULT:      -4.4      3.590      5.291
REMARK  7 active torsions:
REMARK  status: ('A' for Active; 'I' for Inactive)
REMARK    1  A    between atoms: C_2  and  C_3 
REMARK    2  A    between atoms: C_3  and  O_6 
REMARK    3  A    between atoms: C_3  and  C_4 
REMARK    4  A    between atoms: C_7  and  O_6 
REMARK    5  A    between atoms: C_9  and  C_10 
REMARK    6  A    between atoms: N_15  and  C_14 
REMARK    7  A    between atoms: N_20  and  C_19 
REMARK       I    between atoms: C_22  and  N_20 
ROOT
ATOM      1  C   LIG d   1      -0.390  80.116 113.173  0.00  0.00     0.161 C 
ATOM      2  C   LIG d   1      -1.486  79.517 112.529  0.00  0.00     0.016 C 
ATOM      3  C   LIG d   1      -2.300  78.532 113.134  0.00  0.00     0.038 C 
ATOM      4  C   LIG d   1      -2.164  78.186 114.487  0.00  0.00     0.028 C 
ATOM      5  C   LIG d   1      -0.754  78.396 115.027  0.00  0.00    -0.047 C 
ATOM      6  C   LIG d   1      -0.294  79.832 114.687  0.00  0.00     0.091 C 
ENDROOT
BRANCH   1   7
ATOM      7  O   LIG d   1      -0.396  81.536 112.929  0.00  0.00    -0.368 OA
BRANCH   7   8
ATOM      8  C   LIG d   1       0.031  81.958 111.610  0.00  0.00     0.119 C 
BRANCH   8   9
ATOM      9  C   LIG d   1       1.569  81.867 111.570  0.00  0.00     0.028 C 
ATOM     10  C   LIG d   1       2.069  80.828 110.553  0.00  0.00     0.006 C 
ENDBRANCH   8   9
BRANCH   8  11
ATOM     11  C   LIG d   1      -0.295  83.435 111.366  0.00  0.00     0.028 C 
ATOM     12  C   LIG d   1      -0.344  84.257 112.663  0.00  0.00     0.006 C 
ENDBRANCH   8  11
ENDBRANCH   7   8
ENDBRANCH   1   7
BRANCH   6  13
ATOM     13  N   LIG d   1       1.108  80.093 115.106  0.00  0.00    -0.311 N 
ATOM     14  C   LIG d   1       1.440  80.538 116.316  0.00  0.00     0.210 C 
ATOM     15  C   LIG d   1       2.940  80.760 116.534  0.00  0.00     0.109 C 
ATOM     16  O   LIG d   1       0.638  80.741 117.240  0.00  0.00    -0.276 OA
ATOM     17  H   LIG d   1       1.825  79.925 114.428  0.00  0.00     0.149 HD
ENDBRANCH   6  13
BRANCH   5  18
ATOM     18  N   LIG d   1      -0.788  78.128 116.477  0.00  0.00     0.381 N 
ATOM     19  H   LIG d   1      -1.721  78.236 116.820  0.00  0.00    -0.090 HD
ATOM     20  H   LIG d   1      -0.201  78.797 116.945  0.00  0.00    -0.090 HD
ATOM     21  H   LIG d   1      -0.463  77.204 116.661  0.00  0.00    -0.090 HD
ENDBRANCH   5  18
BRANCH   3  22
ATOM     22  C   LIG d   1      -3.238  77.853 112.372  0.00  0.00     0.382 C 
ATOM     23  O   LIG d   1      -3.083  77.753 111.131  0.00  0.00    -0.241 OA
ATOM     24  O   LIG d   1      -4.259  77.377 112.903  0.00  0.00    -0.241 OA
ENDBRANCH   3  22
TORSDOF 7
ENDMDL
MODEL 6
REMARK VINA RESULT:      -4.3      1.135      1.325
REMARK  7 active torsions:
REMARK  status: ('A' for Active; 'I' for Inactive)
REMARK    1  A    between atoms: C_2  and  C_3 
REMARK    2  A    between atoms: C_3  and  O_6 
REMARK    3  A    between atoms: C_3  and  C_4 
REMARK    4  A    between atoms: C_7  and  O_6 
REMARK    5  A    between atoms: C_9  and  C_10 
REMARK    6  A    between atoms: N_15  and  C_14 
REMARK    7  A    between atoms: N_20  and  C_19 
REMARK       I    between atoms: C_22  and  N_20 
ROOT
ATOM      1  C   LIG d   1      -0.020  77.645 116.415  0.00  0.00     0.161 C 
ATOM      2  C   LIG d   1      -0.904  78.212 115.483  0.00  0.00     0.016 C 
ATOM      3  C   LIG d   1      -1.995  77.511 114.919  0.00  0.00     0.038 C 
ATOM      4  C   LIG d   1      -2.368  76.235 115.366  0.00  0.00     0.028 C 
ATOM      5  C   LIG d   1      -1.206  75.432 115.941  0.00  0.00    -0.047 C 
ATOM      6  C   LIG d   1      -0.476  76.291 116.999  0.00  0.00     0.091 C 
ENDROOT
BRANCH   1   7
ATOM      7  O   LIG d   1       0.240  78.585 117.476  0.00  0.00    -0.368 OA
BRANCH   7   8
ATOM      8  C   LIG d   1      -0.870  79.431 117.865  0.00  0.00     0.119 C 
BRANCH   8   9
ATOM      9  C   LIG d   1      -0.282  80.687 118.536  0.00  0.00     0.028 C 
ATOM     10  C   LIG d   1       1.079  81.087 117.943  0.00  0.00     0.006 C 
ENDBRANCH   8   9
BRANCH   8  11
ATOM     11  C   LIG d   1      -1.730  78.761 118.942  0.00  0.00     0.028 C 
ATOM     12  C   LIG d   1      -3.179  78.526 118.486  0.00  0.00     0.006 C 
ENDBRANCH   8  11
ENDBRANCH   7   8
ENDBRANCH   1   7
BRANCH   6  13
ATOM     13  N   LIG d   1       0.725  75.612 117.551  0.00  0.00    -0.311 N 
ATOM     14  C   LIG d   1       0.911  75.393 118.851  0.00  0.00     0.210 C 
ATOM     15  C   LIG d   1       2.226  74.695 119.208  0.00  0.00     0.109 C 
ATOM     16  O   LIG d   1       0.096  75.683 119.741  0.00  0.00    -0.276 OA
ATOM     17  H   LIG d   1       1.422  75.315 116.896  0.00  0.00     0.149 HD
ENDBRANCH   6  13
BRANCH   5  18
ATOM     18  N   LIG d   1      -1.760  74.181 116.494  0.00  0.00     0.381 N 
ATOM     19  H   LIG d   1      -1.023  73.521 116.643  0.00  0.00    -0.090 HD
ATOM     20  H   LIG d   1      -2.404  73.789 115.830  0.00  0.00    -0.090 HD
ATOM     21  H   LIG d   1      -2.228  74.366 117.354  0.00  0.00    -0.090 HD
ENDBRANCH   5  18
BRANCH   3  22
ATOM     22  C   LIG d   1      -2.703  78.073 113.867  0.00  0.00     0.382 C 
ATOM     23  O   LIG d   1      -2.889  77.415 112.815  0.00  0.00    -0.241 OA
ATOM     24  O   LIG d   1      -3.118  79.245 113.939  0.00  0.00    -0.241 OA
ENDBRANCH   3  22
TORSDOF 7
ENDMDL
MODEL 7
REMARK VINA RESULT:      -4.3      2.656      4.727
REMARK  7 active torsions:
REMARK  status: ('A' for Active; 'I' for Inactive)
REMARK    1  A    between atoms: C_2  and  C_3 
REMARK    2  A    between atoms: C_3  and  O_6 
REMARK    3  A    between atoms: C_3  and  C_4 
REMARK    4  A    between atoms: C_7  and  O_6 
REMARK    5  A    between atoms: C_9  and  C_10 
REMARK    6  A    between atoms: N_15  and  C_14 
REMARK    7  A    between atoms: N_20  and  C_19 
REMARK       I    between atoms: C_22  and  N_20 
ROOT
ATOM      1  C   LIG d   1      -0.047  77.725 117.907  0.00  0.00     0.161 C 
ATOM      2  C   LIG d   1      -0.661  76.549 117.444  0.00  0.00     0.016 C 
ATOM      3  C   LIG d   1      -1.074  76.362 116.105  0.00  0.00     0.038 C 
ATOM      4  C   LIG d   1      -0.763  77.287 115.097  0.00  0.00     0.028 C 
ATOM      5  C   LIG d   1      -0.592  78.712 115.613  0.00  0.00    -0.047 C 
ATOM      6  C   LIG d   1       0.401  78.700 116.798  0.00  0.00     0.091 C 
ENDROOT
BRANCH   1   7
ATOM      7  O   LIG d   1       1.065  77.392 118.761  0.00  0.00    -0.368 OA
BRANCH   7   8
ATOM      8  C   LIG d   1       1.740  76.143 118.471  0.00  0.00     0.119 C 
BRANCH   8   9
ATOM      9  C   LIG d   1       1.868  75.368 119.797  0.00  0.00     0.028 C 
ATOM     10  C   LIG d   1       0.894  74.181 119.879  0.00  0.00     0.006 C 
ENDBRANCH   8   9
BRANCH   8  11
ATOM     11  C   LIG d   1       3.177  76.383 118.000  0.00  0.00     0.028 C 
ATOM     12  C   LIG d   1       4.179  75.396 118.620  0.00  0.00     0.006 C 
ENDBRANCH   8  11
ENDBRANCH   7   8
ENDBRANCH   1   7
BRANCH   6  13
ATOM     13  N   LIG d   1       0.561  80.042 117.417  0.00  0.00    -0.311 N 
ATOM     14  C   LIG d   1       1.538  80.887 117.092  0.00  0.00     0.210 C 
ATOM     15  C   LIG d   1       1.531  82.210 117.864  0.00  0.00     0.109 C 
ATOM     16  O   LIG d   1       2.390  80.680 116.215  0.00  0.00    -0.276 OA
ATOM     17  H   LIG d   1      -0.106  80.304 118.116  0.00  0.00     0.149 HD
ENDBRANCH   6  13
BRANCH   5  18
ATOM     18  N   LIG d   1      -0.135  79.543 114.484  0.00  0.00     0.381 N 
ATOM     19  H   LIG d   1       0.044  80.475 114.800  0.00  0.00    -0.090 HD
ATOM     20  H   LIG d   1      -0.863  79.580 113.792  0.00  0.00    -0.090 HD
ATOM     21  H   LIG d   1       0.692  79.155 114.087  0.00  0.00    -0.090 HD
ENDBRANCH   5  18
BRANCH   3  22
ATOM     22  C   LIG d   1      -1.843  75.258 115.771  0.00  0.00     0.382 C 
ATOM     23  O   LIG d   1      -2.723  75.352 114.881  0.00  0.00    -0.241 OA
ATOM     24  O   LIG d   1      -1.698  74.180 116.379  0.00  0.00    -0.241 OA
ENDBRANCH   3  22
TORSDOF 7
ENDMDL
MODEL 8
REMARK VINA RESULT:      -4.1      1.995      3.096
REMARK  7 active torsions:
REMARK  status: ('A' for Active; 'I' for Inactive)
REMARK    1  A    between atoms: C_2  and  C_3 
REMARK    2  A    between atoms: C_3  and  O_6 
REMARK    3  A    between atoms: C_3  and  C_4 
REMARK    4  A    between atoms: C_7  and  O_6 
REMARK    5  A    between atoms: C_9  and  C_10 
REMARK    6  A    between atoms: N_15  and  C_14 
REMARK    7  A    between atoms: N_20  and  C_19 
REMARK       I    between atoms: C_22  and  N_20 
ROOT
ATOM      1  C   LIG d   1      -0.719  77.905 115.898  0.00  0.00     0.161 C 
ATOM      2  C   LIG d   1      -1.100  78.854 114.935  0.00  0.00     0.016 C 
ATOM      3  C   LIG d   1      -2.276  78.744 114.158  0.00  0.00     0.038 C 
ATOM      4  C   LIG d   1      -3.234  77.749 114.399  0.00  0.00     0.028 C 
ATOM      5  C   LIG d   1      -2.650  76.483 115.017  0.00  0.00    -0.047 C 
ATOM      6  C   LIG d   1      -1.807  76.870 116.253  0.00  0.00     0.091 C 
ENDROOT
BRANCH   1   7
ATOM      7  O   LIG d   1      -0.257  78.574 117.088  0.00  0.00    -0.368 OA
BRANCH   7   8
ATOM      8  C   LIG d   1       1.173  78.549 117.319  0.00  0.00     0.119 C 
BRANCH   8   9
ATOM      9  C   LIG d   1       1.408  77.901 118.697  0.00  0.00     0.028 C 
ATOM     10  C   LIG d   1       2.372  76.704 118.626  0.00  0.00     0.006 C 
ENDBRANCH   8   9
BRANCH   8  11
ATOM     11  C   LIG d   1       1.744  79.966 117.435  0.00  0.00     0.028 C 
ATOM     12  C   LIG d   1       0.783  80.940 118.134  0.00  0.00     0.006 C 
ENDBRANCH   8  11
ENDBRANCH   7   8
ENDBRANCH   1   7
BRANCH   6  13
ATOM     13  N   LIG d   1      -1.131  75.699 116.869  0.00  0.00    -0.311 N 
ATOM     14  C   LIG d   1      -1.179  75.425 118.171  0.00  0.00     0.210 C 
ATOM     15  C   LIG d   1      -0.396  74.180 118.600  0.00  0.00     0.109 C 
ATOM     16  O   LIG d   1      -1.822  76.077 119.008  0.00  0.00    -0.276 OA
ATOM     17  H   LIG d   1      -0.612  75.099 116.258  0.00  0.00     0.149 HD
ENDBRANCH   6  13
BRANCH   5  18
ATOM     18  N   LIG d   1      -3.775  75.586 115.342  0.00  0.00     0.381 N 
ATOM     19  H   LIG d   1      -4.585  75.856 114.822  0.00  0.00    -0.090 HD
ATOM     20  H   LIG d   1      -3.986  75.670 116.321  0.00  0.00    -0.090 HD
ATOM     21  H   LIG d   1      -3.533  74.643 115.128  0.00  0.00    -0.090 HD
ENDBRANCH   5  18
BRANCH   3  22
ATOM     22  C   LIG d   1      -2.483  79.615 113.099  0.00  0.00     0.382 C 
ATOM     23  O   LIG d   1      -1.866  79.446 112.019  0.00  0.00    -0.241 OA
ATOM     24  O   LIG d   1      -3.245  80.592 113.224  0.00  0.00    -0.241 OA
ENDBRANCH   3  22
TORSDOF 7
ENDMDL
MODEL 9
REMARK VINA RESULT:      -4.0      2.345      4.844
REMARK  7 active torsions:
REMARK  status: ('A' for Active; 'I' for Inactive)
REMARK    1  A    between atoms: C_2  and  C_3 
REMARK    2  A    between atoms: C_3  and  O_6 
REMARK    3  A    between atoms: C_3  and  C_4 
REMARK    4  A    between atoms: C_7  and  O_6 
REMARK    5  A    between atoms: C_9  and  C_10 
REMARK    6  A    between atoms: N_15  and  C_14 
REMARK    7  A    between atoms: N_20  and  C_19 
REMARK       I    between atoms: C_22  and  N_20 
ROOT
ATOM      1  C   LIG d   1      -1.370  77.850 115.269  0.00  0.00     0.161 C 
ATOM      2  C   LIG d   1      -2.251  78.385 116.224  0.00  0.00     0.016 C 
ATOM      3  C   LIG d   1      -2.235  78.018 117.589  0.00  0.00     0.038 C 
ATOM      4  C   LIG d   1      -1.231  77.198 118.125  0.00  0.00     0.028 C 
ATOM      5  C   LIG d   1      -0.626  76.238 117.107  0.00  0.00    -0.047 C 
ATOM      6  C   LIG d   1      -0.197  77.038 115.856  0.00  0.00     0.091 C 
ENDROOT
BRANCH   1   7
ATOM      7  O   LIG d   1      -0.875  78.902 114.417  0.00  0.00    -0.368 OA
BRANCH   7   8
ATOM      8  C   LIG d   1      -1.774  79.354 113.375  0.00  0.00     0.119 C 
BRANCH   8   9
ATOM      9  C   LIG d   1      -2.340  78.103 112.676  0.00  0.00     0.028 C 
ATOM     10  C   LIG d   1      -1.895  77.999 111.208  0.00  0.00     0.006 C 
ENDBRANCH   8   9
BRANCH   8  11
ATOM     11  C   LIG d   1      -1.022  80.123 112.285  0.00  0.00     0.028 C 
ATOM     12  C   LIG d   1       0.205  80.875 112.824  0.00  0.00     0.006 C 
ENDBRANCH   8  11
ENDBRANCH   7   8
ENDBRANCH   1   7
BRANCH   6  13
ATOM     13  N   LIG d   1       0.329  76.162 114.776  0.00  0.00    -0.311 N 
ATOM     14  C   LIG d   1      -0.377  75.177 114.223  0.00  0.00     0.210 C 
ATOM     15  C   LIG d   1       0.361  74.383 113.140  0.00  0.00     0.109 C 
ATOM     16  O   LIG d   1      -1.553  74.905 114.504  0.00  0.00    -0.276 OA
ATOM     17  H   LIG d   1       1.265  76.333 114.465  0.00  0.00     0.149 HD
ENDBRANCH   6  13
BRANCH   5  18
ATOM     18  N   LIG d   1       0.498  75.543 117.762  0.00  0.00     0.381 N 
ATOM     19  H   LIG d   1       1.104  76.211 118.194  0.00  0.00    -0.090 HD
ATOM     20  H   LIG d   1       1.023  75.044 117.066  0.00  0.00    -0.090 HD
ATOM     21  H   LIG d   1       0.152  74.906 118.447  0.00  0.00    -0.090 HD
ENDBRANCH   5  18
BRANCH   3  22
ATOM     22  C   LIG d   1      -3.255  78.443 118.427  0.00  0.00     0.382 C 
ATOM     23  O   LIG d   1      -4.125  79.241 118.001  0.00  0.00    -0.241 OA
ATOM     24  O   LIG d   1      -3.292  78.072 119.615  0.00  0.00    -0.241 OA
ENDBRANCH   3  22
TORSDOF 7
ENDMDL
