MODEL 1
REMARK VINA RESULT:      -4.9      0.000      0.000
REMARK  7 active torsions:
REMARK  status: ('A' for Active; 'I' for Inactive)
REMARK    1  A    between atoms: C_2  and  C_3 
REMARK    2  A    between atoms: C_3  and  O_6 
REMARK    3  A    between atoms: C_3  and  C_4 
REMARK    4  A    between atoms: C_7  and  O_6 
REMARK    5  A    between atoms: C_9  and  C_10 
REMARK    6  A    between atoms: N_15  and  C_14 
REMARK    7  A    between atoms: N_20  and  C_19 
REMARK       I    between atoms: C_22  and  N_20 
ROOT
ATOM      1  C   LIG d   1       0.508  83.048 112.080  0.00  0.00     0.161 C 
ATOM      2  C   LIG d   1      -0.745  82.751 112.641  0.00  0.00     0.016 C 
ATOM      3  C   LIG d   1      -1.473  81.577 112.343  0.00  0.00     0.038 C 
ATOM      4  C   LIG d   1      -0.924  80.540 111.573  0.00  0.00     0.028 C 
ATOM      5  C   LIG d   1       0.128  81.017 110.577  0.00  0.00    -0.047 C 
ATOM      6  C   LIG d   1       1.172  81.878 111.324  0.00  0.00     0.091 C 
ENDROOT
BRANCH   1   7
ATOM      7  O   LIG d   1       1.393  83.553 113.099  0.00  0.00    -0.368 OA
BRANCH   7   8
ATOM      8  C   LIG d   1       1.195  83.024 114.434  0.00  0.00     0.119 C 
BRANCH   8   9
ATOM      9  C   LIG d   1       1.214  84.215 115.411  0.00  0.00     0.028 C 
ATOM     10  C   LIG d   1      -0.201  84.680 115.796  0.00  0.00     0.006 C 
ENDBRANCH   8   9
BRANCH   8  11
ATOM     11  C   LIG d   1       2.366  82.133 114.859  0.00  0.00     0.028 C 
ATOM     12  C   LIG d   1       2.061  80.634 114.705  0.00  0.00     0.006 C 
ENDBRANCH   8  11
ENDBRANCH   7   8
ENDBRANCH   1   7
BRANCH   6  13
ATOM     13  N   LIG d   1       2.191  82.454 110.409  0.00  0.00    -0.311 N 
ATOM     14  C   LIG d   1       3.501  82.265 110.558  0.00  0.00     0.210 C 
ATOM     15  C   LIG d   1       4.378  82.965 109.515  0.00  0.00     0.109 C 
ATOM     16  O   LIG d   1       4.018  81.558 111.436  0.00  0.00    -0.276 OA
ATOM     17  H   LIG d   1       1.857  83.016 109.650  0.00  0.00     0.149 HD
ENDBRANCH   6  13
BRANCH   5  18
ATOM     18  N   LIG d   1       0.713  79.821 109.941  0.00  0.00     0.381 N 
ATOM     19  H   LIG d   1       0.945  80.024 108.989  0.00  0.00    -0.090 HD
ATOM     20  H   LIG d   1       0.032  79.082 109.950  0.00  0.00    -0.090 HD
ATOM     21  H   LIG d   1       1.529  79.537 110.436  0.00  0.00    -0.090 HD
ENDBRANCH   5  18
BRANCH   3  22
ATOM     22  C   LIG d   1      -2.781  81.448 112.785  0.00  0.00     0.382 C 
ATOM     23  O   LIG d   1      -3.336  80.323 112.780  0.00  0.00    -0.241 OA
ATOM     24  O   LIG d   1      -3.427  82.449 113.146  0.00  0.00    -0.241 OA
ENDBRANCH   3  22
TORSDOF 7
ENDMDL
MODEL 2
REMARK VINA RESULT:      -4.8      2.698      4.680
REMARK  7 active torsions:
REMARK  status: ('A' for Active; 'I' for Inactive)
REMARK    1  A    between atoms: C_2  and  C_3 
REMARK    2  A    between atoms: C_3  and  O_6 
REMARK    3  A    between atoms: C_3  and  C_4 
REMARK    4  A    between atoms: C_7  and  O_6 
REMARK    5  A    between atoms: C_9  and  C_10 
REMARK    6  A    between atoms: N_15  and  C_14 
REMARK    7  A    between atoms: N_20  and  C_19 
REMARK       I    between atoms: C_22  and  N_20 
ROOT
ATOM      1  C   LIG d   1      -0.812  80.890 112.058  0.00  0.00     0.161 C 
ATOM      2  C   LIG d   1      -1.557  79.754 111.701  0.00  0.00     0.016 C 
ATOM      3  C   LIG d   1      -2.477  79.123 112.570  0.00  0.00     0.038 C 
ATOM      4  C   LIG d   1      -2.827  79.678 113.810  0.00  0.00     0.028 C 
ATOM      5  C   LIG d   1      -1.728  80.544 114.418  0.00  0.00    -0.047 C 
ATOM      6  C   LIG d   1      -1.262  81.575 113.365  0.00  0.00     0.091 C 
ENDROOT
BRANCH   1   7
ATOM      7  O   LIG d   1      -0.813  81.836 110.970  0.00  0.00    -0.368 OA
BRANCH   7   8
ATOM      8  C   LIG d   1       0.444  82.003 110.269  0.00  0.00     0.119 C 
BRANCH   8   9
ATOM      9  C   LIG d   1       1.474  81.074 110.939  0.00  0.00     0.028 C 
ATOM     10  C   LIG d   1       2.756  81.818 111.350  0.00  0.00     0.006 C 
ENDBRANCH   8   9
BRANCH   8  11
ATOM     11  C   LIG d   1       0.998  83.419 110.448  0.00  0.00     0.028 C 
ATOM     12  C   LIG d   1      -0.070  84.506 110.250  0.00  0.00     0.006 C 
ENDBRANCH   8  11
ENDBRANCH   7   8
ENDBRANCH   1   7
BRANCH   6  13
ATOM     13  N   LIG d   1      -0.130  82.408 113.849  0.00  0.00    -0.311 N 
ATOM     14  C   LIG d   1      -0.168  83.738 113.899  0.00  0.00     0.210 C 
ATOM     15  C   LIG d   1       1.114  84.402 114.412  0.00  0.00     0.109 C 
ATOM     16  O   LIG d   1      -1.152  84.430 113.598  0.00  0.00    -0.276 OA
ATOM     17  H   LIG d   1       0.697  81.926 114.143  0.00  0.00     0.149 HD
ENDBRANCH   6  13
BRANCH   5  18
ATOM     18  N   LIG d   1      -2.276  81.169 115.636  0.00  0.00     0.381 N 
ATOM     19  H   LIG d   1      -2.488  80.463 116.313  0.00  0.00    -0.090 HD
ATOM     20  H   LIG d   1      -3.129  81.646 115.402  0.00  0.00    -0.090 HD
ATOM     21  H   LIG d   1      -1.618  81.815 116.014  0.00  0.00    -0.090 HD
ENDBRANCH   5  18
BRANCH   3  22
ATOM     22  C   LIG d   1      -3.027  77.900 112.218  0.00  0.00     0.382 C 
ATOM     23  O   LIG d   1      -3.524  77.158 113.100  0.00  0.00    -0.241 OA
ATOM     24  O   LIG d   1      -2.993  77.509 111.035  0.00  0.00    -0.241 OA
ENDBRANCH   3  22
TORSDOF 7
ENDMDL
MODEL 3
REMARK VINA RESULT:      -4.5      2.144      4.811
REMARK  7 active torsions:
REMARK  status: ('A' for Active; 'I' for Inactive)
REMARK    1  A    between atoms: C_2  and  C_3 
REMARK    2  A    between atoms: C_3  and  O_6 
REMARK    3  A    between atoms: C_3  and  C_4 
REMARK    4  A    between atoms: C_7  and  O_6 
REMARK    5  A    between atoms: C_9  and  C_10 
REMARK    6  A    between atoms: N_15  and  C_14 
REMARK    7  A    between atoms: N_20  and  C_19 
REMARK       I    between atoms: C_22  and  N_20 
ROOT
ATOM      1  C   LIG d   1       0.000  81.953 113.012  0.00  0.00     0.161 C 
ATOM      2  C   LIG d   1       0.827  82.897 112.380  0.00  0.00     0.016 C 
ATOM      3  C   LIG d   1       1.177  82.832 111.012  0.00  0.00     0.038 C 
ATOM      4  C   LIG d   1       0.598  81.897 110.142  0.00  0.00     0.028 C 
ATOM      5  C   LIG d   1       0.150  80.617 110.840  0.00  0.00    -0.047 C 
ATOM      6  C   LIG d   1      -0.731  80.989 112.054  0.00  0.00     0.091 C 
ENDROOT
BRANCH   1   7
ATOM      7  O   LIG d   1      -0.948  82.627 113.864  0.00  0.00    -0.368 OA
BRANCH   7   8
ATOM      8  C   LIG d   1      -0.800  82.399 115.287  0.00  0.00     0.119 C 
BRANCH   8   9
ATOM      9  C   LIG d   1      -2.201  82.103 115.856  0.00  0.00     0.028 C 
ATOM     10  C   LIG d   1      -3.295  82.963 115.200  0.00  0.00     0.006 C 
ENDBRANCH   8   9
BRANCH   8  11
ATOM     11  C   LIG d   1      -0.328  83.665 116.008  0.00  0.00     0.028 C 
ATOM     12  C   LIG d   1      -0.321  83.512 117.537  0.00  0.00     0.006 C 
ENDBRANCH   8  11
ENDBRANCH   7   8
ENDBRANCH   1   7
BRANCH   6  13
ATOM     13  N   LIG d   1      -1.142  79.799 112.842  0.00  0.00    -0.311 N 
ATOM     14  C   LIG d   1      -2.409  79.525 113.150  0.00  0.00     0.210 C 
ATOM     15  C   LIG d   1      -2.612  78.259 113.987  0.00  0.00     0.109 C 
ATOM     16  O   LIG d   1      -3.386  80.194 112.782  0.00  0.00    -0.276 OA
ATOM     17  H   LIG d   1      -0.416  79.185 113.155  0.00  0.00     0.149 HD
ENDBRANCH   6  13
BRANCH   5  18
ATOM     18  N   LIG d   1      -0.558  79.791 109.844  0.00  0.00     0.381 N 
ATOM     19  H   LIG d   1      -1.474  80.161 109.686  0.00  0.00    -0.090 HD
ATOM     20  H   LIG d   1      -0.653  78.858 110.204  0.00  0.00    -0.090 HD
ATOM     21  H   LIG d   1      -0.047  79.774 108.989  0.00  0.00    -0.090 HD
ENDBRANCH   5  18
BRANCH   3  22
ATOM     22  C   LIG d   1       2.148  83.686 110.510  0.00  0.00     0.382 C 
ATOM     23  O   LIG d   1       3.297  83.694 111.014  0.00  0.00    -0.241 OA
ATOM     24  O   LIG d   1       1.877  84.479 109.589  0.00  0.00    -0.241 OA
ENDBRANCH   3  22
TORSDOF 7
ENDMDL
MODEL 4
REMARK VINA RESULT:      -4.5      2.076      4.158
REMARK  7 active torsions:
REMARK  status: ('A' for Active; 'I' for Inactive)
REMARK    1  A    between atoms: C_2  and  C_3 
REMARK    2  A    between atoms: C_3  and  O_6 
REMARK    3  A    between atoms: C_3  and  C_4 
REMARK    4  A    between atoms: C_7  and  O_6 
REMARK    5  A    between atoms: C_9  and  C_10 
REMARK    6  A    between atoms: N_15  and  C_14 
REMARK    7  A    between atoms: N_20  and  C_19 
REMARK       I    between atoms: C_22  and  N_20 
ROOT
ATOM      1  C   LIG d   1       0.772  81.207 112.931  0.00  0.00     0.161 C 
ATOM      2  C   LIG d   1      -0.562  80.921 112.596  0.00  0.00     0.016 C 
ATOM      3  C   LIG d   1      -1.657  81.708 113.021  0.00  0.00     0.038 C 
ATOM      4  C   LIG d   1      -1.478  82.928 113.689  0.00  0.00     0.028 C 
ATOM      5  C   LIG d   1      -0.180  82.998 114.486  0.00  0.00    -0.047 C 
ATOM      6  C   LIG d   1       0.996  82.595 113.566  0.00  0.00     0.091 C 
ENDROOT
BRANCH   1   7
ATOM      7  O   LIG d   1       1.612  81.044 111.772  0.00  0.00    -0.368 OA
BRANCH   7   8
ATOM      8  C   LIG d   1       1.545  82.100 110.783  0.00  0.00     0.119 C 
BRANCH   8   9
ATOM      9  C   LIG d   1       1.124  81.458 109.447  0.00  0.00     0.028 C 
ATOM     10  C   LIG d   1       1.346  79.936 109.432  0.00  0.00     0.006 C 
ENDBRANCH   8   9
BRANCH   8  11
ATOM     11  C   LIG d   1       2.927  82.708 110.522  0.00  0.00     0.028 C 
ATOM     12  C   LIG d   1       4.068  81.876 111.128  0.00  0.00     0.006 C 
ENDBRANCH   8  11
ENDBRANCH   7   8
ENDBRANCH   1   7
BRANCH   6  13
ATOM     13  N   LIG d   1       2.293  82.555 114.289  0.00  0.00    -0.311 N 
ATOM     14  C   LIG d   1       3.171  83.557 114.277  0.00  0.00     0.210 C 
ATOM     15  C   LIG d   1       4.455  83.302 115.072  0.00  0.00     0.109 C 
ATOM     16  O   LIG d   1       2.993  84.646 113.710  0.00  0.00    -0.276 OA
ATOM     17  H   LIG d   1       2.505  81.721 114.801  0.00  0.00     0.149 HD
ENDBRANCH   6  13
BRANCH   5  18
ATOM     18  N   LIG d   1      -0.055  84.368 115.016  0.00  0.00     0.381 N 
ATOM     19  H   LIG d   1       0.912  84.606 115.118  0.00  0.00    -0.090 HD
ATOM     20  H   LIG d   1      -0.486  84.406 115.923  0.00  0.00    -0.090 HD
ATOM     21  H   LIG d   1      -0.500  85.014 114.402  0.00  0.00    -0.090 HD
ENDBRANCH   5  18
BRANCH   3  22
ATOM     22  C   LIG d   1      -2.951  81.255 112.812  0.00  0.00     0.382 C 
ATOM     23  O   LIG d   1      -3.827  82.040 112.376  0.00  0.00    -0.241 OA
ATOM     24  O   LIG d   1      -3.264  80.084 113.097  0.00  0.00    -0.241 OA
ENDBRANCH   3  22
TORSDOF 7
ENDMDL
MODEL 5
REMARK VINA RESULT:      -4.5      2.286      4.103
REMARK  7 active torsions:
REMARK  status: ('A' for Active; 'I' for Inactive)
REMARK    1  A    between atoms: C_2  and  C_3 
REMARK    2  A    between atoms: C_3  and  O_6 
REMARK    3  A    between atoms: C_3  and  C_4 
REMARK    4  A    between atoms: C_7  and  O_6 
REMARK    5  A    between atoms: C_9  and  C_10 
REMARK    6  A    between atoms: N_15  and  C_14 
REMARK    7  A    between atoms: N_20  and  C_19 
REMARK       I    between atoms: C_22  and  N_20 
ROOT
ATOM      1  C   LIG d   1       0.735  81.580 112.162  0.00  0.00     0.161 C 
ATOM      2  C   LIG d   1      -0.655  81.762 112.070  0.00  0.00     0.016 C 
ATOM      3  C   LIG d   1      -1.532  81.628 113.172  0.00  0.00     0.038 C 
ATOM      4  C   LIG d   1      -1.057  81.451 114.480  0.00  0.00     0.028 C 
ATOM      5  C   LIG d   1       0.301  80.760 114.543  0.00  0.00    -0.047 C 
ATOM      6  C   LIG d   1       1.283  81.496 113.602  0.00  0.00     0.091 C 
ENDROOT
BRANCH   1   7
ATOM      7  O   LIG d   1       1.413  82.618 111.428  0.00  0.00    -0.368 OA
BRANCH   7   8
ATOM      8  C   LIG d   1       1.673  82.344 110.029  0.00  0.00     0.119 C 
BRANCH   8   9
ATOM      9  C   LIG d   1       2.412  80.995 109.952  0.00  0.00     0.028 C 
ATOM     10  C   LIG d   1       3.927  81.142 110.173  0.00  0.00     0.006 C 
ENDBRANCH   8   9
BRANCH   8  11
ATOM     11  C   LIG d   1       2.639  83.371 109.431  0.00  0.00     0.028 C 
ATOM     12  C   LIG d   1       2.772  84.637 110.292  0.00  0.00     0.006 C 
ENDBRANCH   8  11
ENDBRANCH   7   8
ENDBRANCH   1   7
BRANCH   6  13
ATOM     13  N   LIG d   1       2.612  80.834 113.540  0.00  0.00    -0.311 N 
ATOM     14  C   LIG d   1       3.631  81.158 114.334  0.00  0.00     0.210 C 
ATOM     15  C   LIG d   1       4.919  80.366 114.090  0.00  0.00     0.109 C 
ATOM     16  O   LIG d   1       3.580  82.005 115.238  0.00  0.00    -0.276 OA
ATOM     17  H   LIG d   1       2.731  80.113 112.855  0.00  0.00     0.149 HD
ENDBRANCH   6  13
BRANCH   5  18
ATOM     18  N   LIG d   1       0.738  80.764 115.952  0.00  0.00     0.381 N 
ATOM     19  H   LIG d   1       0.004  81.116 116.533  0.00  0.00    -0.090 HD
ATOM     20  H   LIG d   1       1.532  81.373 116.044  0.00  0.00    -0.090 HD
ATOM     21  H   LIG d   1       0.984  79.841 116.236  0.00  0.00    -0.090 HD
ENDBRANCH   5  18
BRANCH   3  22
ATOM     22  C   LIG d   1      -2.902  81.632 112.964  0.00  0.00     0.382 C 
ATOM     23  O   LIG d   1      -3.455  80.652 112.410  0.00  0.00    -0.241 OA
ATOM     24  O   LIG d   1      -3.587  82.623 113.283  0.00  0.00    -0.241 OA
ENDBRANCH   3  22
TORSDOF 7
ENDMDL
MODEL 6
REMARK VINA RESULT:      -4.5      1.701      4.951
REMARK  7 active torsions:
REMARK  status: ('A' for Active; 'I' for Inactive)
REMARK    1  A    between atoms: C_2  and  C_3 
REMARK    2  A    between atoms: C_3  and  O_6 
REMARK    3  A    between atoms: C_3  and  C_4 
REMARK    4  A    between atoms: C_7  and  O_6 
REMARK    5  A    between atoms: C_9  and  C_10 
REMARK    6  A    between atoms: N_15  and  C_14 
REMARK    7  A    between atoms: N_20  and  C_19 
REMARK       I    between atoms: C_22  and  N_20 
ROOT
ATOM      1  C   LIG d   1       1.697  81.201 113.186  0.00  0.00     0.161 C 
ATOM      2  C   LIG d   1       2.930  81.764 112.815  0.00  0.00     0.016 C 
ATOM      3  C   LIG d   1       3.202  82.254 111.517  0.00  0.00     0.038 C 
ATOM      4  C   LIG d   1       2.204  82.351 110.537  0.00  0.00     0.028 C 
ATOM      5  C   LIG d   1       1.084  81.330 110.709  0.00  0.00    -0.047 C 
ATOM      6  C   LIG d   1       0.561  81.400 112.162  0.00  0.00     0.091 C 
ENDROOT
BRANCH   1   7
ATOM      7  O   LIG d   1       1.301  81.700 114.478  0.00  0.00    -0.368 OA
BRANCH   7   8
ATOM      8  C   LIG d   1       0.473  82.889 114.475  0.00  0.00     0.119 C 
BRANCH   8   9
ATOM      9  C   LIG d   1       1.297  84.030 115.103  0.00  0.00     0.028 C 
ATOM     10  C   LIG d   1       2.270  83.525 116.183  0.00  0.00     0.006 C 
ENDBRANCH   8   9
BRANCH   8  11
ATOM     11  C   LIG d   1      -0.747  82.722 115.387  0.00  0.00     0.028 C 
ATOM     12  C   LIG d   1      -1.833  83.778 115.129  0.00  0.00     0.006 C 
ENDBRANCH   8  11
ENDBRANCH   7   8
ENDBRANCH   1   7
BRANCH   6  13
ATOM     13  N   LIG d   1      -0.479  80.375 112.439  0.00  0.00    -0.311 N 
ATOM     14  C   LIG d   1      -1.787  80.619 112.367  0.00  0.00     0.210 C 
ATOM     15  C   LIG d   1      -2.687  79.429 112.712  0.00  0.00     0.109 C 
ATOM     16  O   LIG d   1      -2.286  81.700 112.020  0.00  0.00    -0.276 OA
ATOM     17  H   LIG d   1      -0.162  79.462 112.699  0.00  0.00     0.149 HD
ENDBRANCH   6  13
BRANCH   5  18
ATOM     18  N   LIG d   1       0.046  81.633 109.706  0.00  0.00     0.381 N 
ATOM     19  H   LIG d   1      -0.477  82.437 109.991  0.00  0.00    -0.090 HD
ATOM     20  H   LIG d   1      -0.584  80.853 109.644  0.00  0.00    -0.090 HD
ATOM     21  H   LIG d   1       0.468  81.800 108.818  0.00  0.00    -0.090 HD
ENDBRANCH   5  18
BRANCH   3  22
ATOM     22  C   LIG d   1       4.497  82.616 111.177  0.00  0.00     0.382 C 
ATOM     23  O   LIG d   1       4.857  82.599 109.975  0.00  0.00    -0.241 OA
ATOM     24  O   LIG d   1       5.322  82.916 112.061  0.00  0.00    -0.241 OA
ENDBRANCH   3  22
TORSDOF 7
ENDMDL
MODEL 7
REMARK VINA RESULT:      -4.4      1.720      4.952
REMARK  7 active torsions:
REMARK  status: ('A' for Active; 'I' for Inactive)
REMARK    1  A    between atoms: C_2  and  C_3 
REMARK    2  A    between atoms: C_3  and  O_6 
REMARK    3  A    between atoms: C_3  and  C_4 
REMARK    4  A    between atoms: C_7  and  O_6 
REMARK    5  A    between atoms: C_9  and  C_10 
REMARK    6  A    between atoms: N_15  and  C_14 
REMARK    7  A    between atoms: N_20  and  C_19 
REMARK       I    between atoms: C_22  and  N_20 
ROOT
ATOM      1  C   LIG d   1       1.552  81.507 112.539  0.00  0.00     0.161 C 
ATOM      2  C   LIG d   1       2.578  82.128 111.808  0.00  0.00     0.016 C 
ATOM      3  C   LIG d   1       2.594  82.202 110.397  0.00  0.00     0.038 C 
ATOM      4  C   LIG d   1       1.500  81.790 109.621  0.00  0.00     0.028 C 
ATOM      5  C   LIG d   1       0.664  80.700 110.283  0.00  0.00    -0.047 C 
ATOM      6  C   LIG d   1       0.297  81.150 111.715  0.00  0.00     0.091 C 
ENDROOT
BRANCH   1   7
ATOM      7  O   LIG d   1       1.193  82.325 113.670  0.00  0.00    -0.368 OA
BRANCH   7   8
ATOM      8  C   LIG d   1       1.863  82.018 114.917  0.00  0.00     0.119 C 
BRANCH   8   9
ATOM      9  C   LIG d   1       2.121  80.499 114.943  0.00  0.00     0.028 C 
ATOM     10  C   LIG d   1       3.519  80.150 115.481  0.00  0.00     0.006 C 
ENDBRANCH   8   9
BRANCH   8  11
ATOM     11  C   LIG d   1       0.957  82.296 116.120  0.00  0.00     0.028 C 
ATOM     12  C   LIG d   1      -0.496  81.852 115.886  0.00  0.00     0.006 C 
ENDBRANCH   8  11
ENDBRANCH   7   8
ENDBRANCH   1   7
BRANCH   6  13
ATOM     13  N   LIG d   1      -0.450  80.105 112.463  0.00  0.00    -0.311 N 
ATOM     14  C   LIG d   1      -1.777  80.094 112.580  0.00  0.00     0.210 C 
ATOM     15  C   LIG d   1      -2.343  78.939 113.411  0.00  0.00     0.109 C 
ATOM     16  O   LIG d   1      -2.540  80.914 112.048  0.00  0.00    -0.276 OA
ATOM     17  H   LIG d   1       0.089  79.384 112.901  0.00  0.00     0.149 HD
ENDBRANCH   6  13
BRANCH   5  18
ATOM     18  N   LIG d   1      -0.516  80.464 109.430  0.00  0.00     0.381 N 
ATOM     19  H   LIG d   1      -0.654  79.480 109.307  0.00  0.00    -0.090 HD
ATOM     20  H   LIG d   1      -0.353  80.875 108.528  0.00  0.00    -0.090 HD
ATOM     21  H   LIG d   1      -1.325  80.870 109.847  0.00  0.00    -0.090 HD
ENDBRANCH   5  18
BRANCH   3  22
ATOM     22  C   LIG d   1       3.730  82.657 109.745  0.00  0.00     0.382 C 
ATOM     23  O   LIG d   1       4.638  81.851 109.430  0.00  0.00    -0.241 OA
ATOM     24  O   LIG d   1       3.878  83.871 109.507  0.00  0.00    -0.241 OA
ENDBRANCH   3  22
TORSDOF 7
ENDMDL
MODEL 8
REMARK VINA RESULT:      -4.3      3.032      4.076
REMARK  7 active torsions:
REMARK  status: ('A' for Active; 'I' for Inactive)
REMARK    1  A    between atoms: C_2  and  C_3 
REMARK    2  A    between atoms: C_3  and  O_6 
REMARK    3  A    between atoms: C_3  and  C_4 
REMARK    4  A    between atoms: C_7  and  O_6 
REMARK    5  A    between atoms: C_9  and  C_10 
REMARK    6  A    between atoms: N_15  and  C_14 
REMARK    7  A    between atoms: N_20  and  C_19 
REMARK       I    between atoms: C_22  and  N_20 
ROOT
ATOM      1  C   LIG d   1      -2.051  80.163 113.970  0.00  0.00     0.161 C 
ATOM      2  C   LIG d   1      -2.683  79.031 114.512  0.00  0.00     0.016 C 
ATOM      3  C   LIG d   1      -2.976  77.869 113.761  0.00  0.00     0.038 C 
ATOM      4  C   LIG d   1      -2.518  77.701 112.446  0.00  0.00     0.028 C 
ATOM      5  C   LIG d   1      -2.318  79.017 111.702  0.00  0.00    -0.047 C 
ATOM      6  C   LIG d   1      -1.445  79.955 112.566  0.00  0.00     0.091 C 
ENDROOT
BRANCH   1   7
ATOM      7  O   LIG d   1      -1.046  80.646 114.883  0.00  0.00    -0.368 OA
BRANCH   7   8
ATOM      8  C   LIG d   1      -1.375  81.854 115.612  0.00  0.00     0.119 C 
BRANCH   8   9
ATOM      9  C   LIG d   1      -0.606  83.016 114.953  0.00  0.00     0.028 C 
ATOM     10  C   LIG d   1       0.874  82.677 114.712  0.00  0.00     0.006 C 
ENDBRANCH   8   9
BRANCH   8  11
ATOM     11  C   LIG d   1      -0.861  81.793 117.053  0.00  0.00     0.028 C 
ATOM     12  C   LIG d   1      -1.592  82.770 117.988  0.00  0.00     0.006 C 
ENDBRANCH   8  11
ENDBRANCH   7   8
ENDBRANCH   1   7
BRANCH   6  13
ATOM     13  N   LIG d   1      -1.270  81.296 111.949  0.00  0.00    -0.311 N 
ATOM     14  C   LIG d   1      -0.190  81.647 111.253  0.00  0.00     0.210 C 
ATOM     15  C   LIG d   1      -0.204  83.083 110.720  0.00  0.00     0.109 C 
ATOM     16  O   LIG d   1       0.763  80.896 111.000  0.00  0.00    -0.276 OA
ATOM     17  H   LIG d   1      -2.010  81.957 112.079  0.00  0.00     0.149 HD
ENDBRANCH   6  13
BRANCH   5  18
ATOM     18  N   LIG d   1      -1.709  78.702 110.395  0.00  0.00     0.381 N 
ATOM     19  H   LIG d   1      -1.785  79.492 109.787  0.00  0.00    -0.090 HD
ATOM     20  H   LIG d   1      -2.208  77.935 109.981  0.00  0.00    -0.090 HD
ATOM     21  H   LIG d   1      -0.750  78.458 110.516  0.00  0.00    -0.090 HD
ENDBRANCH   5  18
BRANCH   3  22
ATOM     22  C   LIG d   1      -3.769  76.876 114.314  0.00  0.00     0.382 C 
ATOM     23  O   LIG d   1      -3.783  76.703 115.557  0.00  0.00    -0.241 OA
ATOM     24  O   LIG d   1      -4.438  76.121 113.583  0.00  0.00    -0.241 OA
ENDBRANCH   3  22
TORSDOF 7
ENDMDL
MODEL 9
REMARK VINA RESULT:      -4.1      3.041      5.277
REMARK  7 active torsions:
REMARK  status: ('A' for Active; 'I' for Inactive)
REMARK    1  A    between atoms: C_2  and  C_3 
REMARK    2  A    between atoms: C_3  and  O_6 
REMARK    3  A    between atoms: C_3  and  C_4 
REMARK    4  A    between atoms: C_7  and  O_6 
REMARK    5  A    between atoms: C_9  and  C_10 
REMARK    6  A    between atoms: N_15  and  C_14 
REMARK    7  A    between atoms: N_20  and  C_19 
REMARK       I    between atoms: C_22  and  N_20 
ROOT
ATOM      1  C   LIG d   1      -0.444  80.956 114.954  0.00  0.00     0.161 C 
ATOM      2  C   LIG d   1      -0.118  82.198 114.384  0.00  0.00     0.016 C 
ATOM      3  C   LIG d   1      -0.512  82.583 113.081  0.00  0.00     0.038 C 
ATOM      4  C   LIG d   1      -1.392  81.807 112.313  0.00  0.00     0.028 C 
ATOM      5  C   LIG d   1      -1.338  80.320 112.647  0.00  0.00    -0.047 C 
ATOM      6  C   LIG d   1      -1.497  80.142 114.174  0.00  0.00     0.091 C 
ENDROOT
BRANCH   1   7
ATOM      7  O   LIG d   1      -0.865  81.141 116.320  0.00  0.00    -0.368 OA
BRANCH   7   8
ATOM      8  C   LIG d   1      -1.399  82.447 116.651  0.00  0.00     0.119 C 
BRANCH   8   9
ATOM      9  C   LIG d   1      -0.981  82.765 118.100  0.00  0.00     0.028 C 
ATOM     10  C   LIG d   1       0.291  83.627 118.168  0.00  0.00     0.006 C 
ENDBRANCH   8   9
BRANCH   8  11
ATOM     11  C   LIG d   1      -2.930  82.436 116.663  0.00  0.00     0.028 C 
ATOM     12  C   LIG d   1      -3.541  83.045 115.391  0.00  0.00     0.006 C 
ENDBRANCH   8  11
ENDBRANCH   7   8
ENDBRANCH   1   7
BRANCH   6  13
ATOM     13  N   LIG d   1      -1.371  78.722 114.596  0.00  0.00    -0.311 N 
ATOM     14  C   LIG d   1      -2.412  77.903 114.733  0.00  0.00     0.210 C 
ATOM     15  C   LIG d   1      -2.062  76.485 115.196  0.00  0.00     0.109 C 
ATOM     16  O   LIG d   1      -3.588  78.206 114.483  0.00  0.00    -0.276 OA
ATOM     17  H   LIG d   1      -0.448  78.384 114.788  0.00  0.00     0.149 HD
ENDBRANCH   6  13
BRANCH   5  18
ATOM     18  N   LIG d   1      -2.400  79.650 111.873  0.00  0.00     0.381 N 
ATOM     19  H   LIG d   1      -2.116  78.719 111.643  0.00  0.00    -0.090 HD
ATOM     20  H   LIG d   1      -2.547  80.156 111.017  0.00  0.00    -0.090 HD
ATOM     21  H   LIG d   1      -3.244  79.626 112.402  0.00  0.00    -0.090 HD
ENDBRANCH   5  18
BRANCH   3  22
ATOM     22  C   LIG d   1       0.009  83.738 112.519  0.00  0.00     0.382 C 
ATOM     23  O   LIG d   1      -0.762  84.607 112.044  0.00  0.00    -0.241 OA
ATOM     24  O   LIG d   1       1.241  83.903 112.442  0.00  0.00    -0.241 OA
ENDBRANCH   3  22
TORSDOF 7
ENDMDL
