MODEL 1
REMARK VINA RESULT:      -5.3      0.000      0.000
REMARK  7 active torsions:
REMARK  status: ('A' for Active; 'I' for Inactive)
REMARK    1  A    between atoms: C_2  and  C_3 
REMARK    2  A    between atoms: C_3  and  O_6 
REMARK    3  A    between atoms: C_3  and  C_4 
REMARK    4  A    between atoms: C_7  and  O_6 
REMARK    5  A    between atoms: C_9  and  C_10 
REMARK    6  A    between atoms: N_15  and  C_14 
REMARK    7  A    between atoms: N_20  and  C_19 
REMARK       I    between atoms: C_22  and  N_20 
ROOT
ATOM      1  C   LIG d   1      -1.782  80.451 112.569  0.00  0.00     0.161 C 
ATOM      2  C   LIG d   1      -2.566  79.456 113.175  0.00  0.00     0.016 C 
ATOM      3  C   LIG d   1      -2.547  78.100 112.776  0.00  0.00     0.038 C 
ATOM      4  C   LIG d   1      -1.624  77.616 111.837  0.00  0.00     0.028 C 
ATOM      5  C   LIG d   1      -1.163  78.674 110.840  0.00  0.00    -0.047 C 
ATOM      6  C   LIG d   1      -0.688  79.923 111.618  0.00  0.00     0.091 C 
ENDROOT
BRANCH   1   7
ATOM      7  O   LIG d   1      -1.201  81.298 113.580  0.00  0.00    -0.368 OA
BRANCH   7   8
ATOM      8  C   LIG d   1      -0.003  80.795 114.222  0.00  0.00     0.119 C 
BRANCH   8   9
ATOM      9  C   LIG d   1      -0.290  80.706 115.733  0.00  0.00     0.028 C 
ATOM     10  C   LIG d   1      -0.535  79.261 116.199  0.00  0.00     0.006 C 
ENDBRANCH   8   9
BRANCH   8  11
ATOM     11  C   LIG d   1       1.159  81.785 114.088  0.00  0.00     0.028 C 
ATOM     12  C   LIG d   1       0.718  83.149 113.534  0.00  0.00     0.006 C 
ENDBRANCH   8  11
ENDBRANCH   7   8
ENDBRANCH   1   7
BRANCH   6  13
ATOM     13  N   LIG d   1      -0.299  81.038 110.716  0.00  0.00    -0.311 N 
ATOM     14  C   LIG d   1       0.959  81.280 110.349  0.00  0.00     0.210 C 
ATOM     15  C   LIG d   1       1.142  82.492 109.430  0.00  0.00     0.109 C 
ATOM     16  O   LIG d   1       1.935  80.587 110.672  0.00  0.00    -0.276 OA
ATOM     17  H   LIG d   1      -1.033  81.632 110.382  0.00  0.00     0.149 HD
ENDBRANCH   6  13
BRANCH   5  18
ATOM     18  N   LIG d   1      -0.103  78.073 110.010  0.00  0.00     0.381 N 
ATOM     19  H   LIG d   1      -0.327  78.185 109.041  0.00  0.00    -0.090 HD
ATOM     20  H   LIG d   1      -0.053  77.089 110.209  0.00  0.00    -0.090 HD
ATOM     21  H   LIG d   1       0.772  78.504 110.208  0.00  0.00    -0.090 HD
ENDBRANCH   5  18
BRANCH   3  22
ATOM     22  C   LIG d   1      -3.486  77.219 113.290  0.00  0.00     0.382 C 
ATOM     23  O   LIG d   1      -4.325  76.681 112.528  0.00  0.00    -0.241 OA
ATOM     24  O   LIG d   1      -3.534  76.989 114.514  0.00  0.00    -0.241 OA
ENDBRANCH   3  22
TORSDOF 7
ENDMDL
MODEL 2
REMARK VINA RESULT:      -5.3      1.266      2.168
REMARK  7 active torsions:
REMARK  status: ('A' for Active; 'I' for Inactive)
REMARK    1  A    between atoms: C_2  and  C_3 
REMARK    2  A    between atoms: C_3  and  O_6 
REMARK    3  A    between atoms: C_3  and  C_4 
REMARK    4  A    between atoms: C_7  and  O_6 
REMARK    5  A    between atoms: C_9  and  C_10 
REMARK    6  A    between atoms: N_15  and  C_14 
REMARK    7  A    between atoms: N_20  and  C_19 
REMARK       I    between atoms: C_22  and  N_20 
ROOT
ATOM      1  C   LIG d   1      -1.511  80.395 112.694  0.00  0.00     0.161 C 
ATOM      2  C   LIG d   1      -2.249  79.408 113.369  0.00  0.00     0.016 C 
ATOM      3  C   LIG d   1      -2.338  78.067 112.931  0.00  0.00     0.038 C 
ATOM      4  C   LIG d   1      -1.568  77.583 111.862  0.00  0.00     0.028 C 
ATOM      5  C   LIG d   1      -1.200  78.658 110.845  0.00  0.00    -0.047 C 
ATOM      6  C   LIG d   1      -0.575  79.860 111.589  0.00  0.00     0.091 C 
ENDROOT
BRANCH   1   7
ATOM      7  O   LIG d   1      -0.767  81.184 113.643  0.00  0.00    -0.368 OA
BRANCH   7   8
ATOM      8  C   LIG d   1      -1.278  82.514 113.906  0.00  0.00     0.119 C 
BRANCH   8   9
ATOM      9  C   LIG d   1      -0.240  83.522 113.376  0.00  0.00     0.028 C 
ATOM     10  C   LIG d   1      -0.785  84.368 112.212  0.00  0.00     0.006 C 
ENDBRANCH   8   9
BRANCH   8  11
ATOM     11  C   LIG d   1      -1.376  82.785 115.410  0.00  0.00     0.028 C 
ATOM     12  C   LIG d   1      -2.143  84.078 115.734  0.00  0.00     0.006 C 
ENDBRANCH   8  11
ENDBRANCH   7   8
ENDBRANCH   1   7
BRANCH   6  13
ATOM     13  N   LIG d   1      -0.264  80.992 110.677  0.00  0.00    -0.311 N 
ATOM     14  C   LIG d   1       0.967  81.465 110.491  0.00  0.00     0.210 C 
ATOM     15  C   LIG d   1       1.065  82.649 109.523  0.00  0.00     0.109 C 
ATOM     16  O   LIG d   1       1.991  80.997 111.010  0.00  0.00    -0.276 OA
ATOM     17  H   LIG d   1      -1.032  81.411 110.192  0.00  0.00     0.149 HD
ENDBRANCH   6  13
BRANCH   5  18
ATOM     18  N   LIG d   1      -0.286  78.047 109.863  0.00  0.00     0.381 N 
ATOM     19  H   LIG d   1       0.532  78.615 109.763  0.00  0.00    -0.090 HD
ATOM     20  H   LIG d   1      -0.749  78.002 108.972  0.00  0.00    -0.090 HD
ATOM     21  H   LIG d   1      -0.029  77.132 110.159  0.00  0.00    -0.090 HD
ENDBRANCH   5  18
BRANCH   3  22
ATOM     22  C   LIG d   1      -3.237  77.204 113.539  0.00  0.00     0.382 C 
ATOM     23  O   LIG d   1      -3.133  76.952 114.764  0.00  0.00    -0.241 OA
ATOM     24  O   LIG d   1      -4.122  76.639 112.870  0.00  0.00    -0.241 OA
ENDBRANCH   3  22
TORSDOF 7
ENDMDL
MODEL 3
REMARK VINA RESULT:      -5.3      2.201      4.126
REMARK  7 active torsions:
REMARK  status: ('A' for Active; 'I' for Inactive)
REMARK    1  A    between atoms: C_2  and  C_3 
REMARK    2  A    between atoms: C_3  and  O_6 
REMARK    3  A    between atoms: C_3  and  C_4 
REMARK    4  A    between atoms: C_7  and  O_6 
REMARK    5  A    between atoms: C_9  and  C_10 
REMARK    6  A    between atoms: N_15  and  C_14 
REMARK    7  A    between atoms: N_20  and  C_19 
REMARK       I    between atoms: C_22  and  N_20 
ROOT
ATOM      1  C   LIG d   1      -0.081  80.679 111.156  0.00  0.00     0.161 C 
ATOM      2  C   LIG d   1      -0.710  79.450 110.898  0.00  0.00     0.016 C 
ATOM      3  C   LIG d   1      -1.751  78.925 111.698  0.00  0.00     0.038 C 
ATOM      4  C   LIG d   1      -2.340  79.670 112.731  0.00  0.00     0.028 C 
ATOM      5  C   LIG d   1      -1.400  80.703 113.344  0.00  0.00    -0.047 C 
ATOM      6  C   LIG d   1      -0.785  81.556 112.212  0.00  0.00     0.091 C 
ENDROOT
BRANCH   1   7
ATOM      7  O   LIG d   1       0.084  81.411 109.925  0.00  0.00    -0.368 OA
BRANCH   7   8
ATOM      8  C   LIG d   1       1.441  81.531 109.432  0.00  0.00     0.119 C 
BRANCH   8   9
ATOM      9  C   LIG d   1       2.356  80.759 110.402  0.00  0.00     0.028 C 
ATOM     10  C   LIG d   1       3.391  79.891 109.667  0.00  0.00     0.006 C 
ENDBRANCH   8   9
BRANCH   8  11
ATOM     11  C   LIG d   1       1.927  82.983 109.485  0.00  0.00     0.028 C 
ATOM     12  C   LIG d   1       0.773  83.998 109.467  0.00  0.00     0.006 C 
ENDBRANCH   8  11
ENDBRANCH   7   8
ENDBRANCH   1   7
BRANCH   6  13
ATOM     13  N   LIG d   1       0.210  82.537 112.718  0.00  0.00    -0.311 N 
ATOM     14  C   LIG d   1      -0.096  83.792 113.042  0.00  0.00     0.210 C 
ATOM     15  C   LIG d   1       1.084  84.642 113.524  0.00  0.00     0.109 C 
ATOM     16  O   LIG d   1      -1.238  84.273 113.006  0.00  0.00    -0.276 OA
ATOM     17  H   LIG d   1       1.156  82.221 112.808  0.00  0.00     0.149 HD
ENDBRANCH   6  13
BRANCH   5  18
ATOM     18  N   LIG d   1      -2.182  81.499 114.309  0.00  0.00     0.381 N 
ATOM     19  H   LIG d   1      -2.768  80.895 114.850  0.00  0.00    -0.090 HD
ATOM     20  H   LIG d   1      -2.769  82.138 113.803  0.00  0.00    -0.090 HD
ATOM     21  H   LIG d   1      -1.569  82.004 114.910  0.00  0.00    -0.090 HD
ENDBRANCH   5  18
BRANCH   3  22
ATOM     22  C   LIG d   1      -2.186  77.624 111.494  0.00  0.00     0.382 C 
ATOM     23  O   LIG d   1      -3.281  77.247 111.974  0.00  0.00    -0.241 OA
ATOM     24  O   LIG d   1      -1.476  76.811 110.873  0.00  0.00    -0.241 OA
ENDBRANCH   3  22
TORSDOF 7
ENDMDL
MODEL 4
REMARK VINA RESULT:      -5.2      0.758      1.016
REMARK  7 active torsions:
REMARK  status: ('A' for Active; 'I' for Inactive)
REMARK    1  A    between atoms: C_2  and  C_3 
REMARK    2  A    between atoms: C_3  and  O_6 
REMARK    3  A    between atoms: C_3  and  C_4 
REMARK    4  A    between atoms: C_7  and  O_6 
REMARK    5  A    between atoms: C_9  and  C_10 
REMARK    6  A    between atoms: N_15  and  C_14 
REMARK    7  A    between atoms: N_20  and  C_19 
REMARK       I    between atoms: C_22  and  N_20 
ROOT
ATOM      1  C   LIG d   1      -2.025  80.283 113.319  0.00  0.00     0.161 C 
ATOM      2  C   LIG d   1      -2.659  79.160 113.876  0.00  0.00     0.016 C 
ATOM      3  C   LIG d   1      -2.565  77.861 113.325  0.00  0.00     0.038 C 
ATOM      4  C   LIG d   1      -1.702  77.568 112.259  0.00  0.00     0.028 C 
ATOM      5  C   LIG d   1      -1.433  78.764 111.352  0.00  0.00    -0.047 C 
ATOM      6  C   LIG d   1      -0.990  79.963 112.221  0.00  0.00     0.091 C 
ENDROOT
BRANCH   1   7
ATOM      7  O   LIG d   1      -1.420  81.070 114.364  0.00  0.00    -0.368 OA
BRANCH   7   8
ATOM      8  C   LIG d   1      -0.142  80.599 114.858  0.00  0.00     0.119 C 
BRANCH   8   9
ATOM      9  C   LIG d   1      -0.294  80.352 116.372  0.00  0.00     0.028 C 
ATOM     10  C   LIG d   1      -0.348  78.855 116.720  0.00  0.00     0.006 C 
ENDBRANCH   8   9
BRANCH   8  11
ATOM     11  C   LIG d   1       0.937  81.678 114.730  0.00  0.00     0.028 C 
ATOM     12  C   LIG d   1       0.357  83.066 114.415  0.00  0.00     0.006 C 
ENDBRANCH   8  11
ENDBRANCH   7   8
ENDBRANCH   1   7
BRANCH   6  13
ATOM     13  N   LIG d   1      -0.787  81.199 111.420  0.00  0.00    -0.311 N 
ATOM     14  C   LIG d   1       0.404  81.600 110.980  0.00  0.00     0.210 C 
ATOM     15  C   LIG d   1       0.393  82.913 110.190  0.00  0.00     0.109 C 
ATOM     16  O   LIG d   1       1.464  80.977 111.141  0.00  0.00    -0.276 OA
ATOM     17  H   LIG d   1      -1.599  81.749 111.217  0.00  0.00     0.149 HD
ENDBRANCH   6  13
BRANCH   5  18
ATOM     18  N   LIG d   1      -0.413  78.356 110.367  0.00  0.00     0.381 N 
ATOM     19  H   LIG d   1      -0.767  77.609 109.803  0.00  0.00    -0.090 HD
ATOM     20  H   LIG d   1       0.398  78.023 110.858  0.00  0.00    -0.090 HD
ATOM     21  H   LIG d   1      -0.167  79.130 109.790  0.00  0.00    -0.090 HD
ENDBRANCH   5  18
BRANCH   3  22
ATOM     22  C   LIG d   1      -3.371  76.846 113.818  0.00  0.00     0.382 C 
ATOM     23  O   LIG d   1      -3.179  76.397 114.973  0.00  0.00    -0.241 OA
ATOM     24  O   LIG d   1      -4.260  76.343 113.104  0.00  0.00    -0.241 OA
ENDBRANCH   3  22
TORSDOF 7
ENDMDL
MODEL 5
REMARK VINA RESULT:      -5.0      2.872      5.126
REMARK  7 active torsions:
REMARK  status: ('A' for Active; 'I' for Inactive)
REMARK    1  A    between atoms: C_2  and  C_3 
REMARK    2  A    between atoms: C_3  and  O_6 
REMARK    3  A    between atoms: C_3  and  C_4 
REMARK    4  A    between atoms: C_7  and  O_6 
REMARK    5  A    between atoms: C_9  and  C_10 
REMARK    6  A    between atoms: N_15  and  C_14 
REMARK    7  A    between atoms: N_20  and  C_19 
REMARK       I    between atoms: C_22  and  N_20 
ROOT
ATOM      1  C   LIG d   1      -1.366  78.537 114.909  0.00  0.00     0.161 C 
ATOM      2  C   LIG d   1      -1.782  79.875 114.813  0.00  0.00     0.016 C 
ATOM      3  C   LIG d   1      -2.322  80.440 113.634  0.00  0.00     0.038 C 
ATOM      4  C   LIG d   1      -2.625  79.658 112.509  0.00  0.00     0.028 C 
ATOM      5  C   LIG d   1      -1.757  78.411 112.387  0.00  0.00    -0.047 C 
ATOM      6  C   LIG d   1      -1.792  77.641 113.727  0.00  0.00     0.091 C 
ENDROOT
BRANCH   1   7
ATOM      7  O   LIG d   1      -1.821  77.972 116.155  0.00  0.00    -0.368 OA
BRANCH   7   8
ATOM      8  C   LIG d   1      -0.798  77.712 117.147  0.00  0.00     0.119 C 
BRANCH   8   9
ATOM      9  C   LIG d   1      -1.133  76.364 117.814  0.00  0.00     0.028 C 
ATOM     10  C   LIG d   1       0.075  75.412 117.852  0.00  0.00     0.006 C 
ENDBRANCH   8   9
BRANCH   8  11
ATOM     11  C   LIG d   1      -0.842  78.745 118.277  0.00  0.00     0.028 C 
ATOM     12  C   LIG d   1       0.171  79.884 118.082  0.00  0.00     0.006 C 
ENDBRANCH   8  11
ENDBRANCH   7   8
ENDBRANCH   1   7
BRANCH   6  13
ATOM     13  N   LIG d   1      -0.901  76.451 113.721  0.00  0.00    -0.311 N 
ATOM     14  C   LIG d   1      -1.256  75.267 114.215  0.00  0.00     0.210 C 
ATOM     15  C   LIG d   1      -0.180  74.180 114.127  0.00  0.00     0.109 C 
ATOM     16  O   LIG d   1      -2.372  75.004 114.690  0.00  0.00    -0.276 OA
ATOM     17  H   LIG d   1       0.012  76.567 113.326  0.00  0.00     0.149 HD
ENDBRANCH   6  13
BRANCH   5  18
ATOM     18  N   LIG d   1      -2.270  77.620 111.252  0.00  0.00     0.381 N 
ATOM     19  H   LIG d   1      -1.837  76.718 111.244  0.00  0.00    -0.090 HD
ATOM     20  H   LIG d   1      -2.035  78.090 110.396  0.00  0.00    -0.090 HD
ATOM     21  H   LIG d   1      -3.258  77.521 111.325  0.00  0.00    -0.090 HD
ENDBRANCH   5  18
BRANCH   3  22
ATOM     22  C   LIG d   1      -2.528  81.809 113.560  0.00  0.00     0.382 C 
ATOM     23  O   LIG d   1      -3.364  82.359 114.317  0.00  0.00    -0.241 OA
ATOM     24  O   LIG d   1      -1.921  82.494 112.715  0.00  0.00    -0.241 OA
ENDBRANCH   3  22
TORSDOF 7
ENDMDL
MODEL 6
REMARK VINA RESULT:      -5.0      0.880      1.845
REMARK  7 active torsions:
REMARK  status: ('A' for Active; 'I' for Inactive)
REMARK    1  A    between atoms: C_2  and  C_3 
REMARK    2  A    between atoms: C_3  and  O_6 
REMARK    3  A    between atoms: C_3  and  C_4 
REMARK    4  A    between atoms: C_7  and  O_6 
REMARK    5  A    between atoms: C_9  and  C_10 
REMARK    6  A    between atoms: N_15  and  C_14 
REMARK    7  A    between atoms: N_20  and  C_19 
REMARK       I    between atoms: C_22  and  N_20 
ROOT
ATOM      1  C   LIG d   1      -1.377  80.395 112.603  0.00  0.00     0.161 C 
ATOM      2  C   LIG d   1      -2.125  79.421 113.285  0.00  0.00     0.016 C 
ATOM      3  C   LIG d   1      -2.224  78.077 112.859  0.00  0.00     0.038 C 
ATOM      4  C   LIG d   1      -1.454  77.576 111.799  0.00  0.00     0.028 C 
ATOM      5  C   LIG d   1      -1.074  78.638 110.772  0.00  0.00    -0.047 C 
ATOM      6  C   LIG d   1      -0.442  79.842 111.507  0.00  0.00     0.091 C 
ENDROOT
BRANCH   1   7
ATOM      7  O   LIG d   1      -0.630  81.188 113.547  0.00  0.00    -0.368 OA
BRANCH   7   8
ATOM      8  C   LIG d   1      -1.398  81.810 114.606  0.00  0.00     0.119 C 
BRANCH   8   9
ATOM      9  C   LIG d   1      -1.445  83.323 114.315  0.00  0.00     0.028 C 
ATOM     10  C   LIG d   1      -0.532  83.725 113.146  0.00  0.00     0.006 C 
ENDBRANCH   8   9
BRANCH   8  11
ATOM     11  C   LIG d   1      -0.691  81.679 115.958  0.00  0.00     0.028 C 
ATOM     12  C   LIG d   1      -0.215  80.246 116.245  0.00  0.00     0.006 C 
ENDBRANCH   8  11
ENDBRANCH   7   8
ENDBRANCH   1   7
BRANCH   6  13
ATOM     13  N   LIG d   1      -0.117  80.962 110.585  0.00  0.00    -0.311 N 
ATOM     14  C   LIG d   1       1.116  81.435 110.411  0.00  0.00     0.210 C 
ATOM     15  C   LIG d   1       1.227  82.606 109.430  0.00  0.00     0.109 C 
ATOM     16  O   LIG d   1       2.133  80.974 110.952  0.00  0.00    -0.276 OA
ATOM     17  H   LIG d   1      -0.879  81.374 110.083  0.00  0.00     0.149 HD
ENDBRANCH   6  13
BRANCH   5  18
ATOM     18  N   LIG d   1      -0.160  78.010 109.799  0.00  0.00     0.381 N 
ATOM     19  H   LIG d   1       0.742  77.887 110.212  0.00  0.00    -0.090 HD
ATOM     20  H   LIG d   1      -0.063  78.619 109.005  0.00  0.00    -0.090 HD
ATOM     21  H   LIG d   1      -0.524  77.129 109.509  0.00  0.00    -0.090 HD
ENDBRANCH   5  18
BRANCH   3  22
ATOM     22  C   LIG d   1      -3.131  77.227 113.473  0.00  0.00     0.382 C 
ATOM     23  O   LIG d   1      -4.065  76.719 112.805  0.00  0.00    -0.241 OA
ATOM     24  O   LIG d   1      -3.055  76.996 114.694  0.00  0.00    -0.241 OA
ENDBRANCH   3  22
TORSDOF 7
ENDMDL
MODEL 7
REMARK VINA RESULT:      -4.6      1.845      5.268
REMARK  7 active torsions:
REMARK  status: ('A' for Active; 'I' for Inactive)
REMARK    1  A    between atoms: C_2  and  C_3 
REMARK    2  A    between atoms: C_3  and  O_6 
REMARK    3  A    between atoms: C_3  and  C_4 
REMARK    4  A    between atoms: C_7  and  O_6 
REMARK    5  A    between atoms: C_9  and  C_10 
REMARK    6  A    between atoms: N_15  and  C_14 
REMARK    7  A    between atoms: N_20  and  C_19 
REMARK       I    between atoms: C_22  and  N_20 
ROOT
ATOM      1  C   LIG d   1       0.019  81.478 112.866  0.00  0.00     0.161 C 
ATOM      2  C   LIG d   1       0.941  82.423 112.386  0.00  0.00     0.016 C 
ATOM      3  C   LIG d   1       1.423  82.436 111.057  0.00  0.00     0.038 C 
ATOM      4  C   LIG d   1       0.897  81.589 110.070  0.00  0.00     0.028 C 
ATOM      5  C   LIG d   1       0.333  80.286 110.627  0.00  0.00    -0.047 C 
ATOM      6  C   LIG d   1      -0.649  80.615 111.775  0.00  0.00     0.091 C 
ENDROOT
BRANCH   1   7
ATOM      7  O   LIG d   1      -0.982  82.134 113.668  0.00  0.00    -0.368 OA
BRANCH   7   8
ATOM      8  C   LIG d   1      -1.073  81.707 115.050  0.00  0.00     0.119 C 
BRANCH   8   9
ATOM      9  C   LIG d   1      -0.848  82.949 115.934  0.00  0.00     0.028 C 
ATOM     10  C   LIG d   1      -1.056  84.263 115.164  0.00  0.00     0.006 C 
ENDBRANCH   8   9
BRANCH   8  11
ATOM     11  C   LIG d   1       0.060  80.742 115.410  0.00  0.00     0.028 C 
ATOM     12  C   LIG d   1      -0.447  79.441 116.052  0.00  0.00     0.006 C 
ENDBRANCH   8  11
ENDBRANCH   7   8
ENDBRANCH   1   7
BRANCH   6  13
ATOM     13  N   LIG d   1      -1.183  79.393 112.432  0.00  0.00    -0.311 N 
ATOM     14  C   LIG d   1      -2.463  79.241 112.767  0.00  0.00     0.210 C 
ATOM     15  C   LIG d   1      -2.798  77.913 113.453  0.00  0.00     0.109 C 
ATOM     16  O   LIG d   1      -3.358  80.067 112.533  0.00  0.00    -0.276 OA
ATOM     17  H   LIG d   1      -0.531  78.660 112.630  0.00  0.00     0.149 HD
ENDBRANCH   6  13
BRANCH   5  18
ATOM     18  N   LIG d   1      -0.304  79.562 109.511  0.00  0.00     0.381 N 
ATOM     19  H   LIG d   1      -1.129  79.098 109.835  0.00  0.00    -0.090 HD
ATOM     20  H   LIG d   1       0.335  78.867 109.168  0.00  0.00    -0.090 HD
ATOM     21  H   LIG d   1      -0.537  80.199 108.781  0.00  0.00    -0.090 HD
ENDBRANCH   5  18
BRANCH   3  22
ATOM     22  C   LIG d   1       2.471  83.276 110.714  0.00  0.00     0.382 C 
ATOM     23  O   LIG d   1       2.323  84.121 109.799  0.00  0.00    -0.241 OA
ATOM     24  O   LIG d   1       3.577  83.170 111.278  0.00  0.00    -0.241 OA
ENDBRANCH   3  22
TORSDOF 7
ENDMDL
MODEL 8
REMARK VINA RESULT:      -4.6      3.128      6.075
REMARK  7 active torsions:
REMARK  status: ('A' for Active; 'I' for Inactive)
REMARK    1  A    between atoms: C_2  and  C_3 
REMARK    2  A    between atoms: C_3  and  O_6 
REMARK    3  A    between atoms: C_3  and  C_4 
REMARK    4  A    between atoms: C_7  and  O_6 
REMARK    5  A    between atoms: C_9  and  C_10 
REMARK    6  A    between atoms: N_15  and  C_14 
REMARK    7  A    between atoms: N_20  and  C_19 
REMARK       I    between atoms: C_22  and  N_20 
ROOT
ATOM      1  C   LIG d   1      -1.057  77.890 115.770  0.00  0.00     0.161 C 
ATOM      2  C   LIG d   1      -0.476  78.367 116.957  0.00  0.00     0.016 C 
ATOM      3  C   LIG d   1      -0.089  79.713 117.147  0.00  0.00     0.038 C 
ATOM      4  C   LIG d   1      -0.397  80.713 116.212  0.00  0.00     0.028 C 
ATOM      5  C   LIG d   1      -0.529  80.188 114.786  0.00  0.00    -0.047 C 
ATOM      6  C   LIG d   1      -1.503  78.988 114.781  0.00  0.00     0.091 C 
ENDROOT
BRANCH   1   7
ATOM      7  O   LIG d   1      -2.162  77.019 116.083  0.00  0.00    -0.368 OA
BRANCH   7   8
ATOM      8  C   LIG d   1      -1.997  75.626 115.721  0.00  0.00     0.119 C 
BRANCH   8   9
ATOM      9  C   LIG d   1      -3.401  75.045 115.464  0.00  0.00     0.028 C 
ATOM     10  C   LIG d   1      -4.162  75.812 114.370  0.00  0.00     0.006 C 
ENDBRANCH   8   9
BRANCH   8  11
ATOM     11  C   LIG d   1      -1.429  74.811 116.887  0.00  0.00     0.028 C 
ATOM     12  C   LIG d   1      -2.401  74.710 118.073  0.00  0.00     0.006 C 
ENDBRANCH   8  11
ENDBRANCH   7   8
ENDBRANCH   1   7
BRANCH   6  13
ATOM     13  N   LIG d   1      -1.624  78.362 113.439  0.00  0.00    -0.311 N 
ATOM     14  C   LIG d   1      -2.569  78.689 112.560  0.00  0.00     0.210 C 
ATOM     15  C   LIG d   1      -2.526  77.908 111.243  0.00  0.00     0.109 C 
ATOM     16  O   LIG d   1      -3.420  79.575 112.733  0.00  0.00    -0.276 OA
ATOM     17  H   LIG d   1      -0.955  77.655 113.203  0.00  0.00     0.149 HD
ENDBRANCH   6  13
BRANCH   5  18
ATOM     18  N   LIG d   1      -0.986  81.307 113.941  0.00  0.00     0.381 N 
ATOM     19  H   LIG d   1      -0.756  81.125 112.984  0.00  0.00    -0.090 HD
ATOM     20  H   LIG d   1      -0.512  82.145 114.226  0.00  0.00    -0.090 HD
ATOM     21  H   LIG d   1      -1.971  81.426 114.035  0.00  0.00    -0.090 HD
ENDBRANCH   5  18
BRANCH   3  22
ATOM     22  C   LIG d   1       0.651  80.064 118.266  0.00  0.00     0.382 C 
ATOM     23  O   LIG d   1       0.571  81.227 118.731  0.00  0.00    -0.241 OA
ATOM     24  O   LIG d   1       1.430  79.246 118.790  0.00  0.00    -0.241 OA
ENDBRANCH   3  22
TORSDOF 7
ENDMDL
MODEL 9
REMARK VINA RESULT:      -4.5      2.482      5.238
REMARK  7 active torsions:
REMARK  status: ('A' for Active; 'I' for Inactive)
REMARK    1  A    between atoms: C_2  and  C_3 
REMARK    2  A    between atoms: C_3  and  O_6 
REMARK    3  A    between atoms: C_3  and  C_4 
REMARK    4  A    between atoms: C_7  and  O_6 
REMARK    5  A    between atoms: C_9  and  C_10 
REMARK    6  A    between atoms: N_15  and  C_14 
REMARK    7  A    between atoms: N_20  and  C_19 
REMARK       I    between atoms: C_22  and  N_20 
ROOT
ATOM      1  C   LIG d   1      -1.372  81.759 112.557  0.00  0.00     0.161 C 
ATOM      2  C   LIG d   1      -1.460  82.839 113.450  0.00  0.00     0.016 C 
ATOM      3  C   LIG d   1      -1.210  82.724 114.837  0.00  0.00     0.038 C 
ATOM      4  C   LIG d   1      -0.704  81.545 115.404  0.00  0.00     0.028 C 
ATOM      5  C   LIG d   1      -1.081  80.288 114.626  0.00  0.00    -0.047 C 
ATOM      6  C   LIG d   1      -0.713  80.490 113.138  0.00  0.00     0.091 C 
ENDROOT
BRANCH   1   7
ATOM      7  O   LIG d   1      -0.689  82.172 111.356  0.00  0.00    -0.368 OA
BRANCH   7   8
ATOM      8  C   LIG d   1       0.749  82.317 111.459  0.00  0.00     0.119 C 
BRANCH   8   9
ATOM      9  C   LIG d   1       1.103  83.748 111.010  0.00  0.00     0.028 C 
ATOM     10  C   LIG d   1      -0.068  84.447 110.299  0.00  0.00     0.006 C 
ENDBRANCH   8   9
BRANCH   8  11
ATOM     11  C   LIG d   1       1.474  81.392 110.477  0.00  0.00     0.028 C 
ATOM     12  C   LIG d   1       2.999  81.400 110.666  0.00  0.00     0.006 C 
ENDBRANCH   8  11
ENDBRANCH   7   8
ENDBRANCH   1   7
BRANCH   6  13
ATOM     13  N   LIG d   1      -1.126  79.340 112.292  0.00  0.00    -0.311 N 
ATOM     14  C   LIG d   1      -2.390  78.938 112.166  0.00  0.00     0.210 C 
ATOM     15  C   LIG d   1      -2.594  77.721 111.260  0.00  0.00     0.109 C 
ATOM     16  O   LIG d   1      -3.364  79.495 112.694  0.00  0.00    -0.276 OA
ATOM     17  H   LIG d   1      -0.402  78.851 111.803  0.00  0.00     0.149 HD
ENDBRANCH   6  13
BRANCH   5  18
ATOM     18  N   LIG d   1      -0.376  79.151 115.247  0.00  0.00     0.381 N 
ATOM     19  H   LIG d   1       0.592  79.376 115.364  0.00  0.00    -0.090 HD
ATOM     20  H   LIG d   1      -0.443  78.355 114.638  0.00  0.00    -0.090 HD
ATOM     21  H   LIG d   1      -0.784  78.938 116.130  0.00  0.00    -0.090 HD
ENDBRANCH   5  18
BRANCH   3  22
ATOM     22  C   LIG d   1      -1.505  83.785 115.679  0.00  0.00     0.382 C 
ATOM     23  O   LIG d   1      -2.623  84.349 115.609  0.00  0.00    -0.241 OA
ATOM     24  O   LIG d   1      -0.650  84.215 116.477  0.00  0.00    -0.241 OA
ENDBRANCH   3  22
TORSDOF 7
ENDMDL
