MODEL 1
REMARK VINA RESULT:      -5.5      0.000      0.000
REMARK  7 active torsions:
REMARK  status: ('A' for Active; 'I' for Inactive)
REMARK    1  A    between atoms: C_2  and  C_3 
REMARK    2  A    between atoms: C_3  and  O_6 
REMARK    3  A    between atoms: C_3  and  C_4 
REMARK    4  A    between atoms: C_7  and  O_6 
REMARK    5  A    between atoms: C_9  and  C_10 
REMARK    6  A    between atoms: N_15  and  C_14 
REMARK    7  A    between atoms: N_20  and  C_19 
REMARK       I    between atoms: C_22  and  N_20 
ROOT
ATOM      1  C   LIG d   1       0.323  82.973 112.267  0.00  0.00     0.161 C 
ATOM      2  C   LIG d   1      -0.910  82.634 112.850  0.00  0.00     0.016 C 
ATOM      3  C   LIG d   1      -1.531  81.375 112.680  0.00  0.00     0.038 C 
ATOM      4  C   LIG d   1      -0.885  80.311 112.033  0.00  0.00     0.028 C 
ATOM      5  C   LIG d   1       0.139  80.763 110.997  0.00  0.00    -0.047 C 
ATOM      6  C   LIG d   1       1.094  81.787 111.650  0.00  0.00     0.091 C 
ENDROOT
BRANCH   1   7
ATOM      7  O   LIG d   1       1.146  83.661 113.229  0.00  0.00    -0.368 OA
BRANCH   7   8
ATOM      8  C   LIG d   1       2.160  82.862 113.887  0.00  0.00     0.119 C 
BRANCH   8   9
ATOM      9  C   LIG d   1       1.561  82.355 115.213  0.00  0.00     0.028 C 
ATOM     10  C   LIG d   1       1.403  80.825 115.239  0.00  0.00     0.006 C 
ENDBRANCH   8   9
BRANCH   8  11
ATOM     11  C   LIG d   1       3.368  83.714 114.287  0.00  0.00     0.028 C 
ATOM     12  C   LIG d   1       4.159  84.232 113.076  0.00  0.00     0.006 C 
ENDBRANCH   8  11
ENDBRANCH   7   8
ENDBRANCH   1   7
BRANCH   6  13
ATOM     13  N   LIG d   1       2.076  82.344 110.683  0.00  0.00    -0.311 N 
ATOM     14  C   LIG d   1       3.300  81.847 110.512  0.00  0.00     0.210 C 
ATOM     15  C   LIG d   1       4.158  82.583 109.478  0.00  0.00     0.109 C 
ATOM     16  O   LIG d   1       3.745  80.848 111.096  0.00  0.00    -0.276 OA
ATOM     17  H   LIG d   1       1.786  83.137 110.145  0.00  0.00     0.149 HD
ENDBRANCH   6  13
BRANCH   5  18
ATOM     18  N   LIG d   1       0.833  79.559 110.502  0.00  0.00     0.381 N 
ATOM     19  H   LIG d   1       0.221  78.769 110.555  0.00  0.00    -0.090 HD
ATOM     20  H   LIG d   1       1.630  79.380 111.086  0.00  0.00    -0.090 HD
ATOM     21  H   LIG d   1       1.126  79.698 109.560  0.00  0.00    -0.090 HD
ENDBRANCH   5  18
BRANCH   3  22
ATOM     22  C   LIG d   1      -2.830  81.185 113.125  0.00  0.00     0.382 C 
ATOM     23  O   LIG d   1      -3.797  81.476 112.380  0.00  0.00    -0.241 OA
ATOM     24  O   LIG d   1      -3.048  80.767 114.278  0.00  0.00    -0.241 OA
ENDBRANCH   3  22
TORSDOF 7
ENDMDL
MODEL 2
REMARK VINA RESULT:      -5.4      1.071      1.685
REMARK  7 active torsions:
REMARK  status: ('A' for Active; 'I' for Inactive)
REMARK    1  A    between atoms: C_2  and  C_3 
REMARK    2  A    between atoms: C_3  and  O_6 
REMARK    3  A    between atoms: C_3  and  C_4 
REMARK    4  A    between atoms: C_7  and  O_6 
REMARK    5  A    between atoms: C_9  and  C_10 
REMARK    6  A    between atoms: N_15  and  C_14 
REMARK    7  A    between atoms: N_20  and  C_19 
REMARK       I    between atoms: C_22  and  N_20 
ROOT
ATOM      1  C   LIG d   1       0.322  82.838 112.202  0.00  0.00     0.161 C 
ATOM      2  C   LIG d   1      -0.900  82.402 112.742  0.00  0.00     0.016 C 
ATOM      3  C   LIG d   1      -1.457  81.130 112.479  0.00  0.00     0.038 C 
ATOM      4  C   LIG d   1      -0.752  80.143 111.774  0.00  0.00     0.028 C 
ATOM      5  C   LIG d   1       0.262  80.711 110.787  0.00  0.00    -0.047 C 
ATOM      6  C   LIG d   1       1.158  81.734 111.522  0.00  0.00     0.091 C 
ENDROOT
BRANCH   1   7
ATOM      7  O   LIG d   1       1.099  83.498 113.221  0.00  0.00    -0.368 OA
BRANCH   7   8
ATOM      8  C   LIG d   1       0.681  83.268 114.590  0.00  0.00     0.119 C 
BRANCH   8   9
ATOM      9  C   LIG d   1       0.581  84.642 115.280  0.00  0.00     0.028 C 
ATOM     10  C   LIG d   1      -0.466  84.658 116.406  0.00  0.00     0.006 C 
ENDBRANCH   8   9
BRANCH   8  11
ATOM     11  C   LIG d   1       1.747  82.497 115.375  0.00  0.00     0.028 C 
ATOM     12  C   LIG d   1       1.687  80.981 115.130  0.00  0.00     0.006 C 
ENDBRANCH   8  11
ENDBRANCH   7   8
ENDBRANCH   1   7
BRANCH   6  13
ATOM     13  N   LIG d   1       2.124  82.400 110.609  0.00  0.00    -0.311 N 
ATOM     14  C   LIG d   1       3.365  81.960 110.407  0.00  0.00     0.210 C 
ATOM     15  C   LIG d   1       4.201  82.806 109.441  0.00  0.00     0.109 C 
ATOM     16  O   LIG d   1       3.841  80.932 110.911  0.00  0.00    -0.276 OA
ATOM     17  H   LIG d   1       1.809  83.224 110.135  0.00  0.00     0.149 HD
ENDBRANCH   6  13
BRANCH   5  18
ATOM     18  N   LIG d   1       1.019  79.577 110.224  0.00  0.00     0.381 N 
ATOM     19  H   LIG d   1       0.581  78.716 110.482  0.00  0.00    -0.090 HD
ATOM     20  H   LIG d   1       1.949  79.586 110.607  0.00  0.00    -0.090 HD
ATOM     21  H   LIG d   1       1.060  79.653 109.232  0.00  0.00    -0.090 HD
ENDBRANCH   5  18
BRANCH   3  22
ATOM     22  C   LIG d   1      -2.751  80.848 112.890  0.00  0.00     0.382 C 
ATOM     23  O   LIG d   1      -3.701  81.574 112.510  0.00  0.00    -0.241 OA
ATOM     24  O   LIG d   1      -2.975  79.904 113.671  0.00  0.00    -0.241 OA
ENDBRANCH   3  22
TORSDOF 7
ENDMDL
MODEL 3
REMARK VINA RESULT:      -4.9      2.019      4.893
REMARK  7 active torsions:
REMARK  status: ('A' for Active; 'I' for Inactive)
REMARK    1  A    between atoms: C_2  and  C_3 
REMARK    2  A    between atoms: C_3  and  O_6 
REMARK    3  A    between atoms: C_3  and  C_4 
REMARK    4  A    between atoms: C_7  and  O_6 
REMARK    5  A    between atoms: C_9  and  C_10 
REMARK    6  A    between atoms: N_15  and  C_14 
REMARK    7  A    between atoms: N_20  and  C_19 
REMARK       I    between atoms: C_22  and  N_20 
ROOT
ATOM      1  C   LIG d   1       0.520  80.957 113.142  0.00  0.00     0.161 C 
ATOM      2  C   LIG d   1       1.605  81.806 112.865  0.00  0.00     0.016 C 
ATOM      3  C   LIG d   1       2.041  82.107 111.554  0.00  0.00     0.038 C 
ATOM      4  C   LIG d   1       1.323  81.697 110.421  0.00  0.00     0.028 C 
ATOM      5  C   LIG d   1       0.516  80.423 110.644  0.00  0.00    -0.047 C 
ATOM      6  C   LIG d   1      -0.343  80.589 111.918  0.00  0.00     0.091 C 
ENDROOT
BRANCH   1   7
ATOM      7  O   LIG d   1      -0.299  81.534 114.178  0.00  0.00    -0.368 OA
BRANCH   7   8
ATOM      8  C   LIG d   1       0.014  82.898 114.552  0.00  0.00     0.119 C 
BRANCH   8   9
ATOM      9  C   LIG d   1      -0.178  83.016 116.077  0.00  0.00     0.028 C 
ATOM     10  C   LIG d   1      -1.393  83.880 116.451  0.00  0.00     0.006 C 
ENDBRANCH   8   9
BRANCH   8  11
ATOM     11  C   LIG d   1      -0.984  83.886 113.941  0.00  0.00     0.028 C 
ATOM     12  C   LIG d   1      -0.393  84.679 112.765  0.00  0.00     0.006 C 
ENDBRANCH   8  11
ENDBRANCH   7   8
ENDBRANCH   1   7
BRANCH   6  13
ATOM     13  N   LIG d   1      -1.101  79.356 112.255  0.00  0.00    -0.311 N 
ATOM     14  C   LIG d   1      -2.413  79.342 112.485  0.00  0.00     0.210 C 
ATOM     15  C   LIG d   1      -2.993  77.969 112.837  0.00  0.00     0.109 C 
ATOM     16  O   LIG d   1      -3.157  80.331 112.400  0.00  0.00    -0.276 OA
ATOM     17  H   LIG d   1      -0.581  78.503 112.315  0.00  0.00     0.149 HD
ENDBRANCH   6  13
BRANCH   5  18
ATOM     18  N   LIG d   1      -0.289  80.187 109.430  0.00  0.00     0.381 N 
ATOM     19  H   LIG d   1      -0.557  79.225 109.383  0.00  0.00    -0.090 HD
ATOM     20  H   LIG d   1       0.271  80.399 108.623  0.00  0.00    -0.090 HD
ATOM     21  H   LIG d   1      -1.100  80.765 109.441  0.00  0.00    -0.090 HD
ENDBRANCH   5  18
BRANCH   3  22
ATOM     22  C   LIG d   1       3.231  82.794 111.367  0.00  0.00     0.382 C 
ATOM     23  O   LIG d   1       3.722  82.896 110.217  0.00  0.00    -0.241 OA
ATOM     24  O   LIG d   1       3.843  83.274 112.340  0.00  0.00    -0.241 OA
ENDBRANCH   3  22
TORSDOF 7
ENDMDL
MODEL 4
REMARK VINA RESULT:      -4.8      2.696      4.252
REMARK  7 active torsions:
REMARK  status: ('A' for Active; 'I' for Inactive)
REMARK    1  A    between atoms: C_2  and  C_3 
REMARK    2  A    between atoms: C_3  and  O_6 
REMARK    3  A    between atoms: C_3  and  C_4 
REMARK    4  A    between atoms: C_7  and  O_6 
REMARK    5  A    between atoms: C_9  and  C_10 
REMARK    6  A    between atoms: N_15  and  C_14 
REMARK    7  A    between atoms: N_20  and  C_19 
REMARK       I    between atoms: C_22  and  N_20 
ROOT
ATOM      1  C   LIG d   1      -0.638  80.968 112.267  0.00  0.00     0.161 C 
ATOM      2  C   LIG d   1      -1.395  79.805 112.051  0.00  0.00     0.016 C 
ATOM      3  C   LIG d   1      -2.273  79.257 113.015  0.00  0.00     0.038 C 
ATOM      4  C   LIG d   1      -2.568  79.925 114.212  0.00  0.00     0.028 C 
ATOM      5  C   LIG d   1      -1.446  80.842 114.688  0.00  0.00    -0.047 C 
ATOM      6  C   LIG d   1      -1.031  81.771 113.524  0.00  0.00     0.091 C 
ENDROOT
BRANCH   1   7
ATOM      7  O   LIG d   1      -0.690  81.809 111.098  0.00  0.00    -0.368 OA
BRANCH   7   8
ATOM      8  C   LIG d   1       0.533  81.908 110.328  0.00  0.00     0.119 C 
BRANCH   8   9
ATOM      9  C   LIG d   1       1.643  81.201 111.129  0.00  0.00     0.028 C 
ATOM     10  C   LIG d   1       2.914  82.057 111.255  0.00  0.00     0.006 C 
ENDBRANCH   8   9
BRANCH   8  11
ATOM     11  C   LIG d   1       0.993  83.363 110.197  0.00  0.00     0.028 C 
ATOM     12  C   LIG d   1      -0.180  84.353 110.111  0.00  0.00     0.006 C 
ENDBRANCH   8  11
ENDBRANCH   7   8
ENDBRANCH   1   7
BRANCH   6  13
ATOM     13  N   LIG d   1       0.120  82.643 113.879  0.00  0.00    -0.311 N 
ATOM     14  C   LIG d   1       0.081  83.972 113.809  0.00  0.00     0.210 C 
ATOM     15  C   LIG d   1       1.382  84.679 114.200  0.00  0.00     0.109 C 
ATOM     16  O   LIG d   1      -0.919  84.635 113.491  0.00  0.00    -0.276 OA
ATOM     17  H   LIG d   1       0.961  82.189 114.177  0.00  0.00     0.149 HD
ENDBRANCH   6  13
BRANCH   5  18
ATOM     18  N   LIG d   1      -1.940  81.577 115.867  0.00  0.00     0.381 N 
ATOM     19  H   LIG d   1      -1.205  82.137 116.249  0.00  0.00    -0.090 HD
ATOM     20  H   LIG d   1      -2.228  80.915 116.566  0.00  0.00    -0.090 HD
ATOM     21  H   LIG d   1      -2.710  82.155 115.610  0.00  0.00    -0.090 HD
ENDBRANCH   5  18
BRANCH   3  22
ATOM     22  C   LIG d   1      -2.835  78.008 112.801  0.00  0.00     0.382 C 
ATOM     23  O   LIG d   1      -3.889  77.901 112.129  0.00  0.00    -0.241 OA
ATOM     24  O   LIG d   1      -2.326  76.991 113.310  0.00  0.00    -0.241 OA
ENDBRANCH   3  22
TORSDOF 7
ENDMDL
MODEL 5
REMARK VINA RESULT:      -4.6      1.961      4.890
REMARK  7 active torsions:
REMARK  status: ('A' for Active; 'I' for Inactive)
REMARK    1  A    between atoms: C_2  and  C_3 
REMARK    2  A    between atoms: C_3  and  O_6 
REMARK    3  A    between atoms: C_3  and  C_4 
REMARK    4  A    between atoms: C_7  and  O_6 
REMARK    5  A    between atoms: C_9  and  C_10 
REMARK    6  A    between atoms: N_15  and  C_14 
REMARK    7  A    between atoms: N_20  and  C_19 
REMARK       I    between atoms: C_22  and  N_20 
ROOT
ATOM      1  C   LIG d   1       0.650  82.421 112.526  0.00  0.00     0.161 C 
ATOM      2  C   LIG d   1       1.708  83.116 111.918  0.00  0.00     0.016 C 
ATOM      3  C   LIG d   1       2.130  82.883 110.588  0.00  0.00     0.038 C 
ATOM      4  C   LIG d   1       1.420  82.039 109.722  0.00  0.00     0.028 C 
ATOM      5  C   LIG d   1       0.651  80.938 110.445  0.00  0.00    -0.047 C 
ATOM      6  C   LIG d   1      -0.208  81.575 111.561  0.00  0.00     0.091 C 
ENDROOT
BRANCH   1   7
ATOM      7  O   LIG d   1      -0.182  83.341 113.260  0.00  0.00    -0.368 OA
BRANCH   7   8
ATOM      8  C   LIG d   1      -0.195  83.179 114.700  0.00  0.00     0.119 C 
BRANCH   8   9
ATOM      9  C   LIG d   1      -1.551  83.700 115.212  0.00  0.00     0.028 C 
ATOM     10  C   LIG d   1      -2.381  82.602 115.899  0.00  0.00     0.006 C 
ENDBRANCH   8   9
BRANCH   8  11
ATOM     11  C   LIG d   1       0.859  84.065 115.370  0.00  0.00     0.028 C 
ATOM     12  C   LIG d   1       1.956  83.254 116.079  0.00  0.00     0.006 C 
ENDBRANCH   8  11
ENDBRANCH   7   8
ENDBRANCH   1   7
BRANCH   6  13
ATOM     13  N   LIG d   1      -0.928  80.560 112.373  0.00  0.00    -0.311 N 
ATOM     14  C   LIG d   1      -2.209  80.672 112.720  0.00  0.00     0.210 C 
ATOM     15  C   LIG d   1      -2.751  79.522 113.575  0.00  0.00     0.109 C 
ATOM     16  O   LIG d   1      -2.956  81.600 112.374  0.00  0.00    -0.276 OA
ATOM     17  H   LIG d   1      -0.405  79.759 112.670  0.00  0.00     0.149 HD
ENDBRANCH   6  13
BRANCH   5  18
ATOM     18  N   LIG d   1      -0.152  80.220 109.437  0.00  0.00     0.381 N 
ATOM     19  H   LIG d   1       0.448  79.848 108.728  0.00  0.00    -0.090 HD
ATOM     20  H   LIG d   1      -0.787  80.868 109.005  0.00  0.00    -0.090 HD
ATOM     21  H   LIG d   1      -0.663  79.482 109.871  0.00  0.00    -0.090 HD
ENDBRANCH   5  18
BRANCH   3  22
ATOM     22  C   LIG d   1       3.299  83.469 110.126  0.00  0.00     0.382 C 
ATOM     23  O   LIG d   1       3.534  84.677 110.370  0.00  0.00    -0.241 OA
ATOM     24  O   LIG d   1       4.100  82.816 109.430  0.00  0.00    -0.241 OA
ENDBRANCH   3  22
TORSDOF 7
ENDMDL
MODEL 6
REMARK VINA RESULT:      -4.5      2.119      5.117
REMARK  7 active torsions:
REMARK  status: ('A' for Active; 'I' for Inactive)
REMARK    1  A    between atoms: C_2  and  C_3 
REMARK    2  A    between atoms: C_3  and  O_6 
REMARK    3  A    between atoms: C_3  and  C_4 
REMARK    4  A    between atoms: C_7  and  O_6 
REMARK    5  A    between atoms: C_9  and  C_10 
REMARK    6  A    between atoms: N_15  and  C_14 
REMARK    7  A    between atoms: N_20  and  C_19 
REMARK       I    between atoms: C_22  and  N_20 
ROOT
ATOM      1  C   LIG d   1       0.403  81.090 113.136  0.00  0.00     0.161 C 
ATOM      2  C   LIG d   1       1.450  81.985 112.861  0.00  0.00     0.016 C 
ATOM      3  C   LIG d   1       1.910  82.267 111.554  0.00  0.00     0.038 C 
ATOM      4  C   LIG d   1       1.249  81.783 110.415  0.00  0.00     0.028 C 
ATOM      5  C   LIG d   1       0.503  80.475 110.658  0.00  0.00    -0.047 C 
ATOM      6  C   LIG d   1      -0.403  80.637 111.900  0.00  0.00     0.091 C 
ENDROOT
BRANCH   1   7
ATOM      7  O   LIG d   1      -0.477  81.656 114.128  0.00  0.00    -0.368 OA
BRANCH   7   8
ATOM      8  C   LIG d   1      -0.168  81.340 115.508  0.00  0.00     0.119 C 
BRANCH   8   9
ATOM      9  C   LIG d   1       0.348  79.889 115.547  0.00  0.00     0.028 C 
ATOM     10  C   LIG d   1      -0.768  78.877 115.861  0.00  0.00     0.006 C 
ENDBRANCH   8   9
BRANCH   8  11
ATOM     11  C   LIG d   1      -1.430  81.345 116.376  0.00  0.00     0.028 C 
ATOM     12  C   LIG d   1      -1.241  82.107 117.697  0.00  0.00     0.006 C 
ENDBRANCH   8  11
ENDBRANCH   7   8
ENDBRANCH   1   7
BRANCH   6  13
ATOM     13  N   LIG d   1      -1.105  79.377 112.258  0.00  0.00    -0.311 N 
ATOM     14  C   LIG d   1      -2.409  79.315 112.523  0.00  0.00     0.210 C 
ATOM     15  C   LIG d   1      -2.928  77.921 112.889  0.00  0.00     0.109 C 
ATOM     16  O   LIG d   1      -3.191  80.275 112.457  0.00  0.00    -0.276 OA
ATOM     17  H   LIG d   1      -0.552  78.544 112.303  0.00  0.00     0.149 HD
ENDBRANCH   6  13
BRANCH   5  18
ATOM     18  N   LIG d   1      -0.251  80.158 109.430  0.00  0.00     0.381 N 
ATOM     19  H   LIG d   1      -0.165  79.183 109.222  0.00  0.00    -0.090 HD
ATOM     20  H   LIG d   1       0.139  80.680 108.665  0.00  0.00    -0.090 HD
ATOM     21  H   LIG d   1      -1.211  80.396 109.549  0.00  0.00    -0.090 HD
ENDBRANCH   5  18
BRANCH   3  22
ATOM     22  C   LIG d   1       3.068  83.009 111.378  0.00  0.00     0.382 C 
ATOM     23  O   LIG d   1       3.153  84.162 111.866  0.00  0.00    -0.241 OA
ATOM     24  O   LIG d   1       4.010  82.558 110.700  0.00  0.00    -0.241 OA
ENDBRANCH   3  22
TORSDOF 7
ENDMDL
MODEL 7
REMARK VINA RESULT:      -4.5      2.237      3.946
REMARK  7 active torsions:
REMARK  status: ('A' for Active; 'I' for Inactive)
REMARK    1  A    between atoms: C_2  and  C_3 
REMARK    2  A    between atoms: C_3  and  O_6 
REMARK    3  A    between atoms: C_3  and  C_4 
REMARK    4  A    between atoms: C_7  and  O_6 
REMARK    5  A    between atoms: C_9  and  C_10 
REMARK    6  A    between atoms: N_15  and  C_14 
REMARK    7  A    between atoms: N_20  and  C_19 
REMARK       I    between atoms: C_22  and  N_20 
ROOT
ATOM      1  C   LIG d   1       1.256  81.366 113.594  0.00  0.00     0.161 C 
ATOM      2  C   LIG d   1       0.095  80.909 112.950  0.00  0.00     0.016 C 
ATOM      3  C   LIG d   1      -1.134  81.609 112.973  0.00  0.00     0.038 C 
ATOM      4  C   LIG d   1      -1.244  82.896 113.520  0.00  0.00     0.028 C 
ATOM      5  C   LIG d   1      -0.227  83.175 114.621  0.00  0.00    -0.047 C 
ATOM      6  C   LIG d   1       1.185  82.821 114.102  0.00  0.00     0.091 C 
ENDROOT
BRANCH   1   7
ATOM      7  O   LIG d   1       2.396  81.192 112.728  0.00  0.00    -0.368 OA
BRANCH   7   8
ATOM      8  C   LIG d   1       2.213  81.591 111.348  0.00  0.00     0.119 C 
BRANCH   8   9
ATOM      9  C   LIG d   1       2.790  80.470 110.462  0.00  0.00     0.028 C 
ATOM     10  C   LIG d   1       1.694  79.688 109.717  0.00  0.00     0.006 C 
ENDBRANCH   8   9
BRANCH   8  11
ATOM     11  C   LIG d   1       3.040  82.837 111.014  0.00  0.00     0.028 C 
ATOM     12  C   LIG d   1       2.170  84.075 110.745  0.00  0.00     0.006 C 
ENDBRANCH   8  11
ENDBRANCH   7   8
ENDBRANCH   1   7
BRANCH   6  13
ATOM     13  N   LIG d   1       2.231  82.985 115.145  0.00  0.00    -0.311 N 
ATOM     14  C   LIG d   1       3.240  83.848 115.042  0.00  0.00     0.210 C 
ATOM     15  C   LIG d   1       4.218  83.843 116.221  0.00  0.00     0.109 C 
ATOM     16  O   LIG d   1       3.401  84.639 114.101  0.00  0.00    -0.276 OA
ATOM     17  H   LIG d   1       2.160  82.404 115.957  0.00  0.00     0.149 HD
ENDBRANCH   6  13
BRANCH   5  18
ATOM     18  N   LIG d   1      -0.363  84.593 115.005  0.00  0.00     0.381 N 
ATOM     19  H   LIG d   1       0.077  85.173 114.319  0.00  0.00    -0.090 HD
ATOM     20  H   LIG d   1       0.100  84.738 115.885  0.00  0.00    -0.090 HD
ATOM     21  H   LIG d   1      -1.327  84.833 115.085  0.00  0.00    -0.090 HD
ENDBRANCH   5  18
BRANCH   3  22
ATOM     22  C   LIG d   1      -2.279  81.003 112.480  0.00  0.00     0.382 C 
ATOM     23  O   LIG d   1      -3.385  81.590 112.562  0.00  0.00    -0.241 OA
ATOM     24  O   LIG d   1      -2.229  79.857 111.994  0.00  0.00    -0.241 OA
ENDBRANCH   3  22
TORSDOF 7
ENDMDL
MODEL 8
REMARK VINA RESULT:      -4.5      4.639      7.192
REMARK  7 active torsions:
REMARK  status: ('A' for Active; 'I' for Inactive)
REMARK    1  A    between atoms: C_2  and  C_3 
REMARK    2  A    between atoms: C_3  and  O_6 
REMARK    3  A    between atoms: C_3  and  C_4 
REMARK    4  A    between atoms: C_7  and  O_6 
REMARK    5  A    between atoms: C_9  and  C_10 
REMARK    6  A    between atoms: N_15  and  C_14 
REMARK    7  A    between atoms: N_20  and  C_19 
REMARK       I    between atoms: C_22  and  N_20 
ROOT
ATOM      1  C   LIG d   1      -2.930  79.318 115.914  0.00  0.00     0.161 C 
ATOM      2  C   LIG d   1      -2.860  80.534 115.214  0.00  0.00     0.016 C 
ATOM      3  C   LIG d   1      -2.360  80.646 113.896  0.00  0.00     0.038 C 
ATOM      4  C   LIG d   1      -2.033  79.518 113.129  0.00  0.00     0.028 C 
ATOM      5  C   LIG d   1      -1.611  78.317 113.968  0.00  0.00    -0.047 C 
ATOM      6  C   LIG d   1      -2.681  78.062 115.053  0.00  0.00     0.091 C 
ENDROOT
BRANCH   1   7
ATOM      7  O   LIG d   1      -4.197  79.218 116.594  0.00  0.00    -0.368 OA
BRANCH   7   8
ATOM      8  C   LIG d   1      -4.150  79.282 118.040  0.00  0.00     0.119 C 
BRANCH   8   9
ATOM      9  C   LIG d   1      -2.701  79.617 118.443  0.00  0.00     0.028 C 
ATOM     10  C   LIG d   1      -2.581  80.999 119.106  0.00  0.00     0.006 C 
ENDBRANCH   8   9
BRANCH   8  11
ATOM     11  C   LIG d   1      -4.440  77.915 118.668  0.00  0.00     0.028 C 
ATOM     12  C   LIG d   1      -3.243  77.354 119.452  0.00  0.00     0.006 C 
ENDBRANCH   8  11
ENDBRANCH   7   8
ENDBRANCH   1   7
BRANCH   6  13
ATOM     13  N   LIG d   1      -2.305  76.955 115.971  0.00  0.00    -0.311 N 
ATOM     14  C   LIG d   1      -2.739  75.704 115.828  0.00  0.00     0.210 C 
ATOM     15  C   LIG d   1      -2.247  74.723 116.896  0.00  0.00     0.109 C 
ATOM     16  O   LIG d   1      -3.459  75.307 114.899  0.00  0.00    -0.276 OA
ATOM     17  H   LIG d   1      -1.699  77.182 116.735  0.00  0.00     0.149 HD
ENDBRANCH   6  13
BRANCH   5  18
ATOM     18  N   LIG d   1      -1.433  77.174 113.052  0.00  0.00     0.381 N 
ATOM     19  H   LIG d   1      -0.852  77.444 112.283  0.00  0.00    -0.090 HD
ATOM     20  H   LIG d   1      -2.330  76.905 112.690  0.00  0.00    -0.090 HD
ATOM     21  H   LIG d   1      -1.019  76.409 113.538  0.00  0.00    -0.090 HD
ENDBRANCH   5  18
BRANCH   3  22
ATOM     22  C   LIG d   1      -2.144  81.901 113.347  0.00  0.00     0.382 C 
ATOM     23  O   LIG d   1      -2.048  82.904 114.095  0.00  0.00    -0.241 OA
ATOM     24  O   LIG d   1      -2.089  82.049 112.112  0.00  0.00    -0.241 OA
ENDBRANCH   3  22
TORSDOF 7
ENDMDL
MODEL 9
REMARK VINA RESULT:      -4.4      4.297      5.785
REMARK  7 active torsions:
REMARK  status: ('A' for Active; 'I' for Inactive)
REMARK    1  A    between atoms: C_2  and  C_3 
REMARK    2  A    between atoms: C_3  and  O_6 
REMARK    3  A    between atoms: C_3  and  C_4 
REMARK    4  A    between atoms: C_7  and  O_6 
REMARK    5  A    between atoms: C_9  and  C_10 
REMARK    6  A    between atoms: N_15  and  C_14 
REMARK    7  A    between atoms: N_20  and  C_19 
REMARK       I    between atoms: C_22  and  N_20 
ROOT
ATOM      1  C   LIG d   1      -0.652  80.464 115.817  0.00  0.00     0.161 C 
ATOM      2  C   LIG d   1      -1.377  81.215 114.877  0.00  0.00     0.016 C 
ATOM      3  C   LIG d   1      -2.031  80.643 113.761  0.00  0.00     0.038 C 
ATOM      4  C   LIG d   1      -2.130  79.254 113.592  0.00  0.00     0.028 C 
ATOM      5  C   LIG d   1      -0.986  78.481 114.240  0.00  0.00    -0.047 C 
ATOM      6  C   LIG d   1      -0.843  78.937 115.710  0.00  0.00     0.091 C 
ENDROOT
BRANCH   1   7
ATOM      7  O   LIG d   1      -0.964  80.916 117.149  0.00  0.00    -0.368 OA
BRANCH   7   8
ATOM      8  C   LIG d   1      -1.537  82.243 117.254  0.00  0.00     0.119 C 
BRANCH   8   9
ATOM      9  C   LIG d   1      -0.487  83.149 117.926  0.00  0.00     0.028 C 
ATOM     10  C   LIG d   1      -1.059  83.918 119.129  0.00  0.00     0.006 C 
ENDBRANCH   8   9
BRANCH   8  11
ATOM     11  C   LIG d   1      -2.745  82.256 118.195  0.00  0.00     0.028 C 
ATOM     12  C   LIG d   1      -4.073  82.007 117.463  0.00  0.00     0.006 C 
ENDBRANCH   8  11
ENDBRANCH   7   8
ENDBRANCH   1   7
BRANCH   6  13
ATOM     13  N   LIG d   1       0.308  78.291 116.394  0.00  0.00    -0.311 N 
ATOM     14  C   LIG d   1       0.199  77.184 117.126  0.00  0.00     0.210 C 
ATOM     15  C   LIG d   1       1.506  76.696 117.760  0.00  0.00     0.109 C 
ATOM     16  O   LIG d   1      -0.850  76.541 117.284  0.00  0.00    -0.276 OA
ATOM     17  H   LIG d   1       1.203  78.729 116.293  0.00  0.00     0.149 HD
ENDBRANCH   6  13
BRANCH   5  18
ATOM     18  N   LIG d   1      -1.288  77.043 114.107  0.00  0.00     0.381 N 
ATOM     19  H   LIG d   1      -0.803  76.529 114.815  0.00  0.00    -0.090 HD
ATOM     20  H   LIG d   1      -0.966  76.725 113.210  0.00  0.00    -0.090 HD
ATOM     21  H   LIG d   1      -2.269  76.892 114.189  0.00  0.00    -0.090 HD
ENDBRANCH   5  18
BRANCH   3  22
ATOM     22  C   LIG d   1      -2.560  81.465 112.778  0.00  0.00     0.382 C 
ATOM     23  O   LIG d   1      -1.811  82.249 112.147  0.00  0.00    -0.241 OA
ATOM     24  O   LIG d   1      -3.783  81.465 112.545  0.00  0.00    -0.241 OA
ENDBRANCH   3  22
TORSDOF 7
ENDMDL
