MODEL 1
REMARK VINA RESULT:      -5.4      0.000      0.000
REMARK  7 active torsions:
REMARK  status: ('A' for Active; 'I' for Inactive)
REMARK    1  A    between atoms: C_2  and  C_3 
REMARK    2  A    between atoms: C_3  and  O_6 
REMARK    3  A    between atoms: C_3  and  C_4 
REMARK    4  A    between atoms: C_7  and  O_6 
REMARK    5  A    between atoms: C_9  and  C_10 
REMARK    6  A    between atoms: N_15  and  C_14 
REMARK    7  A    between atoms: N_20  and  C_19 
REMARK       I    between atoms: C_22  and  N_20 
ROOT
ATOM      1  C   LIG d   1       1.377  81.300 112.774  0.00  0.00     0.161 C 
ATOM      2  C   LIG d   1       2.463  81.942 112.157  0.00  0.00     0.016 C 
ATOM      3  C   LIG d   1       2.611  82.045 110.755  0.00  0.00     0.038 C 
ATOM      4  C   LIG d   1       1.600  81.643 109.870  0.00  0.00     0.028 C 
ATOM      5  C   LIG d   1       0.713  80.534 110.428  0.00  0.00    -0.047 C 
ATOM      6  C   LIG d   1       0.208  80.952 111.828  0.00  0.00     0.091 C 
ENDROOT
BRANCH   1   7
ATOM      7  O   LIG d   1       0.906  82.092 113.882  0.00  0.00    -0.368 OA
BRANCH   7   8
ATOM      8  C   LIG d   1       1.328  83.478 113.899  0.00  0.00     0.119 C 
BRANCH   8   9
ATOM      9  C   LIG d   1       1.919  83.764 115.293  0.00  0.00     0.028 C 
ATOM     10  C   LIG d   1       2.319  82.479 116.036  0.00  0.00     0.006 C 
ENDBRANCH   8   9
BRANCH   8  11
ATOM     11  C   LIG d   1       0.133  84.427 113.763  0.00  0.00     0.028 C 
ATOM     12  C   LIG d   1      -0.422  84.483 112.331  0.00  0.00     0.006 C 
ENDBRANCH   8  11
ENDBRANCH   7   8
ENDBRANCH   1   7
BRANCH   6  13
ATOM     13  N   LIG d   1      -0.598  79.888 112.481  0.00  0.00    -0.311 N 
ATOM     14  C   LIG d   1      -1.860  80.058 112.869  0.00  0.00     0.210 C 
ATOM     15  C   LIG d   1      -2.501  78.839 113.540  0.00  0.00     0.109 C 
ATOM     16  O   LIG d   1      -2.521  81.093 112.692  0.00  0.00    -0.276 OA
ATOM     17  H   LIG d   1      -0.150  79.006 112.635  0.00  0.00     0.149 HD
ENDBRANCH   6  13
BRANCH   5  18
ATOM     18  N   LIG d   1      -0.379  80.308 109.463  0.00  0.00     0.381 N 
ATOM     19  H   LIG d   1      -1.193  80.815 109.748  0.00  0.00    -0.090 HD
ATOM     20  H   LIG d   1      -0.605  79.329 109.451  0.00  0.00    -0.090 HD
ATOM     21  H   LIG d   1      -0.097  80.603 108.554  0.00  0.00    -0.090 HD
ENDBRANCH   5  18
BRANCH   3  22
ATOM     22  C   LIG d   1       3.800  82.521 110.223  0.00  0.00     0.382 C 
ATOM     23  O   LIG d   1       4.463  81.807 109.432  0.00  0.00    -0.241 OA
ATOM     24  O   LIG d   1       4.241  83.637 110.558  0.00  0.00    -0.241 OA
ENDBRANCH   3  22
TORSDOF 7
ENDMDL
MODEL 2
REMARK VINA RESULT:      -5.1      1.623      4.813
REMARK  7 active torsions:
REMARK  status: ('A' for Active; 'I' for Inactive)
REMARK    1  A    between atoms: C_2  and  C_3 
REMARK    2  A    between atoms: C_3  and  O_6 
REMARK    3  A    between atoms: C_3  and  C_4 
REMARK    4  A    between atoms: C_7  and  O_6 
REMARK    5  A    between atoms: C_9  and  C_10 
REMARK    6  A    between atoms: N_15  and  C_14 
REMARK    7  A    between atoms: N_20  and  C_19 
REMARK       I    between atoms: C_22  and  N_20 
ROOT
ATOM      1  C   LIG d   1      -0.353  81.217 112.361  0.00  0.00     0.161 C 
ATOM      2  C   LIG d   1      -1.352  80.308 112.747  0.00  0.00     0.016 C 
ATOM      3  C   LIG d   1      -1.574  79.073 112.095  0.00  0.00     0.038 C 
ATOM      4  C   LIG d   1      -0.708  78.593 111.101  0.00  0.00     0.028 C 
ATOM      5  C   LIG d   1       0.010  79.701 110.337  0.00  0.00    -0.047 C 
ATOM      6  C   LIG d   1       0.672  80.661 111.351  0.00  0.00     0.091 C 
ENDROOT
BRANCH   1   7
ATOM      7  O   LIG d   1       0.320  81.727 113.529  0.00  0.00    -0.368 OA
BRANCH   7   8
ATOM      8  C   LIG d   1       0.859  83.068 113.420  0.00  0.00     0.119 C 
BRANCH   8   9
ATOM      9  C   LIG d   1       1.777  83.298 114.636  0.00  0.00     0.028 C 
ATOM     10  C   LIG d   1       2.205  81.982 115.306  0.00  0.00     0.006 C 
ENDBRANCH   8   9
BRANCH   8  11
ATOM     11  C   LIG d   1      -0.244  84.123 113.538  0.00  0.00     0.028 C 
ATOM     12  C   LIG d   1      -0.684  84.680 112.175  0.00  0.00     0.006 C 
ENDBRANCH   8  11
ENDBRANCH   7   8
ENDBRANCH   1   7
BRANCH   6  13
ATOM     13  N   LIG d   1       1.326  81.821 110.690  0.00  0.00    -0.311 N 
ATOM     14  C   LIG d   1       2.609  81.833 110.332  0.00  0.00     0.210 C 
ATOM     15  C   LIG d   1       3.087  83.135 109.682  0.00  0.00     0.109 C 
ATOM     16  O   LIG d   1       3.389  80.877 110.461  0.00  0.00    -0.276 OA
ATOM     17  H   LIG d   1       0.759  82.627 110.518  0.00  0.00     0.149 HD
ENDBRANCH   6  13
BRANCH   5  18
ATOM     18  N   LIG d   1       0.980  79.059 109.430  0.00  0.00     0.381 N 
ATOM     19  H   LIG d   1       0.495  78.597 108.687  0.00  0.00    -0.090 HD
ATOM     20  H   LIG d   1       1.500  78.370 109.944  0.00  0.00    -0.090 HD
ATOM     21  H   LIG d   1       1.601  79.743 109.056  0.00  0.00    -0.090 HD
ENDBRANCH   5  18
BRANCH   3  22
ATOM     22  C   LIG d   1      -2.697  78.323 112.408  0.00  0.00     0.382 C 
ATOM     23  O   LIG d   1      -3.177  78.367 113.567  0.00  0.00    -0.241 OA
ATOM     24  O   LIG d   1      -3.210  77.568 111.560  0.00  0.00    -0.241 OA
ENDBRANCH   3  22
TORSDOF 7
ENDMDL
MODEL 3
REMARK VINA RESULT:      -4.5      1.467      1.949
REMARK  7 active torsions:
REMARK  status: ('A' for Active; 'I' for Inactive)
REMARK    1  A    between atoms: C_2  and  C_3 
REMARK    2  A    between atoms: C_3  and  O_6 
REMARK    3  A    between atoms: C_3  and  C_4 
REMARK    4  A    between atoms: C_7  and  O_6 
REMARK    5  A    between atoms: C_9  and  C_10 
REMARK    6  A    between atoms: N_15  and  C_14 
REMARK    7  A    between atoms: N_20  and  C_19 
REMARK       I    between atoms: C_22  and  N_20 
ROOT
ATOM      1  C   LIG d   1       1.683  81.717 113.278  0.00  0.00     0.161 C 
ATOM      2  C   LIG d   1       2.526  82.638 112.632  0.00  0.00     0.016 C 
ATOM      3  C   LIG d   1       2.390  82.995 111.271  0.00  0.00     0.038 C 
ATOM      4  C   LIG d   1       1.302  82.566 110.497  0.00  0.00     0.028 C 
ATOM      5  C   LIG d   1       0.712  81.239 110.963  0.00  0.00    -0.047 C 
ATOM      6  C   LIG d   1       0.423  81.324 112.479  0.00  0.00     0.091 C 
ENDROOT
BRANCH   1   7
ATOM      7  O   LIG d   1       1.316  82.220 114.578  0.00  0.00    -0.368 OA
BRANCH   7   8
ATOM      8  C   LIG d   1       2.411  82.500 115.485  0.00  0.00     0.119 C 
BRANCH   8   9
ATOM      9  C   LIG d   1       2.394  81.415 116.580  0.00  0.00     0.028 C 
ATOM     10  C   LIG d   1       1.913  81.957 117.936  0.00  0.00     0.006 C 
ENDBRANCH   8   9
BRANCH   8  11
ATOM     11  C   LIG d   1       2.197  83.824 116.224  0.00  0.00     0.028 C 
ATOM     12  C   LIG d   1       3.474  84.675 116.303  0.00  0.00     0.006 C 
ENDBRANCH   8  11
ENDBRANCH   7   8
ENDBRANCH   1   7
BRANCH   6  13
ATOM     13  N   LIG d   1      -0.078  80.039 113.034  0.00  0.00    -0.311 N 
ATOM     14  C   LIG d   1      -1.369  79.717 113.084  0.00  0.00     0.210 C 
ATOM     15  C   LIG d   1      -1.671  78.352 113.713  0.00  0.00     0.109 C 
ATOM     16  O   LIG d   1      -2.291  80.416 112.639  0.00  0.00    -0.276 OA
ATOM     17  H   LIG d   1       0.604  79.399 113.389  0.00  0.00     0.149 HD
ENDBRANCH   6  13
BRANCH   5  18
ATOM     18  N   LIG d   1      -0.497  80.981 110.158  0.00  0.00     0.381 N 
ATOM     19  H   LIG d   1      -0.530  81.615 109.385  0.00  0.00    -0.090 HD
ATOM     20  H   LIG d   1      -1.308  81.138 110.730  0.00  0.00    -0.090 HD
ATOM     21  H   LIG d   1      -0.492  80.042 109.826  0.00  0.00    -0.090 HD
ENDBRANCH   5  18
BRANCH   3  22
ATOM     22  C   LIG d   1       3.373  83.758 110.659  0.00  0.00     0.382 C 
ATOM     23  O   LIG d   1       3.304  84.002 109.431  0.00  0.00    -0.241 OA
ATOM     24  O   LIG d   1       4.352  84.168 111.312  0.00  0.00    -0.241 OA
ENDBRANCH   3  22
TORSDOF 7
ENDMDL
MODEL 4
REMARK VINA RESULT:      -4.2      4.257      6.563
REMARK  7 active torsions:
REMARK  status: ('A' for Active; 'I' for Inactive)
REMARK    1  A    between atoms: C_2  and  C_3 
REMARK    2  A    between atoms: C_3  and  O_6 
REMARK    3  A    between atoms: C_3  and  C_4 
REMARK    4  A    between atoms: C_7  and  O_6 
REMARK    5  A    between atoms: C_9  and  C_10 
REMARK    6  A    between atoms: N_15  and  C_14 
REMARK    7  A    between atoms: N_20  and  C_19 
REMARK       I    between atoms: C_22  and  N_20 
ROOT
ATOM      1  C   LIG d   1      -1.992  77.880 113.838  0.00  0.00     0.161 C 
ATOM      2  C   LIG d   1      -2.531  79.177 113.804  0.00  0.00     0.016 C 
ATOM      3  C   LIG d   1      -2.238  80.115 112.788  0.00  0.00     0.038 C 
ATOM      4  C   LIG d   1      -1.501  79.766 111.647  0.00  0.00     0.028 C 
ATOM      5  C   LIG d   1      -0.520  78.622 111.885  0.00  0.00    -0.047 C 
ATOM      6  C   LIG d   1      -1.274  77.444 112.543  0.00  0.00     0.091 C 
ENDROOT
BRANCH   1   7
ATOM      7  O   LIG d   1      -3.022  76.932 114.183  0.00  0.00    -0.368 OA
BRANCH   7   8
ATOM      8  C   LIG d   1      -3.051  76.497 115.564  0.00  0.00     0.119 C 
BRANCH   8   9
ATOM      9  C   LIG d   1      -1.743  76.972 116.226  0.00  0.00     0.028 C 
ATOM     10  C   LIG d   1      -1.989  77.688 117.565  0.00  0.00     0.006 C 
ENDBRANCH   8   9
BRANCH   8  11
ATOM     11  C   LIG d   1      -3.026  74.969 115.668  0.00  0.00     0.028 C 
ATOM     12  C   LIG d   1      -1.600  74.399 115.725  0.00  0.00     0.006 C 
ENDBRANCH   8  11
ENDBRANCH   7   8
ENDBRANCH   1   7
BRANCH   6  13
ATOM     13  N   LIG d   1      -0.371  76.315 112.888  0.00  0.00    -0.311 N 
ATOM     14  C   LIG d   1       0.074  75.434 111.994  0.00  0.00     0.210 C 
ATOM     15  C   LIG d   1       0.979  74.336 112.564  0.00  0.00     0.109 C 
ATOM     16  O   LIG d   1      -0.167  75.476 110.778  0.00  0.00    -0.276 OA
ATOM     17  H   LIG d   1      -0.100  76.224 113.847  0.00  0.00     0.149 HD
ENDBRANCH   6  13
BRANCH   5  18
ATOM     18  N   LIG d   1       0.080  78.271 110.585  0.00  0.00     0.381 N 
ATOM     19  H   LIG d   1      -0.502  78.605 109.842  0.00  0.00    -0.090 HD
ATOM     20  H   LIG d   1       0.138  77.270 110.513  0.00  0.00    -0.090 HD
ATOM     21  H   LIG d   1       0.989  78.670 110.509  0.00  0.00    -0.090 HD
ENDBRANCH   5  18
BRANCH   3  22
ATOM     22  C   LIG d   1      -2.653  81.431 112.927  0.00  0.00     0.382 C 
ATOM     23  O   LIG d   1      -1.831  82.313 113.274  0.00  0.00    -0.241 OA
ATOM     24  O   LIG d   1      -3.847  81.739 112.754  0.00  0.00    -0.241 OA
ENDBRANCH   3  22
TORSDOF 7
ENDMDL
MODEL 5
REMARK VINA RESULT:      -3.8      6.225      7.704
REMARK  7 active torsions:
REMARK  status: ('A' for Active; 'I' for Inactive)
REMARK    1  A    between atoms: C_2  and  C_3 
REMARK    2  A    between atoms: C_3  and  O_6 
REMARK    3  A    between atoms: C_3  and  C_4 
REMARK    4  A    between atoms: C_7  and  O_6 
REMARK    5  A    between atoms: C_9  and  C_10 
REMARK    6  A    between atoms: N_15  and  C_14 
REMARK    7  A    between atoms: N_20  and  C_19 
REMARK       I    between atoms: C_22  and  N_20 
ROOT
ATOM      1  C   LIG d   1      -1.226  77.243 116.234  0.00  0.00     0.161 C 
ATOM      2  C   LIG d   1      -1.510  77.845 114.997  0.00  0.00     0.016 C 
ATOM      3  C   LIG d   1      -2.593  77.460 114.174  0.00  0.00     0.038 C 
ATOM      4  C   LIG d   1      -3.561  76.541 114.605  0.00  0.00     0.028 C 
ATOM      5  C   LIG d   1      -3.034  75.542 115.630  0.00  0.00    -0.047 C 
ATOM      6  C   LIG d   1      -2.336  76.316 116.771  0.00  0.00     0.091 C 
ENDROOT
BRANCH   1   7
ATOM      7  O   LIG d   1      -0.903  78.255 117.208  0.00  0.00    -0.368 OA
BRANCH   7   8
ATOM      8  C   LIG d   1       0.239  77.983 118.056  0.00  0.00     0.119 C 
BRANCH   8   9
ATOM      9  C   LIG d   1      -0.112  78.469 119.476  0.00  0.00     0.028 C 
ATOM     10  C   LIG d   1      -1.287  79.461 119.482  0.00  0.00     0.006 C 
ENDBRANCH   8   9
BRANCH   8  11
ATOM     11  C   LIG d   1       1.457  78.810 117.634  0.00  0.00     0.028 C 
ATOM     12  C   LIG d   1       2.783  78.216 118.133  0.00  0.00     0.006 C 
ENDBRANCH   8  11
ENDBRANCH   7   8
ENDBRANCH   1   7
BRANCH   6  13
ATOM     13  N   LIG d   1      -1.718  75.410 117.775  0.00  0.00    -0.311 N 
ATOM     14  C   LIG d   1      -2.054  75.406 119.063  0.00  0.00     0.210 C 
ATOM     15  C   LIG d   1      -1.280  74.407 119.930  0.00  0.00     0.109 C 
ATOM     16  O   LIG d   1      -2.941  76.112 119.565  0.00  0.00    -0.276 OA
ATOM     17  H   LIG d   1      -1.010  74.782 117.447  0.00  0.00     0.149 HD
ENDBRANCH   6  13
BRANCH   5  18
ATOM     18  N   LIG d   1      -4.178  74.735 116.094  0.00  0.00     0.381 N 
ATOM     19  H   LIG d   1      -4.659  74.345 115.308  0.00  0.00    -0.090 HD
ATOM     20  H   LIG d   1      -4.817  75.332 116.590  0.00  0.00    -0.090 HD
ATOM     21  H   LIG d   1      -3.860  74.005 116.693  0.00  0.00    -0.090 HD
ENDBRANCH   5  18
BRANCH   3  22
ATOM     22  C   LIG d   1      -2.692  77.966 112.887  0.00  0.00     0.382 C 
ATOM     23  O   LIG d   1      -3.074  79.148 112.706  0.00  0.00    -0.241 OA
ATOM     24  O   LIG d   1      -2.448  77.243 111.903  0.00  0.00    -0.241 OA
ENDBRANCH   3  22
TORSDOF 7
ENDMDL
MODEL 6
REMARK VINA RESULT:      -3.7      4.861      8.407
REMARK  7 active torsions:
REMARK  status: ('A' for Active; 'I' for Inactive)
REMARK    1  A    between atoms: C_2  and  C_3 
REMARK    2  A    between atoms: C_3  and  O_6 
REMARK    3  A    between atoms: C_3  and  C_4 
REMARK    4  A    between atoms: C_7  and  O_6 
REMARK    5  A    between atoms: C_9  and  C_10 
REMARK    6  A    between atoms: N_15  and  C_14 
REMARK    7  A    between atoms: N_20  and  C_19 
REMARK       I    between atoms: C_22  and  N_20 
ROOT
ATOM      1  C   LIG d   1      -0.886  77.024 115.431  0.00  0.00     0.161 C 
ATOM      2  C   LIG d   1      -2.014  76.214 115.215  0.00  0.00     0.016 C 
ATOM      3  C   LIG d   1      -2.885  75.802 116.250  0.00  0.00     0.038 C 
ATOM      4  C   LIG d   1      -2.772  76.299 117.556  0.00  0.00     0.028 C 
ATOM      5  C   LIG d   1      -1.352  76.718 117.924  0.00  0.00    -0.047 C 
ATOM      6  C   LIG d   1      -0.810  77.667 116.831  0.00  0.00     0.091 C 
ENDROOT
BRANCH   1   7
ATOM      7  O   LIG d   1      -0.810  78.038 114.409  0.00  0.00    -0.368 OA
BRANCH   7   8
ATOM      8  C   LIG d   1      -1.943  78.122 113.509  0.00  0.00     0.119 C 
BRANCH   8   9
ATOM      9  C   LIG d   1      -1.461  77.676 112.115  0.00  0.00     0.028 C 
ATOM     10  C   LIG d   1      -2.538  77.865 111.034  0.00  0.00     0.006 C 
ENDBRANCH   8   9
BRANCH   8  11
ATOM     11  C   LIG d   1      -2.407  79.571 113.333  0.00  0.00     0.028 C 
ATOM     12  C   LIG d   1      -1.293  80.495 112.816  0.00  0.00     0.006 C 
ENDBRANCH   8  11
ENDBRANCH   7   8
ENDBRANCH   1   7
BRANCH   6  13
ATOM     13  N   LIG d   1       0.604  78.057 117.070  0.00  0.00    -0.311 N 
ATOM     14  C   LIG d   1       0.969  78.988 117.950  0.00  0.00     0.210 C 
ATOM     15  C   LIG d   1       2.476  79.252 118.026  0.00  0.00     0.109 C 
ATOM     16  O   LIG d   1       0.190  79.598 118.698  0.00  0.00    -0.276 OA
ATOM     17  H   LIG d   1       1.304  77.590 116.528  0.00  0.00     0.149 HD
ENDBRANCH   6  13
BRANCH   5  18
ATOM     18  N   LIG d   1      -1.404  77.343 119.259  0.00  0.00     0.381 N 
ATOM     19  H   LIG d   1      -2.215  77.025 119.752  0.00  0.00    -0.090 HD
ATOM     20  H   LIG d   1      -1.473  78.340 119.149  0.00  0.00    -0.090 HD
ATOM     21  H   LIG d   1      -0.582  77.115 119.775  0.00  0.00    -0.090 HD
ENDBRANCH   5  18
BRANCH   3  22
ATOM     22  C   LIG d   1      -3.860  74.851 115.989  0.00  0.00     0.382 C 
ATOM     23  O   LIG d   1      -4.282  74.690 114.819  0.00  0.00    -0.241 OA
ATOM     24  O   LIG d   1      -4.354  74.182 116.917  0.00  0.00    -0.241 OA
ENDBRANCH   3  22
TORSDOF 7
ENDMDL
MODEL 7
REMARK VINA RESULT:      -3.6      4.174      7.629
REMARK  7 active torsions:
REMARK  status: ('A' for Active; 'I' for Inactive)
REMARK    1  A    between atoms: C_2  and  C_3 
REMARK    2  A    between atoms: C_3  and  O_6 
REMARK    3  A    between atoms: C_3  and  C_4 
REMARK    4  A    between atoms: C_7  and  O_6 
REMARK    5  A    between atoms: C_9  and  C_10 
REMARK    6  A    between atoms: N_15  and  C_14 
REMARK    7  A    between atoms: N_20  and  C_19 
REMARK       I    between atoms: C_22  and  N_20 
ROOT
ATOM      1  C   LIG d   1      -2.105  77.746 114.217  0.00  0.00     0.161 C 
ATOM      2  C   LIG d   1      -2.886  77.961 115.365  0.00  0.00     0.016 C 
ATOM      3  C   LIG d   1      -2.969  77.039 116.433  0.00  0.00     0.038 C 
ATOM      4  C   LIG d   1      -2.152  75.900 116.495  0.00  0.00     0.028 C 
ATOM      5  C   LIG d   1      -1.722  75.388 115.125  0.00  0.00    -0.047 C 
ATOM      6  C   LIG d   1      -1.121  76.561 114.317  0.00  0.00     0.091 C 
ENDROOT
BRANCH   1   7
ATOM      7  O   LIG d   1      -1.399  78.954 113.872  0.00  0.00    -0.368 OA
BRANCH   7   8
ATOM      8  C   LIG d   1      -1.891  79.671 112.713  0.00  0.00     0.119 C 
BRANCH   8   9
ATOM      9  C   LIG d   1      -0.684  79.956 111.798  0.00  0.00     0.028 C 
ATOM     10  C   LIG d   1      -0.647  79.031 110.570  0.00  0.00     0.006 C 
ENDBRANCH   8   9
BRANCH   8  11
ATOM     11  C   LIG d   1      -2.441  81.047 113.100  0.00  0.00     0.028 C 
ATOM     12  C   LIG d   1      -1.440  82.184 112.838  0.00  0.00     0.006 C 
ENDBRANCH   8  11
ENDBRANCH   7   8
ENDBRANCH   1   7
BRANCH   6  13
ATOM     13  N   LIG d   1      -0.752  76.165 112.933  0.00  0.00    -0.311 N 
ATOM     14  C   LIG d   1       0.351  75.480 112.636  0.00  0.00     0.210 C 
ATOM     15  C   LIG d   1       0.552  75.193 111.144  0.00  0.00     0.109 C 
ATOM     16  O   LIG d   1       1.165  75.055 113.469  0.00  0.00    -0.276 OA
ATOM     17  H   LIG d   1      -1.373  76.442 112.198  0.00  0.00     0.149 HD
ENDBRANCH   6  13
BRANCH   5  18
ATOM     18  N   LIG d   1      -0.767  74.285 115.341  0.00  0.00     0.381 N 
ATOM     19  H   LIG d   1      -1.108  73.677 116.058  0.00  0.00    -0.090 HD
ATOM     20  H   LIG d   1       0.111  74.670 115.644  0.00  0.00    -0.090 HD
ATOM     21  H   LIG d   1      -0.639  73.774 114.495  0.00  0.00    -0.090 HD
ENDBRANCH   5  18
BRANCH   3  22
ATOM     22  C   LIG d   1      -3.906  77.233 117.437  0.00  0.00     0.382 C 
ATOM     23  O   LIG d   1      -4.319  78.389 117.694  0.00  0.00    -0.241 OA
ATOM     24  O   LIG d   1      -4.310  76.272 118.118  0.00  0.00    -0.241 OA
ENDBRANCH   3  22
TORSDOF 7
ENDMDL
MODEL 8
REMARK VINA RESULT:      -3.5      5.960      7.710
REMARK  7 active torsions:
REMARK  status: ('A' for Active; 'I' for Inactive)
REMARK    1  A    between atoms: C_2  and  C_3 
REMARK    2  A    between atoms: C_3  and  O_6 
REMARK    3  A    between atoms: C_3  and  C_4 
REMARK    4  A    between atoms: C_7  and  O_6 
REMARK    5  A    between atoms: C_9  and  C_10 
REMARK    6  A    between atoms: N_15  and  C_14 
REMARK    7  A    between atoms: N_20  and  C_19 
REMARK       I    between atoms: C_22  and  N_20 
ROOT
ATOM      1  C   LIG d   1      -2.236  77.684 116.457  0.00  0.00     0.161 C 
ATOM      2  C   LIG d   1      -2.813  78.315 115.342  0.00  0.00     0.016 C 
ATOM      3  C   LIG d   1      -2.433  78.038 114.009  0.00  0.00     0.038 C 
ATOM      4  C   LIG d   1      -1.551  76.994 113.691  0.00  0.00     0.028 C 
ATOM      5  C   LIG d   1      -0.566  76.671 114.810  0.00  0.00    -0.047 C 
ATOM      6  C   LIG d   1      -1.352  76.464 116.125  0.00  0.00     0.091 C 
ENDROOT
BRANCH   1   7
ATOM      7  O   LIG d   1      -3.266  77.316 117.397  0.00  0.00    -0.368 OA
BRANCH   7   8
ATOM      8  C   LIG d   1      -3.068  77.754 118.763  0.00  0.00     0.119 C 
BRANCH   8   9
ATOM      9  C   LIG d   1      -4.430  78.241 119.295  0.00  0.00     0.028 C 
ATOM     10  C   LIG d   1      -4.362  79.667 119.865  0.00  0.00     0.006 C 
ENDBRANCH   8   9
BRANCH   8  11
ATOM     11  C   LIG d   1      -2.147  78.976 118.829  0.00  0.00     0.028 C 
ATOM     12  C   LIG d   1      -0.923  78.752 119.731  0.00  0.00     0.006 C 
ENDBRANCH   8  11
ENDBRANCH   7   8
ENDBRANCH   1   7
BRANCH   6  13
ATOM     13  N   LIG d   1      -0.458  76.227 117.288  0.00  0.00    -0.311 N 
ATOM     14  C   LIG d   1      -0.675  75.280 118.199  0.00  0.00     0.210 C 
ATOM     15  C   LIG d   1       0.358  75.219 119.328  0.00  0.00     0.109 C 
ATOM     16  O   LIG d   1      -1.609  74.465 118.162  0.00  0.00    -0.276 OA
ATOM     17  H   LIG d   1       0.341  76.823 117.378  0.00  0.00     0.149 HD
ENDBRANCH   6  13
BRANCH   5  18
ATOM     18  N   LIG d   1       0.199  75.479 114.400  0.00  0.00     0.381 N 
ATOM     19  H   LIG d   1       0.036  75.288 113.431  0.00  0.00    -0.090 HD
ATOM     20  H   LIG d   1      -0.119  74.689 114.934  0.00  0.00    -0.090 HD
ATOM     21  H   LIG d   1       1.171  75.626 114.558  0.00  0.00    -0.090 HD
ENDBRANCH   5  18
BRANCH   3  22
ATOM     22  C   LIG d   1      -2.908  78.835 112.979  0.00  0.00     0.382 C 
ATOM     23  O   LIG d   1      -3.252  80.019 113.211  0.00  0.00    -0.241 OA
ATOM     24  O   LIG d   1      -3.038  78.373 111.830  0.00  0.00    -0.241 OA
ENDBRANCH   3  22
TORSDOF 7
ENDMDL
MODEL 9
REMARK VINA RESULT:      -3.5      3.313      5.915
REMARK  7 active torsions:
REMARK  status: ('A' for Active; 'I' for Inactive)
REMARK    1  A    between atoms: C_2  and  C_3 
REMARK    2  A    between atoms: C_3  and  O_6 
REMARK    3  A    between atoms: C_3  and  C_4 
REMARK    4  A    between atoms: C_7  and  O_6 
REMARK    5  A    between atoms: C_9  and  C_10 
REMARK    6  A    between atoms: N_15  and  C_14 
REMARK    7  A    between atoms: N_20  and  C_19 
REMARK       I    between atoms: C_22  and  N_20 
ROOT
ATOM      1  C   LIG d   1      -0.387  78.889 113.734  0.00  0.00     0.161 C 
ATOM      2  C   LIG d   1      -1.320  78.745 112.694  0.00  0.00     0.016 C 
ATOM      3  C   LIG d   1      -2.436  77.879 112.764  0.00  0.00     0.038 C 
ATOM      4  C   LIG d   1      -2.780  77.208 113.947  0.00  0.00     0.028 C 
ATOM      5  C   LIG d   1      -1.587  76.933 114.856  0.00  0.00    -0.047 C 
ATOM      6  C   LIG d   1      -0.807  78.250 115.074  0.00  0.00     0.091 C 
ENDROOT
BRANCH   1   7
ATOM      7  O   LIG d   1      -0.076  80.284 113.921  0.00  0.00    -0.368 OA
BRANCH   7   8
ATOM      8  C   LIG d   1       0.083  81.069 112.713  0.00  0.00     0.119 C 
BRANCH   8   9
ATOM      9  C   LIG d   1       1.552  81.531 112.651  0.00  0.00     0.028 C 
ATOM     10  C   LIG d   1       2.224  81.171 111.315  0.00  0.00     0.006 C 
ENDBRANCH   8   9
BRANCH   8  11
ATOM     11  C   LIG d   1      -0.744  82.357 112.773  0.00  0.00     0.028 C 
ATOM     12  C   LIG d   1      -2.223  82.100 113.105  0.00  0.00     0.006 C 
ENDBRANCH   8  11
ENDBRANCH   7   8
ENDBRANCH   1   7
BRANCH   6  13
ATOM     13  N   LIG d   1       0.423  78.052 115.884  0.00  0.00    -0.311 N 
ATOM     14  C   LIG d   1       0.450  78.150 117.212  0.00  0.00     0.210 C 
ATOM     15  C   LIG d   1       1.826  77.930 117.848  0.00  0.00     0.109 C 
ATOM     16  O   LIG d   1      -0.541  78.366 117.925  0.00  0.00    -0.276 OA
ATOM     17  H   LIG d   1       1.267  77.843 115.387  0.00  0.00     0.149 HD
ENDBRANCH   6  13
BRANCH   5  18
ATOM     18  N   LIG d   1      -2.107  76.355 116.110  0.00  0.00     0.381 N 
ATOM     19  H   LIG d   1      -2.873  76.904 116.444  0.00  0.00    -0.090 HD
ATOM     20  H   LIG d   1      -1.379  76.374 116.803  0.00  0.00    -0.090 HD
ATOM     21  H   LIG d   1      -2.404  75.417 115.956  0.00  0.00    -0.090 HD
ENDBRANCH   5  18
BRANCH   3  22
ATOM     22  C   LIG d   1      -3.199  77.648 111.630  0.00  0.00     0.382 C 
ATOM     23  O   LIG d   1      -2.642  77.551 110.509  0.00  0.00    -0.241 OA
ATOM     24  O   LIG d   1      -4.440  77.578 111.706  0.00  0.00    -0.241 OA
ENDBRANCH   3  22
TORSDOF 7
ENDMDL
