MODEL 1
REMARK VINA RESULT:      -5.2      0.000      0.000
REMARK  7 active torsions:
REMARK  status: ('A' for Active; 'I' for Inactive)
REMARK    1  A    between atoms: C_2  and  C_3 
REMARK    2  A    between atoms: C_3  and  O_6 
REMARK    3  A    between atoms: C_3  and  C_4 
REMARK    4  A    between atoms: C_7  and  O_6 
REMARK    5  A    between atoms: C_9  and  C_10 
REMARK    6  A    between atoms: N_15  and  C_14 
REMARK    7  A    between atoms: N_20  and  C_19 
REMARK       I    between atoms: C_22  and  N_20 
ROOT
ATOM      1  C   LIG d   1       1.744  81.731 112.585  0.00  0.00     0.161 C 
ATOM      2  C   LIG d   1       2.902  82.042 111.853  0.00  0.00     0.016 C 
ATOM      3  C   LIG d   1       3.007  81.870 110.453  0.00  0.00     0.038 C 
ATOM      4  C   LIG d   1       1.902  81.516 109.665  0.00  0.00     0.028 C 
ATOM      5  C   LIG d   1       0.854  80.706 110.420  0.00  0.00    -0.047 C 
ATOM      6  C   LIG d   1       0.493  81.449 111.727  0.00  0.00     0.091 C 
ENDROOT
BRANCH   1   7
ATOM      7  O   LIG d   1       1.473  82.779 113.537  0.00  0.00    -0.368 OA
BRANCH   7   8
ATOM      8  C   LIG d   1       2.609  83.259 114.298  0.00  0.00     0.119 C 
BRANCH   8   9
ATOM      9  C   LIG d   1       2.741  82.364 115.546  0.00  0.00     0.028 C 
ATOM     10  C   LIG d   1       4.030  81.525 115.532  0.00  0.00     0.006 C 
ENDBRANCH   8   9
BRANCH   8  11
ATOM     11  C   LIG d   1       2.362  84.671 114.836  0.00  0.00     0.028 C 
ATOM     12  C   LIG d   1       1.929  84.680 116.310  0.00  0.00     0.006 C 
ENDBRANCH   8  11
ENDBRANCH   7   8
ENDBRANCH   1   7
BRANCH   6  13
ATOM     13  N   LIG d   1      -0.465  80.684 112.568  0.00  0.00    -0.311 N 
ATOM     14  C   LIG d   1      -1.770  80.946 112.616  0.00  0.00     0.210 C 
ATOM     15  C   LIG d   1      -2.575  80.050 113.562  0.00  0.00     0.109 C 
ATOM     16  O   LIG d   1      -2.342  81.814 111.940  0.00  0.00    -0.276 OA
ATOM     17  H   LIG d   1      -0.090  79.941 113.125  0.00  0.00     0.149 HD
ENDBRANCH   6  13
BRANCH   5  18
ATOM     18  N   LIG d   1      -0.301  80.524 109.521  0.00  0.00     0.381 N 
ATOM     19  H   LIG d   1      -0.864  79.762 109.843  0.00  0.00    -0.090 HD
ATOM     20  H   LIG d   1       0.035  80.302 108.601  0.00  0.00    -0.090 HD
ATOM     21  H   LIG d   1      -0.845  81.358 109.491  0.00  0.00    -0.090 HD
ENDBRANCH   5  18
BRANCH   3  22
ATOM     22  C   LIG d   1       4.239  82.015 109.833  0.00  0.00     0.382 C 
ATOM     23  O   LIG d   1       4.647  83.156 109.508  0.00  0.00    -0.241 OA
ATOM     24  O   LIG d   1       4.928  81.016 109.556  0.00  0.00    -0.241 OA
ENDBRANCH   3  22
TORSDOF 7
ENDMDL
MODEL 2
REMARK VINA RESULT:      -4.6      5.504      8.197
REMARK  7 active torsions:
REMARK  status: ('A' for Active; 'I' for Inactive)
REMARK    1  A    between atoms: C_2  and  C_3 
REMARK    2  A    between atoms: C_3  and  O_6 
REMARK    3  A    between atoms: C_3  and  C_4 
REMARK    4  A    between atoms: C_7  and  O_6 
REMARK    5  A    between atoms: C_9  and  C_10 
REMARK    6  A    between atoms: N_15  and  C_14 
REMARK    7  A    between atoms: N_20  and  C_19 
REMARK       I    between atoms: C_22  and  N_20 
ROOT
ATOM      1  C   LIG d   1      -2.319  78.106 117.205  0.00  0.00     0.161 C 
ATOM      2  C   LIG d   1      -3.093  77.283 116.370  0.00  0.00     0.016 C 
ATOM      3  C   LIG d   1      -2.956  77.253 114.963  0.00  0.00     0.038 C 
ATOM      4  C   LIG d   1      -1.925  77.939 114.304  0.00  0.00     0.028 C 
ATOM      5  C   LIG d   1      -1.442  79.175 115.056  0.00  0.00    -0.047 C 
ATOM      6  C   LIG d   1      -1.115  78.779 116.514  0.00  0.00     0.091 C 
ENDROOT
BRANCH   1   7
ATOM      7  O   LIG d   1      -1.883  77.360 118.358  0.00  0.00    -0.368 OA
BRANCH   7   8
ATOM      8  C   LIG d   1      -0.761  76.467 118.152  0.00  0.00     0.119 C 
BRANCH   8   9
ATOM      9  C   LIG d   1      -1.235  75.042 118.497  0.00  0.00     0.028 C 
ATOM     10  C   LIG d   1      -1.464  74.180 117.243  0.00  0.00     0.006 C 
ENDBRANCH   8   9
BRANCH   8  11
ATOM     11  C   LIG d   1       0.376  76.764 119.134  0.00  0.00     0.028 C 
ATOM     12  C   LIG d   1       1.568  75.808 118.973  0.00  0.00     0.006 C 
ENDBRANCH   8  11
ENDBRANCH   7   8
ENDBRANCH   1   7
BRANCH   6  13
ATOM     13  N   LIG d   1      -0.715  79.946 117.342  0.00  0.00    -0.311 N 
ATOM     14  C   LIG d   1       0.553  80.295 117.553  0.00  0.00     0.210 C 
ATOM     15  C   LIG d   1       0.745  81.519 118.454  0.00  0.00     0.109 C 
ATOM     16  O   LIG d   1       1.536  79.727 117.054  0.00  0.00    -0.276 OA
ATOM     17  H   LIG d   1      -1.450  80.482 117.760  0.00  0.00     0.149 HD
ENDBRANCH   6  13
BRANCH   5  18
ATOM     18  N   LIG d   1      -0.278  79.713 114.327  0.00  0.00     0.381 N 
ATOM     19  H   LIG d   1       0.518  79.738 114.932  0.00  0.00    -0.090 HD
ATOM     20  H   LIG d   1      -0.483  80.653 114.037  0.00  0.00    -0.090 HD
ATOM     21  H   LIG d   1      -0.082  79.147 113.531  0.00  0.00    -0.090 HD
ENDBRANCH   5  18
BRANCH   3  22
ATOM     22  C   LIG d   1      -3.882  76.562 114.197  0.00  0.00     0.382 C 
ATOM     23  O   LIG d   1      -4.131  75.358 114.448  0.00  0.00    -0.241 OA
ATOM     24  O   LIG d   1      -4.440  77.114 113.230  0.00  0.00    -0.241 OA
ENDBRANCH   3  22
TORSDOF 7
ENDMDL
MODEL 3
REMARK VINA RESULT:      -4.6      5.737      7.500
REMARK  7 active torsions:
REMARK  status: ('A' for Active; 'I' for Inactive)
REMARK    1  A    between atoms: C_2  and  C_3 
REMARK    2  A    between atoms: C_3  and  O_6 
REMARK    3  A    between atoms: C_3  and  C_4 
REMARK    4  A    between atoms: C_7  and  O_6 
REMARK    5  A    between atoms: C_9  and  C_10 
REMARK    6  A    between atoms: N_15  and  C_14 
REMARK    7  A    between atoms: N_20  and  C_19 
REMARK       I    between atoms: C_22  and  N_20 
ROOT
ATOM      1  C   LIG d   1      -2.105  78.250 116.348  0.00  0.00     0.161 C 
ATOM      2  C   LIG d   1      -2.539  79.139 115.350  0.00  0.00     0.016 C 
ATOM      3  C   LIG d   1      -2.224  78.984 113.981  0.00  0.00     0.038 C 
ATOM      4  C   LIG d   1      -1.576  77.840 113.493  0.00  0.00     0.028 C 
ATOM      5  C   LIG d   1      -0.680  77.165 114.526  0.00  0.00    -0.047 C 
ATOM      6  C   LIG d   1      -1.491  76.936 115.822  0.00  0.00     0.091 C 
ENDROOT
BRANCH   1   7
ATOM      7  O   LIG d   1      -3.188  77.969 117.257  0.00  0.00    -0.368 OA
BRANCH   7   8
ATOM      8  C   LIG d   1      -3.079  78.550 118.579  0.00  0.00     0.119 C 
BRANCH   8   9
ATOM      9  C   LIG d   1      -4.137  79.665 118.684  0.00  0.00     0.028 C 
ATOM     10  C   LIG d   1      -3.849  80.642 119.836  0.00  0.00     0.006 C 
ENDBRANCH   8   9
BRANCH   8  11
ATOM     11  C   LIG d   1      -1.731  79.252 118.770  0.00  0.00     0.028 C 
ATOM     12  C   LIG d   1      -0.841  78.559 119.814  0.00  0.00     0.006 C 
ENDBRANCH   8  11
ENDBRANCH   7   8
ENDBRANCH   1   7
BRANCH   6  13
ATOM     13  N   LIG d   1      -0.665  76.357 116.913  0.00  0.00    -0.311 N 
ATOM     14  C   LIG d   1      -1.078  75.362 117.696  0.00  0.00     0.210 C 
ATOM     15  C   LIG d   1      -0.078  74.928 118.772  0.00  0.00     0.109 C 
ATOM     16  O   LIG d   1      -2.165  74.776 117.581  0.00  0.00    -0.276 OA
ATOM     17  H   LIG d   1       0.244  76.752 117.056  0.00  0.00     0.149 HD
ENDBRANCH   6  13
BRANCH   5  18
ATOM     18  N   LIG d   1      -0.177  75.913 113.930  0.00  0.00     0.381 N 
ATOM     19  H   LIG d   1      -0.686  75.708 113.094  0.00  0.00    -0.090 HD
ATOM     20  H   LIG d   1      -0.323  75.162 114.581  0.00  0.00    -0.090 HD
ATOM     21  H   LIG d   1       0.794  76.000 113.724  0.00  0.00    -0.090 HD
ENDBRANCH   5  18
BRANCH   3  22
ATOM     22  C   LIG d   1      -2.524  80.002 113.088  0.00  0.00     0.382 C 
ATOM     23  O   LIG d   1      -3.072  81.054 113.497  0.00  0.00    -0.241 OA
ATOM     24  O   LIG d   1      -2.294  79.863 111.872  0.00  0.00    -0.241 OA
ENDBRANCH   3  22
TORSDOF 7
ENDMDL
MODEL 4
REMARK VINA RESULT:      -4.6      4.450      6.732
REMARK  7 active torsions:
REMARK  status: ('A' for Active; 'I' for Inactive)
REMARK    1  A    between atoms: C_2  and  C_3 
REMARK    2  A    between atoms: C_3  and  O_6 
REMARK    3  A    between atoms: C_3  and  C_4 
REMARK    4  A    between atoms: C_7  and  O_6 
REMARK    5  A    between atoms: C_9  and  C_10 
REMARK    6  A    between atoms: N_15  and  C_14 
REMARK    7  A    between atoms: N_20  and  C_19 
REMARK       I    between atoms: C_22  and  N_20 
ROOT
ATOM      1  C   LIG d   1      -1.700  79.473 114.656  0.00  0.00     0.161 C 
ATOM      2  C   LIG d   1      -2.498  78.416 115.124  0.00  0.00     0.016 C 
ATOM      3  C   LIG d   1      -2.935  77.350 114.305  0.00  0.00     0.038 C 
ATOM      4  C   LIG d   1      -2.476  77.189 112.989  0.00  0.00     0.028 C 
ATOM      5  C   LIG d   1      -2.074  78.501 112.323  0.00  0.00    -0.047 C 
ATOM      6  C   LIG d   1      -1.097  79.257 113.253  0.00  0.00     0.091 C 
ENDROOT
BRANCH   1   7
ATOM      7  O   LIG d   1      -0.657  79.758 115.611  0.00  0.00    -0.368 OA
BRANCH   7   8
ATOM      8  C   LIG d   1      -0.618  78.908 116.783  0.00  0.00     0.119 C 
BRANCH   8   9
ATOM      9  C   LIG d   1      -0.602  79.827 118.020  0.00  0.00     0.028 C 
ATOM     10  C   LIG d   1      -1.901  79.734 118.838  0.00  0.00     0.006 C 
ENDBRANCH   8   9
BRANCH   8  11
ATOM     11  C   LIG d   1       0.689  78.113 116.852  0.00  0.00     0.028 C 
ATOM     12  C   LIG d   1       0.652  76.995 117.905  0.00  0.00     0.006 C 
ENDBRANCH   8  11
ENDBRANCH   7   8
ENDBRANCH   1   7
BRANCH   6  13
ATOM     13  N   LIG d   1      -0.719  80.590 112.715  0.00  0.00    -0.311 N 
ATOM     14  C   LIG d   1      -1.609  81.506 112.336  0.00  0.00     0.210 C 
ATOM     15  C   LIG d   1      -1.006  82.805 111.792  0.00  0.00     0.109 C 
ATOM     16  O   LIG d   1      -2.839  81.379 112.430  0.00  0.00    -0.276 OA
ATOM     17  H   LIG d   1       0.259  80.789 112.634  0.00  0.00     0.149 HD
ENDBRANCH   6  13
BRANCH   5  18
ATOM     18  N   LIG d   1      -1.486  78.173 111.011  0.00  0.00     0.381 N 
ATOM     19  H   LIG d   1      -1.909  78.736 110.300  0.00  0.00    -0.090 HD
ATOM     20  H   LIG d   1      -1.674  77.208 110.802  0.00  0.00    -0.090 HD
ATOM     21  H   LIG d   1      -0.503  78.331 111.028  0.00  0.00    -0.090 HD
ENDBRANCH   5  18
BRANCH   3  22
ATOM     22  C   LIG d   1      -3.875  76.453 114.789  0.00  0.00     0.382 C 
ATOM     23  O   LIG d   1      -4.129  76.412 116.017  0.00  0.00    -0.241 OA
ATOM     24  O   LIG d   1      -4.439  75.652 114.019  0.00  0.00    -0.241 OA
ENDBRANCH   3  22
TORSDOF 7
ENDMDL
MODEL 5
REMARK VINA RESULT:      -4.4      4.552      7.864
REMARK  7 active torsions:
REMARK  status: ('A' for Active; 'I' for Inactive)
REMARK    1  A    between atoms: C_2  and  C_3 
REMARK    2  A    between atoms: C_3  and  O_6 
REMARK    3  A    between atoms: C_3  and  C_4 
REMARK    4  A    between atoms: C_7  and  O_6 
REMARK    5  A    between atoms: C_9  and  C_10 
REMARK    6  A    between atoms: N_15  and  C_14 
REMARK    7  A    between atoms: N_20  and  C_19 
REMARK       I    between atoms: C_22  and  N_20 
ROOT
ATOM      1  C   LIG d   1      -1.043  78.438 114.799  0.00  0.00     0.161 C 
ATOM      2  C   LIG d   1      -2.208  77.693 114.553  0.00  0.00     0.016 C 
ATOM      3  C   LIG d   1      -2.877  76.943 115.547  0.00  0.00     0.038 C 
ATOM      4  C   LIG d   1      -2.510  77.011 116.899  0.00  0.00     0.028 C 
ATOM      5  C   LIG d   1      -1.038  77.350 117.111  0.00  0.00    -0.047 C 
ATOM      6  C   LIG d   1      -0.692  78.614 116.292  0.00  0.00     0.091 C 
ENDROOT
BRANCH   1   7
ATOM      7  O   LIG d   1      -1.140  79.723 114.153  0.00  0.00    -0.368 OA
BRANCH   7   8
ATOM      8  C   LIG d   1      -2.036  79.799 113.017  0.00  0.00     0.119 C 
BRANCH   8   9
ATOM      9  C   LIG d   1      -1.225  79.425 111.762  0.00  0.00     0.028 C 
ATOM     10  C   LIG d   1      -1.916  78.341 110.918  0.00  0.00     0.006 C 
ENDBRANCH   8   9
BRANCH   8  11
ATOM     11  C   LIG d   1      -2.513  81.235 112.779  0.00  0.00     0.028 C 
ATOM     12  C   LIG d   1      -1.440  82.118 112.120  0.00  0.00     0.006 C 
ENDBRANCH   8  11
ENDBRANCH   7   8
ENDBRANCH   1   7
BRANCH   6  13
ATOM     13  N   LIG d   1       0.750  78.966 116.376  0.00  0.00    -0.311 N 
ATOM     14  C   LIG d   1       1.197  80.103 116.906  0.00  0.00     0.210 C 
ATOM     15  C   LIG d   1       2.718  80.277 116.874  0.00  0.00     0.109 C 
ATOM     16  O   LIG d   1       0.480  80.970 117.427  0.00  0.00    -0.276 OA
ATOM     17  H   LIG d   1       1.403  78.305 116.004  0.00  0.00     0.149 HD
ENDBRANCH   6  13
BRANCH   5  18
ATOM     18  N   LIG d   1      -0.825  77.524 118.560  0.00  0.00     0.381 N 
ATOM     19  H   LIG d   1      -1.203  78.402 118.855  0.00  0.00    -0.090 HD
ATOM     20  H   LIG d   1       0.162  77.527 118.746  0.00  0.00    -0.090 HD
ATOM     21  H   LIG d   1      -1.262  76.781 119.061  0.00  0.00    -0.090 HD
ENDBRANCH   5  18
BRANCH   3  22
ATOM     22  C   LIG d   1      -3.903  76.083 115.185  0.00  0.00     0.382 C 
ATOM     23  O   LIG d   1      -4.440  75.349 116.050  0.00  0.00    -0.241 OA
ATOM     24  O   LIG d   1      -4.268  75.999 113.997  0.00  0.00    -0.241 OA
ENDBRANCH   3  22
TORSDOF 7
ENDMDL
MODEL 6
REMARK VINA RESULT:      -4.3      2.939      6.082
REMARK  7 active torsions:
REMARK  status: ('A' for Active; 'I' for Inactive)
REMARK    1  A    between atoms: C_2  and  C_3 
REMARK    2  A    between atoms: C_3  and  O_6 
REMARK    3  A    between atoms: C_3  and  C_4 
REMARK    4  A    between atoms: C_7  and  O_6 
REMARK    5  A    between atoms: C_9  and  C_10 
REMARK    6  A    between atoms: N_15  and  C_14 
REMARK    7  A    between atoms: N_20  and  C_19 
REMARK       I    between atoms: C_22  and  N_20 
ROOT
ATOM      1  C   LIG d   1      -1.146  80.220 113.624  0.00  0.00     0.161 C 
ATOM      2  C   LIG d   1      -2.116  79.254 113.306  0.00  0.00     0.016 C 
ATOM      3  C   LIG d   1      -2.319  78.757 111.998  0.00  0.00     0.038 C 
ATOM      4  C   LIG d   1      -1.459  79.083 110.939  0.00  0.00     0.028 C 
ATOM      5  C   LIG d   1      -0.782  80.440 111.105  0.00  0.00    -0.047 C 
ATOM      6  C   LIG d   1      -0.126  80.505 112.503  0.00  0.00     0.091 C 
ENDROOT
BRANCH   1   7
ATOM      7  O   LIG d   1      -0.465  79.847 114.839  0.00  0.00    -0.368 OA
BRANCH   7   8
ATOM      8  C   LIG d   1      -1.091  78.805 115.626  0.00  0.00     0.119 C 
BRANCH   8   9
ATOM      9  C   LIG d   1      -1.086  79.268 117.096  0.00  0.00     0.028 C 
ATOM     10  C   LIG d   1      -2.434  79.022 117.794  0.00  0.00     0.006 C 
ENDBRANCH   8   9
BRANCH   8  11
ATOM     11  C   LIG d   1      -0.264  77.516 115.604  0.00  0.00     0.028 C 
ATOM     12  C   LIG d   1      -1.088  76.285 115.195  0.00  0.00     0.006 C 
ENDBRANCH   8  11
ENDBRANCH   7   8
ENDBRANCH   1   7
BRANCH   6  13
ATOM     13  N   LIG d   1       0.487  81.831 112.780  0.00  0.00    -0.311 N 
ATOM     14  C   LIG d   1       1.739  82.143 112.448  0.00  0.00     0.210 C 
ATOM     15  C   LIG d   1       2.179  83.557 112.842  0.00  0.00     0.109 C 
ATOM     16  O   LIG d   1       2.516  81.396 111.835  0.00  0.00    -0.276 OA
ATOM     17  H   LIG d   1      -0.083  82.509 113.246  0.00  0.00     0.149 HD
ENDBRANCH   6  13
BRANCH   5  18
ATOM     18  N   LIG d   1       0.188  80.591 110.004  0.00  0.00     0.381 N 
ATOM     19  H   LIG d   1       1.100  80.325 110.316  0.00  0.00    -0.090 HD
ATOM     20  H   LIG d   1       0.218  81.557 109.728  0.00  0.00    -0.090 HD
ATOM     21  H   LIG d   1      -0.084  80.025 109.230  0.00  0.00    -0.090 HD
ENDBRANCH   5  18
BRANCH   3  22
ATOM     22  C   LIG d   1      -3.417  77.954 111.731  0.00  0.00     0.382 C 
ATOM     23  O   LIG d   1      -4.080  77.464 112.677  0.00  0.00    -0.241 OA
ATOM     24  O   LIG d   1      -3.726  77.676 110.557  0.00  0.00    -0.241 OA
ENDBRANCH   3  22
TORSDOF 7
ENDMDL
MODEL 7
REMARK VINA RESULT:      -4.2      5.246      6.845
REMARK  7 active torsions:
REMARK  status: ('A' for Active; 'I' for Inactive)
REMARK    1  A    between atoms: C_2  and  C_3 
REMARK    2  A    between atoms: C_3  and  O_6 
REMARK    3  A    between atoms: C_3  and  C_4 
REMARK    4  A    between atoms: C_7  and  O_6 
REMARK    5  A    between atoms: C_9  and  C_10 
REMARK    6  A    between atoms: N_15  and  C_14 
REMARK    7  A    between atoms: N_20  and  C_19 
REMARK       I    between atoms: C_22  and  N_20 
ROOT
ATOM      1  C   LIG d   1      -0.736  78.186 115.340  0.00  0.00     0.161 C 
ATOM      2  C   LIG d   1      -1.279  78.729 114.163  0.00  0.00     0.016 C 
ATOM      3  C   LIG d   1      -2.355  78.140 113.459  0.00  0.00     0.038 C 
ATOM      4  C   LIG d   1      -3.063  77.042 113.971  0.00  0.00     0.028 C 
ATOM      5  C   LIG d   1      -2.230  76.162 114.896  0.00  0.00    -0.047 C 
ATOM      6  C   LIG d   1      -1.567  77.051 115.973  0.00  0.00     0.091 C 
ENDROOT
BRANCH   1   7
ATOM      7  O   LIG d   1      -0.506  79.235 116.301  0.00  0.00    -0.368 OA
BRANCH   7   8
ATOM      8  C   LIG d   1       0.804  79.257 116.920  0.00  0.00     0.119 C 
BRANCH   8   9
ATOM      9  C   LIG d   1       0.596  79.185 118.445  0.00  0.00     0.028 C 
ATOM     10  C   LIG d   1      -0.844  79.531 118.858  0.00  0.00     0.006 C 
ENDBRANCH   8   9
BRANCH   8  11
ATOM     11  C   LIG d   1       1.516  80.590 116.670  0.00  0.00     0.028 C 
ATOM     12  C   LIG d   1       2.972  80.588 117.160  0.00  0.00     0.006 C 
ENDBRANCH   8  11
ENDBRANCH   7   8
ENDBRANCH   1   7
BRANCH   6  13
ATOM     13  N   LIG d   1      -0.667  76.280 116.869  0.00  0.00    -0.311 N 
ATOM     14  C   LIG d   1      -1.046  75.798 118.051  0.00  0.00     0.210 C 
ATOM     15  C   LIG d   1       0.044  75.050 118.824  0.00  0.00     0.109 C 
ATOM     16  O   LIG d   1      -2.191  75.892 118.519  0.00  0.00    -0.276 OA
ATOM     17  H   LIG d   1       0.272  76.130 116.553  0.00  0.00     0.149 HD
ENDBRANCH   6  13
BRANCH   5  18
ATOM     18  N   LIG d   1      -3.128  75.138 115.464  0.00  0.00     0.381 N 
ATOM     19  H   LIG d   1      -4.076  75.349 115.225  0.00  0.00    -0.090 HD
ATOM     20  H   LIG d   1      -3.044  75.152 116.465  0.00  0.00    -0.090 HD
ATOM     21  H   LIG d   1      -2.882  74.238 115.115  0.00  0.00    -0.090 HD
ENDBRANCH   5  18
BRANCH   3  22
ATOM     22  C   LIG d   1      -2.707  78.626 112.209  0.00  0.00     0.382 C 
ATOM     23  O   LIG d   1      -2.270  79.737 111.823  0.00  0.00    -0.241 OA
ATOM     24  O   LIG d   1      -3.490  77.988 111.481  0.00  0.00    -0.241 OA
ENDBRANCH   3  22
TORSDOF 7
ENDMDL
MODEL 8
REMARK VINA RESULT:      -4.1      5.134      7.383
REMARK  7 active torsions:
REMARK  status: ('A' for Active; 'I' for Inactive)
REMARK    1  A    between atoms: C_2  and  C_3 
REMARK    2  A    between atoms: C_3  and  O_6 
REMARK    3  A    between atoms: C_3  and  C_4 
REMARK    4  A    between atoms: C_7  and  O_6 
REMARK    5  A    between atoms: C_9  and  C_10 
REMARK    6  A    between atoms: N_15  and  C_14 
REMARK    7  A    between atoms: N_20  and  C_19 
REMARK       I    between atoms: C_22  and  N_20 
ROOT
ATOM      1  C   LIG d   1      -0.814  78.360 115.753  0.00  0.00     0.161 C 
ATOM      2  C   LIG d   1       0.202  79.254 116.128  0.00  0.00     0.016 C 
ATOM      3  C   LIG d   1       1.154  78.974 117.135  0.00  0.00     0.038 C 
ATOM      4  C   LIG d   1       1.247  77.709 117.736  0.00  0.00     0.028 C 
ATOM      5  C   LIG d   1      -0.073  76.946 117.749  0.00  0.00    -0.047 C 
ATOM      6  C   LIG d   1      -0.660  76.932 116.319  0.00  0.00     0.091 C 
ENDROOT
BRANCH   1   7
ATOM      7  O   LIG d   1      -0.925  78.320 114.317  0.00  0.00    -0.368 OA
BRANCH   7   8
ATOM      8  C   LIG d   1      -2.111  78.930 113.752  0.00  0.00     0.119 C 
BRANCH   8   9
ATOM      9  C   LIG d   1      -2.772  77.889 112.827  0.00  0.00     0.028 C 
ATOM     10  C   LIG d   1      -2.201  77.926 111.400  0.00  0.00     0.006 C 
ENDBRANCH   8   9
BRANCH   8  11
ATOM     11  C   LIG d   1      -1.752  80.110 112.843  0.00  0.00     0.028 C 
ATOM     12  C   LIG d   1      -2.812  81.222 112.863  0.00  0.00     0.006 C 
ENDBRANCH   8  11
ENDBRANCH   7   8
ENDBRANCH   1   7
BRANCH   6  13
ATOM     13  N   LIG d   1      -1.993  76.278 116.260  0.00  0.00    -0.311 N 
ATOM     14  C   LIG d   1      -2.261  75.230 115.483  0.00  0.00     0.210 C 
ATOM     15  C   LIG d   1      -3.705  74.723 115.558  0.00  0.00     0.109 C 
ATOM     16  O   LIG d   1      -1.433  74.653 114.763  0.00  0.00    -0.276 OA
ATOM     17  H   LIG d   1      -2.716  76.664 116.835  0.00  0.00     0.149 HD
ENDBRANCH   6  13
BRANCH   5  18
ATOM     18  N   LIG d   1       0.198  75.596 118.277  0.00  0.00     0.381 N 
ATOM     19  H   LIG d   1      -0.556  74.982 118.039  0.00  0.00    -0.090 HD
ATOM     20  H   LIG d   1       0.261  75.644 119.278  0.00  0.00    -0.090 HD
ATOM     21  H   LIG d   1       1.051  75.247 117.899  0.00  0.00    -0.090 HD
ENDBRANCH   5  18
BRANCH   3  22
ATOM     22  C   LIG d   1       2.001  79.978 117.580  0.00  0.00     0.382 C 
ATOM     23  O   LIG d   1       2.882  80.439 116.815  0.00  0.00    -0.241 OA
ATOM     24  O   LIG d   1       1.923  80.397 118.750  0.00  0.00    -0.241 OA
ENDBRANCH   3  22
TORSDOF 7
ENDMDL
MODEL 9
REMARK VINA RESULT:      -3.9      3.487      6.346
REMARK  7 active torsions:
REMARK  status: ('A' for Active; 'I' for Inactive)
REMARK    1  A    between atoms: C_2  and  C_3 
REMARK    2  A    between atoms: C_3  and  O_6 
REMARK    3  A    between atoms: C_3  and  C_4 
REMARK    4  A    between atoms: C_7  and  O_6 
REMARK    5  A    between atoms: C_9  and  C_10 
REMARK    6  A    between atoms: N_15  and  C_14 
REMARK    7  A    between atoms: N_20  and  C_19 
REMARK       I    between atoms: C_22  and  N_20 
ROOT
ATOM      1  C   LIG d   1      -0.444  79.652 113.609  0.00  0.00     0.161 C 
ATOM      2  C   LIG d   1      -1.488  79.158 112.809  0.00  0.00     0.016 C 
ATOM      3  C   LIG d   1      -2.561  78.391 113.318  0.00  0.00     0.038 C 
ATOM      4  C   LIG d   1      -2.744  78.193 114.694  0.00  0.00     0.028 C 
ATOM      5  C   LIG d   1      -1.445  78.245 115.491  0.00  0.00    -0.047 C 
ATOM      6  C   LIG d   1      -0.685  79.541 115.129  0.00  0.00     0.091 C 
ENDROOT
BRANCH   1   7
ATOM      7  O   LIG d   1      -0.155  81.017 113.246  0.00  0.00    -0.368 OA
BRANCH   7   8
ATOM      8  C   LIG d   1      -0.212  81.327 111.832  0.00  0.00     0.119 C 
BRANCH   8   9
ATOM      9  C   LIG d   1       1.229  81.273 111.288  0.00  0.00     0.028 C 
ATOM     10  C   LIG d   1       1.332  80.474 109.978  0.00  0.00     0.006 C 
ENDBRANCH   8   9
BRANCH   8  11
ATOM     11  C   LIG d   1      -0.682  82.765 111.594  0.00  0.00     0.028 C 
ATOM     12  C   LIG d   1       0.478  83.772 111.557  0.00  0.00     0.006 C 
ENDBRANCH   8  11
ENDBRANCH   7   8
ENDBRANCH   1   7
BRANCH   6  13
ATOM     13  N   LIG d   1       0.637  79.630 115.801  0.00  0.00    -0.311 N 
ATOM     14  C   LIG d   1       0.822  80.222 116.980  0.00  0.00     0.210 C 
ATOM     15  C   LIG d   1       2.268  80.220 117.485  0.00  0.00     0.109 C 
ATOM     16  O   LIG d   1      -0.080  80.721 117.670  0.00  0.00    -0.276 OA
ATOM     17  H   LIG d   1       1.419  79.223 115.326  0.00  0.00     0.149 HD
ENDBRANCH   6  13
BRANCH   5  18
ATOM     18  N   LIG d   1      -1.796  78.161 116.922  0.00  0.00     0.381 N 
ATOM     19  H   LIG d   1      -2.112  79.054 117.245  0.00  0.00    -0.090 HD
ATOM     20  H   LIG d   1      -0.975  77.909 117.444  0.00  0.00    -0.090 HD
ATOM     21  H   LIG d   1      -2.509  77.479 117.059  0.00  0.00    -0.090 HD
ENDBRANCH   5  18
BRANCH   3  22
ATOM     22  C   LIG d   1      -3.444  77.779 112.441  0.00  0.00     0.382 C 
ATOM     23  O   LIG d   1      -3.268  77.878 111.203  0.00  0.00    -0.241 OA
ATOM     24  O   LIG d   1      -4.440  77.166 112.872  0.00  0.00    -0.241 OA
ENDBRANCH   3  22
TORSDOF 7
ENDMDL
