MODEL 1
REMARK VINA RESULT:      -5.1      0.000      0.000
REMARK  7 active torsions:
REMARK  status: ('A' for Active; 'I' for Inactive)
REMARK    1  A    between atoms: C_2  and  C_3 
REMARK    2  A    between atoms: C_3  and  O_6 
REMARK    3  A    between atoms: C_3  and  C_4 
REMARK    4  A    between atoms: C_7  and  O_6 
REMARK    5  A    between atoms: C_9  and  C_10 
REMARK    6  A    between atoms: N_15  and  C_14 
REMARK    7  A    between atoms: N_20  and  C_19 
REMARK       I    between atoms: C_22  and  N_20 
ROOT
ATOM      1  C   LIG d   1       0.288  82.950 111.912  0.00  0.00     0.161 C 
ATOM      2  C   LIG d   1      -0.968  82.574 112.416  0.00  0.00     0.016 C 
ATOM      3  C   LIG d   1      -1.606  81.356 112.087  0.00  0.00     0.038 C 
ATOM      4  C   LIG d   1      -0.959  80.357 111.345  0.00  0.00     0.028 C 
ATOM      5  C   LIG d   1       0.106  80.899 110.398  0.00  0.00    -0.047 C 
ATOM      6  C   LIG d   1       1.058  81.824 111.190  0.00  0.00     0.091 C 
ENDROOT
BRANCH   1   7
ATOM      7  O   LIG d   1       1.092  83.508 112.970  0.00  0.00    -0.368 OA
BRANCH   7   8
ATOM      8  C   LIG d   1       1.796  82.556 113.806  0.00  0.00     0.119 C 
BRANCH   8   9
ATOM      9  C   LIG d   1       1.045  82.476 115.149  0.00  0.00     0.028 C 
ATOM     10  C   LIG d   1       0.508  81.065 115.439  0.00  0.00     0.006 C 
ENDBRANCH   8   9
BRANCH   8  11
ATOM     11  C   LIG d   1       3.201  83.053 114.156  0.00  0.00     0.028 C 
ATOM     12  C   LIG d   1       3.594  84.321 113.382  0.00  0.00     0.006 C 
ENDBRANCH   8  11
ENDBRANCH   7   8
ENDBRANCH   1   7
BRANCH   6  13
ATOM     13  N   LIG d   1       2.080  82.463 110.321  0.00  0.00    -0.311 N 
ATOM     14  C   LIG d   1       3.383  82.201 110.407  0.00  0.00     0.210 C 
ATOM     15  C   LIG d   1       4.266  82.985 109.431  0.00  0.00     0.109 C 
ATOM     16  O   LIG d   1       3.888  81.370 111.177  0.00  0.00    -0.276 OA
ATOM     17  H   LIG d   1       1.755  83.128 109.647  0.00  0.00     0.149 HD
ENDBRANCH   6  13
BRANCH   5  18
ATOM     18  N   LIG d   1       0.793  79.744 109.791  0.00  0.00     0.381 N 
ATOM     19  H   LIG d   1       0.546  78.907 110.281  0.00  0.00    -0.090 HD
ATOM     20  H   LIG d   1       1.786  79.876 109.874  0.00  0.00    -0.090 HD
ATOM     21  H   LIG d   1       0.541  79.662 108.831  0.00  0.00    -0.090 HD
ENDBRANCH   5  18
BRANCH   3  22
ATOM     22  C   LIG d   1      -2.923  81.145 112.468  0.00  0.00     0.382 C 
ATOM     23  O   LIG d   1      -3.427  80.001 112.373  0.00  0.00    -0.241 OA
ATOM     24  O   LIG d   1      -3.625  82.094 112.864  0.00  0.00    -0.241 OA
ENDBRANCH   3  22
TORSDOF 7
ENDMDL
MODEL 2
REMARK VINA RESULT:      -4.9      0.987      1.709
REMARK  7 active torsions:
REMARK  status: ('A' for Active; 'I' for Inactive)
REMARK    1  A    between atoms: C_2  and  C_3 
REMARK    2  A    between atoms: C_3  and  O_6 
REMARK    3  A    between atoms: C_3  and  C_4 
REMARK    4  A    between atoms: C_7  and  O_6 
REMARK    5  A    between atoms: C_9  and  C_10 
REMARK    6  A    between atoms: N_15  and  C_14 
REMARK    7  A    between atoms: N_20  and  C_19 
REMARK       I    between atoms: C_22  and  N_20 
ROOT
ATOM      1  C   LIG d   1       0.199  82.887 111.853  0.00  0.00     0.161 C 
ATOM      2  C   LIG d   1      -1.048  82.451 112.329  0.00  0.00     0.016 C 
ATOM      3  C   LIG d   1      -1.615  81.199 111.995  0.00  0.00     0.038 C 
ATOM      4  C   LIG d   1      -0.899  80.230 111.277  0.00  0.00     0.028 C 
ATOM      5  C   LIG d   1       0.159  80.820 110.351  0.00  0.00    -0.047 C 
ATOM      6  C   LIG d   1       1.043  81.797 111.159  0.00  0.00     0.091 C 
ENDROOT
BRANCH   1   7
ATOM      7  O   LIG d   1       0.947  83.493 112.926  0.00  0.00    -0.368 OA
BRANCH   7   8
ATOM      8  C   LIG d   1       0.447  83.256 114.265  0.00  0.00     0.119 C 
BRANCH   8   9
ATOM      9  C   LIG d   1       0.514  84.594 115.027  0.00  0.00     0.028 C 
ATOM     10  C   LIG d   1      -0.266  84.554 116.352  0.00  0.00     0.006 C 
ENDBRANCH   8   9
BRANCH   8  11
ATOM     11  C   LIG d   1       1.360  82.302 115.040  0.00  0.00     0.028 C 
ATOM     12  C   LIG d   1       0.755  80.898 115.199  0.00  0.00     0.006 C 
ENDBRANCH   8  11
ENDBRANCH   7   8
ENDBRANCH   1   7
BRANCH   6  13
ATOM     13  N   LIG d   1       2.052  82.483 110.310  0.00  0.00    -0.311 N 
ATOM     14  C   LIG d   1       3.366  82.389 110.512  0.00  0.00     0.210 C 
ATOM     15  C   LIG d   1       4.229  83.191 109.533  0.00  0.00     0.109 C 
ATOM     16  O   LIG d   1       3.899  81.692 111.388  0.00  0.00    -0.276 OA
ATOM     17  H   LIG d   1       1.708  83.045 109.556  0.00  0.00     0.149 HD
ENDBRANCH   6  13
BRANCH   5  18
ATOM     18  N   LIG d   1       0.920  79.697 109.771  0.00  0.00     0.381 N 
ATOM     19  H   LIG d   1       1.105  79.012 110.477  0.00  0.00    -0.090 HD
ATOM     20  H   LIG d   1       1.799  80.042 109.429  0.00  0.00    -0.090 HD
ATOM     21  H   LIG d   1       0.404  79.284 109.026  0.00  0.00    -0.090 HD
ENDBRANCH   5  18
BRANCH   3  22
ATOM     22  C   LIG d   1      -2.928  80.924 112.346  0.00  0.00     0.382 C 
ATOM     23  O   LIG d   1      -3.758  81.858 112.453  0.00  0.00    -0.241 OA
ATOM     24  O   LIG d   1      -3.282  79.757 112.600  0.00  0.00    -0.241 OA
ENDBRANCH   3  22
TORSDOF 7
ENDMDL
MODEL 3
REMARK VINA RESULT:      -4.5      2.484      4.034
REMARK  7 active torsions:
REMARK  status: ('A' for Active; 'I' for Inactive)
REMARK    1  A    between atoms: C_2  and  C_3 
REMARK    2  A    between atoms: C_3  and  O_6 
REMARK    3  A    between atoms: C_3  and  C_4 
REMARK    4  A    between atoms: C_7  and  O_6 
REMARK    5  A    between atoms: C_9  and  C_10 
REMARK    6  A    between atoms: N_15  and  C_14 
REMARK    7  A    between atoms: N_20  and  C_19 
REMARK       I    between atoms: C_22  and  N_20 
ROOT
ATOM      1  C   LIG d   1      -0.650  81.560 111.480  0.00  0.00     0.161 C 
ATOM      2  C   LIG d   1      -1.188  80.266 111.373  0.00  0.00     0.016 C 
ATOM      3  C   LIG d   1      -2.159  79.751 112.262  0.00  0.00     0.038 C 
ATOM      4  C   LIG d   1      -2.774  80.553 113.234  0.00  0.00     0.028 C 
ATOM      5  C   LIG d   1      -1.901  81.713 113.703  0.00  0.00    -0.047 C 
ATOM      6  C   LIG d   1      -1.390  82.488 112.467  0.00  0.00     0.091 C 
ENDROOT
BRANCH   1   7
ATOM      7  O   LIG d   1      -0.581  82.170 110.176  0.00  0.00    -0.368 OA
BRANCH   7   8
ATOM      8  C   LIG d   1       0.749  82.382 109.642  0.00  0.00     0.119 C 
BRANCH   8   9
ATOM      9  C   LIG d   1       1.741  81.647 110.564  0.00  0.00     0.028 C 
ATOM     10  C   LIG d   1       2.509  80.533 109.831  0.00  0.00     0.006 C 
ENDBRANCH   8   9
BRANCH   8  11
ATOM     11  C   LIG d   1       1.149  83.859 109.712  0.00  0.00     0.028 C 
ATOM     12  C   LIG d   1       2.560  84.068 110.283  0.00  0.00     0.006 C 
ENDBRANCH   8  11
ENDBRANCH   7   8
ENDBRANCH   1   7
BRANCH   6  13
ATOM     13  N   LIG d   1      -0.461  83.588 112.832  0.00  0.00    -0.311 N 
ATOM     14  C   LIG d   1       0.636  83.408 113.566  0.00  0.00     0.210 C 
ATOM     15  C   LIG d   1       1.444  84.680 113.844  0.00  0.00     0.109 C 
ATOM     16  O   LIG d   1       1.034  82.311 113.986  0.00  0.00    -0.276 OA
ATOM     17  H   LIG d   1      -0.691  84.507 112.506  0.00  0.00     0.149 HD
ENDBRANCH   6  13
BRANCH   5  18
ATOM     18  N   LIG d   1      -2.715  82.544 114.610  0.00  0.00     0.381 N 
ATOM     19  H   LIG d   1      -3.647  82.185 114.654  0.00  0.00    -0.090 HD
ATOM     20  H   LIG d   1      -2.754  83.480 114.246  0.00  0.00    -0.090 HD
ATOM     21  H   LIG d   1      -2.310  82.551 115.521  0.00  0.00    -0.090 HD
ENDBRANCH   5  18
BRANCH   3  22
ATOM     22  C   LIG d   1      -2.495  78.407 112.208  0.00  0.00     0.382 C 
ATOM     23  O   LIG d   1      -1.731  77.549 112.712  0.00  0.00    -0.241 OA
ATOM     24  O   LIG d   1      -3.531  78.038 111.623  0.00  0.00    -0.241 OA
ENDBRANCH   3  22
TORSDOF 7
ENDMDL
MODEL 4
REMARK VINA RESULT:      -4.2      3.033      4.377
REMARK  7 active torsions:
REMARK  status: ('A' for Active; 'I' for Inactive)
REMARK    1  A    between atoms: C_2  and  C_3 
REMARK    2  A    between atoms: C_3  and  O_6 
REMARK    3  A    between atoms: C_3  and  C_4 
REMARK    4  A    between atoms: C_7  and  O_6 
REMARK    5  A    between atoms: C_9  and  C_10 
REMARK    6  A    between atoms: N_15  and  C_14 
REMARK    7  A    between atoms: N_20  and  C_19 
REMARK       I    between atoms: C_22  and  N_20 
ROOT
ATOM      1  C   LIG d   1      -2.290  80.872 114.110  0.00  0.00     0.161 C 
ATOM      2  C   LIG d   1      -2.709  79.553 114.351  0.00  0.00     0.016 C 
ATOM      3  C   LIG d   1      -2.566  78.507 113.411  0.00  0.00     0.038 C 
ATOM      4  C   LIG d   1      -1.853  78.678 112.215  0.00  0.00     0.028 C 
ATOM      5  C   LIG d   1      -1.855  80.117 111.709  0.00  0.00    -0.047 C 
ATOM      6  C   LIG d   1      -1.410  81.053 112.856  0.00  0.00     0.091 C 
ENDROOT
BRANCH   1   7
ATOM      7  O   LIG d   1      -1.616  81.392 115.274  0.00  0.00    -0.368 OA
BRANCH   7   8
ATOM      8  C   LIG d   1      -2.438  82.130 116.210  0.00  0.00     0.119 C 
BRANCH   8   9
ATOM      9  C   LIG d   1      -3.126  83.266 115.428  0.00  0.00     0.028 C 
ATOM     10  C   LIG d   1      -2.563  84.651 115.789  0.00  0.00     0.006 C 
ENDBRANCH   8   9
BRANCH   8  11
ATOM     11  C   LIG d   1      -1.584  82.828 117.272  0.00  0.00     0.028 C 
ATOM     12  C   LIG d   1      -1.967  82.426 118.705  0.00  0.00     0.006 C 
ENDBRANCH   8  11
ENDBRANCH   7   8
ENDBRANCH   1   7
BRANCH   6  13
ATOM     13  N   LIG d   1      -1.465  82.487 112.470  0.00  0.00    -0.311 N 
ATOM     14  C   LIG d   1      -0.425  83.151 111.968  0.00  0.00     0.210 C 
ATOM     15  C   LIG d   1      -0.691  84.628 111.657  0.00  0.00     0.109 C 
ATOM     16  O   LIG d   1       0.682  82.650 111.721  0.00  0.00    -0.276 OA
ATOM     17  H   LIG d   1      -2.334  82.964 112.608  0.00  0.00     0.149 HD
ENDBRANCH   6  13
BRANCH   5  18
ATOM     18  N   LIG d   1      -0.963  80.177 110.535  0.00  0.00     0.381 N 
ATOM     19  H   LIG d   1      -0.019  80.317 110.833  0.00  0.00    -0.090 HD
ATOM     20  H   LIG d   1      -1.232  80.958 109.963  0.00  0.00    -0.090 HD
ATOM     21  H   LIG d   1      -1.032  79.333 110.010  0.00  0.00    -0.090 HD
ENDBRANCH   5  18
BRANCH   3  22
ATOM     22  C   LIG d   1      -3.175  77.284 113.646  0.00  0.00     0.382 C 
ATOM     23  O   LIG d   1      -3.980  76.813 112.806  0.00  0.00    -0.241 OA
ATOM     24  O   LIG d   1      -2.964  76.667 114.706  0.00  0.00    -0.241 OA
ENDBRANCH   3  22
TORSDOF 7
ENDMDL
MODEL 5
REMARK VINA RESULT:      -4.2      1.987      3.621
REMARK  7 active torsions:
REMARK  status: ('A' for Active; 'I' for Inactive)
REMARK    1  A    between atoms: C_2  and  C_3 
REMARK    2  A    between atoms: C_3  and  O_6 
REMARK    3  A    between atoms: C_3  and  C_4 
REMARK    4  A    between atoms: C_7  and  O_6 
REMARK    5  A    between atoms: C_9  and  C_10 
REMARK    6  A    between atoms: N_15  and  C_14 
REMARK    7  A    between atoms: N_20  and  C_19 
REMARK       I    between atoms: C_22  and  N_20 
ROOT
ATOM      1  C   LIG d   1       0.707  82.544 111.373  0.00  0.00     0.161 C 
ATOM      2  C   LIG d   1      -0.441  81.740 111.267  0.00  0.00     0.016 C 
ATOM      3  C   LIG d   1      -1.505  81.776 112.197  0.00  0.00     0.038 C 
ATOM      4  C   LIG d   1      -1.564  82.735 113.220  0.00  0.00     0.028 C 
ATOM      5  C   LIG d   1      -0.192  83.230 113.665  0.00  0.00    -0.047 C 
ATOM      6  C   LIG d   1       0.610  83.673 112.420  0.00  0.00     0.091 C 
ENDROOT
BRANCH   1   7
ATOM      7  O   LIG d   1       1.045  83.085 110.081  0.00  0.00    -0.368 OA
BRANCH   7   8
ATOM      8  C   LIG d   1       2.202  82.506 109.430  0.00  0.00     0.119 C 
BRANCH   8   9
ATOM      9  C   LIG d   1       2.605  81.253 110.231  0.00  0.00     0.028 C 
ATOM     10  C   LIG d   1       2.407  79.955 109.430  0.00  0.00     0.006 C 
ENDBRANCH   8   9
BRANCH   8  11
ATOM     11  C   LIG d   1       3.411  83.442 109.507  0.00  0.00     0.028 C 
ATOM     12  C   LIG d   1       4.642  82.775 110.141  0.00  0.00     0.006 C 
ENDBRANCH   8  11
ENDBRANCH   7   8
ENDBRANCH   1   7
BRANCH   6  13
ATOM     13  N   LIG d   1       1.995  84.093 112.758  0.00  0.00    -0.311 N 
ATOM     14  C   LIG d   1       2.869  83.304 113.379  0.00  0.00     0.210 C 
ATOM     15  C   LIG d   1       4.237  83.940 113.650  0.00  0.00     0.109 C 
ATOM     16  O   LIG d   1       2.653  82.126 113.704  0.00  0.00    -0.276 OA
ATOM     17  H   LIG d   1       2.265  85.023 112.502  0.00  0.00     0.149 HD
ENDBRANCH   6  13
BRANCH   5  18
ATOM     18  N   LIG d   1      -0.405  84.321 114.634  0.00  0.00     0.381 N 
ATOM     19  H   LIG d   1      -1.353  84.311 114.953  0.00  0.00    -0.090 HD
ATOM     20  H   LIG d   1      -0.235  85.200 114.177  0.00  0.00    -0.090 HD
ATOM     21  H   LIG d   1       0.214  84.216 115.408  0.00  0.00    -0.090 HD
ENDBRANCH   5  18
BRANCH   3  22
ATOM     22  C   LIG d   1      -2.508  80.821 112.132  0.00  0.00     0.382 C 
ATOM     23  O   LIG d   1      -2.211  79.608 112.007  0.00  0.00    -0.241 OA
ATOM     24  O   LIG d   1      -3.706  81.160 112.153  0.00  0.00    -0.241 OA
ENDBRANCH   3  22
TORSDOF 7
ENDMDL
MODEL 6
REMARK VINA RESULT:      -4.1      2.516      4.086
REMARK  7 active torsions:
REMARK  status: ('A' for Active; 'I' for Inactive)
REMARK    1  A    between atoms: C_2  and  C_3 
REMARK    2  A    between atoms: C_3  and  O_6 
REMARK    3  A    between atoms: C_3  and  C_4 
REMARK    4  A    between atoms: C_7  and  O_6 
REMARK    5  A    between atoms: C_9  and  C_10 
REMARK    6  A    between atoms: N_15  and  C_14 
REMARK    7  A    between atoms: N_20  and  C_19 
REMARK       I    between atoms: C_22  and  N_20 
ROOT
ATOM      1  C   LIG d   1       0.719  81.592 112.874  0.00  0.00     0.161 C 
ATOM      2  C   LIG d   1      -0.568  81.466 112.326  0.00  0.00     0.016 C 
ATOM      3  C   LIG d   1      -1.678  80.975 113.051  0.00  0.00     0.038 C 
ATOM      4  C   LIG d   1      -1.608  80.715 114.427  0.00  0.00     0.028 C 
ATOM      5  C   LIG d   1      -0.207  80.347 114.904  0.00  0.00    -0.047 C 
ATOM      6  C   LIG d   1       0.790  81.418 114.406  0.00  0.00     0.091 C 
ENDROOT
BRANCH   1   7
ATOM      7  O   LIG d   1       1.295  82.855 112.486  0.00  0.00    -0.368 OA
BRANCH   7   8
ATOM      8  C   LIG d   1       2.526  82.788 111.726  0.00  0.00     0.119 C 
BRANCH   8   9
ATOM      9  C   LIG d   1       2.402  83.781 110.554  0.00  0.00     0.028 C 
ATOM     10  C   LIG d   1       0.938  84.067 110.180  0.00  0.00     0.006 C 
ENDBRANCH   8   9
BRANCH   8  11
ATOM     11  C   LIG d   1       2.705  81.413 111.074  0.00  0.00     0.028 C 
ATOM     12  C   LIG d   1       4.142  81.165 110.589  0.00  0.00     0.006 C 
ENDBRANCH   8  11
ENDBRANCH   7   8
ENDBRANCH   1   7
BRANCH   6  13
ATOM     13  N   LIG d   1       2.196  81.091 114.757  0.00  0.00    -0.311 N 
ATOM     14  C   LIG d   1       2.784  81.495 115.882  0.00  0.00     0.210 C 
ATOM     15  C   LIG d   1       4.245  81.064 116.039  0.00  0.00     0.109 C 
ATOM     16  O   LIG d   1       2.223  82.141 116.780  0.00  0.00    -0.276 OA
ATOM     17  H   LIG d   1       2.715  80.543 114.099  0.00  0.00     0.149 HD
ENDBRANCH   6  13
BRANCH   5  18
ATOM     18  N   LIG d   1      -0.251  80.239 116.375  0.00  0.00     0.381 N 
ATOM     19  H   LIG d   1      -0.296  79.276 116.642  0.00  0.00    -0.090 HD
ATOM     20  H   LIG d   1      -1.080  80.698 116.710  0.00  0.00    -0.090 HD
ATOM     21  H   LIG d   1       0.557  80.664 116.773  0.00  0.00    -0.090 HD
ENDBRANCH   5  18
BRANCH   3  22
ATOM     22  C   LIG d   1      -2.865  80.700 112.388  0.00  0.00     0.382 C 
ATOM     23  O   LIG d   1      -3.659  81.631 112.113  0.00  0.00    -0.241 OA
ATOM     24  O   LIG d   1      -3.171  79.527 112.100  0.00  0.00    -0.241 OA
ENDBRANCH   3  22
TORSDOF 7
ENDMDL
MODEL 7
REMARK VINA RESULT:      -3.9      2.390      4.253
REMARK  7 active torsions:
REMARK  status: ('A' for Active; 'I' for Inactive)
REMARK    1  A    between atoms: C_2  and  C_3 
REMARK    2  A    between atoms: C_3  and  O_6 
REMARK    3  A    between atoms: C_3  and  C_4 
REMARK    4  A    between atoms: C_7  and  O_6 
REMARK    5  A    between atoms: C_9  and  C_10 
REMARK    6  A    between atoms: N_15  and  C_14 
REMARK    7  A    between atoms: N_20  and  C_19 
REMARK       I    between atoms: C_22  and  N_20 
ROOT
ATOM      1  C   LIG d   1       0.743  81.798 112.970  0.00  0.00     0.161 C 
ATOM      2  C   LIG d   1      -0.552  81.377 112.623  0.00  0.00     0.016 C 
ATOM      3  C   LIG d   1      -1.718  81.817 113.289  0.00  0.00     0.038 C 
ATOM      4  C   LIG d   1      -1.681  82.833 114.256  0.00  0.00     0.028 C 
ATOM      5  C   LIG d   1      -0.347  82.923 114.990  0.00  0.00    -0.047 C 
ATOM      6  C   LIG d   1       0.794  82.990 113.949  0.00  0.00     0.091 C 
ENDROOT
BRANCH   1   7
ATOM      7  O   LIG d   1       1.496  82.096 111.778  0.00  0.00    -0.368 OA
BRANCH   7   8
ATOM      8  C   LIG d   1       0.724  82.272 110.564  0.00  0.00     0.119 C 
BRANCH   8   9
ATOM      9  C   LIG d   1       1.474  81.546 109.430  0.00  0.00     0.028 C 
ATOM     10  C   LIG d   1       1.212  80.030 109.430  0.00  0.00     0.006 C 
ENDBRANCH   8   9
BRANCH   8  11
ATOM     11  C   LIG d   1       0.677  83.743 110.142  0.00  0.00     0.028 C 
ATOM     12  C   LIG d   1      -0.624  84.443 110.566  0.00  0.00     0.006 C 
ENDBRANCH   8  11
ENDBRANCH   7   8
ENDBRANCH   1   7
BRANCH   6  13
ATOM     13  N   LIG d   1       2.139  82.994 114.582  0.00  0.00    -0.311 N 
ATOM     14  C   LIG d   1       2.580  82.018 115.372  0.00  0.00     0.210 C 
ATOM     15  C   LIG d   1       3.988  82.230 115.937  0.00  0.00     0.109 C 
ATOM     16  O   LIG d   1       1.952  80.981 115.634  0.00  0.00    -0.276 OA
ATOM     17  H   LIG d   1       2.727  83.784 114.398  0.00  0.00     0.149 HD
ENDBRANCH   6  13
BRANCH   5  18
ATOM     18  N   LIG d   1      -0.399  84.107 115.867  0.00  0.00     0.381 N 
ATOM     19  H   LIG d   1      -0.221  83.835 116.814  0.00  0.00    -0.090 HD
ATOM     20  H   LIG d   1      -1.321  84.505 115.822  0.00  0.00    -0.090 HD
ATOM     21  H   LIG d   1       0.275  84.779 115.574  0.00  0.00    -0.090 HD
ENDBRANCH   5  18
BRANCH   3  22
ATOM     22  C   LIG d   1      -2.935  81.212 113.017  0.00  0.00     0.382 C 
ATOM     23  O   LIG d   1      -3.294  80.203 113.671  0.00  0.00    -0.241 OA
ATOM     24  O   LIG d   1      -3.660  81.634 112.096  0.00  0.00    -0.241 OA
ENDBRANCH   3  22
TORSDOF 7
ENDMDL
MODEL 8
REMARK VINA RESULT:      -3.9      2.822      4.698
REMARK  7 active torsions:
REMARK  status: ('A' for Active; 'I' for Inactive)
REMARK    1  A    between atoms: C_2  and  C_3 
REMARK    2  A    between atoms: C_3  and  O_6 
REMARK    3  A    between atoms: C_3  and  C_4 
REMARK    4  A    between atoms: C_7  and  O_6 
REMARK    5  A    between atoms: C_9  and  C_10 
REMARK    6  A    between atoms: N_15  and  C_14 
REMARK    7  A    between atoms: N_20  and  C_19 
REMARK       I    between atoms: C_22  and  N_20 
ROOT
ATOM      1  C   LIG d   1      -0.382  81.250 112.882  0.00  0.00     0.161 C 
ATOM      2  C   LIG d   1      -1.017  80.114 112.352  0.00  0.00     0.016 C 
ATOM      3  C   LIG d   1      -2.139  79.499 112.952  0.00  0.00     0.038 C 
ATOM      4  C   LIG d   1      -2.801  80.072 114.048  0.00  0.00     0.028 C 
ATOM      5  C   LIG d   1      -1.895  80.938 114.917  0.00  0.00    -0.047 C 
ATOM      6  C   LIG d   1      -1.157  81.953 114.016  0.00  0.00     0.091 C 
ENDROOT
BRANCH   1   7
ATOM      7  O   LIG d   1      -0.085  82.183 111.824  0.00  0.00    -0.368 OA
BRANCH   7   8
ATOM      8  C   LIG d   1       0.876  81.740 110.835  0.00  0.00     0.119 C 
BRANCH   8   9
ATOM      9  C   LIG d   1       2.271  81.793 111.489  0.00  0.00     0.028 C 
ATOM     10  C   LIG d   1       3.361  81.174 110.598  0.00  0.00     0.006 C 
ENDBRANCH   8   9
BRANCH   8  11
ATOM     11  C   LIG d   1       0.946  82.711 109.652  0.00  0.00     0.028 C 
ATOM     12  C   LIG d   1       0.549  84.145 110.035  0.00  0.00     0.006 C 
ENDBRANCH   8  11
ENDBRANCH   7   8
ENDBRANCH   1   7
BRANCH   6  13
ATOM     13  N   LIG d   1      -0.186  82.784 114.776  0.00  0.00    -0.311 N 
ATOM     14  C   LIG d   1      -0.481  83.983 115.275  0.00  0.00     0.210 C 
ATOM     15  C   LIG d   1       0.670  84.680 116.007  0.00  0.00     0.109 C 
ATOM     16  O   LIG d   1      -1.596  84.522 115.209  0.00  0.00    -0.276 OA
ATOM     17  H   LIG d   1       0.733  82.410 114.903  0.00  0.00     0.149 HD
ENDBRANCH   6  13
BRANCH   5  18
ATOM     18  N   LIG d   1      -2.741  81.580 115.941  0.00  0.00     0.381 N 
ATOM     19  H   LIG d   1      -2.627  81.112 116.817  0.00  0.00    -0.090 HD
ATOM     20  H   LIG d   1      -3.704  81.501 115.663  0.00  0.00    -0.090 HD
ATOM     21  H   LIG d   1      -2.493  82.541 116.034  0.00  0.00    -0.090 HD
ENDBRANCH   5  18
BRANCH   3  22
ATOM     22  C   LIG d   1      -2.588  78.276 112.477  0.00  0.00     0.382 C 
ATOM     23  O   LIG d   1      -2.012  77.218 112.830  0.00  0.00    -0.241 OA
ATOM     24  O   LIG d   1      -3.532  78.220 111.667  0.00  0.00    -0.241 OA
ENDBRANCH   3  22
TORSDOF 7
ENDMDL
MODEL 9
REMARK VINA RESULT:      -3.9      2.556      3.504
REMARK  7 active torsions:
REMARK  status: ('A' for Active; 'I' for Inactive)
REMARK    1  A    between atoms: C_2  and  C_3 
REMARK    2  A    between atoms: C_3  and  O_6 
REMARK    3  A    between atoms: C_3  and  C_4 
REMARK    4  A    between atoms: C_7  and  O_6 
REMARK    5  A    between atoms: C_9  and  C_10 
REMARK    6  A    between atoms: N_15  and  C_14 
REMARK    7  A    between atoms: N_20  and  C_19 
REMARK       I    between atoms: C_22  and  N_20 
ROOT
ATOM      1  C   LIG d   1      -2.090  80.967 114.000  0.00  0.00     0.161 C 
ATOM      2  C   LIG d   1      -2.498  79.679 114.382  0.00  0.00     0.016 C 
ATOM      3  C   LIG d   1      -2.474  78.564 113.512  0.00  0.00     0.038 C 
ATOM      4  C   LIG d   1      -1.893  78.632 112.237  0.00  0.00     0.028 C 
ATOM      5  C   LIG d   1      -1.930  80.030 111.628  0.00  0.00    -0.047 C 
ATOM      6  C   LIG d   1      -1.350  81.037 112.647  0.00  0.00     0.091 C 
ENDROOT
BRANCH   1   7
ATOM      7  O   LIG d   1      -1.286  81.555 115.042  0.00  0.00    -0.368 OA
BRANCH   7   8
ATOM      8  C   LIG d   1       0.048  81.012 115.199  0.00  0.00     0.119 C 
BRANCH   8   9
ATOM      9  C   LIG d   1       0.189  80.547 116.662  0.00  0.00     0.028 C 
ATOM     10  C   LIG d   1       0.204  79.015 116.791  0.00  0.00     0.006 C 
ENDBRANCH   8   9
BRANCH   8  11
ATOM     11  C   LIG d   1       1.115  82.095 115.014  0.00  0.00     0.028 C 
ATOM     12  C   LIG d   1       2.234  81.670 114.049  0.00  0.00     0.006 C 
ENDBRANCH   8  11
ENDBRANCH   7   8
ENDBRANCH   1   7
BRANCH   6  13
ATOM     13  N   LIG d   1      -1.426  82.440 112.164  0.00  0.00    -0.311 N 
ATOM     14  C   LIG d   1      -0.470  83.019 111.441  0.00  0.00     0.210 C 
ATOM     15  C   LIG d   1      -0.739  84.479 111.063  0.00  0.00     0.109 C 
ATOM     16  O   LIG d   1       0.562  82.453 111.049  0.00  0.00    -0.276 OA
ATOM     17  H   LIG d   1      -2.244  82.963 112.410  0.00  0.00     0.149 HD
ENDBRANCH   6  13
BRANCH   5  18
ATOM     18  N   LIG d   1      -1.172  79.985 110.364  0.00  0.00     0.381 N 
ATOM     19  H   LIG d   1      -1.770  80.233 109.601  0.00  0.00    -0.090 HD
ATOM     20  H   LIG d   1      -0.843  79.047 110.215  0.00  0.00    -0.090 HD
ATOM     21  H   LIG d   1      -0.399  80.613 110.407  0.00  0.00    -0.090 HD
ENDBRANCH   5  18
BRANCH   3  22
ATOM     22  C   LIG d   1      -3.071  77.375 113.902  0.00  0.00     0.382 C 
ATOM     23  O   LIG d   1      -3.605  76.631 113.044  0.00  0.00    -0.241 OA
ATOM     24  O   LIG d   1      -3.122  77.058 115.105  0.00  0.00    -0.241 OA
ENDBRANCH   3  22
TORSDOF 7
ENDMDL
