MODEL 1
REMARK VINA RESULT:      -5.8      0.000      0.000
REMARK  7 active torsions:
REMARK  status: ('A' for Active; 'I' for Inactive)
REMARK    1  A    between atoms: C_2  and  C_3 
REMARK    2  A    between atoms: C_3  and  O_6 
REMARK    3  A    between atoms: C_3  and  C_4 
REMARK    4  A    between atoms: C_7  and  O_6 
REMARK    5  A    between atoms: C_9  and  C_10 
REMARK    6  A    between atoms: N_15  and  C_14 
REMARK    7  A    between atoms: N_20  and  C_19 
REMARK       I    between atoms: C_22  and  N_20 
ROOT
ATOM      1  C   LIG d   1       0.406  82.892 111.670  0.00  0.00     0.161 C 
ATOM      2  C   LIG d   1      -0.830  82.477 112.194  0.00  0.00     0.016 C 
ATOM      3  C   LIG d   1      -1.316  81.154 112.087  0.00  0.00     0.038 C 
ATOM      4  C   LIG d   1      -0.526  80.113 111.578  0.00  0.00     0.028 C 
ATOM      5  C   LIG d   1       0.528  80.584 110.580  0.00  0.00    -0.047 C 
ATOM      6  C   LIG d   1       1.330  81.745 111.210  0.00  0.00     0.091 C 
ENDROOT
BRANCH   1   7
ATOM      7  O   LIG d   1       1.086  83.729 112.627  0.00  0.00    -0.368 OA
BRANCH   7   8
ATOM      8  C   LIG d   1       1.091  83.258 113.997  0.00  0.00     0.119 C 
BRANCH   8   9
ATOM      9  C   LIG d   1       0.565  84.404 114.882  0.00  0.00     0.028 C 
ATOM     10  C   LIG d   1      -0.592  83.958 115.793  0.00  0.00     0.006 C 
ENDBRANCH   8   9
BRANCH   8  11
ATOM     11  C   LIG d   1       2.516  82.988 114.487  0.00  0.00     0.028 C 
ATOM     12  C   LIG d   1       3.465  84.172 114.243  0.00  0.00     0.006 C 
ENDBRANCH   8  11
ENDBRANCH   7   8
ENDBRANCH   1   7
BRANCH   6  13
ATOM     13  N   LIG d   1       2.327  82.321 110.269  0.00  0.00    -0.311 N 
ATOM     14  C   LIG d   1       3.632  82.378 110.528  0.00  0.00     0.210 C 
ATOM     15  C   LIG d   1       4.480  83.029 109.431  0.00  0.00     0.109 C 
ATOM     16  O   LIG d   1       4.171  81.923 111.548  0.00  0.00    -0.276 OA
ATOM     17  H   LIG d   1       1.979  82.685 109.403  0.00  0.00     0.149 HD
ENDBRANCH   6  13
BRANCH   5  18
ATOM     18  N   LIG d   1       1.367  79.421 110.236  0.00  0.00     0.381 N 
ATOM     19  H   LIG d   1       0.786  78.633 110.029  0.00  0.00    -0.090 HD
ATOM     20  H   LIG d   1       1.942  79.189 111.027  0.00  0.00    -0.090 HD
ATOM     21  H   LIG d   1       1.940  79.635 109.450  0.00  0.00    -0.090 HD
ENDBRANCH   5  18
BRANCH   3  22
ATOM     22  C   LIG d   1      -2.622  80.870 112.456  0.00  0.00     0.382 C 
ATOM     23  O   LIG d   1      -3.479  81.786 112.484  0.00  0.00    -0.241 OA
ATOM     24  O   LIG d   1      -2.944  79.718 112.803  0.00  0.00    -0.241 OA
ENDBRANCH   3  22
TORSDOF 7
ENDMDL
MODEL 2
REMARK VINA RESULT:      -5.3      1.575      4.829
REMARK  7 active torsions:
REMARK  status: ('A' for Active; 'I' for Inactive)
REMARK    1  A    between atoms: C_2  and  C_3 
REMARK    2  A    between atoms: C_3  and  O_6 
REMARK    3  A    between atoms: C_3  and  C_4 
REMARK    4  A    between atoms: C_7  and  O_6 
REMARK    5  A    between atoms: C_9  and  C_10 
REMARK    6  A    between atoms: N_15  and  C_14 
REMARK    7  A    between atoms: N_20  and  C_19 
REMARK       I    between atoms: C_22  and  N_20 
ROOT
ATOM      1  C   LIG d   1       1.127  82.153 112.763  0.00  0.00     0.161 C 
ATOM      2  C   LIG d   1       2.277  82.829 112.321  0.00  0.00     0.016 C 
ATOM      3  C   LIG d   1       2.834  82.657 111.033  0.00  0.00     0.038 C 
ATOM      4  C   LIG d   1       2.189  81.906 110.040  0.00  0.00     0.028 C 
ATOM      5  C   LIG d   1       1.295  80.804 110.600  0.00  0.00    -0.047 C 
ATOM      6  C   LIG d   1       0.346  81.415 111.656  0.00  0.00     0.091 C 
ENDROOT
BRANCH   1   7
ATOM      7  O   LIG d   1       0.260  83.069 113.462  0.00  0.00    -0.368 OA
BRANCH   7   8
ATOM      8  C   LIG d   1       0.416  83.121 114.901  0.00  0.00     0.119 C 
BRANCH   8   9
ATOM      9  C   LIG d   1      -0.717  82.279 115.520  0.00  0.00     0.028 C 
ATOM     10  C   LIG d   1      -2.110  82.851 115.209  0.00  0.00     0.006 C 
ENDBRANCH   8   9
BRANCH   8  11
ATOM     11  C   LIG d   1       0.203  84.541 115.434  0.00  0.00     0.028 C 
ATOM     12  C   LIG d   1       0.559  84.678 116.923  0.00  0.00     0.006 C 
ENDBRANCH   8  11
ENDBRANCH   7   8
ENDBRANCH   1   7
BRANCH   6  13
ATOM     13  N   LIG d   1      -0.505  80.389 112.314  0.00  0.00    -0.311 N 
ATOM     14  C   LIG d   1      -1.828  80.498 112.428  0.00  0.00     0.210 C 
ATOM     15  C   LIG d   1      -2.511  79.338 113.159  0.00  0.00     0.109 C 
ATOM     16  O   LIG d   1      -2.504  81.429 111.965  0.00  0.00    -0.276 OA
ATOM     17  H   LIG d   1      -0.042  79.585 112.690  0.00  0.00     0.149 HD
ENDBRANCH   6  13
BRANCH   5  18
ATOM     18  N   LIG d   1       0.579  80.191 109.464  0.00  0.00     0.381 N 
ATOM     19  H   LIG d   1       0.163  79.328 109.752  0.00  0.00    -0.090 HD
ATOM     20  H   LIG d   1       1.239  79.994 108.732  0.00  0.00    -0.090 HD
ATOM     21  H   LIG d   1      -0.124  80.812 109.129  0.00  0.00    -0.090 HD
ENDBRANCH   5  18
BRANCH   3  22
ATOM     22  C   LIG d   1       4.072  83.209 110.741  0.00  0.00     0.382 C 
ATOM     23  O   LIG d   1       4.568  83.066 109.597  0.00  0.00    -0.241 OA
ATOM     24  O   LIG d   1       4.720  83.808 111.620  0.00  0.00    -0.241 OA
ENDBRANCH   3  22
TORSDOF 7
ENDMDL
MODEL 3
REMARK VINA RESULT:      -5.1      1.864      4.733
REMARK  7 active torsions:
REMARK  status: ('A' for Active; 'I' for Inactive)
REMARK    1  A    between atoms: C_2  and  C_3 
REMARK    2  A    between atoms: C_3  and  O_6 
REMARK    3  A    between atoms: C_3  and  C_4 
REMARK    4  A    between atoms: C_7  and  O_6 
REMARK    5  A    between atoms: C_9  and  C_10 
REMARK    6  A    between atoms: N_15  and  C_14 
REMARK    7  A    between atoms: N_20  and  C_19 
REMARK       I    between atoms: C_22  and  N_20 
ROOT
ATOM      1  C   LIG d   1       0.994  82.221 112.470  0.00  0.00     0.161 C 
ATOM      2  C   LIG d   1       2.006  81.921 111.543  0.00  0.00     0.016 C 
ATOM      3  C   LIG d   1       1.909  80.875 110.597  0.00  0.00     0.038 C 
ATOM      4  C   LIG d   1       0.722  80.150 110.412  0.00  0.00     0.028 C 
ATOM      5  C   LIG d   1      -0.147  80.082 111.663  0.00  0.00    -0.047 C 
ATOM      6  C   LIG d   1      -0.352  81.513 112.210  0.00  0.00     0.091 C 
ENDROOT
BRANCH   1   7
ATOM      7  O   LIG d   1       0.804  83.648 112.540  0.00  0.00    -0.368 OA
BRANCH   7   8
ATOM      8  C   LIG d   1       1.109  84.270 113.813  0.00  0.00     0.119 C 
BRANCH   8   9
ATOM      9  C   LIG d   1       1.802  83.211 114.691  0.00  0.00     0.028 C 
ATOM     10  C   LIG d   1       3.232  83.620 115.085  0.00  0.00     0.006 C 
ENDBRANCH   8   9
BRANCH   8  11
ATOM     11  C   LIG d   1      -0.169  84.649 114.568  0.00  0.00     0.028 C 
ATOM     12  C   LIG d   1       0.027  84.680 116.092  0.00  0.00     0.006 C 
ENDBRANCH   8  11
ENDBRANCH   7   8
ENDBRANCH   1   7
BRANCH   6  13
ATOM     13  N   LIG d   1      -1.122  81.530 113.481  0.00  0.00    -0.311 N 
ATOM     14  C   LIG d   1      -2.436  81.739 113.539  0.00  0.00     0.210 C 
ATOM     15  C   LIG d   1      -3.029  81.735 114.952  0.00  0.00     0.109 C 
ATOM     16  O   LIG d   1      -3.172  81.894 112.553  0.00  0.00    -0.276 OA
ATOM     17  H   LIG d   1      -0.608  81.381 114.327  0.00  0.00     0.149 HD
ENDBRANCH   6  13
BRANCH   5  18
ATOM     18  N   LIG d   1      -1.411  79.418 111.292  0.00  0.00     0.381 N 
ATOM     19  H   LIG d   1      -1.691  78.792 112.020  0.00  0.00    -0.090 HD
ATOM     20  H   LIG d   1      -1.264  78.883 110.455  0.00  0.00    -0.090 HD
ATOM     21  H   LIG d   1      -2.122  80.099 111.139  0.00  0.00    -0.090 HD
ENDBRANCH   5  18
BRANCH   3  22
ATOM     22  C   LIG d   1       3.021  80.518 109.850  0.00  0.00     0.382 C 
ATOM     23  O   LIG d   1       3.839  81.397 109.484  0.00  0.00    -0.241 OA
ATOM     24  O   LIG d   1       3.194  79.335 109.499  0.00  0.00    -0.241 OA
ENDBRANCH   3  22
TORSDOF 7
ENDMDL
MODEL 4
REMARK VINA RESULT:      -5.1      2.332      4.190
REMARK  7 active torsions:
REMARK  status: ('A' for Active; 'I' for Inactive)
REMARK    1  A    between atoms: C_2  and  C_3 
REMARK    2  A    between atoms: C_3  and  O_6 
REMARK    3  A    between atoms: C_3  and  C_4 
REMARK    4  A    between atoms: C_7  and  O_6 
REMARK    5  A    between atoms: C_9  and  C_10 
REMARK    6  A    between atoms: N_15  and  C_14 
REMARK    7  A    between atoms: N_20  and  C_19 
REMARK       I    between atoms: C_22  and  N_20 
ROOT
ATOM      1  C   LIG d   1      -0.036  81.117 111.357  0.00  0.00     0.161 C 
ATOM      2  C   LIG d   1      -0.697  79.881 111.444  0.00  0.00     0.016 C 
ATOM      3  C   LIG d   1      -1.693  79.596 112.407  0.00  0.00     0.038 C 
ATOM      4  C   LIG d   1      -2.205  80.586 113.258  0.00  0.00     0.028 C 
ATOM      5  C   LIG d   1      -1.215  81.709 113.546  0.00  0.00    -0.047 C 
ATOM      6  C   LIG d   1      -0.660  82.245 112.206  0.00  0.00     0.091 C 
ENDROOT
BRANCH   1   7
ATOM      7  O   LIG d   1       0.061  81.524 109.978  0.00  0.00    -0.368 OA
BRANCH   7   8
ATOM      8  C   LIG d   1       1.402  81.646 109.443  0.00  0.00     0.119 C 
BRANCH   8   9
ATOM      9  C   LIG d   1       2.356  80.923 110.414  0.00  0.00     0.028 C 
ATOM     10  C   LIG d   1       2.997  79.674 109.785  0.00  0.00     0.006 C 
ENDBRANCH   8   9
BRANCH   8  11
ATOM     11  C   LIG d   1       1.867  83.105 109.430  0.00  0.00     0.028 C 
ATOM     12  C   LIG d   1       3.396  83.245 109.502  0.00  0.00     0.006 C 
ENDBRANCH   8  11
ENDBRANCH   7   8
ENDBRANCH   1   7
BRANCH   6  13
ATOM     13  N   LIG d   1       0.379  83.290 112.400  0.00  0.00    -0.311 N 
ATOM     14  C   LIG d   1       1.462  83.115 113.155  0.00  0.00     0.210 C 
ATOM     15  C   LIG d   1       2.396  84.327 113.235  0.00  0.00     0.109 C 
ATOM     16  O   LIG d   1       1.755  82.061 113.739  0.00  0.00    -0.276 OA
ATOM     17  H   LIG d   1       0.237  84.166 111.936  0.00  0.00     0.149 HD
ENDBRANCH   6  13
BRANCH   5  18
ATOM     18  N   LIG d   1      -1.923  82.738 114.331  0.00  0.00     0.381 N 
ATOM     19  H   LIG d   1      -2.909  82.570 114.298  0.00  0.00    -0.090 HD
ATOM     20  H   LIG d   1      -1.742  83.639 113.924  0.00  0.00    -0.090 HD
ATOM     21  H   LIG d   1      -1.608  82.723 115.276  0.00  0.00    -0.090 HD
ENDBRANCH   5  18
BRANCH   3  22
ATOM     22  C   LIG d   1      -2.158  78.298 112.551  0.00  0.00     0.382 C 
ATOM     23  O   LIG d   1      -1.464  77.447 113.158  0.00  0.00    -0.241 OA
ATOM     24  O   LIG d   1      -3.242  77.955 112.044  0.00  0.00    -0.241 OA
ENDBRANCH   3  22
TORSDOF 7
ENDMDL
MODEL 5
REMARK VINA RESULT:      -4.6      2.849      3.987
REMARK  7 active torsions:
REMARK  status: ('A' for Active; 'I' for Inactive)
REMARK    1  A    between atoms: C_2  and  C_3 
REMARK    2  A    between atoms: C_3  and  O_6 
REMARK    3  A    between atoms: C_3  and  C_4 
REMARK    4  A    between atoms: C_7  and  O_6 
REMARK    5  A    between atoms: C_9  and  C_10 
REMARK    6  A    between atoms: N_15  and  C_14 
REMARK    7  A    between atoms: N_20  and  C_19 
REMARK       I    between atoms: C_22  and  N_20 
ROOT
ATOM      1  C   LIG d   1      -1.789  80.811 114.541  0.00  0.00     0.161 C 
ATOM      2  C   LIG d   1      -2.281  79.598 115.052  0.00  0.00     0.016 C 
ATOM      3  C   LIG d   1      -2.349  78.405 114.295  0.00  0.00     0.038 C 
ATOM      4  C   LIG d   1      -1.786  78.307 113.014  0.00  0.00     0.028 C 
ATOM      5  C   LIG d   1      -1.734  79.638 112.272  0.00  0.00    -0.047 C 
ATOM      6  C   LIG d   1      -1.068  80.695 113.182  0.00  0.00     0.091 C 
ENDROOT
BRANCH   1   7
ATOM      7  O   LIG d   1      -0.929  81.437 115.513  0.00  0.00    -0.368 OA
BRANCH   7   8
ATOM      8  C   LIG d   1      -1.466  82.605 116.181  0.00  0.00     0.119 C 
BRANCH   8   9
ATOM      9  C   LIG d   1      -0.432  83.738 116.036  0.00  0.00     0.028 C 
ATOM     10  C   LIG d   1      -0.753  84.680 114.863  0.00  0.00     0.006 C 
ENDBRANCH   8   9
BRANCH   8  11
ATOM     11  C   LIG d   1      -1.603  82.372 117.688  0.00  0.00     0.028 C 
ATOM     12  C   LIG d   1      -0.779  83.365 118.523  0.00  0.00     0.006 C 
ENDBRANCH   8  11
ENDBRANCH   7   8
ENDBRANCH   1   7
BRANCH   6  13
ATOM     13  N   LIG d   1      -1.054  82.047 112.564  0.00  0.00    -0.311 N 
ATOM     14  C   LIG d   1      -0.047  82.502 111.821  0.00  0.00     0.210 C 
ATOM     15  C   LIG d   1      -0.225  83.931 111.297  0.00  0.00     0.109 C 
ATOM     16  O   LIG d   1       0.962  81.847 111.519  0.00  0.00    -0.276 OA
ATOM     17  H   LIG d   1      -1.847  82.634 112.733  0.00  0.00     0.149 HD
ENDBRANCH   6  13
BRANCH   5  18
ATOM     18  N   LIG d   1      -1.001  79.417 111.011  0.00  0.00     0.381 N 
ATOM     19  H   LIG d   1      -0.032  79.629 111.140  0.00  0.00    -0.090 HD
ATOM     20  H   LIG d   1      -1.368  80.036 110.309  0.00  0.00    -0.090 HD
ATOM     21  H   LIG d   1      -1.106  78.471 110.717  0.00  0.00    -0.090 HD
ENDBRANCH   5  18
BRANCH   3  22
ATOM     22  C   LIG d   1      -3.022  77.305 114.805  0.00  0.00     0.382 C 
ATOM     23  O   LIG d   1      -2.531  76.158 114.681  0.00  0.00    -0.241 OA
ATOM     24  O   LIG d   1      -4.134  77.441 115.348  0.00  0.00    -0.241 OA
ENDBRANCH   3  22
TORSDOF 7
ENDMDL
MODEL 6
REMARK VINA RESULT:      -4.4      2.635      4.557
REMARK  7 active torsions:
REMARK  status: ('A' for Active; 'I' for Inactive)
REMARK    1  A    between atoms: C_2  and  C_3 
REMARK    2  A    between atoms: C_3  and  O_6 
REMARK    3  A    between atoms: C_3  and  C_4 
REMARK    4  A    between atoms: C_7  and  O_6 
REMARK    5  A    between atoms: C_9  and  C_10 
REMARK    6  A    between atoms: N_15  and  C_14 
REMARK    7  A    between atoms: N_20  and  C_19 
REMARK       I    between atoms: C_22  and  N_20 
ROOT
ATOM      1  C   LIG d   1      -0.161  80.867 112.934  0.00  0.00     0.161 C 
ATOM      2  C   LIG d   1      -0.907  79.722 112.607  0.00  0.00     0.016 C 
ATOM      3  C   LIG d   1      -2.064  79.320 113.312  0.00  0.00     0.038 C 
ATOM      4  C   LIG d   1      -2.645  80.124 114.304  0.00  0.00     0.028 C 
ATOM      5  C   LIG d   1      -1.644  81.035 115.008  0.00  0.00    -0.047 C 
ATOM      6  C   LIG d   1      -0.841  81.816 113.942  0.00  0.00     0.091 C 
ENDROOT
BRANCH   1   7
ATOM      7  O   LIG d   1       0.191  81.581 111.732  0.00  0.00    -0.368 OA
BRANCH   7   8
ATOM      8  C   LIG d   1       1.607  81.761 111.489  0.00  0.00     0.119 C 
BRANCH   8   9
ATOM      9  C   LIG d   1       1.832  83.243 111.134  0.00  0.00     0.028 C 
ATOM     10  C   LIG d   1       0.576  83.900 110.536  0.00  0.00     0.006 C 
ENDBRANCH   8   9
BRANCH   8  11
ATOM     11  C   LIG d   1       2.065  80.975 110.256  0.00  0.00     0.028 C 
ATOM     12  C   LIG d   1       0.891  80.425 109.431  0.00  0.00     0.006 C 
ENDBRANCH   8  11
ENDBRANCH   7   8
ENDBRANCH   1   7
BRANCH   6  13
ATOM     13  N   LIG d   1       0.218  82.668 114.543  0.00  0.00    -0.311 N 
ATOM     14  C   LIG d   1       0.261  83.992 114.402  0.00  0.00     0.210 C 
ATOM     15  C   LIG d   1       1.449  84.676 115.086  0.00  0.00     0.109 C 
ATOM     16  O   LIG d   1      -0.589  84.668 113.803  0.00  0.00    -0.276 OA
ATOM     17  H   LIG d   1       0.931  82.205 115.072  0.00  0.00     0.149 HD
ENDBRANCH   6  13
BRANCH   5  18
ATOM     18  N   LIG d   1      -2.404  81.912 115.918  0.00  0.00     0.381 N 
ATOM     19  H   LIG d   1      -2.719  81.388 116.709  0.00  0.00    -0.090 HD
ATOM     20  H   LIG d   1      -3.209  82.266 115.432  0.00  0.00    -0.090 HD
ATOM     21  H   LIG d   1      -1.830  82.669 116.220  0.00  0.00    -0.090 HD
ENDBRANCH   5  18
BRANCH   3  22
ATOM     22  C   LIG d   1      -2.631  78.082 113.053  0.00  0.00     0.382 C 
ATOM     23  O   LIG d   1      -2.422  77.121 113.832  0.00  0.00    -0.241 OA
ATOM     24  O   LIG d   1      -3.313  77.901 112.026  0.00  0.00    -0.241 OA
ENDBRANCH   3  22
TORSDOF 7
ENDMDL
MODEL 7
REMARK VINA RESULT:      -4.2      3.523      6.443
REMARK  7 active torsions:
REMARK  status: ('A' for Active; 'I' for Inactive)
REMARK    1  A    between atoms: C_2  and  C_3 
REMARK    2  A    between atoms: C_3  and  O_6 
REMARK    3  A    between atoms: C_3  and  C_4 
REMARK    4  A    between atoms: C_7  and  O_6 
REMARK    5  A    between atoms: C_9  and  C_10 
REMARK    6  A    between atoms: N_15  and  C_14 
REMARK    7  A    between atoms: N_20  and  C_19 
REMARK       I    between atoms: C_22  and  N_20 
ROOT
ATOM      1  C   LIG d   1      -2.614  81.712 113.857  0.00  0.00     0.161 C 
ATOM      2  C   LIG d   1      -1.967  81.901 112.624  0.00  0.00     0.016 C 
ATOM      3  C   LIG d   1      -0.840  82.739 112.457  0.00  0.00     0.038 C 
ATOM      4  C   LIG d   1      -0.188  83.331 113.548  0.00  0.00     0.028 C 
ATOM      5  C   LIG d   1      -1.105  83.575 114.742  0.00  0.00    -0.047 C 
ATOM      6  C   LIG d   1      -1.850  82.263 115.079  0.00  0.00     0.091 C 
ENDROOT
BRANCH   1   7
ATOM      7  O   LIG d   1      -2.915  80.315 114.042  0.00  0.00    -0.368 OA
BRANCH   7   8
ATOM      8  C   LIG d   1      -1.827  79.486 114.520  0.00  0.00     0.119 C 
BRANCH   8   9
ATOM      9  C   LIG d   1      -1.511  78.457 113.418  0.00  0.00     0.028 C 
ATOM     10  C   LIG d   1      -2.648  78.328 112.391  0.00  0.00     0.006 C 
ENDBRANCH   8   9
BRANCH   8  11
ATOM     11  C   LIG d   1      -2.250  78.660 115.738  0.00  0.00     0.028 C 
ATOM     12  C   LIG d   1      -3.714  78.899 116.141  0.00  0.00     0.006 C 
ENDBRANCH   8  11
ENDBRANCH   7   8
ENDBRANCH   1   7
BRANCH   6  13
ATOM     13  N   LIG d   1      -2.831  82.435 116.182  0.00  0.00    -0.311 N 
ATOM     14  C   LIG d   1      -2.559  82.153 117.455  0.00  0.00     0.210 C 
ATOM     15  C   LIG d   1      -3.718  82.383 118.430  0.00  0.00     0.109 C 
ATOM     16  O   LIG d   1      -1.458  81.765 117.874  0.00  0.00    -0.276 OA
ATOM     17  H   LIG d   1      -3.740  82.775 115.936  0.00  0.00     0.149 HD
ENDBRANCH   6  13
BRANCH   5  18
ATOM     18  N   LIG d   1      -0.269  84.067 115.854  0.00  0.00     0.381 N 
ATOM     19  H   LIG d   1      -0.764  83.972 116.718  0.00  0.00    -0.090 HD
ATOM     20  H   LIG d   1      -0.074  85.042 115.707  0.00  0.00    -0.090 HD
ATOM     21  H   LIG d   1       0.583  83.552 115.893  0.00  0.00    -0.090 HD
ENDBRANCH   5  18
BRANCH   3  22
ATOM     22  C   LIG d   1      -0.379  83.023 111.180  0.00  0.00     0.382 C 
ATOM     23  O   LIG d   1      -0.531  84.172 110.700  0.00  0.00    -0.241 OA
ATOM     24  O   LIG d   1       0.148  82.133 110.486  0.00  0.00    -0.241 OA
ENDBRANCH   3  22
TORSDOF 7
ENDMDL
MODEL 8
REMARK VINA RESULT:      -4.2      2.987      5.383
REMARK  7 active torsions:
REMARK  status: ('A' for Active; 'I' for Inactive)
REMARK    1  A    between atoms: C_2  and  C_3 
REMARK    2  A    between atoms: C_3  and  O_6 
REMARK    3  A    between atoms: C_3  and  C_4 
REMARK    4  A    between atoms: C_7  and  O_6 
REMARK    5  A    between atoms: C_9  and  C_10 
REMARK    6  A    between atoms: N_15  and  C_14 
REMARK    7  A    between atoms: N_20  and  C_19 
REMARK       I    between atoms: C_22  and  N_20 
ROOT
ATOM      1  C   LIG d   1      -0.537  80.423 114.387  0.00  0.00     0.161 C 
ATOM      2  C   LIG d   1       0.189  81.057 113.366  0.00  0.00     0.016 C 
ATOM      3  C   LIG d   1      -0.012  80.798 111.991  0.00  0.00     0.038 C 
ATOM      4  C   LIG d   1      -1.065  79.991 111.535  0.00  0.00     0.028 C 
ATOM      5  C   LIG d   1      -1.501  78.936 112.546  0.00  0.00    -0.047 C 
ATOM      6  C   LIG d   1      -1.765  79.622 113.906  0.00  0.00     0.091 C 
ENDROOT
BRANCH   1   7
ATOM      7  O   LIG d   1      -0.928  81.389 115.383  0.00  0.00    -0.368 OA
BRANCH   7   8
ATOM      8  C   LIG d   1      -0.247  82.667 115.332  0.00  0.00     0.119 C 
BRANCH   8   9
ATOM      9  C   LIG d   1       0.254  82.982 116.754  0.00  0.00     0.028 C 
ATOM     10  C   LIG d   1      -0.899  83.264 117.733  0.00  0.00     0.006 C 
ENDBRANCH   8   9
BRANCH   8  11
ATOM     11  C   LIG d   1      -1.216  83.801 114.982  0.00  0.00     0.028 C 
ATOM     12  C   LIG d   1      -0.712  84.680 113.826  0.00  0.00     0.006 C 
ENDBRANCH   8  11
ENDBRANCH   7   8
ENDBRANCH   1   7
BRANCH   6  13
ATOM     13  N   LIG d   1      -2.116  78.650 114.974  0.00  0.00    -0.311 N 
ATOM     14  C   LIG d   1      -3.177  78.783 115.767  0.00  0.00     0.210 C 
ATOM     15  C   LIG d   1      -3.343  77.678 116.815  0.00  0.00     0.109 C 
ATOM     16  O   LIG d   1      -4.015  79.693 115.681  0.00  0.00    -0.276 OA
ATOM     17  H   LIG d   1      -1.507  77.864 115.092  0.00  0.00     0.149 HD
ENDBRANCH   6  13
BRANCH   5  18
ATOM     18  N   LIG d   1      -2.692  78.259 111.999  0.00  0.00     0.381 N 
ATOM     19  H   LIG d   1      -2.487  77.896 111.089  0.00  0.00    -0.090 HD
ATOM     20  H   LIG d   1      -3.435  78.930 111.911  0.00  0.00    -0.090 HD
ATOM     21  H   LIG d   1      -2.972  77.519 112.604  0.00  0.00    -0.090 HD
ENDBRANCH   5  18
BRANCH   3  22
ATOM     22  C   LIG d   1       0.872  81.317 111.057  0.00  0.00     0.382 C 
ATOM     23  O   LIG d   1       0.442  81.758 109.964  0.00  0.00    -0.241 OA
ATOM     24  O   LIG d   1       2.098  81.310 111.276  0.00  0.00    -0.241 OA
ENDBRANCH   3  22
TORSDOF 7
ENDMDL
MODEL 9
REMARK VINA RESULT:      -4.2      3.946      5.447
REMARK  7 active torsions:
REMARK  status: ('A' for Active; 'I' for Inactive)
REMARK    1  A    between atoms: C_2  and  C_3 
REMARK    2  A    between atoms: C_3  and  O_6 
REMARK    3  A    between atoms: C_3  and  C_4 
REMARK    4  A    between atoms: C_7  and  O_6 
REMARK    5  A    between atoms: C_9  and  C_10 
REMARK    6  A    between atoms: N_15  and  C_14 
REMARK    7  A    between atoms: N_20  and  C_19 
REMARK       I    between atoms: C_22  and  N_20 
ROOT
ATOM      1  C   LIG d   1       0.052  80.312 115.164  0.00  0.00     0.161 C 
ATOM      2  C   LIG d   1      -0.599  81.209 114.301  0.00  0.00     0.016 C 
ATOM      3  C   LIG d   1      -1.742  80.868 113.542  0.00  0.00     0.038 C 
ATOM      4  C   LIG d   1      -2.406  79.644 113.711  0.00  0.00     0.028 C 
ATOM      5  C   LIG d   1      -1.495  78.522 114.198  0.00  0.00    -0.047 C 
ATOM      6  C   LIG d   1      -0.724  79.008 115.446  0.00  0.00     0.091 C 
ENDROOT
BRANCH   1   7
ATOM      7  O   LIG d   1       0.381  80.976 116.401  0.00  0.00    -0.368 OA
BRANCH   7   8
ATOM      8  C   LIG d   1      -0.313  82.221 116.660  0.00  0.00     0.119 C 
BRANCH   8   9
ATOM      9  C   LIG d   1       0.711  83.206 117.257  0.00  0.00     0.028 C 
ATOM     10  C   LIG d   1       0.353  84.673 116.963  0.00  0.00     0.006 C 
ENDBRANCH   8   9
BRANCH   8  11
ATOM     11  C   LIG d   1      -1.385  82.046 117.740  0.00  0.00     0.028 C 
ATOM     12  C   LIG d   1      -2.813  82.074 117.172  0.00  0.00     0.006 C 
ENDBRANCH   8  11
ENDBRANCH   7   8
ENDBRANCH   1   7
BRANCH   6  13
ATOM     13  N   LIG d   1       0.253  78.001 115.937  0.00  0.00    -0.311 N 
ATOM     14  C   LIG d   1       0.118  77.350 117.091  0.00  0.00     0.210 C 
ATOM     15  C   LIG d   1       1.249  76.369 117.416  0.00  0.00     0.109 C 
ATOM     16  O   LIG d   1      -0.847  77.469 117.861  0.00  0.00    -0.276 OA
ATOM     17  H   LIG d   1       1.050  77.820 115.359  0.00  0.00     0.149 HD
ENDBRANCH   6  13
BRANCH   5  18
ATOM     18  N   LIG d   1      -2.341  77.344 114.463  0.00  0.00     0.381 N 
ATOM     19  H   LIG d   1      -3.037  77.573 115.144  0.00  0.00    -0.090 HD
ATOM     20  H   LIG d   1      -1.767  76.608 114.834  0.00  0.00    -0.090 HD
ATOM     21  H   LIG d   1      -2.778  77.041 113.620  0.00  0.00    -0.090 HD
ENDBRANCH   5  18
BRANCH   3  22
ATOM     22  C   LIG d   1      -2.208  81.742 112.572  0.00  0.00     0.382 C 
ATOM     23  O   LIG d   1      -1.495  82.705 112.201  0.00  0.00    -0.241 OA
ATOM     24  O   LIG d   1      -3.351  81.605 112.095  0.00  0.00    -0.241 OA
ENDBRANCH   3  22
TORSDOF 7
ENDMDL
