MODEL 1
REMARK VINA RESULT:      -5.1      0.000      0.000
REMARK  7 active torsions:
REMARK  status: ('A' for Active; 'I' for Inactive)
REMARK    1  A    between atoms: C_2  and  C_3 
REMARK    2  A    between atoms: C_3  and  O_6 
REMARK    3  A    between atoms: C_3  and  C_4 
REMARK    4  A    between atoms: C_7  and  O_6 
REMARK    5  A    between atoms: C_9  and  C_10 
REMARK    6  A    between atoms: N_15  and  C_14 
REMARK    7  A    between atoms: N_20  and  C_19 
REMARK       I    between atoms: C_22  and  N_20 
ROOT
ATOM      1  C   LIG d   1       0.356  80.785 112.195  0.00  0.00     0.161 C 
ATOM      2  C   LIG d   1       0.900  82.061 112.414  0.00  0.00     0.016 C 
ATOM      3  C   LIG d   1       2.017  82.563 111.706  0.00  0.00     0.038 C 
ATOM      4  C   LIG d   1       2.575  81.876 110.618  0.00  0.00     0.028 C 
ATOM      5  C   LIG d   1       2.378  80.366 110.690  0.00  0.00    -0.047 C 
ATOM      6  C   LIG d   1       0.882  80.065 110.935  0.00  0.00     0.091 C 
ENDROOT
BRANCH   1   7
ATOM      7  O   LIG d   1      -1.083  80.867 112.161  0.00  0.00    -0.368 OA
BRANCH   7   8
ATOM      8  C   LIG d   1      -1.776  80.383 113.337  0.00  0.00     0.119 C 
BRANCH   8   9
ATOM      9  C   LIG d   1      -0.893  79.297 113.982  0.00  0.00     0.028 C 
ATOM     10  C   LIG d   1      -0.706  79.513 115.493  0.00  0.00     0.006 C 
ENDBRANCH   8   9
BRANCH   8  11
ATOM     11  C   LIG d   1      -3.081  79.674 112.963  0.00  0.00     0.028 C 
ATOM     12  C   LIG d   1      -3.055  78.171 113.282  0.00  0.00     0.006 C 
ENDBRANCH   8  11
ENDBRANCH   7   8
ENDBRANCH   1   7
BRANCH   6  13
ATOM     13  N   LIG d   1       0.615  78.613 111.103  0.00  0.00    -0.311 N 
ATOM     14  C   LIG d   1      -0.481  78.011 110.644  0.00  0.00     0.210 C 
ATOM     15  C   LIG d   1      -0.568  76.511 110.942  0.00  0.00     0.109 C 
ATOM     16  O   LIG d   1      -1.375  78.571 109.991  0.00  0.00    -0.276 OA
ATOM     17  H   LIG d   1       1.303  78.077 111.594  0.00  0.00     0.149 HD
ENDBRANCH   6  13
BRANCH   5  18
ATOM     18  N   LIG d   1       2.885  79.790 109.430  0.00  0.00     0.381 N 
ATOM     19  H   LIG d   1       2.629  80.377 108.662  0.00  0.00    -0.090 HD
ATOM     20  H   LIG d   1       2.462  78.888 109.292  0.00  0.00    -0.090 HD
ATOM     21  H   LIG d   1       3.876  79.697 109.471  0.00  0.00    -0.090 HD
ENDBRANCH   5  18
BRANCH   3  22
ATOM     22  C   LIG d   1       2.612  83.748 112.112  0.00  0.00     0.382 C 
ATOM     23  O   LIG d   1       1.906  84.679 112.571  0.00  0.00    -0.241 OA
ATOM     24  O   LIG d   1       3.839  83.915 111.984  0.00  0.00    -0.241 OA
ENDBRANCH   3  22
TORSDOF 7
ENDMDL
MODEL 2
REMARK VINA RESULT:      -5.1      3.931      5.533
REMARK  7 active torsions:
REMARK  status: ('A' for Active; 'I' for Inactive)
REMARK    1  A    between atoms: C_2  and  C_3 
REMARK    2  A    between atoms: C_3  and  O_6 
REMARK    3  A    between atoms: C_3  and  C_4 
REMARK    4  A    between atoms: C_7  and  O_6 
REMARK    5  A    between atoms: C_9  and  C_10 
REMARK    6  A    between atoms: N_15  and  C_14 
REMARK    7  A    between atoms: N_20  and  C_19 
REMARK       I    between atoms: C_22  and  N_20 
ROOT
ATOM      1  C   LIG d   1      -1.881  78.446 115.336  0.00  0.00     0.161 C 
ATOM      2  C   LIG d   1      -2.431  79.613 114.780  0.00  0.00     0.016 C 
ATOM      3  C   LIG d   1      -2.536  79.838 113.388  0.00  0.00     0.038 C 
ATOM      4  C   LIG d   1      -2.233  78.838 112.451  0.00  0.00     0.028 C 
ATOM      5  C   LIG d   1      -1.201  77.833 112.950  0.00  0.00    -0.047 C 
ATOM      6  C   LIG d   1      -1.647  77.299 114.331  0.00  0.00     0.091 C 
ENDROOT
BRANCH   1   7
ATOM      7  O   LIG d   1      -2.700  77.993 116.432  0.00  0.00    -0.368 OA
BRANCH   7   8
ATOM      8  C   LIG d   1      -2.080  78.010 117.741  0.00  0.00     0.119 C 
BRANCH   8   9
ATOM      9  C   LIG d   1      -2.365  76.649 118.406  0.00  0.00     0.028 C 
ATOM     10  C   LIG d   1      -3.529  75.901 117.734  0.00  0.00     0.006 C 
ENDBRANCH   8   9
BRANCH   8  11
ATOM     11  C   LIG d   1      -2.732  79.052 118.654  0.00  0.00     0.028 C 
ATOM     12  C   LIG d   1      -4.095  79.532 118.130  0.00  0.00     0.006 C 
ENDBRANCH   8  11
ENDBRANCH   7   8
ENDBRANCH   1   7
BRANCH   6  13
ATOM     13  N   LIG d   1      -0.651  76.372 114.929  0.00  0.00    -0.311 N 
ATOM     14  C   LIG d   1      -0.912  75.096 115.208  0.00  0.00     0.210 C 
ATOM     15  C   LIG d   1       0.249  74.322 115.840  0.00  0.00     0.109 C 
ATOM     16  O   LIG d   1      -1.985  74.524 114.963  0.00  0.00    -0.276 OA
ATOM     17  H   LIG d   1       0.255  76.746 115.132  0.00  0.00     0.149 HD
ENDBRANCH   6  13
BRANCH   5  18
ATOM     18  N   LIG d   1      -1.083  76.773 111.931  0.00  0.00     0.381 N 
ATOM     19  H   LIG d   1      -1.768  76.064 112.099  0.00  0.00    -0.090 HD
ATOM     20  H   LIG d   1      -0.172  76.354 112.002  0.00  0.00    -0.090 HD
ATOM     21  H   LIG d   1      -1.209  77.159 111.022  0.00  0.00    -0.090 HD
ENDBRANCH   5  18
BRANCH   3  22
ATOM     22  C   LIG d   1      -2.910  81.088 112.920  0.00  0.00     0.382 C 
ATOM     23  O   LIG d   1      -2.046  81.985 112.769  0.00  0.00    -0.241 OA
ATOM     24  O   LIG d   1      -4.107  81.344 112.689  0.00  0.00    -0.241 OA
ENDBRANCH   3  22
TORSDOF 7
ENDMDL
MODEL 3
REMARK VINA RESULT:      -5.1      2.026      5.175
REMARK  7 active torsions:
REMARK  status: ('A' for Active; 'I' for Inactive)
REMARK    1  A    between atoms: C_2  and  C_3 
REMARK    2  A    between atoms: C_3  and  O_6 
REMARK    3  A    between atoms: C_3  and  C_4 
REMARK    4  A    between atoms: C_7  and  O_6 
REMARK    5  A    between atoms: C_9  and  C_10 
REMARK    6  A    between atoms: N_15  and  C_14 
REMARK    7  A    between atoms: N_20  and  C_19 
REMARK       I    between atoms: C_22  and  N_20 
ROOT
ATOM      1  C   LIG d   1      -0.732  80.494 112.252  0.00  0.00     0.161 C 
ATOM      2  C   LIG d   1      -1.705  79.491 112.394  0.00  0.00     0.016 C 
ATOM      3  C   LIG d   1      -1.720  78.306 111.621  0.00  0.00     0.038 C 
ATOM      4  C   LIG d   1      -0.669  77.974 110.754  0.00  0.00     0.028 C 
ATOM      5  C   LIG d   1       0.074  79.189 110.209  0.00  0.00    -0.047 C 
ATOM      6  C   LIG d   1       0.485  80.097 111.390  0.00  0.00     0.091 C 
ENDROOT
BRANCH   1   7
ATOM      7  O   LIG d   1      -0.299  80.942 113.552  0.00  0.00    -0.368 OA
BRANCH   7   8
ATOM      8  C   LIG d   1       0.699  80.122 114.209  0.00  0.00     0.119 C 
BRANCH   8   9
ATOM      9  C   LIG d   1       0.140  79.730 115.591  0.00  0.00     0.028 C 
ATOM     10  C   LIG d   1      -0.776  78.496 115.524  0.00  0.00     0.006 C 
ENDBRANCH   8   9
BRANCH   8  11
ATOM     11  C   LIG d   1       1.973  80.922 114.500  0.00  0.00     0.028 C 
ATOM     12  C   LIG d   1       2.431  80.801 115.961  0.00  0.00     0.006 C 
ENDBRANCH   8  11
ENDBRANCH   7   8
ENDBRANCH   1   7
BRANCH   6  13
ATOM     13  N   LIG d   1       1.143  81.351 110.938  0.00  0.00    -0.311 N 
ATOM     14  C   LIG d   1       2.463  81.482 110.815  0.00  0.00     0.210 C 
ATOM     15  C   LIG d   1       2.935  82.865 110.354  0.00  0.00     0.109 C 
ATOM     16  O   LIG d   1       3.286  80.576 111.013  0.00  0.00    -0.276 OA
ATOM     17  H   LIG d   1       0.548  82.128 110.726  0.00  0.00     0.149 HD
ENDBRANCH   6  13
BRANCH   5  18
ATOM     18  N   LIG d   1       1.226  78.694 109.431  0.00  0.00     0.381 N 
ATOM     19  H   LIG d   1       1.188  79.058 108.500  0.00  0.00    -0.090 HD
ATOM     20  H   LIG d   1       1.178  77.692 109.380  0.00  0.00    -0.090 HD
ATOM     21  H   LIG d   1       2.077  78.972 109.869  0.00  0.00    -0.090 HD
ENDBRANCH   5  18
BRANCH   3  22
ATOM     22  C   LIG d   1      -2.816  77.459 111.683  0.00  0.00     0.382 C 
ATOM     23  O   LIG d   1      -3.072  76.842 112.745  0.00  0.00    -0.241 OA
ATOM     24  O   LIG d   1      -3.526  77.270 110.678  0.00  0.00    -0.241 OA
ENDBRANCH   3  22
TORSDOF 7
ENDMDL
MODEL 4
REMARK VINA RESULT:      -4.8      1.882      5.220
REMARK  7 active torsions:
REMARK  status: ('A' for Active; 'I' for Inactive)
REMARK    1  A    between atoms: C_2  and  C_3 
REMARK    2  A    between atoms: C_3  and  O_6 
REMARK    3  A    between atoms: C_3  and  C_4 
REMARK    4  A    between atoms: C_7  and  O_6 
REMARK    5  A    between atoms: C_9  and  C_10 
REMARK    6  A    between atoms: N_15  and  C_14 
REMARK    7  A    between atoms: N_20  and  C_19 
REMARK       I    between atoms: C_22  and  N_20 
ROOT
ATOM      1  C   LIG d   1      -0.990  80.224 113.171  0.00  0.00     0.161 C 
ATOM      2  C   LIG d   1      -1.437  78.959 112.754  0.00  0.00     0.016 C 
ATOM      3  C   LIG d   1      -1.032  78.351 111.543  0.00  0.00     0.038 C 
ATOM      4  C   LIG d   1      -0.029  78.905 110.734  0.00  0.00     0.028 C 
ATOM      5  C   LIG d   1       0.082  80.420 110.860  0.00  0.00    -0.047 C 
ATOM      6  C   LIG d   1       0.189  80.794 112.356  0.00  0.00     0.091 C 
ENDROOT
BRANCH   1   7
ATOM      7  O   LIG d   1      -0.659  80.187 114.573  0.00  0.00    -0.368 OA
BRANCH   7   8
ATOM      8  C   LIG d   1      -1.025  78.978 115.283  0.00  0.00     0.119 C 
BRANCH   8   9
ATOM      9  C   LIG d   1      -2.402  79.221 115.931  0.00  0.00     0.028 C 
ATOM     10  C   LIG d   1      -3.305  77.977 115.875  0.00  0.00     0.006 C 
ENDBRANCH   8   9
BRANCH   8  11
ATOM     11  C   LIG d   1      -0.071  78.706 116.449  0.00  0.00     0.028 C 
ATOM     12  C   LIG d   1      -0.152  79.777 117.549  0.00  0.00     0.006 C 
ENDBRANCH   8  11
ENDBRANCH   7   8
ENDBRANCH   1   7
BRANCH   6  13
ATOM     13  N   LIG d   1       0.217  82.264 112.573  0.00  0.00    -0.311 N 
ATOM     14  C   LIG d   1       1.342  82.974 112.638  0.00  0.00     0.210 C 
ATOM     15  C   LIG d   1       1.146  84.473 112.888  0.00  0.00     0.109 C 
ATOM     16  O   LIG d   1       2.481  82.511 112.481  0.00  0.00    -0.276 OA
ATOM     17  H   LIG d   1      -0.665  82.726 112.679  0.00  0.00     0.149 HD
ENDBRANCH   6  13
BRANCH   5  18
ATOM     18  N   LIG d   1       1.253  80.848 110.071  0.00  0.00     0.381 N 
ATOM     19  H   LIG d   1       1.523  81.773 110.341  0.00  0.00    -0.090 HD
ATOM     20  H   LIG d   1       1.001  80.864 109.098  0.00  0.00    -0.090 HD
ATOM     21  H   LIG d   1       2.010  80.218 110.216  0.00  0.00    -0.090 HD
ENDBRANCH   5  18
BRANCH   3  22
ATOM     22  C   LIG d   1      -1.663  77.194 111.111  0.00  0.00     0.382 C 
ATOM     23  O   LIG d   1      -1.000  76.142 110.948  0.00  0.00    -0.241 OA
ATOM     24  O   LIG d   1      -2.879  77.201 110.839  0.00  0.00    -0.241 OA
ENDBRANCH   3  22
TORSDOF 7
ENDMDL
MODEL 5
REMARK VINA RESULT:      -4.7      2.794      6.448
REMARK  7 active torsions:
REMARK  status: ('A' for Active; 'I' for Inactive)
REMARK    1  A    between atoms: C_2  and  C_3 
REMARK    2  A    between atoms: C_3  and  O_6 
REMARK    3  A    between atoms: C_3  and  C_4 
REMARK    4  A    between atoms: C_7  and  O_6 
REMARK    5  A    between atoms: C_9  and  C_10 
REMARK    6  A    between atoms: N_15  and  C_14 
REMARK    7  A    between atoms: N_20  and  C_19 
REMARK       I    between atoms: C_22  and  N_20 
ROOT
ATOM      1  C   LIG d   1      -0.616  79.761 113.495  0.00  0.00     0.161 C 
ATOM      2  C   LIG d   1      -1.695  79.170 112.817  0.00  0.00     0.016 C 
ATOM      3  C   LIG d   1      -2.551  78.210 113.404  0.00  0.00     0.038 C 
ATOM      4  C   LIG d   1      -2.476  77.885 114.766  0.00  0.00     0.028 C 
ATOM      5  C   LIG d   1      -1.085  78.080 115.361  0.00  0.00    -0.047 C 
ATOM      6  C   LIG d   1      -0.587  79.502 115.016  0.00  0.00     0.091 C 
ENDROOT
BRANCH   1   7
ATOM      7  O   LIG d   1      -0.588  81.177 113.228  0.00  0.00    -0.368 OA
BRANCH   7   8
ATOM      8  C   LIG d   1       0.205  81.596 112.089  0.00  0.00     0.119 C 
BRANCH   8   9
ATOM      9  C   LIG d   1       1.607  80.976 112.248  0.00  0.00     0.028 C 
ATOM     10  C   LIG d   1       2.101  80.303 110.957  0.00  0.00     0.006 C 
ENDBRANCH   8   9
BRANCH   8  11
ATOM     11  C   LIG d   1       0.428  83.111 112.092  0.00  0.00     0.028 C 
ATOM     12  C   LIG d   1      -0.349  83.830 110.978  0.00  0.00     0.006 C 
ENDBRANCH   8  11
ENDBRANCH   7   8
ENDBRANCH   1   7
BRANCH   6  13
ATOM     13  N   LIG d   1       0.801  79.746 115.487  0.00  0.00    -0.311 N 
ATOM     14  C   LIG d   1       1.088  80.312 116.658  0.00  0.00     0.210 C 
ATOM     15  C   LIG d   1       2.583  80.490 116.941  0.00  0.00     0.109 C 
ATOM     16  O   LIG d   1       0.248  80.654 117.504  0.00  0.00    -0.276 OA
ATOM     17  H   LIG d   1       1.545  79.471 114.877  0.00  0.00     0.149 HD
ENDBRANCH   6  13
BRANCH   5  18
ATOM     18  N   LIG d   1      -1.183  77.837 116.812  0.00  0.00     0.381 N 
ATOM     19  H   LIG d   1      -1.702  76.999 116.982  0.00  0.00    -0.090 HD
ATOM     20  H   LIG d   1      -1.674  78.604 117.238  0.00  0.00    -0.090 HD
ATOM     21  H   LIG d   1      -0.271  77.758 117.207  0.00  0.00    -0.090 HD
ENDBRANCH   5  18
BRANCH   3  22
ATOM     22  C   LIG d   1      -3.469  77.534 112.615  0.00  0.00     0.382 C 
ATOM     23  O   LIG d   1      -4.439  76.944 113.148  0.00  0.00    -0.241 OA
ATOM     24  O   LIG d   1      -3.314  77.468 111.380  0.00  0.00    -0.241 OA
ENDBRANCH   3  22
TORSDOF 7
ENDMDL
MODEL 6
REMARK VINA RESULT:      -4.6      2.591      5.700
REMARK  7 active torsions:
REMARK  status: ('A' for Active; 'I' for Inactive)
REMARK    1  A    between atoms: C_2  and  C_3 
REMARK    2  A    between atoms: C_3  and  O_6 
REMARK    3  A    between atoms: C_3  and  C_4 
REMARK    4  A    between atoms: C_7  and  O_6 
REMARK    5  A    between atoms: C_9  and  C_10 
REMARK    6  A    between atoms: N_15  and  C_14 
REMARK    7  A    between atoms: N_20  and  C_19 
REMARK       I    between atoms: C_22  and  N_20 
ROOT
ATOM      1  C   LIG d   1      -1.067  79.822 114.430  0.00  0.00     0.161 C 
ATOM      2  C   LIG d   1      -1.983  78.758 114.413  0.00  0.00     0.016 C 
ATOM      3  C   LIG d   1      -2.320  78.040 113.242  0.00  0.00     0.038 C 
ATOM      4  C   LIG d   1      -1.645  78.241 112.029  0.00  0.00     0.028 C 
ATOM      5  C   LIG d   1      -1.072  79.647 111.881  0.00  0.00    -0.047 C 
ATOM      6  C   LIG d   1      -0.238  79.983 113.139  0.00  0.00     0.091 C 
ENDROOT
BRANCH   1   7
ATOM      7  O   LIG d   1      -0.196  79.699 115.572  0.00  0.00    -0.368 OA
BRANCH   7   8
ATOM      8  C   LIG d   1      -0.755  79.032 116.731  0.00  0.00     0.119 C 
BRANCH   8   9
ATOM      9  C   LIG d   1      -0.821  80.065 117.872  0.00  0.00     0.028 C 
ATOM     10  C   LIG d   1      -2.014  79.825 118.813  0.00  0.00     0.006 C 
ENDBRANCH   8   9
BRANCH   8  11
ATOM     11  C   LIG d   1       0.174  77.925 117.238  0.00  0.00     0.028 C 
ATOM     12  C   LIG d   1      -0.324  76.517 116.876  0.00  0.00     0.006 C 
ENDBRANCH   8  11
ENDBRANCH   7   8
ENDBRANCH   1   7
BRANCH   6  13
ATOM     13  N   LIG d   1       0.289  81.373 113.113  0.00  0.00    -0.311 N 
ATOM     14  C   LIG d   1       1.504  81.687 112.666  0.00  0.00     0.210 C 
ATOM     15  C   LIG d   1       1.857  83.176 112.747  0.00  0.00     0.109 C 
ATOM     16  O   LIG d   1       2.310  80.880 112.180  0.00  0.00    -0.276 OA
ATOM     17  H   LIG d   1      -0.311  82.095 113.461  0.00  0.00     0.149 HD
ENDBRANCH   6  13
BRANCH   5  18
ATOM     18  N   LIG d   1      -0.279  79.676 110.637  0.00  0.00     0.381 N 
ATOM     19  H   LIG d   1      -0.174  78.747 110.281  0.00  0.00    -0.090 HD
ATOM     20  H   LIG d   1       0.635  80.040 110.843  0.00  0.00    -0.090 HD
ATOM     21  H   LIG d   1      -0.729  80.251 109.960  0.00  0.00    -0.090 HD
ENDBRANCH   5  18
BRANCH   3  22
ATOM     22  C   LIG d   1      -3.371  77.135 113.269  0.00  0.00     0.382 C 
ATOM     23  O   LIG d   1      -4.405  77.355 112.594  0.00  0.00    -0.241 OA
ATOM     24  O   LIG d   1      -3.315  76.124 113.994  0.00  0.00    -0.241 OA
ENDBRANCH   3  22
TORSDOF 7
ENDMDL
MODEL 7
REMARK VINA RESULT:      -4.5      1.606      2.444
REMARK  7 active torsions:
REMARK  status: ('A' for Active; 'I' for Inactive)
REMARK    1  A    between atoms: C_2  and  C_3 
REMARK    2  A    between atoms: C_3  and  O_6 
REMARK    3  A    between atoms: C_3  and  C_4 
REMARK    4  A    between atoms: C_7  and  O_6 
REMARK    5  A    between atoms: C_9  and  C_10 
REMARK    6  A    between atoms: N_15  and  C_14 
REMARK    7  A    between atoms: N_20  and  C_19 
REMARK       I    between atoms: C_22  and  N_20 
ROOT
ATOM      1  C   LIG d   1       0.560  80.451 113.267  0.00  0.00     0.161 C 
ATOM      2  C   LIG d   1       1.203  81.669 113.542  0.00  0.00     0.016 C 
ATOM      3  C   LIG d   1       1.562  82.603 112.542  0.00  0.00     0.038 C 
ATOM      4  C   LIG d   1       1.163  82.448 111.206  0.00  0.00     0.028 C 
ATOM      5  C   LIG d   1       0.953  80.993 110.801  0.00  0.00    -0.047 C 
ATOM      6  C   LIG d   1       0.018  80.316 111.828  0.00  0.00     0.091 C 
ENDROOT
BRANCH   1   7
ATOM      7  O   LIG d   1      -0.495  80.229 114.223  0.00  0.00    -0.368 OA
BRANCH   7   8
ATOM      8  C   LIG d   1      -0.229  79.240 115.247  0.00  0.00     0.119 C 
BRANCH   8   9
ATOM      9  C   LIG d   1      -1.492  78.367 115.387  0.00  0.00     0.028 C 
ATOM     10  C   LIG d   1      -1.220  76.887 115.071  0.00  0.00     0.006 C 
ENDBRANCH   8   9
BRANCH   8  11
ATOM     11  C   LIG d   1      -0.036  79.895 116.618  0.00  0.00     0.028 C 
ATOM     12  C   LIG d   1       1.445  80.089 116.982  0.00  0.00     0.006 C 
ENDBRANCH   8  11
ENDBRANCH   7   8
ENDBRANCH   1   7
BRANCH   6  13
ATOM     13  N   LIG d   1      -0.172  78.868 111.553  0.00  0.00    -0.311 N 
ATOM     14  C   LIG d   1      -1.359  78.265 111.589  0.00  0.00     0.210 C 
ATOM     15  C   LIG d   1      -1.330  76.762 111.294  0.00  0.00     0.109 C 
ATOM     16  O   LIG d   1      -2.438  78.838 111.805  0.00  0.00    -0.276 OA
ATOM     17  H   LIG d   1       0.646  78.333 111.338  0.00  0.00     0.149 HD
ENDBRANCH   6  13
BRANCH   5  18
ATOM     18  N   LIG d   1       0.408  80.987 109.430  0.00  0.00     0.381 N 
ATOM     19  H   LIG d   1       1.093  80.629 108.795  0.00  0.00    -0.090 HD
ATOM     20  H   LIG d   1       0.191  81.930 109.162  0.00  0.00    -0.090 HD
ATOM     21  H   LIG d   1      -0.414  80.425 109.393  0.00  0.00    -0.090 HD
ENDBRANCH   5  18
BRANCH   3  22
ATOM     22  C   LIG d   1       2.362  83.686 112.870  0.00  0.00     0.382 C 
ATOM     23  O   LIG d   1       3.406  83.916 112.212  0.00  0.00    -0.241 OA
ATOM     24  O   LIG d   1       2.078  84.411 113.842  0.00  0.00    -0.241 OA
ENDBRANCH   3  22
TORSDOF 7
ENDMDL
MODEL 8
REMARK VINA RESULT:      -4.4      3.096      6.428
REMARK  7 active torsions:
REMARK  status: ('A' for Active; 'I' for Inactive)
REMARK    1  A    between atoms: C_2  and  C_3 
REMARK    2  A    between atoms: C_3  and  O_6 
REMARK    3  A    between atoms: C_3  and  C_4 
REMARK    4  A    between atoms: C_7  and  O_6 
REMARK    5  A    between atoms: C_9  and  C_10 
REMARK    6  A    between atoms: N_15  and  C_14 
REMARK    7  A    between atoms: N_20  and  C_19 
REMARK       I    between atoms: C_22  and  N_20 
ROOT
ATOM      1  C   LIG d   1      -2.085  79.430 115.002  0.00  0.00     0.161 C 
ATOM      2  C   LIG d   1      -2.673  78.223 115.415  0.00  0.00     0.016 C 
ATOM      3  C   LIG d   1      -2.967  77.158 114.532  0.00  0.00     0.038 C 
ATOM      4  C   LIG d   1      -2.550  77.169 113.193  0.00  0.00     0.028 C 
ATOM      5  C   LIG d   1      -2.404  78.573 112.615  0.00  0.00    -0.047 C 
ATOM      6  C   LIG d   1      -1.523  79.417 113.565  0.00  0.00     0.091 C 
ENDROOT
BRANCH   1   7
ATOM      7  O   LIG d   1      -1.060  79.819 115.937  0.00  0.00    -0.368 OA
BRANCH   7   8
ATOM      8  C   LIG d   1      -0.986  79.045 117.160  0.00  0.00     0.119 C 
BRANCH   8   9
ATOM      9  C   LIG d   1      -1.186  80.019 118.337  0.00  0.00     0.028 C 
ATOM     10  C   LIG d   1      -2.599  79.931 118.938  0.00  0.00     0.006 C 
ENDBRANCH   8   9
BRANCH   8  11
ATOM     11  C   LIG d   1       0.412  78.451 117.359  0.00  0.00     0.028 C 
ATOM     12  C   LIG d   1       0.383  76.937 117.622  0.00  0.00     0.006 C 
ENDBRANCH   8  11
ENDBRANCH   7   8
ENDBRANCH   1   7
BRANCH   6  13
ATOM     13  N   LIG d   1      -1.398  80.828 113.118  0.00  0.00    -0.311 N 
ATOM     14  C   LIG d   1      -0.406  81.268 112.345  0.00  0.00     0.210 C 
ATOM     15  C   LIG d   1      -0.456  82.763 112.017  0.00  0.00     0.109 C 
ATOM     16  O   LIG d   1       0.492  80.554 111.873  0.00  0.00    -0.276 OA
ATOM     17  H   LIG d   1      -2.102  81.469 113.428  0.00  0.00     0.149 HD
ENDBRANCH   6  13
BRANCH   5  18
ATOM     18  N   LIG d   1      -1.834  78.441 111.262  0.00  0.00     0.381 N 
ATOM     19  H   LIG d   1      -0.839  78.352 111.320  0.00  0.00    -0.090 HD
ATOM     20  H   LIG d   1      -2.046  79.272 110.737  0.00  0.00    -0.090 HD
ATOM     21  H   LIG d   1      -2.219  77.644 110.805  0.00  0.00    -0.090 HD
ENDBRANCH   5  18
BRANCH   3  22
ATOM     22  C   LIG d   1      -3.720  76.083 114.979  0.00  0.00     0.382 C 
ATOM     23  O   LIG d   1      -4.440  75.444 114.174  0.00  0.00    -0.241 OA
ATOM     24  O   LIG d   1      -3.722  75.771 116.185  0.00  0.00    -0.241 OA
ENDBRANCH   3  22
TORSDOF 7
ENDMDL
MODEL 9
REMARK VINA RESULT:      -4.3      2.246      3.748
REMARK  7 active torsions:
REMARK  status: ('A' for Active; 'I' for Inactive)
REMARK    1  A    between atoms: C_2  and  C_3 
REMARK    2  A    between atoms: C_3  and  O_6 
REMARK    3  A    between atoms: C_3  and  C_4 
REMARK    4  A    between atoms: C_7  and  O_6 
REMARK    5  A    between atoms: C_9  and  C_10 
REMARK    6  A    between atoms: N_15  and  C_14 
REMARK    7  A    between atoms: N_20  and  C_19 
REMARK       I    between atoms: C_22  and  N_20 
ROOT
ATOM      1  C   LIG d   1      -0.968  80.769 112.657  0.00  0.00     0.161 C 
ATOM      2  C   LIG d   1      -0.046  81.455 111.850  0.00  0.00     0.016 C 
ATOM      3  C   LIG d   1       1.297  81.686 112.226  0.00  0.00     0.038 C 
ATOM      4  C   LIG d   1       1.854  81.111 113.379  0.00  0.00     0.028 C 
ATOM      5  C   LIG d   1       0.828  80.835 114.473  0.00  0.00    -0.047 C 
ATOM      6  C   LIG d   1      -0.350  80.039 113.868  0.00  0.00     0.091 C 
ENDROOT
BRANCH   1   7
ATOM      7  O   LIG d   1      -1.732  79.849 111.854  0.00  0.00    -0.368 OA
BRANCH   7   8
ATOM      8  C   LIG d   1      -1.127  78.553 111.619  0.00  0.00     0.119 C 
BRANCH   8   9
ATOM      9  C   LIG d   1      -0.530  78.572 110.199  0.00  0.00     0.028 C 
ATOM     10  C   LIG d   1       1.006  78.488 110.206  0.00  0.00     0.006 C 
ENDBRANCH   8   9
BRANCH   8  11
ATOM     11  C   LIG d   1      -2.180  77.441 111.602  0.00  0.00     0.028 C 
ATOM     12  C   LIG d   1      -3.364  77.727 112.539  0.00  0.00     0.006 C 
ENDBRANCH   8  11
ENDBRANCH   7   8
ENDBRANCH   1   7
BRANCH   6  13
ATOM     13  N   LIG d   1      -1.438  79.800 114.852  0.00  0.00    -0.311 N 
ATOM     14  C   LIG d   1      -1.517  78.705 115.607  0.00  0.00     0.210 C 
ATOM     15  C   LIG d   1      -2.729  78.650 116.542  0.00  0.00     0.109 C 
ATOM     16  O   LIG d   1      -0.680  77.789 115.614  0.00  0.00    -0.276 OA
ATOM     17  H   LIG d   1      -2.142  80.507 114.934  0.00  0.00     0.149 HD
ENDBRANCH   6  13
BRANCH   5  18
ATOM     18  N   LIG d   1       1.518  80.112 115.558  0.00  0.00     0.381 N 
ATOM     19  H   LIG d   1       0.869  79.898 116.289  0.00  0.00    -0.090 HD
ATOM     20  H   LIG d   1       2.236  80.704 115.939  0.00  0.00    -0.090 HD
ATOM     21  H   LIG d   1       1.922  79.273 115.206  0.00  0.00    -0.090 HD
ENDBRANCH   5  18
BRANCH   3  22
ATOM     22  C   LIG d   1       2.089  82.533 111.465  0.00  0.00     0.382 C 
ATOM     23  O   LIG d   1       3.226  82.160 111.091  0.00  0.00    -0.241 OA
ATOM     24  O   LIG d   1       1.697  83.682 111.186  0.00  0.00    -0.241 OA
ENDBRANCH   3  22
TORSDOF 7
ENDMDL
