MODEL 1
REMARK VINA RESULT:      -5.0      0.000      0.000
REMARK  7 active torsions:
REMARK  status: ('A' for Active; 'I' for Inactive)
REMARK    1  A    between atoms: C_2  and  C_3 
REMARK    2  A    between atoms: C_3  and  O_6 
REMARK    3  A    between atoms: C_3  and  C_4 
REMARK    4  A    between atoms: C_7  and  O_6 
REMARK    5  A    between atoms: C_9  and  C_10 
REMARK    6  A    between atoms: N_15  and  C_14 
REMARK    7  A    between atoms: N_20  and  C_19 
REMARK       I    between atoms: C_22  and  N_20 
ROOT
ATOM      1  C   LIG d   1      -0.499  80.907 111.559  0.00  0.00     0.161 C 
ATOM      2  C   LIG d   1      -1.579  80.143 112.033  0.00  0.00     0.016 C 
ATOM      3  C   LIG d   1      -1.725  78.761 111.776  0.00  0.00     0.038 C 
ATOM      4  C   LIG d   1      -0.717  78.011 111.151  0.00  0.00     0.028 C 
ATOM      5  C   LIG d   1       0.157  78.837 110.213  0.00  0.00    -0.047 C 
ATOM      6  C   LIG d   1       0.666  80.085 110.970  0.00  0.00     0.091 C 
ENDROOT
BRANCH   1   7
ATOM      7  O   LIG d   1      -0.020  81.777 112.604  0.00  0.00    -0.368 OA
BRANCH   7   8
ATOM      8  C   LIG d   1      -0.292  83.190 112.432  0.00  0.00     0.119 C 
BRANCH   8   9
ATOM      9  C   LIG d   1      -0.694  83.407 110.960  0.00  0.00     0.028 C 
ATOM     10  C   LIG d   1       0.191  84.451 110.258  0.00  0.00     0.006 C 
ENDBRANCH   8   9
BRANCH   8  11
ATOM     11  C   LIG d   1       0.973  84.029 112.635  0.00  0.00     0.028 C 
ATOM     12  C   LIG d   1       1.737  83.655 113.915  0.00  0.00     0.006 C 
ENDBRANCH   8  11
ENDBRANCH   7   8
ENDBRANCH   1   7
BRANCH   6  13
ATOM     13  N   LIG d   1       1.461  80.990 110.101  0.00  0.00    -0.311 N 
ATOM     14  C   LIG d   1       2.622  81.530 110.470  0.00  0.00     0.210 C 
ATOM     15  C   LIG d   1       3.267  82.450 109.430  0.00  0.00     0.109 C 
ATOM     16  O   LIG d   1       3.193  81.308 111.548  0.00  0.00    -0.276 OA
ATOM     17  H   LIG d   1       1.087  81.199 109.196  0.00  0.00     0.149 HD
ENDBRANCH   6  13
BRANCH   5  18
ATOM     18  N   LIG d   1       1.248  77.964 109.738  0.00  0.00     0.381 N 
ATOM     19  H   LIG d   1       2.049  78.518 109.509  0.00  0.00    -0.090 HD
ATOM     20  H   LIG d   1       0.945  77.489 108.907  0.00  0.00    -0.090 HD
ATOM     21  H   LIG d   1       1.484  77.300 110.442  0.00  0.00    -0.090 HD
ENDBRANCH   5  18
BRANCH   3  22
ATOM     22  C   LIG d   1      -2.909  78.121 112.111  0.00  0.00     0.382 C 
ATOM     23  O   LIG d   1      -3.335  77.178 111.402  0.00  0.00    -0.241 OA
ATOM     24  O   LIG d   1      -3.580  78.505 113.088  0.00  0.00    -0.241 OA
ENDBRANCH   3  22
TORSDOF 7
ENDMDL
MODEL 2
REMARK VINA RESULT:      -4.6      4.311      7.092
REMARK  7 active torsions:
REMARK  status: ('A' for Active; 'I' for Inactive)
REMARK    1  A    between atoms: C_2  and  C_3 
REMARK    2  A    between atoms: C_3  and  O_6 
REMARK    3  A    between atoms: C_3  and  C_4 
REMARK    4  A    between atoms: C_7  and  O_6 
REMARK    5  A    between atoms: C_9  and  C_10 
REMARK    6  A    between atoms: N_15  and  C_14 
REMARK    7  A    between atoms: N_20  and  C_19 
REMARK       I    between atoms: C_22  and  N_20 
ROOT
ATOM      1  C   LIG d   1      -2.779  78.397 115.107  0.00  0.00     0.161 C 
ATOM      2  C   LIG d   1      -2.986  79.614 114.437  0.00  0.00     0.016 C 
ATOM      3  C   LIG d   1      -2.607  79.837 113.093  0.00  0.00     0.038 C 
ATOM      4  C   LIG d   1      -2.127  78.801 112.277  0.00  0.00     0.028 C 
ATOM      5  C   LIG d   1      -1.432  77.689 113.055  0.00  0.00    -0.047 C 
ATOM      6  C   LIG d   1      -2.359  77.222 114.200  0.00  0.00     0.091 C 
ENDROOT
BRANCH   1   7
ATOM      7  O   LIG d   1      -3.955  78.050 115.865  0.00  0.00    -0.368 OA
BRANCH   7   8
ATOM      8  C   LIG d   1      -3.860  78.213 117.301  0.00  0.00     0.119 C 
BRANCH   8   9
ATOM      9  C   LIG d   1      -2.366  78.359 117.652  0.00  0.00     0.028 C 
ATOM     10  C   LIG d   1      -2.062  79.677 118.385  0.00  0.00     0.006 C 
ENDBRANCH   8   9
BRANCH   8  11
ATOM     11  C   LIG d   1      -4.329  76.955 118.038  0.00  0.00     0.028 C 
ATOM     12  C   LIG d   1      -3.463  76.625 119.264  0.00  0.00     0.006 C 
ENDBRANCH   8  11
ENDBRANCH   7   8
ENDBRANCH   1   7
BRANCH   6  13
ATOM     13  N   LIG d   1      -1.721  76.193 115.062  0.00  0.00    -0.311 N 
ATOM     14  C   LIG d   1      -2.352  75.102 115.491  0.00  0.00     0.210 C 
ATOM     15  C   LIG d   1      -1.516  74.181 116.386  0.00  0.00     0.109 C 
ATOM     16  O   LIG d   1      -3.514  74.793 115.189  0.00  0.00    -0.276 OA
ATOM     17  H   LIG d   1      -0.768  76.349 115.329  0.00  0.00     0.149 HD
ENDBRANCH   6  13
BRANCH   5  18
ATOM     18  N   LIG d   1      -1.105  76.614 112.099  0.00  0.00     0.381 N 
ATOM     19  H   LIG d   1      -0.358  76.907 111.502  0.00  0.00    -0.090 HD
ATOM     20  H   LIG d   1      -1.912  76.430 111.529  0.00  0.00    -0.090 HD
ATOM     21  H   LIG d   1      -0.843  75.789 112.592  0.00  0.00    -0.090 HD
ENDBRANCH   5  18
BRANCH   3  22
ATOM     22  C   LIG d   1      -2.668  81.117 112.565  0.00  0.00     0.382 C 
ATOM     23  O   LIG d   1      -1.620  81.683 112.170  0.00  0.00    -0.241 OA
ATOM     24  O   LIG d   1      -3.751  81.731 112.520  0.00  0.00    -0.241 OA
ENDBRANCH   3  22
TORSDOF 7
ENDMDL
MODEL 3
REMARK VINA RESULT:      -4.6      3.199      5.423
REMARK  7 active torsions:
REMARK  status: ('A' for Active; 'I' for Inactive)
REMARK    1  A    between atoms: C_2  and  C_3 
REMARK    2  A    between atoms: C_3  and  O_6 
REMARK    3  A    between atoms: C_3  and  C_4 
REMARK    4  A    between atoms: C_7  and  O_6 
REMARK    5  A    between atoms: C_9  and  C_10 
REMARK    6  A    between atoms: N_15  and  C_14 
REMARK    7  A    between atoms: N_20  and  C_19 
REMARK       I    between atoms: C_22  and  N_20 
ROOT
ATOM      1  C   LIG d   1      -1.805  77.576 113.077  0.00  0.00     0.161 C 
ATOM      2  C   LIG d   1      -2.605  76.533 113.573  0.00  0.00     0.016 C 
ATOM      3  C   LIG d   1      -3.020  76.444 114.921  0.00  0.00     0.038 C 
ATOM      4  C   LIG d   1      -2.786  77.479 115.839  0.00  0.00     0.028 C 
ATOM      5  C   LIG d   1      -1.551  78.312 115.511  0.00  0.00    -0.047 C 
ATOM      6  C   LIG d   1      -1.633  78.772 114.037  0.00  0.00     0.091 C 
ENDROOT
BRANCH   1   7
ATOM      7  O   LIG d   1      -2.318  78.024 111.806  0.00  0.00    -0.368 OA
BRANCH   7   8
ATOM      8  C   LIG d   1      -1.613  77.551 110.632  0.00  0.00     0.119 C 
BRANCH   8   9
ATOM      9  C   LIG d   1      -0.404  76.728 111.118  0.00  0.00     0.028 C 
ATOM     10  C   LIG d   1      -0.428  75.283 110.592  0.00  0.00     0.006 C 
ENDBRANCH   8   9
BRANCH   8  11
ATOM     11  C   LIG d   1      -1.017  78.714 109.834  0.00  0.00     0.028 C 
ATOM     12  C   LIG d   1       0.520  78.730 109.862  0.00  0.00     0.006 C 
ENDBRANCH   8  11
ENDBRANCH   7   8
ENDBRANCH   1   7
BRANCH   6  13
ATOM     13  N   LIG d   1      -0.424  79.522 113.609  0.00  0.00    -0.311 N 
ATOM     14  C   LIG d   1      -0.469  80.611 112.844  0.00  0.00     0.210 C 
ATOM     15  C   LIG d   1       0.895  81.219 112.503  0.00  0.00     0.109 C 
ATOM     16  O   LIG d   1      -1.512  81.150 112.441  0.00  0.00    -0.276 OA
ATOM     17  H   LIG d   1       0.462  79.172 113.917  0.00  0.00     0.149 HD
ENDBRANCH   6  13
BRANCH   5  18
ATOM     18  N   LIG d   1      -1.505  79.436 116.465  0.00  0.00     0.381 N 
ATOM     19  H   LIG d   1      -0.920  79.197 117.241  0.00  0.00    -0.090 HD
ATOM     20  H   LIG d   1      -2.433  79.607 116.811  0.00  0.00    -0.090 HD
ATOM     21  H   LIG d   1      -1.155  80.252 116.014  0.00  0.00    -0.090 HD
ENDBRANCH   5  18
BRANCH   3  22
ATOM     22  C   LIG d   1      -3.642  75.290 115.374  0.00  0.00     0.382 C 
ATOM     23  O   LIG d   1      -3.369  74.836 116.511  0.00  0.00    -0.241 OA
ATOM     24  O   LIG d   1      -4.439  74.674 114.642  0.00  0.00    -0.241 OA
ENDBRANCH   3  22
TORSDOF 7
ENDMDL
MODEL 4
REMARK VINA RESULT:      -4.5      2.577      4.406
REMARK  7 active torsions:
REMARK  status: ('A' for Active; 'I' for Inactive)
REMARK    1  A    between atoms: C_2  and  C_3 
REMARK    2  A    between atoms: C_3  and  O_6 
REMARK    3  A    between atoms: C_3  and  C_4 
REMARK    4  A    between atoms: C_7  and  O_6 
REMARK    5  A    between atoms: C_9  and  C_10 
REMARK    6  A    between atoms: N_15  and  C_14 
REMARK    7  A    between atoms: N_20  and  C_19 
REMARK       I    between atoms: C_22  and  N_20 
ROOT
ATOM      1  C   LIG d   1      -1.276  79.671 113.165  0.00  0.00     0.161 C 
ATOM      2  C   LIG d   1      -1.789  78.467 112.655  0.00  0.00     0.016 C 
ATOM      3  C   LIG d   1      -1.453  77.956 111.380  0.00  0.00     0.038 C 
ATOM      4  C   LIG d   1      -0.457  78.543 110.585  0.00  0.00     0.028 C 
ATOM      5  C   LIG d   1      -0.280  80.036 110.840  0.00  0.00    -0.047 C 
ATOM      6  C   LIG d   1      -0.104  80.268 112.358  0.00  0.00     0.091 C 
ENDROOT
BRANCH   1   7
ATOM      7  O   LIG d   1      -0.896  79.495 114.544  0.00  0.00    -0.368 OA
BRANCH   7   8
ATOM      8  C   LIG d   1      -1.593  78.452 115.269  0.00  0.00     0.119 C 
BRANCH   8   9
ATOM      9  C   LIG d   1      -2.242  79.102 116.507  0.00  0.00     0.028 C 
ATOM     10  C   LIG d   1      -3.757  78.851 116.575  0.00  0.00     0.006 C 
ENDBRANCH   8   9
BRANCH   8  11
ATOM     11  C   LIG d   1      -0.616  77.410 115.823  0.00  0.00     0.028 C 
ATOM     12  C   LIG d   1      -0.964  75.977 115.390  0.00  0.00     0.006 C 
ENDBRANCH   8  11
ENDBRANCH   7   8
ENDBRANCH   1   7
BRANCH   6  13
ATOM     13  N   LIG d   1      -0.008  81.710 112.704  0.00  0.00    -0.311 N 
ATOM     14  C   LIG d   1       1.147  82.368 112.792  0.00  0.00     0.210 C 
ATOM     15  C   LIG d   1       1.022  83.844 113.181  0.00  0.00     0.109 C 
ATOM     16  O   LIG d   1       2.260  81.877 112.554  0.00  0.00    -0.276 OA
ATOM     17  H   LIG d   1      -0.866  82.194 112.883  0.00  0.00     0.149 HD
ENDBRANCH   6  13
BRANCH   5  18
ATOM     18  N   LIG d   1       0.878  80.489 110.047  0.00  0.00     0.381 N 
ATOM     19  H   LIG d   1       1.448  81.100 110.599  0.00  0.00    -0.090 HD
ATOM     20  H   LIG d   1       0.546  81.003 109.250  0.00  0.00    -0.090 HD
ATOM     21  H   LIG d   1       1.414  79.705 109.747  0.00  0.00    -0.090 HD
ENDBRANCH   5  18
BRANCH   3  22
ATOM     22  C   LIG d   1      -2.145  76.868 110.872  0.00  0.00     0.382 C 
ATOM     23  O   LIG d   1      -3.341  76.997 110.513  0.00  0.00    -0.241 OA
ATOM     24  O   LIG d   1      -1.604  75.748 110.809  0.00  0.00    -0.241 OA
ENDBRANCH   3  22
TORSDOF 7
ENDMDL
MODEL 5
REMARK VINA RESULT:      -4.2      3.659      6.691
REMARK  7 active torsions:
REMARK  status: ('A' for Active; 'I' for Inactive)
REMARK    1  A    between atoms: C_2  and  C_3 
REMARK    2  A    between atoms: C_3  and  O_6 
REMARK    3  A    between atoms: C_3  and  C_4 
REMARK    4  A    between atoms: C_7  and  O_6 
REMARK    5  A    between atoms: C_9  and  C_10 
REMARK    6  A    between atoms: N_15  and  C_14 
REMARK    7  A    between atoms: N_20  and  C_19 
REMARK       I    between atoms: C_22  and  N_20 
ROOT
ATOM      1  C   LIG d   1      -2.555  77.320 113.001  0.00  0.00     0.161 C 
ATOM      2  C   LIG d   1      -2.681  78.624 112.492  0.00  0.00     0.016 C 
ATOM      3  C   LIG d   1      -2.132  79.763 113.125  0.00  0.00     0.038 C 
ATOM      4  C   LIG d   1      -1.284  79.656 114.237  0.00  0.00     0.028 C 
ATOM      5  C   LIG d   1      -1.542  78.410 115.078  0.00  0.00    -0.047 C 
ATOM      6  C   LIG d   1      -1.540  77.172 114.154  0.00  0.00     0.091 C 
ENDROOT
BRANCH   1   7
ATOM      7  O   LIG d   1      -2.238  76.407 111.933  0.00  0.00    -0.368 OA
BRANCH   7   8
ATOM      8  C   LIG d   1      -0.913  76.533 111.359  0.00  0.00     0.119 C 
BRANCH   8   9
ATOM      9  C   LIG d   1      -0.986  77.608 110.257  0.00  0.00     0.028 C 
ATOM     10  C   LIG d   1       0.273  78.489 110.213  0.00  0.00     0.006 C 
ENDBRANCH   8   9
BRANCH   8  11
ATOM     11  C   LIG d   1      -0.491  75.246 110.644  0.00  0.00     0.028 C 
ATOM     12  C   LIG d   1       0.493  74.402 111.469  0.00  0.00     0.006 C 
ENDBRANCH   8  11
ENDBRANCH   7   8
ENDBRANCH   1   7
BRANCH   6  13
ATOM     13  N   LIG d   1      -1.869  75.919 114.884  0.00  0.00    -0.311 N 
ATOM     14  C   LIG d   1      -3.020  75.726 115.526  0.00  0.00     0.210 C 
ATOM     15  C   LIG d   1      -3.147  74.371 116.230  0.00  0.00     0.109 C 
ATOM     16  O   LIG d   1      -3.960  76.534 115.552  0.00  0.00    -0.276 OA
ATOM     17  H   LIG d   1      -1.175  75.198 114.887  0.00  0.00     0.149 HD
ENDBRANCH   6  13
BRANCH   5  18
ATOM     18  N   LIG d   1      -0.501  78.354 116.122  0.00  0.00     0.381 N 
ATOM     19  H   LIG d   1      -0.892  78.620 117.004  0.00  0.00    -0.090 HD
ATOM     20  H   LIG d   1       0.227  79.006 115.891  0.00  0.00    -0.090 HD
ATOM     21  H   LIG d   1      -0.126  77.433 116.181  0.00  0.00    -0.090 HD
ENDBRANCH   5  18
BRANCH   3  22
ATOM     22  C   LIG d   1      -2.462  81.029 112.667  0.00  0.00     0.382 C 
ATOM     23  O   LIG d   1      -1.556  81.829 112.327  0.00  0.00    -0.241 OA
ATOM     24  O   LIG d   1      -3.651  81.398 112.632  0.00  0.00    -0.241 OA
ENDBRANCH   3  22
TORSDOF 7
ENDMDL
MODEL 6
REMARK VINA RESULT:      -4.1      3.606      6.555
REMARK  7 active torsions:
REMARK  status: ('A' for Active; 'I' for Inactive)
REMARK    1  A    between atoms: C_2  and  C_3 
REMARK    2  A    between atoms: C_3  and  O_6 
REMARK    3  A    between atoms: C_3  and  C_4 
REMARK    4  A    between atoms: C_7  and  O_6 
REMARK    5  A    between atoms: C_9  and  C_10 
REMARK    6  A    between atoms: N_15  and  C_14 
REMARK    7  A    between atoms: N_20  and  C_19 
REMARK       I    between atoms: C_22  and  N_20 
ROOT
ATOM      1  C   LIG d   1      -1.382  78.742 114.162  0.00  0.00     0.161 C 
ATOM      2  C   LIG d   1      -0.783  79.815 113.480  0.00  0.00     0.016 C 
ATOM      3  C   LIG d   1      -0.694  79.888 112.071  0.00  0.00     0.038 C 
ATOM      4  C   LIG d   1      -1.336  78.960 111.238  0.00  0.00     0.028 C 
ATOM      5  C   LIG d   1      -1.519  77.591 111.885  0.00  0.00    -0.047 C 
ATOM      6  C   LIG d   1      -2.185  77.775 113.268  0.00  0.00     0.091 C 
ENDROOT
BRANCH   1   7
ATOM      7  O   LIG d   1      -2.211  79.243 115.229  0.00  0.00    -0.368 OA
BRANCH   7   8
ATOM      8  C   LIG d   1      -1.728  79.008 116.575  0.00  0.00     0.119 C 
BRANCH   8   9
ATOM      9  C   LIG d   1      -0.593  77.969 116.485  0.00  0.00     0.028 C 
ATOM     10  C   LIG d   1      -0.530  77.060 117.724  0.00  0.00     0.006 C 
ENDBRANCH   8   9
BRANCH   8  11
ATOM     11  C   LIG d   1      -2.806  78.356 117.447  0.00  0.00     0.028 C 
ATOM     12  C   LIG d   1      -4.110  79.168 117.489  0.00  0.00     0.006 C 
ENDBRANCH   8  11
ENDBRANCH   7   8
ENDBRANCH   1   7
BRANCH   6  13
ATOM     13  N   LIG d   1      -2.324  76.492 114.005  0.00  0.00    -0.311 N 
ATOM     14  C   LIG d   1      -3.411  76.159 114.699  0.00  0.00     0.210 C 
ATOM     15  C   LIG d   1      -3.339  74.799 115.400  0.00  0.00     0.109 C 
ATOM     16  O   LIG d   1      -4.440  76.848 114.775  0.00  0.00    -0.276 OA
ATOM     17  H   LIG d   1      -1.548  75.860 113.971  0.00  0.00     0.149 HD
ENDBRANCH   6  13
BRANCH   5  18
ATOM     18  N   LIG d   1      -2.321  76.766 110.962  0.00  0.00     0.381 N 
ATOM     19  H   LIG d   1      -3.253  77.125 110.910  0.00  0.00    -0.090 HD
ATOM     20  H   LIG d   1      -2.363  75.827 111.318  0.00  0.00    -0.090 HD
ATOM     21  H   LIG d   1      -1.906  76.766 110.056  0.00  0.00    -0.090 HD
ENDBRANCH   5  18
BRANCH   3  22
ATOM     22  C   LIG d   1       0.078  80.879 111.482  0.00  0.00     0.382 C 
ATOM     23  O   LIG d   1      -0.401  81.581 110.560  0.00  0.00    -0.241 OA
ATOM     24  O   LIG d   1       1.261  81.049 111.832  0.00  0.00    -0.241 OA
ENDBRANCH   3  22
TORSDOF 7
ENDMDL
MODEL 7
REMARK VINA RESULT:      -4.1      4.581      6.142
REMARK  7 active torsions:
REMARK  status: ('A' for Active; 'I' for Inactive)
REMARK    1  A    between atoms: C_2  and  C_3 
REMARK    2  A    between atoms: C_3  and  O_6 
REMARK    3  A    between atoms: C_3  and  C_4 
REMARK    4  A    between atoms: C_7  and  O_6 
REMARK    5  A    between atoms: C_9  and  C_10 
REMARK    6  A    between atoms: N_15  and  C_14 
REMARK    7  A    between atoms: N_20  and  C_19 
REMARK       I    between atoms: C_22  and  N_20 
ROOT
ATOM      1  C   LIG d   1      -1.105  77.849 115.068  0.00  0.00     0.161 C 
ATOM      2  C   LIG d   1      -2.154  76.964 114.768  0.00  0.00     0.016 C 
ATOM      3  C   LIG d   1      -3.031  76.437 115.744  0.00  0.00     0.038 C 
ATOM      4  C   LIG d   1      -3.010  76.879 117.075  0.00  0.00     0.028 C 
ATOM      5  C   LIG d   1      -1.645  77.390 117.523  0.00  0.00    -0.047 C 
ATOM      6  C   LIG d   1      -1.137  78.429 116.498  0.00  0.00     0.091 C 
ENDROOT
BRANCH   1   7
ATOM      7  O   LIG d   1      -1.069  78.912 114.097  0.00  0.00    -0.368 OA
BRANCH   7   8
ATOM      8  C   LIG d   1      -2.123  78.904 113.103  0.00  0.00     0.119 C 
BRANCH   8   9
ATOM      9  C   LIG d   1      -1.452  78.866 111.716  0.00  0.00     0.028 C 
ATOM     10  C   LIG d   1      -1.694  77.536 110.983  0.00  0.00     0.006 C 
ENDBRANCH   8   9
BRANCH   8  11
ATOM     11  C   LIG d   1      -2.926  80.208 113.130  0.00  0.00     0.028 C 
ATOM     12  C   LIG d   1      -2.171  81.385 112.493  0.00  0.00     0.006 C 
ENDBRANCH   8  11
ENDBRANCH   7   8
ENDBRANCH   1   7
BRANCH   6  13
ATOM     13  N   LIG d   1       0.231  78.917 116.816  0.00  0.00    -0.311 N 
ATOM     14  C   LIG d   1       0.469  79.992 117.564  0.00  0.00     0.210 C 
ATOM     15  C   LIG d   1       1.951  80.333 117.752  0.00  0.00     0.109 C 
ATOM     16  O   LIG d   1      -0.404  80.678 118.116  0.00  0.00    -0.276 OA
ATOM     17  H   LIG d   1       0.999  78.401 116.434  0.00  0.00     0.149 HD
ENDBRANCH   6  13
BRANCH   5  18
ATOM     18  N   LIG d   1      -1.800  77.945 118.881  0.00  0.00     0.381 N 
ATOM     19  H   LIG d   1      -1.598  77.240 119.561  0.00  0.00    -0.090 HD
ATOM     20  H   LIG d   1      -2.753  78.239 119.005  0.00  0.00    -0.090 HD
ATOM     21  H   LIG d   1      -1.187  78.721 119.004  0.00  0.00    -0.090 HD
ENDBRANCH   5  18
BRANCH   3  22
ATOM     22  C   LIG d   1      -3.914  75.425 115.400  0.00  0.00     0.382 C 
ATOM     23  O   LIG d   1      -4.155  74.500 116.211  0.00  0.00    -0.241 OA
ATOM     24  O   LIG d   1      -4.440  75.403 114.270  0.00  0.00    -0.241 OA
ENDBRANCH   3  22
TORSDOF 7
ENDMDL
MODEL 8
REMARK VINA RESULT:      -4.0      3.892      5.137
REMARK  7 active torsions:
REMARK  status: ('A' for Active; 'I' for Inactive)
REMARK    1  A    between atoms: C_2  and  C_3 
REMARK    2  A    between atoms: C_3  and  O_6 
REMARK    3  A    between atoms: C_3  and  C_4 
REMARK    4  A    between atoms: C_7  and  O_6 
REMARK    5  A    between atoms: C_9  and  C_10 
REMARK    6  A    between atoms: N_15  and  C_14 
REMARK    7  A    between atoms: N_20  and  C_19 
REMARK       I    between atoms: C_22  and  N_20 
ROOT
ATOM      1  C   LIG d   1      -2.022  79.050 114.897  0.00  0.00     0.161 C 
ATOM      2  C   LIG d   1      -2.687  77.915 115.390  0.00  0.00     0.016 C 
ATOM      3  C   LIG d   1      -3.140  76.859 114.566  0.00  0.00     0.038 C 
ATOM      4  C   LIG d   1      -2.824  76.795 113.201  0.00  0.00     0.028 C 
ATOM      5  C   LIG d   1      -2.592  78.164 112.569  0.00  0.00    -0.047 C 
ATOM      6  C   LIG d   1      -1.570  78.945 113.425  0.00  0.00     0.091 C 
ENDROOT
BRANCH   1   7
ATOM      7  O   LIG d   1      -0.900  79.366 115.744  0.00  0.00    -0.368 OA
BRANCH   7   8
ATOM      8  C   LIG d   1      -0.931  78.803 117.079  0.00  0.00     0.119 C 
BRANCH   8   9
ATOM      9  C   LIG d   1      -0.789  79.970 118.076  0.00  0.00     0.028 C 
ATOM     10  C   LIG d   1       0.611  80.606 118.039  0.00  0.00     0.006 C 
ENDBRANCH   8   9
BRANCH   8  11
ATOM     11  C   LIG d   1       0.282  77.903 117.332  0.00  0.00     0.028 C 
ATOM     12  C   LIG d   1      -0.111  76.454 117.664  0.00  0.00     0.006 C 
ENDBRANCH   8  11
ENDBRANCH   7   8
ENDBRANCH   1   7
BRANCH   6  13
ATOM     13  N   LIG d   1      -1.349  80.327 112.923  0.00  0.00    -0.311 N 
ATOM     14  C   LIG d   1      -0.450  80.633 111.990  0.00  0.00     0.210 C 
ATOM     15  C   LIG d   1      -0.371  82.120 111.631  0.00  0.00     0.109 C 
ATOM     16  O   LIG d   1       0.267  79.810 111.402  0.00  0.00    -0.276 OA
ATOM     17  H   LIG d   1      -1.911  81.053 113.324  0.00  0.00     0.149 HD
ENDBRANCH   6  13
BRANCH   5  18
ATOM     18  N   LIG d   1      -2.137  77.943 111.183  0.00  0.00     0.381 N 
ATOM     19  H   LIG d   1      -1.411  77.254 111.171  0.00  0.00    -0.090 HD
ATOM     20  H   LIG d   1      -1.763  78.803 110.823  0.00  0.00    -0.090 HD
ATOM     21  H   LIG d   1      -2.900  77.642 110.617  0.00  0.00    -0.090 HD
ENDBRANCH   5  18
BRANCH   3  22
ATOM     22  C   LIG d   1      -3.954  75.872 115.101  0.00  0.00     0.382 C 
ATOM     23  O   LIG d   1      -4.440  74.988 114.354  0.00  0.00    -0.241 OA
ATOM     24  O   LIG d   1      -4.245  75.879 116.312  0.00  0.00    -0.241 OA
ENDBRANCH   3  22
TORSDOF 7
ENDMDL
MODEL 9
REMARK VINA RESULT:      -4.0      5.566      7.610
REMARK  7 active torsions:
REMARK  status: ('A' for Active; 'I' for Inactive)
REMARK    1  A    between atoms: C_2  and  C_3 
REMARK    2  A    between atoms: C_3  and  O_6 
REMARK    3  A    between atoms: C_3  and  C_4 
REMARK    4  A    between atoms: C_7  and  O_6 
REMARK    5  A    between atoms: C_9  and  C_10 
REMARK    6  A    between atoms: N_15  and  C_14 
REMARK    7  A    between atoms: N_20  and  C_19 
REMARK       I    between atoms: C_22  and  N_20 
ROOT
ATOM      1  C   LIG d   1      -2.391  77.998 116.537  0.00  0.00     0.161 C 
ATOM      2  C   LIG d   1      -2.759  78.882 115.509  0.00  0.00     0.016 C 
ATOM      3  C   LIG d   1      -2.427  78.677 114.150  0.00  0.00     0.038 C 
ATOM      4  C   LIG d   1      -1.830  77.488 113.704  0.00  0.00     0.028 C 
ATOM      5  C   LIG d   1      -0.990  76.795 114.771  0.00  0.00    -0.047 C 
ATOM      6  C   LIG d   1      -1.836  76.641 116.055  0.00  0.00     0.091 C 
ENDROOT
BRANCH   1   7
ATOM      7  O   LIG d   1      -3.504  77.796 117.430  0.00  0.00    -0.368 OA
BRANCH   7   8
ATOM      8  C   LIG d   1      -3.305  78.215 118.802  0.00  0.00     0.119 C 
BRANCH   8   9
ATOM      9  C   LIG d   1      -4.440  79.196 119.156  0.00  0.00     0.028 C 
ATOM     10  C   LIG d   1      -3.917  80.602 119.494  0.00  0.00     0.006 C 
ENDBRANCH   8   9
BRANCH   8  11
ATOM     11  C   LIG d   1      -2.011  79.020 118.957  0.00  0.00     0.028 C 
ATOM     12  C   LIG d   1      -1.016  78.367 119.929  0.00  0.00     0.006 C 
ENDBRANCH   8  11
ENDBRANCH   7   8
ENDBRANCH   1   7
BRANCH   6  13
ATOM     13  N   LIG d   1      -1.062  76.048 117.177  0.00  0.00    -0.311 N 
ATOM     14  C   LIG d   1      -1.451  74.963 117.843  0.00  0.00     0.210 C 
ATOM     15  C   LIG d   1      -0.517  74.530 118.977  0.00  0.00     0.109 C 
ATOM     16  O   LIG d   1      -2.465  74.298 117.582  0.00  0.00    -0.276 OA
ATOM     17  H   LIG d   1      -0.210  76.506 117.435  0.00  0.00     0.149 HD
ENDBRANCH   6  13
BRANCH   5  18
ATOM     18  N   LIG d   1      -0.541  75.504 114.216  0.00  0.00     0.381 N 
ATOM     19  H   LIG d   1      -0.723  74.771 114.873  0.00  0.00    -0.090 HD
ATOM     20  H   LIG d   1       0.450  75.545 114.057  0.00  0.00    -0.090 HD
ATOM     21  H   LIG d   1      -1.016  75.318 113.360  0.00  0.00    -0.090 HD
ENDBRANCH   5  18
BRANCH   3  22
ATOM     22  C   LIG d   1      -2.657  79.685 113.226  0.00  0.00     0.382 C 
ATOM     23  O   LIG d   1      -3.352  80.680 113.544  0.00  0.00    -0.241 OA
ATOM     24  O   LIG d   1      -2.215  79.591 112.066  0.00  0.00    -0.241 OA
ENDBRANCH   3  22
TORSDOF 7
ENDMDL
