MODEL 1
REMARK VINA RESULT:      -4.8      0.000      0.000
REMARK  7 active torsions:
REMARK  status: ('A' for Active; 'I' for Inactive)
REMARK    1  A    between atoms: C_2  and  C_3 
REMARK    2  A    between atoms: C_3  and  O_6 
REMARK    3  A    between atoms: C_3  and  C_4 
REMARK    4  A    between atoms: C_7  and  O_6 
REMARK    5  A    between atoms: C_9  and  C_10 
REMARK    6  A    between atoms: N_15  and  C_14 
REMARK    7  A    between atoms: N_20  and  C_19 
REMARK       I    between atoms: C_22  and  N_20 
ROOT
ATOM      1  C   LIG d   1      -2.221  79.853 114.669  0.00  0.00     0.161 C 
ATOM      2  C   LIG d   1      -2.903  78.693 115.071  0.00  0.00     0.016 C 
ATOM      3  C   LIG d   1      -3.218  77.631 114.191  0.00  0.00     0.038 C 
ATOM      4  C   LIG d   1      -2.735  77.592 112.875  0.00  0.00     0.028 C 
ATOM      5  C   LIG d   1      -2.473  78.973 112.284  0.00  0.00    -0.047 C 
ATOM      6  C   LIG d   1      -1.589  79.778 113.264  0.00  0.00     0.091 C 
ENDROOT
BRANCH   1   7
ATOM      7  O   LIG d   1      -1.222  80.196 115.650  0.00  0.00    -0.368 OA
BRANCH   7   8
ATOM      8  C   LIG d   1      -1.298  79.489 116.912  0.00  0.00     0.119 C 
BRANCH   8   9
ATOM      9  C   LIG d   1      -1.489  80.542 118.022  0.00  0.00     0.028 C 
ATOM     10  C   LIG d   1      -2.920  80.549 118.584  0.00  0.00     0.006 C 
ENDBRANCH   8   9
BRANCH   8  11
ATOM     11  C   LIG d   1       0.025  78.790 117.240  0.00  0.00     0.028 C 
ATOM     12  C   LIG d   1      -0.050  77.264 117.069  0.00  0.00     0.006 C 
ENDBRANCH   8  11
ENDBRANCH   7   8
ENDBRANCH   1   7
BRANCH   6  13
ATOM     13  N   LIG d   1      -1.354  81.171 112.801  0.00  0.00    -0.311 N 
ATOM     14  C   LIG d   1      -0.318  81.527 112.044  0.00  0.00     0.210 C 
ATOM     15  C   LIG d   1      -0.254  83.018 111.696  0.00  0.00     0.109 C 
ATOM     16  O   LIG d   1       0.536  80.745 111.600  0.00  0.00    -0.276 OA
ATOM     17  H   LIG d   1      -2.016  81.865 113.089  0.00  0.00     0.149 HD
ENDBRANCH   6  13
BRANCH   5  18
ATOM     18  N   LIG d   1      -1.845  78.781 110.963  0.00  0.00     0.381 N 
ATOM     19  H   LIG d   1      -1.047  78.183 111.051  0.00  0.00    -0.090 HD
ATOM     20  H   LIG d   1      -1.534  79.672 110.618  0.00  0.00    -0.090 HD
ATOM     21  H   LIG d   1      -2.500  78.381 110.329  0.00  0.00    -0.090 HD
ENDBRANCH   5  18
BRANCH   3  22
ATOM     22  C   LIG d   1      -4.058  76.613 114.616  0.00  0.00     0.382 C 
ATOM     23  O   LIG d   1      -4.430  76.566 115.813  0.00  0.00    -0.241 OA
ATOM     24  O   LIG d   1      -4.412  75.716 113.827  0.00  0.00    -0.241 OA
ENDBRANCH   3  22
TORSDOF 7
ENDMDL
MODEL 2
REMARK VINA RESULT:      -4.5      2.620      4.872
REMARK  7 active torsions:
REMARK  status: ('A' for Active; 'I' for Inactive)
REMARK    1  A    between atoms: C_2  and  C_3 
REMARK    2  A    between atoms: C_3  and  O_6 
REMARK    3  A    between atoms: C_3  and  C_4 
REMARK    4  A    between atoms: C_7  and  O_6 
REMARK    5  A    between atoms: C_9  and  C_10 
REMARK    6  A    between atoms: N_15  and  C_14 
REMARK    7  A    between atoms: N_20  and  C_19 
REMARK       I    between atoms: C_22  and  N_20 
ROOT
ATOM      1  C   LIG d   1      -1.056  78.463 115.606  0.00  0.00     0.161 C 
ATOM      2  C   LIG d   1      -1.325  79.552 114.761  0.00  0.00     0.016 C 
ATOM      3  C   LIG d   1      -2.384  79.568 113.825  0.00  0.00     0.038 C 
ATOM      4  C   LIG d   1      -3.345  78.547 113.775  0.00  0.00     0.028 C 
ATOM      5  C   LIG d   1      -2.822  77.199 114.259  0.00  0.00    -0.047 C 
ATOM      6  C   LIG d   1      -2.160  77.385 115.644  0.00  0.00     0.091 C 
ENDROOT
BRANCH   1   7
ATOM      7  O   LIG d   1      -0.771  78.935 116.937  0.00  0.00    -0.368 OA
BRANCH   7   8
ATOM      8  C   LIG d   1      -1.416  80.173 117.326  0.00  0.00     0.119 C 
BRANCH   8   9
ATOM      9  C   LIG d   1      -0.404  80.978 118.165  0.00  0.00     0.028 C 
ATOM     10  C   LIG d   1      -1.070  82.126 118.943  0.00  0.00     0.006 C 
ENDBRANCH   8   9
BRANCH   8  11
ATOM     11  C   LIG d   1      -2.602  79.914 118.259  0.00  0.00     0.028 C 
ATOM     12  C   LIG d   1      -3.956  79.988 117.536  0.00  0.00     0.006 C 
ENDBRANCH   8  11
ENDBRANCH   7   8
ENDBRANCH   1   7
BRANCH   6  13
ATOM     13  N   LIG d   1      -1.547  76.131 116.153  0.00  0.00    -0.311 N 
ATOM     14  C   LIG d   1      -1.685  75.704 117.406  0.00  0.00     0.210 C 
ATOM     15  C   LIG d   1      -0.954  74.396 117.728  0.00  0.00     0.109 C 
ATOM     16  O   LIG d   1      -2.370  76.266 118.274  0.00  0.00    -0.276 OA
ATOM     17  H   LIG d   1      -1.000  75.596 115.507  0.00  0.00     0.149 HD
ENDBRANCH   6  13
BRANCH   5  18
ATOM     18  N   LIG d   1      -3.961  76.262 114.284  0.00  0.00     0.381 N 
ATOM     19  H   LIG d   1      -4.343  76.219 115.208  0.00  0.00    -0.090 HD
ATOM     20  H   LIG d   1      -3.633  75.345 114.035  0.00  0.00    -0.090 HD
ATOM     21  H   LIG d   1      -4.661  76.559 113.641  0.00  0.00    -0.090 HD
ENDBRANCH   5  18
BRANCH   3  22
ATOM     22  C   LIG d   1      -2.466  80.596 112.897  0.00  0.00     0.382 C 
ATOM     23  O   LIG d   1      -3.519  81.271 112.802  0.00  0.00    -0.241 OA
ATOM     24  O   LIG d   1      -1.517  80.827 112.125  0.00  0.00    -0.241 OA
ENDBRANCH   3  22
TORSDOF 7
ENDMDL
MODEL 3
REMARK VINA RESULT:      -4.5      2.498      3.723
REMARK  7 active torsions:
REMARK  status: ('A' for Active; 'I' for Inactive)
REMARK    1  A    between atoms: C_2  and  C_3 
REMARK    2  A    between atoms: C_3  and  O_6 
REMARK    3  A    between atoms: C_3  and  C_4 
REMARK    4  A    between atoms: C_7  and  O_6 
REMARK    5  A    between atoms: C_9  and  C_10 
REMARK    6  A    between atoms: N_15  and  C_14 
REMARK    7  A    between atoms: N_20  and  C_19 
REMARK       I    between atoms: C_22  and  N_20 
ROOT
ATOM      1  C   LIG d   1      -2.614  78.521 116.725  0.00  0.00     0.161 C 
ATOM      2  C   LIG d   1      -3.327  77.701 115.835  0.00  0.00     0.016 C 
ATOM      3  C   LIG d   1      -3.094  77.678 114.440  0.00  0.00     0.038 C 
ATOM      4  C   LIG d   1      -2.021  78.368 113.857  0.00  0.00     0.028 C 
ATOM      5  C   LIG d   1      -1.593  79.601 114.647  0.00  0.00    -0.047 C 
ATOM      6  C   LIG d   1      -1.366  79.198 116.121  0.00  0.00     0.091 C 
ENDROOT
BRANCH   1   7
ATOM      7  O   LIG d   1      -2.257  77.769 117.902  0.00  0.00    -0.368 OA
BRANCH   7   8
ATOM      8  C   LIG d   1      -1.120  76.881 117.771  0.00  0.00     0.119 C 
BRANCH   8   9
ATOM      9  C   LIG d   1      -1.654  75.436 117.820  0.00  0.00     0.028 C 
ATOM     10  C   LIG d   1      -1.407  74.674 116.507  0.00  0.00     0.006 C 
ENDBRANCH   8   9
BRANCH   8  11
ATOM     11  C   LIG d   1      -0.175  77.004 118.969  0.00  0.00     0.028 C 
ATOM     12  C   LIG d   1       1.243  76.497 118.664  0.00  0.00     0.006 C 
ENDBRANCH   8  11
ENDBRANCH   7   8
ENDBRANCH   1   7
BRANCH   6  13
ATOM     13  N   LIG d   1      -1.025  80.361 116.981  0.00  0.00    -0.311 N 
ATOM     14  C   LIG d   1       0.176  80.544 117.526  0.00  0.00     0.210 C 
ATOM     15  C   LIG d   1       0.309  81.799 118.394  0.00  0.00     0.109 C 
ATOM     16  O   LIG d   1       1.154  79.803 117.346  0.00  0.00    -0.276 OA
ATOM     17  H   LIG d   1      -1.751  81.029 117.154  0.00  0.00     0.149 HD
ENDBRANCH   6  13
BRANCH   5  18
ATOM     18  N   LIG d   1      -0.382  80.144 114.003  0.00  0.00     0.381 N 
ATOM     19  H   LIG d   1      -0.419  81.143 113.999  0.00  0.00    -0.090 HD
ATOM     20  H   LIG d   1      -0.350  79.826 113.050  0.00  0.00    -0.090 HD
ATOM     21  H   LIG d   1       0.431  79.836 114.490  0.00  0.00    -0.090 HD
ENDBRANCH   5  18
BRANCH   3  22
ATOM     22  C   LIG d   1      -3.964  76.990 113.609  0.00  0.00     0.382 C 
ATOM     23  O   LIG d   1      -4.297  75.812 113.886  0.00  0.00    -0.241 OA
ATOM     24  O   LIG d   1      -4.387  77.516 112.562  0.00  0.00    -0.241 OA
ENDBRANCH   3  22
TORSDOF 7
ENDMDL
MODEL 4
REMARK VINA RESULT:      -4.5      3.388      5.262
REMARK  7 active torsions:
REMARK  status: ('A' for Active; 'I' for Inactive)
REMARK    1  A    between atoms: C_2  and  C_3 
REMARK    2  A    between atoms: C_3  and  O_6 
REMARK    3  A    between atoms: C_3  and  C_4 
REMARK    4  A    between atoms: C_7  and  O_6 
REMARK    5  A    between atoms: C_9  and  C_10 
REMARK    6  A    between atoms: N_15  and  C_14 
REMARK    7  A    between atoms: N_20  and  C_19 
REMARK       I    between atoms: C_22  and  N_20 
ROOT
ATOM      1  C   LIG d   1      -0.679  78.032 116.714  0.00  0.00     0.161 C 
ATOM      2  C   LIG d   1      -1.549  78.415 115.680  0.00  0.00     0.016 C 
ATOM      3  C   LIG d   1      -2.208  77.492 114.835  0.00  0.00     0.038 C 
ATOM      4  C   LIG d   1      -2.158  76.109 115.066  0.00  0.00     0.028 C 
ATOM      5  C   LIG d   1      -0.890  75.661 115.785  0.00  0.00    -0.047 C 
ATOM      6  C   LIG d   1      -0.699  76.526 117.051  0.00  0.00     0.091 C 
ENDROOT
BRANCH   1   7
ATOM      7  O   LIG d   1      -0.948  78.814 117.894  0.00  0.00    -0.368 OA
BRANCH   7   8
ATOM      8  C   LIG d   1      -2.310  79.280 118.053  0.00  0.00     0.119 C 
BRANCH   8   9
ATOM      9  C   LIG d   1      -2.248  80.695 118.658  0.00  0.00     0.028 C 
ATOM     10  C   LIG d   1      -0.888  81.374 118.424  0.00  0.00     0.006 C 
ENDBRANCH   8   9
BRANCH   8  11
ATOM     11  C   LIG d   1      -3.073  78.434 119.077  0.00  0.00     0.028 C 
ATOM     12  C   LIG d   1      -4.083  77.477 118.426  0.00  0.00     0.006 C 
ENDBRANCH   8  11
ENDBRANCH   7   8
ENDBRANCH   1   7
BRANCH   6  13
ATOM     13  N   LIG d   1       0.564  76.210 117.769  0.00  0.00    -0.311 N 
ATOM     14  C   LIG d   1       0.638  75.335 118.770  0.00  0.00     0.210 C 
ATOM     15  C   LIG d   1       2.033  75.172 119.384  0.00  0.00     0.109 C 
ATOM     16  O   LIG d   1      -0.311  74.655 119.187  0.00  0.00    -0.276 OA
ATOM     17  H   LIG d   1       1.390  76.693 117.474  0.00  0.00     0.149 HD
ENDBRANCH   6  13
BRANCH   5  18
ATOM     18  N   LIG d   1      -1.032  74.223 116.084  0.00  0.00     0.381 N 
ATOM     19  H   LIG d   1      -0.135  73.829 116.285  0.00  0.00    -0.090 HD
ATOM     20  H   LIG d   1      -1.407  73.759 115.275  0.00  0.00    -0.090 HD
ATOM     21  H   LIG d   1      -1.641  74.095 116.862  0.00  0.00    -0.090 HD
ENDBRANCH   5  18
BRANCH   3  22
ATOM     22  C   LIG d   1      -2.896  77.949 113.721  0.00  0.00     0.382 C 
ATOM     23  O   LIG d   1      -3.125  77.172 112.764  0.00  0.00    -0.241 OA
ATOM     24  O   LIG d   1      -3.250  79.141 113.643  0.00  0.00    -0.241 OA
ENDBRANCH   3  22
TORSDOF 7
ENDMDL
MODEL 5
REMARK VINA RESULT:      -4.3      2.557      5.000
REMARK  7 active torsions:
REMARK  status: ('A' for Active; 'I' for Inactive)
REMARK    1  A    between atoms: C_2  and  C_3 
REMARK    2  A    between atoms: C_3  and  O_6 
REMARK    3  A    between atoms: C_3  and  C_4 
REMARK    4  A    between atoms: C_7  and  O_6 
REMARK    5  A    between atoms: C_9  and  C_10 
REMARK    6  A    between atoms: N_15  and  C_14 
REMARK    7  A    between atoms: N_20  and  C_19 
REMARK       I    between atoms: C_22  and  N_20 
ROOT
ATOM      1  C   LIG d   1      -1.166  78.679 115.599  0.00  0.00     0.161 C 
ATOM      2  C   LIG d   1      -1.436  79.788 114.780  0.00  0.00     0.016 C 
ATOM      3  C   LIG d   1      -2.458  79.804 113.803  0.00  0.00     0.038 C 
ATOM      4  C   LIG d   1      -3.383  78.757 113.682  0.00  0.00     0.028 C 
ATOM      5  C   LIG d   1      -2.838  77.409 114.142  0.00  0.00    -0.047 C 
ATOM      6  C   LIG d   1      -2.237  77.569 115.557  0.00  0.00     0.091 C 
ENDROOT
BRANCH   1   7
ATOM      7  O   LIG d   1      -0.948  79.115 116.956  0.00  0.00    -0.368 OA
BRANCH   7   8
ATOM      8  C   LIG d   1       0.427  79.376 117.329  0.00  0.00     0.119 C 
BRANCH   8   9
ATOM      9  C   LIG d   1       0.816  78.350 118.411  0.00  0.00     0.028 C 
ATOM     10  C   LIG d   1       1.678  77.205 117.853  0.00  0.00     0.006 C 
ENDBRANCH   8   9
BRANCH   8  11
ATOM     11  C   LIG d   1       0.573  80.746 117.997  0.00  0.00     0.028 C 
ATOM     12  C   LIG d   1      -0.776  81.350 118.418  0.00  0.00     0.006 C 
ENDBRANCH   8  11
ENDBRANCH   7   8
ENDBRANCH   1   7
BRANCH   6  13
ATOM     13  N   LIG d   1      -1.605  76.316 116.049  0.00  0.00    -0.311 N 
ATOM     14  C   LIG d   1      -1.793  75.833 117.276  0.00  0.00     0.210 C 
ATOM     15  C   LIG d   1      -1.032  74.540 117.586  0.00  0.00     0.109 C 
ATOM     16  O   LIG d   1      -2.543  76.336 118.127  0.00  0.00    -0.276 OA
ATOM     17  H   LIG d   1      -1.006  75.828 115.414  0.00  0.00     0.149 HD
ENDBRANCH   6  13
BRANCH   5  18
ATOM     18  N   LIG d   1      -3.947  76.438 114.091  0.00  0.00     0.381 N 
ATOM     19  H   LIG d   1      -4.630  76.668 114.785  0.00  0.00    -0.090 HD
ATOM     20  H   LIG d   1      -3.587  75.522 114.294  0.00  0.00    -0.090 HD
ATOM     21  H   LIG d   1      -4.366  76.446 113.187  0.00  0.00    -0.090 HD
ENDBRANCH   5  18
BRANCH   3  22
ATOM     22  C   LIG d   1      -2.536  80.859 112.908  0.00  0.00     0.382 C 
ATOM     23  O   LIG d   1      -1.527  81.191 112.240  0.00  0.00    -0.241 OA
ATOM     24  O   LIG d   1      -3.590  81.512 112.791  0.00  0.00    -0.241 OA
ENDBRANCH   3  22
TORSDOF 7
ENDMDL
MODEL 6
REMARK VINA RESULT:      -4.2      2.296      4.539
REMARK  7 active torsions:
REMARK  status: ('A' for Active; 'I' for Inactive)
REMARK    1  A    between atoms: C_2  and  C_3 
REMARK    2  A    between atoms: C_3  and  O_6 
REMARK    3  A    between atoms: C_3  and  C_4 
REMARK    4  A    between atoms: C_7  and  O_6 
REMARK    5  A    between atoms: C_9  and  C_10 
REMARK    6  A    between atoms: N_15  and  C_14 
REMARK    7  A    between atoms: N_20  and  C_19 
REMARK       I    between atoms: C_22  and  N_20 
ROOT
ATOM      1  C   LIG d   1      -1.071  77.173 114.654  0.00  0.00     0.161 C 
ATOM      2  C   LIG d   1      -1.164  76.269 115.725  0.00  0.00     0.016 C 
ATOM      3  C   LIG d   1      -1.197  76.669 117.081  0.00  0.00     0.038 C 
ATOM      4  C   LIG d   1      -1.292  78.018 117.454  0.00  0.00     0.028 C 
ATOM      5  C   LIG d   1      -0.692  78.973 116.428  0.00  0.00    -0.047 C 
ATOM      6  C   LIG d   1      -1.286  78.653 115.037  0.00  0.00     0.091 C 
ENDROOT
BRANCH   1   7
ATOM      7  O   LIG d   1      -1.986  76.788 113.609  0.00  0.00    -0.368 OA
BRANCH   7   8
ATOM      8  C   LIG d   1      -3.271  77.457 113.608  0.00  0.00     0.119 C 
BRANCH   8   9
ATOM      9  C   LIG d   1      -4.337  76.412 113.993  0.00  0.00     0.028 C 
ATOM     10  C   LIG d   1      -4.437  76.209 115.514  0.00  0.00     0.006 C 
ENDBRANCH   8   9
BRANCH   8  11
ATOM     11  C   LIG d   1      -3.654  77.928 112.202  0.00  0.00     0.028 C 
ATOM     12  C   LIG d   1      -2.471  77.899 111.222  0.00  0.00     0.006 C 
ENDBRANCH   8  11
ENDBRANCH   7   8
ENDBRANCH   1   7
BRANCH   6  13
ATOM     13  N   LIG d   1      -0.690  79.486 113.960  0.00  0.00    -0.311 N 
ATOM     14  C   LIG d   1      -1.335  80.488 113.367  0.00  0.00     0.210 C 
ATOM     15  C   LIG d   1      -0.545  81.206 112.268  0.00  0.00     0.109 C 
ATOM     16  O   LIG d   1      -2.476  80.872 113.668  0.00  0.00    -0.276 OA
ATOM     17  H   LIG d   1       0.244  79.264 113.675  0.00  0.00     0.149 HD
ENDBRANCH   6  13
BRANCH   5  18
ATOM     18  N   LIG d   1      -0.982  80.348 116.877  0.00  0.00     0.381 N 
ATOM     19  H   LIG d   1      -1.063  80.369 117.874  0.00  0.00    -0.090 HD
ATOM     20  H   LIG d   1      -1.859  80.641 116.483  0.00  0.00    -0.090 HD
ATOM     21  H   LIG d   1      -0.256  80.963 116.582  0.00  0.00    -0.090 HD
ENDBRANCH   5  18
BRANCH   3  22
ATOM     22  C   LIG d   1      -1.095  75.714 118.082  0.00  0.00     0.382 C 
ATOM     23  O   LIG d   1      -1.503  74.546 117.878  0.00  0.00    -0.241 OA
ATOM     24  O   LIG d   1      -0.641  76.019 119.201  0.00  0.00    -0.241 OA
ENDBRANCH   3  22
TORSDOF 7
ENDMDL
MODEL 7
REMARK VINA RESULT:      -4.2      3.378      5.223
REMARK  7 active torsions:
REMARK  status: ('A' for Active; 'I' for Inactive)
REMARK    1  A    between atoms: C_2  and  C_3 
REMARK    2  A    between atoms: C_3  and  O_6 
REMARK    3  A    between atoms: C_3  and  C_4 
REMARK    4  A    between atoms: C_7  and  O_6 
REMARK    5  A    between atoms: C_9  and  C_10 
REMARK    6  A    between atoms: N_15  and  C_14 
REMARK    7  A    between atoms: N_20  and  C_19 
REMARK       I    between atoms: C_22  and  N_20 
ROOT
ATOM      1  C   LIG d   1      -0.789  77.976 116.818  0.00  0.00     0.161 C 
ATOM      2  C   LIG d   1      -1.647  78.367 115.776  0.00  0.00     0.016 C 
ATOM      3  C   LIG d   1      -2.257  77.453 114.886  0.00  0.00     0.038 C 
ATOM      4  C   LIG d   1      -2.171  76.065 115.074  0.00  0.00     0.028 C 
ATOM      5  C   LIG d   1      -0.907  75.631 115.809  0.00  0.00    -0.047 C 
ATOM      6  C   LIG d   1      -0.772  76.460 117.106  0.00  0.00     0.091 C 
ENDROOT
BRANCH   1   7
ATOM      7  O   LIG d   1      -1.110  78.710 118.016  0.00  0.00    -0.368 OA
BRANCH   7   8
ATOM      8  C   LIG d   1      -0.092  79.623 118.495  0.00  0.00     0.119 C 
BRANCH   8   9
ATOM      9  C   LIG d   1      -0.656  81.051 118.373  0.00  0.00     0.028 C 
ATOM     10  C   LIG d   1      -2.137  81.134 118.781  0.00  0.00     0.006 C 
ENDBRANCH   8   9
BRANCH   8  11
ATOM     11  C   LIG d   1       1.147  79.598 117.595  0.00  0.00     0.028 C 
ATOM     12  C   LIG d   1       1.481  80.977 117.002  0.00  0.00     0.006 C 
ENDBRANCH   8  11
ENDBRANCH   7   8
ENDBRANCH   1   7
BRANCH   6  13
ATOM     13  N   LIG d   1       0.483  76.157 117.844  0.00  0.00    -0.311 N 
ATOM     14  C   LIG d   1       0.555  75.269 118.834  0.00  0.00     0.210 C 
ATOM     15  C   LIG d   1       1.940  75.124 119.473  0.00  0.00     0.109 C 
ATOM     16  O   LIG d   1      -0.389  74.565 119.223  0.00  0.00    -0.276 OA
ATOM     17  H   LIG d   1       1.304  76.661 117.572  0.00  0.00     0.149 HD
ENDBRANCH   6  13
BRANCH   5  18
ATOM     18  N   LIG d   1      -1.013  74.181 116.057  0.00  0.00     0.381 N 
ATOM     19  H   LIG d   1      -1.852  73.826 115.644  0.00  0.00    -0.090 HD
ATOM     20  H   LIG d   1      -1.059  74.023 117.049  0.00  0.00    -0.090 HD
ATOM     21  H   LIG d   1      -0.221  73.711 115.676  0.00  0.00    -0.090 HD
ENDBRANCH   5  18
BRANCH   3  22
ATOM     22  C   LIG d   1      -2.932  77.926 113.771  0.00  0.00     0.382 C 
ATOM     23  O   LIG d   1      -3.355  77.122 112.906  0.00  0.00    -0.241 OA
ATOM     24  O   LIG d   1      -3.084  79.150 113.597  0.00  0.00    -0.241 OA
ENDBRANCH   3  22
TORSDOF 7
ENDMDL
MODEL 8
REMARK VINA RESULT:      -4.1      2.767      6.046
REMARK  7 active torsions:
REMARK  status: ('A' for Active; 'I' for Inactive)
REMARK    1  A    between atoms: C_2  and  C_3 
REMARK    2  A    between atoms: C_3  and  O_6 
REMARK    3  A    between atoms: C_3  and  C_4 
REMARK    4  A    between atoms: C_7  and  O_6 
REMARK    5  A    between atoms: C_9  and  C_10 
REMARK    6  A    between atoms: N_15  and  C_14 
REMARK    7  A    between atoms: N_20  and  C_19 
REMARK       I    between atoms: C_22  and  N_20 
ROOT
ATOM      1  C   LIG d   1      -2.156  78.988 116.134  0.00  0.00     0.161 C 
ATOM      2  C   LIG d   1      -1.153  79.924 116.435  0.00  0.00     0.016 C 
ATOM      3  C   LIG d   1       0.084  79.577 117.026  0.00  0.00     0.038 C 
ATOM      4  C   LIG d   1       0.465  78.241 117.218  0.00  0.00     0.028 C 
ATOM      5  C   LIG d   1      -0.717  77.293 117.394  0.00  0.00    -0.047 C 
ATOM      6  C   LIG d   1      -1.714  77.513 116.233  0.00  0.00     0.091 C 
ENDROOT
BRANCH   1   7
ATOM      7  O   LIG d   1      -2.702  79.260 114.828  0.00  0.00    -0.368 OA
BRANCH   7   8
ATOM      8  C   LIG d   1      -1.846  78.948 113.701  0.00  0.00     0.119 C 
BRANCH   8   9
ATOM      9  C   LIG d   1      -1.820  80.184 112.782  0.00  0.00     0.028 C 
ATOM     10  C   LIG d   1      -2.942  81.184 113.112  0.00  0.00     0.006 C 
ENDBRANCH   8   9
BRANCH   8  11
ATOM     11  C   LIG d   1      -2.437  77.821 112.849  0.00  0.00     0.028 C 
ATOM     12  C   LIG d   1      -2.191  78.020 111.345  0.00  0.00     0.006 C 
ENDBRANCH   8  11
ENDBRANCH   7   8
ENDBRANCH   1   7
BRANCH   6  13
ATOM     13  N   LIG d   1      -2.940  76.685 116.375  0.00  0.00    -0.311 N 
ATOM     14  C   LIG d   1      -3.090  75.493 115.799  0.00  0.00     0.210 C 
ATOM     15  C   LIG d   1      -4.440  74.816 116.057  0.00  0.00     0.109 C 
ATOM     16  O   LIG d   1      -2.221  74.918 115.126  0.00  0.00    -0.276 OA
ATOM     17  H   LIG d   1      -3.683  77.061 116.930  0.00  0.00     0.149 HD
ENDBRANCH   6  13
BRANCH   5  18
ATOM     18  N   LIG d   1      -0.183  75.919 117.446  0.00  0.00     0.381 N 
ATOM     19  H   LIG d   1      -0.020  75.655 118.397  0.00  0.00    -0.090 HD
ATOM     20  H   LIG d   1       0.694  75.893 116.957  0.00  0.00    -0.090 HD
ATOM     21  H   LIG d   1      -0.827  75.287 117.023  0.00  0.00    -0.090 HD
ENDBRANCH   5  18
BRANCH   3  22
ATOM     22  C   LIG d   1       0.938  80.575 117.469  0.00  0.00     0.382 C 
ATOM     23  O   LIG d   1       0.511  81.745 117.619  0.00  0.00    -0.241 OA
ATOM     24  O   LIG d   1       2.142  80.331 117.677  0.00  0.00    -0.241 OA
ENDBRANCH   3  22
TORSDOF 7
ENDMDL
MODEL 9
REMARK VINA RESULT:      -4.0      3.405      4.976
REMARK  7 active torsions:
REMARK  status: ('A' for Active; 'I' for Inactive)
REMARK    1  A    between atoms: C_2  and  C_3 
REMARK    2  A    between atoms: C_3  and  O_6 
REMARK    3  A    between atoms: C_3  and  C_4 
REMARK    4  A    between atoms: C_7  and  O_6 
REMARK    5  A    between atoms: C_9  and  C_10 
REMARK    6  A    between atoms: N_15  and  C_14 
REMARK    7  A    between atoms: N_20  and  C_19 
REMARK       I    between atoms: C_22  and  N_20 
ROOT
ATOM      1  C   LIG d   1       0.078  77.610 118.178  0.00  0.00     0.161 C 
ATOM      2  C   LIG d   1      -0.297  76.372 117.631  0.00  0.00     0.016 C 
ATOM      3  C   LIG d   1      -0.910  76.235 116.364  0.00  0.00     0.038 C 
ATOM      4  C   LIG d   1      -1.052  77.322 115.487  0.00  0.00     0.028 C 
ATOM      5  C   LIG d   1      -1.148  78.666 116.200  0.00  0.00    -0.047 C 
ATOM      6  C   LIG d   1       0.032  78.795 117.190  0.00  0.00     0.091 C 
ENDROOT
BRANCH   1   7
ATOM      7  O   LIG d   1       1.386  77.505 118.774  0.00  0.00    -0.368 OA
BRANCH   7   8
ATOM      8  C   LIG d   1       2.318  76.616 118.111  0.00  0.00     0.119 C 
BRANCH   8   9
ATOM      9  C   LIG d   1       2.836  75.618 119.165  0.00  0.00     0.028 C 
ATOM     10  C   LIG d   1       4.236  75.080 118.826  0.00  0.00     0.006 C 
ENDBRANCH   8   9
BRANCH   8  11
ATOM     11  C   LIG d   1       3.559  77.371 117.625  0.00  0.00     0.028 C 
ATOM     12  C   LIG d   1       3.618  78.817 118.143  0.00  0.00     0.006 C 
ENDBRANCH   8  11
ENDBRANCH   7   8
ENDBRANCH   1   7
BRANCH   6  13
ATOM     13  N   LIG d   1      -0.034  80.046 117.991  0.00  0.00    -0.311 N 
ATOM     14  C   LIG d   1       0.606  81.165 117.655  0.00  0.00     0.210 C 
ATOM     15  C   LIG d   1       0.420  82.332 118.629  0.00  0.00     0.109 C 
ATOM     16  O   LIG d   1       1.283  81.311 116.627  0.00  0.00    -0.276 OA
ATOM     17  H   LIG d   1      -0.587  80.025 118.825  0.00  0.00     0.149 HD
ENDBRANCH   6  13
BRANCH   5  18
ATOM     18  N   LIG d   1      -1.154  79.719 115.167  0.00  0.00     0.381 N 
ATOM     19  H   LIG d   1      -1.630  80.529 115.512  0.00  0.00    -0.090 HD
ATOM     20  H   LIG d   1      -1.649  79.381 114.361  0.00  0.00    -0.090 HD
ATOM     21  H   LIG d   1      -0.219  79.956 114.917  0.00  0.00    -0.090 HD
ENDBRANCH   5  18
BRANCH   3  22
ATOM     22  C   LIG d   1      -1.423  75.006 115.978  0.00  0.00     0.382 C 
ATOM     23  O   LIG d   1      -2.111  74.334 116.783  0.00  0.00    -0.241 OA
ATOM     24  O   LIG d   1      -1.171  74.542 114.850  0.00  0.00    -0.241 OA
ENDBRANCH   3  22
TORSDOF 7
ENDMDL
