MODEL 1
REMARK VINA RESULT:      -5.2      0.000      0.000
REMARK  7 active torsions:
REMARK  status: ('A' for Active; 'I' for Inactive)
REMARK    1  A    between atoms: C_2  and  C_3 
REMARK    2  A    between atoms: C_3  and  O_6 
REMARK    3  A    between atoms: C_3  and  C_4 
REMARK    4  A    between atoms: C_7  and  O_6 
REMARK    5  A    between atoms: C_9  and  C_10 
REMARK    6  A    between atoms: N_15  and  C_14 
REMARK    7  A    between atoms: N_20  and  C_19 
REMARK       I    between atoms: C_22  and  N_20 
ROOT
ATOM      1  C   LIG d   1      -1.835  78.545 114.818  0.00  0.00     0.161 C 
ATOM      2  C   LIG d   1      -2.236  79.767 114.254  0.00  0.00     0.016 C 
ATOM      3  C   LIG d   1      -2.542  79.929 112.883  0.00  0.00     0.038 C 
ATOM      4  C   LIG d   1      -2.616  78.837 112.006  0.00  0.00     0.028 C 
ATOM      5  C   LIG d   1      -1.730  77.667 112.421  0.00  0.00    -0.047 C 
ATOM      6  C   LIG d   1      -2.017  77.318 113.899  0.00  0.00     0.091 C 
ENDROOT
BRANCH   1   7
ATOM      7  O   LIG d   1      -2.518  78.338 116.071  0.00  0.00    -0.368 OA
BRANCH   7   8
ATOM      8  C   LIG d   1      -1.737  78.572 117.268  0.00  0.00     0.119 C 
BRANCH   8   9
ATOM      9  C   LIG d   1      -2.091  79.981 117.783  0.00  0.00     0.028 C 
ATOM     10  C   LIG d   1      -0.865  80.906 117.853  0.00  0.00     0.006 C 
ENDBRANCH   8   9
BRANCH   8  11
ATOM     11  C   LIG d   1      -0.239  78.620 116.956  0.00  0.00     0.028 C 
ATOM     12  C   LIG d   1       0.515  77.380 117.464  0.00  0.00     0.006 C 
ENDBRANCH   8  11
ENDBRANCH   7   8
ENDBRANCH   1   7
BRANCH   6  13
ATOM     13  N   LIG d   1      -1.133  76.239 114.409  0.00  0.00    -0.311 N 
ATOM     14  C   LIG d   1      -1.585  75.161 115.049  0.00  0.00     0.210 C 
ATOM     15  C   LIG d   1      -0.502  74.180 115.509  0.00  0.00     0.109 C 
ATOM     16  O   LIG d   1      -2.783  74.909 115.250  0.00  0.00    -0.276 OA
ATOM     17  H   LIG d   1      -0.149  76.347 114.262  0.00  0.00     0.149 HD
ENDBRANCH   6  13
BRANCH   5  18
ATOM     18  N   LIG d   1      -2.008  76.549 111.499  0.00  0.00     0.381 N 
ATOM     19  H   LIG d   1      -2.895  76.686 111.058  0.00  0.00    -0.090 HD
ATOM     20  H   LIG d   1      -2.046  75.695 112.026  0.00  0.00    -0.090 HD
ATOM     21  H   LIG d   1      -1.291  76.490 110.809  0.00  0.00    -0.090 HD
ENDBRANCH   5  18
BRANCH   3  22
ATOM     22  C   LIG d   1      -2.740  81.201 112.369  0.00  0.00     0.382 C 
ATOM     23  O   LIG d   1      -3.904  81.657 112.254  0.00  0.00    -0.241 OA
ATOM     24  O   LIG d   1      -1.773  81.882 111.977  0.00  0.00    -0.241 OA
ENDBRANCH   3  22
TORSDOF 7
ENDMDL
MODEL 2
REMARK VINA RESULT:      -5.2      0.667      1.547
REMARK  7 active torsions:
REMARK  status: ('A' for Active; 'I' for Inactive)
REMARK    1  A    between atoms: C_2  and  C_3 
REMARK    2  A    between atoms: C_3  and  O_6 
REMARK    3  A    between atoms: C_3  and  C_4 
REMARK    4  A    between atoms: C_7  and  O_6 
REMARK    5  A    between atoms: C_9  and  C_10 
REMARK    6  A    between atoms: N_15  and  C_14 
REMARK    7  A    between atoms: N_20  and  C_19 
REMARK       I    between atoms: C_22  and  N_20 
ROOT
ATOM      1  C   LIG d   1      -1.663  78.563 114.615  0.00  0.00     0.161 C 
ATOM      2  C   LIG d   1      -2.113  79.800 114.124  0.00  0.00     0.016 C 
ATOM      3  C   LIG d   1      -2.594  79.985 112.807  0.00  0.00     0.038 C 
ATOM      4  C   LIG d   1      -2.801  78.907 111.934  0.00  0.00     0.028 C 
ATOM      5  C   LIG d   1      -1.888  77.718 112.214  0.00  0.00    -0.047 C 
ATOM      6  C   LIG d   1      -1.985  77.353 113.713  0.00  0.00     0.091 C 
ENDROOT
BRANCH   1   7
ATOM      7  O   LIG d   1      -2.178  78.348 115.944  0.00  0.00    -0.368 OA
BRANCH   7   8
ATOM      8  C   LIG d   1      -1.235  78.523 117.030  0.00  0.00     0.119 C 
BRANCH   8   9
ATOM      9  C   LIG d   1      -1.352  77.291 117.947  0.00  0.00     0.028 C 
ATOM     10  C   LIG d   1      -2.808  76.830 118.128  0.00  0.00     0.006 C 
ENDBRANCH   8   9
BRANCH   8  11
ATOM     11  C   LIG d   1      -1.611  79.720 117.908  0.00  0.00     0.028 C 
ATOM     12  C   LIG d   1      -0.713  80.943 117.665  0.00  0.00     0.006 C 
ENDBRANCH   8  11
ENDBRANCH   7   8
ENDBRANCH   1   7
BRANCH   6  13
ATOM     13  N   LIG d   1      -1.059  76.253 114.090  0.00  0.00    -0.311 N 
ATOM     14  C   LIG d   1      -1.436  75.186 114.793  0.00  0.00     0.210 C 
ATOM     15  C   LIG d   1      -0.319  74.180 115.090  0.00  0.00     0.109 C 
ATOM     16  O   LIG d   1      -2.595  74.962 115.171  0.00  0.00    -0.276 OA
ATOM     17  H   LIG d   1      -0.106  76.338 113.796  0.00  0.00     0.149 HD
ENDBRANCH   6  13
BRANCH   5  18
ATOM     18  N   LIG d   1      -2.303  76.618 111.323  0.00  0.00     0.381 N 
ATOM     19  H   LIG d   1      -2.991  76.053 111.780  0.00  0.00    -0.090 HD
ATOM     20  H   LIG d   1      -1.504  76.042 111.124  0.00  0.00    -0.090 HD
ATOM     21  H   LIG d   1      -2.675  76.987 110.476  0.00  0.00    -0.090 HD
ENDBRANCH   5  18
BRANCH   3  22
ATOM     22  C   LIG d   1      -2.837  81.268 112.339  0.00  0.00     0.382 C 
ATOM     23  O   LIG d   1      -4.016  81.661 112.172  0.00  0.00    -0.241 OA
ATOM     24  O   LIG d   1      -1.891  82.020 112.039  0.00  0.00    -0.241 OA
ENDBRANCH   3  22
TORSDOF 7
ENDMDL
MODEL 3
REMARK VINA RESULT:      -5.1      0.918      1.634
REMARK  7 active torsions:
REMARK  status: ('A' for Active; 'I' for Inactive)
REMARK    1  A    between atoms: C_2  and  C_3 
REMARK    2  A    between atoms: C_3  and  O_6 
REMARK    3  A    between atoms: C_3  and  C_4 
REMARK    4  A    between atoms: C_7  and  O_6 
REMARK    5  A    between atoms: C_9  and  C_10 
REMARK    6  A    between atoms: N_15  and  C_14 
REMARK    7  A    between atoms: N_20  and  C_19 
REMARK       I    between atoms: C_22  and  N_20 
ROOT
ATOM      1  C   LIG d   1      -1.722  78.554 114.668  0.00  0.00     0.161 C 
ATOM      2  C   LIG d   1      -2.165  79.785 114.154  0.00  0.00     0.016 C 
ATOM      3  C   LIG d   1      -2.580  79.965 112.815  0.00  0.00     0.038 C 
ATOM      4  C   LIG d   1      -2.724  78.884 111.932  0.00  0.00     0.028 C 
ATOM      5  C   LIG d   1      -1.810  77.709 112.258  0.00  0.00    -0.047 C 
ATOM      6  C   LIG d   1      -1.978  77.341 113.750  0.00  0.00     0.091 C 
ENDROOT
BRANCH   1   7
ATOM      7  O   LIG d   1      -2.302  78.330 115.968  0.00  0.00    -0.368 OA
BRANCH   7   8
ATOM      8  C   LIG d   1      -2.685  79.516 116.708  0.00  0.00     0.119 C 
BRANCH   8   9
ATOM      9  C   LIG d   1      -1.688  79.678 117.871  0.00  0.00     0.028 C 
ATOM     10  C   LIG d   1      -0.706  80.840 117.644  0.00  0.00     0.006 C 
ENDBRANCH   8   9
BRANCH   8  11
ATOM     11  C   LIG d   1      -4.055  79.341 117.370  0.00  0.00     0.028 C 
ATOM     12  C   LIG d   1      -4.439  80.528 118.267  0.00  0.00     0.006 C 
ENDBRANCH   8  11
ENDBRANCH   7   8
ENDBRANCH   1   7
BRANCH   6  13
ATOM     13  N   LIG d   1      -1.057  76.254 114.173  0.00  0.00    -0.311 N 
ATOM     14  C   LIG d   1      -1.458  75.168 114.831  0.00  0.00     0.210 C 
ATOM     15  C   LIG d   1      -0.343  74.181 115.190  0.00  0.00     0.109 C 
ATOM     16  O   LIG d   1      -2.636  74.913 115.124  0.00  0.00    -0.276 OA
ATOM     17  H   LIG d   1      -0.087  76.365 113.949  0.00  0.00     0.149 HD
ENDBRANCH   6  13
BRANCH   5  18
ATOM     18  N   LIG d   1      -2.162  76.604 111.346  0.00  0.00     0.381 N 
ATOM     19  H   LIG d   1      -3.115  76.336 111.491  0.00  0.00    -0.090 HD
ATOM     20  H   LIG d   1      -1.577  75.813 111.553  0.00  0.00    -0.090 HD
ATOM     21  H   LIG d   1      -2.028  76.886 110.400  0.00  0.00    -0.090 HD
ENDBRANCH   5  18
BRANCH   3  22
ATOM     22  C   LIG d   1      -2.817  81.244 112.335  0.00  0.00     0.382 C 
ATOM     23  O   LIG d   1      -3.995  81.654 112.198  0.00  0.00    -0.241 OA
ATOM     24  O   LIG d   1      -1.869  81.977 111.995  0.00  0.00    -0.241 OA
ENDBRANCH   3  22
TORSDOF 7
ENDMDL
MODEL 4
REMARK VINA RESULT:      -4.8      2.877      5.470
REMARK  7 active torsions:
REMARK  status: ('A' for Active; 'I' for Inactive)
REMARK    1  A    between atoms: C_2  and  C_3 
REMARK    2  A    between atoms: C_3  and  O_6 
REMARK    3  A    between atoms: C_3  and  C_4 
REMARK    4  A    between atoms: C_7  and  O_6 
REMARK    5  A    between atoms: C_9  and  C_10 
REMARK    6  A    between atoms: N_15  and  C_14 
REMARK    7  A    between atoms: N_20  and  C_19 
REMARK       I    between atoms: C_22  and  N_20 
ROOT
ATOM      1  C   LIG d   1      -1.094  79.883 112.866  0.00  0.00     0.161 C 
ATOM      2  C   LIG d   1      -2.055  79.149 112.151  0.00  0.00     0.016 C 
ATOM      3  C   LIG d   1      -2.791  78.079 112.711  0.00  0.00     0.038 C 
ATOM      4  C   LIG d   1      -2.723  77.767 114.077  0.00  0.00     0.028 C 
ATOM      5  C   LIG d   1      -1.396  78.152 114.721  0.00  0.00    -0.047 C 
ATOM      6  C   LIG d   1      -1.086  79.629 114.388  0.00  0.00     0.091 C 
ENDROOT
BRANCH   1   7
ATOM      7  O   LIG d   1      -1.252  81.290 112.593  0.00  0.00    -0.368 OA
BRANCH   7   8
ATOM      8  C   LIG d   1      -0.565  81.793 111.421  0.00  0.00     0.119 C 
BRANCH   8   9
ATOM      9  C   LIG d   1       0.948  81.708 111.699  0.00  0.00     0.028 C 
ATOM     10  C   LIG d   1       1.686  80.835 110.670  0.00  0.00     0.006 C 
ENDBRANCH   8   9
BRANCH   8  11
ATOM     11  C   LIG d   1      -0.854  83.281 111.202  0.00  0.00     0.028 C 
ATOM     12  C   LIG d   1       0.030  83.905 110.110  0.00  0.00     0.006 C 
ENDBRANCH   8  11
ENDBRANCH   7   8
ENDBRANCH   1   7
BRANCH   6  13
ATOM     13  N   LIG d   1       0.236  80.063 114.910  0.00  0.00    -0.311 N 
ATOM     14  C   LIG d   1       0.409  80.591 116.120  0.00  0.00     0.210 C 
ATOM     15  C   LIG d   1       1.851  80.989 116.452  0.00  0.00     0.109 C 
ATOM     16  O   LIG d   1      -0.489  80.738 116.963  0.00  0.00    -0.276 OA
ATOM     17  H   LIG d   1       1.025  79.952 114.303  0.00  0.00     0.149 HD
ENDBRANCH   6  13
BRANCH   5  18
ATOM     18  N   LIG d   1      -1.513  77.898 116.169  0.00  0.00     0.381 N 
ATOM     19  H   LIG d   1      -0.772  77.295 116.469  0.00  0.00    -0.090 HD
ATOM     20  H   LIG d   1      -2.387  77.436 116.349  0.00  0.00    -0.090 HD
ATOM     21  H   LIG d   1      -1.474  78.758 116.671  0.00  0.00    -0.090 HD
ENDBRANCH   5  18
BRANCH   3  22
ATOM     22  C   LIG d   1      -3.576  77.282 111.891  0.00  0.00     0.382 C 
ATOM     23  O   LIG d   1      -4.438  76.523 112.395  0.00  0.00    -0.241 OA
ATOM     24  O   LIG d   1      -3.403  77.281 110.658  0.00  0.00    -0.241 OA
ENDBRANCH   3  22
TORSDOF 7
ENDMDL
MODEL 5
REMARK VINA RESULT:      -4.8      2.235      4.558
REMARK  7 active torsions:
REMARK  status: ('A' for Active; 'I' for Inactive)
REMARK    1  A    between atoms: C_2  and  C_3 
REMARK    2  A    between atoms: C_3  and  O_6 
REMARK    3  A    between atoms: C_3  and  C_4 
REMARK    4  A    between atoms: C_7  and  O_6 
REMARK    5  A    between atoms: C_9  and  C_10 
REMARK    6  A    between atoms: N_15  and  C_14 
REMARK    7  A    between atoms: N_20  and  C_19 
REMARK       I    between atoms: C_22  and  N_20 
ROOT
ATOM      1  C   LIG d   1      -1.865  79.803 114.116  0.00  0.00     0.161 C 
ATOM      2  C   LIG d   1      -2.415  78.554 114.448  0.00  0.00     0.016 C 
ATOM      3  C   LIG d   1      -2.633  77.524 113.505  0.00  0.00     0.038 C 
ATOM      4  C   LIG d   1      -2.172  77.620 112.183  0.00  0.00     0.028 C 
ATOM      5  C   LIG d   1      -2.066  79.056 111.681  0.00  0.00    -0.047 C 
ATOM      6  C   LIG d   1      -1.254  79.885 112.702  0.00  0.00     0.091 C 
ENDROOT
BRANCH   1   7
ATOM      7  O   LIG d   1      -0.890  80.187 115.106  0.00  0.00    -0.368 OA
BRANCH   7   8
ATOM      8  C   LIG d   1      -0.982  79.512 116.385  0.00  0.00     0.119 C 
BRANCH   8   9
ATOM      9  C   LIG d   1      -1.331  80.575 117.445  0.00  0.00     0.028 C 
ATOM     10  C   LIG d   1      -2.552  80.180 118.292  0.00  0.00     0.006 C 
ENDBRANCH   8   9
BRANCH   8  11
ATOM     11  C   LIG d   1       0.374  78.943 116.813  0.00  0.00     0.028 C 
ATOM     12  C   LIG d   1       0.255  77.575 117.503  0.00  0.00     0.006 C 
ENDBRANCH   8  11
ENDBRANCH   7   8
ENDBRANCH   1   7
BRANCH   6  13
ATOM     13  N   LIG d   1      -1.174  81.322 112.329  0.00  0.00    -0.311 N 
ATOM     14  C   LIG d   1      -0.226  81.823 111.538  0.00  0.00     0.210 C 
ATOM     15  C   LIG d   1      -0.316  83.333 111.297  0.00  0.00     0.109 C 
ATOM     16  O   LIG d   1       0.662  81.154 110.989  0.00  0.00    -0.276 OA
ATOM     17  H   LIG d   1      -1.874  81.931 112.706  0.00  0.00     0.149 HD
ENDBRANCH   6  13
BRANCH   5  18
ATOM     18  N   LIG d   1      -1.444  79.015 110.344  0.00  0.00     0.381 N 
ATOM     19  H   LIG d   1      -2.155  78.978 109.641  0.00  0.00    -0.090 HD
ATOM     20  H   LIG d   1      -0.884  78.184 110.271  0.00  0.00    -0.090 HD
ATOM     21  H   LIG d   1      -0.875  79.822 110.208  0.00  0.00    -0.090 HD
ENDBRANCH   5  18
BRANCH   3  22
ATOM     22  C   LIG d   1      -3.354  76.398 113.871  0.00  0.00     0.382 C 
ATOM     23  O   LIG d   1      -2.893  75.610 114.732  0.00  0.00    -0.241 OA
ATOM     24  O   LIG d   1      -4.440  76.136 113.319  0.00  0.00    -0.241 OA
ENDBRANCH   3  22
TORSDOF 7
ENDMDL
MODEL 6
REMARK VINA RESULT:      -4.1      2.618      4.493
REMARK  7 active torsions:
REMARK  status: ('A' for Active; 'I' for Inactive)
REMARK    1  A    between atoms: C_2  and  C_3 
REMARK    2  A    between atoms: C_3  and  O_6 
REMARK    3  A    between atoms: C_3  and  C_4 
REMARK    4  A    between atoms: C_7  and  O_6 
REMARK    5  A    between atoms: C_9  and  C_10 
REMARK    6  A    between atoms: N_15  and  C_14 
REMARK    7  A    between atoms: N_20  and  C_19 
REMARK       I    between atoms: C_22  and  N_20 
ROOT
ATOM      1  C   LIG d   1      -2.266  78.231 116.376  0.00  0.00     0.161 C 
ATOM      2  C   LIG d   1      -3.022  77.393 115.540  0.00  0.00     0.016 C 
ATOM      3  C   LIG d   1      -2.931  77.414 114.129  0.00  0.00     0.038 C 
ATOM      4  C   LIG d   1      -1.960  78.175 113.460  0.00  0.00     0.028 C 
ATOM      5  C   LIG d   1      -1.519  79.411 114.236  0.00  0.00    -0.047 C 
ATOM      6  C   LIG d   1      -1.123  78.989 115.670  0.00  0.00     0.091 C 
ENDROOT
BRANCH   1   7
ATOM      7  O   LIG d   1      -1.753  77.475 117.491  0.00  0.00    -0.368 OA
BRANCH   7   8
ATOM      8  C   LIG d   1      -1.727  76.036 117.327  0.00  0.00     0.119 C 
BRANCH   8   9
ATOM      9  C   LIG d   1      -2.137  75.409 118.673  0.00  0.00     0.028 C 
ATOM     10  C   LIG d   1      -3.519  74.737 118.611  0.00  0.00     0.006 C 
ENDBRANCH   8   9
BRANCH   8  11
ATOM     11  C   LIG d   1      -0.306  75.531 117.060  0.00  0.00     0.028 C 
ATOM     12  C   LIG d   1      -0.124  74.991 115.633  0.00  0.00     0.006 C 
ENDBRANCH   8  11
ENDBRANCH   7   8
ENDBRANCH   1   7
BRANCH   6  13
ATOM     13  N   LIG d   1      -0.758  80.150 116.522  0.00  0.00    -0.311 N 
ATOM     14  C   LIG d   1       0.499  80.530 116.746  0.00  0.00     0.210 C 
ATOM     15  C   LIG d   1       0.653  81.741 117.672  0.00  0.00     0.109 C 
ATOM     16  O   LIG d   1       1.498  79.999 116.240  0.00  0.00    -0.276 OA
ATOM     17  H   LIG d   1      -1.510  80.658 116.947  0.00  0.00     0.149 HD
ENDBRANCH   6  13
BRANCH   5  18
ATOM     18  N   LIG d   1      -0.410  80.034 113.490  0.00  0.00     0.381 N 
ATOM     19  H   LIG d   1      -0.771  80.712 112.849  0.00  0.00    -0.090 HD
ATOM     20  H   LIG d   1       0.066  79.324 112.961  0.00  0.00    -0.090 HD
ATOM     21  H   LIG d   1       0.225  80.469 114.122  0.00  0.00    -0.090 HD
ENDBRANCH   5  18
BRANCH   3  22
ATOM     22  C   LIG d   1      -3.844  76.698 113.371  0.00  0.00     0.382 C 
ATOM     23  O   LIG d   1      -4.440  75.714 113.871  0.00  0.00    -0.241 OA
ATOM     24  O   LIG d   1      -4.046  76.996 112.178  0.00  0.00    -0.241 OA
ENDBRANCH   3  22
TORSDOF 7
ENDMDL
MODEL 7
REMARK VINA RESULT:      -4.0      2.134      4.048
REMARK  7 active torsions:
REMARK  status: ('A' for Active; 'I' for Inactive)
REMARK    1  A    between atoms: C_2  and  C_3 
REMARK    2  A    between atoms: C_3  and  O_6 
REMARK    3  A    between atoms: C_3  and  C_4 
REMARK    4  A    between atoms: C_7  and  O_6 
REMARK    5  A    between atoms: C_9  and  C_10 
REMARK    6  A    between atoms: N_15  and  C_14 
REMARK    7  A    between atoms: N_20  and  C_19 
REMARK       I    between atoms: C_22  and  N_20 
ROOT
ATOM      1  C   LIG d   1      -2.690  77.485 114.910  0.00  0.00     0.161 C 
ATOM      2  C   LIG d   1      -2.676  78.070 113.633  0.00  0.00     0.016 C 
ATOM      3  C   LIG d   1      -1.914  79.218 113.311  0.00  0.00     0.038 C 
ATOM      4  C   LIG d   1      -0.993  79.772 114.212  0.00  0.00     0.028 C 
ATOM      5  C   LIG d   1      -1.347  79.520 115.673  0.00  0.00    -0.047 C 
ATOM      6  C   LIG d   1      -1.606  78.009 115.874  0.00  0.00     0.091 C 
ENDROOT
BRANCH   1   7
ATOM      7  O   LIG d   1      -2.604  76.051 114.791  0.00  0.00    -0.368 OA
BRANCH   7   8
ATOM      8  C   LIG d   1      -1.309  75.465 115.074  0.00  0.00     0.119 C 
BRANCH   8   9
ATOM      9  C   LIG d   1      -0.747  74.921 113.747  0.00  0.00     0.028 C 
ATOM     10  C   LIG d   1       0.652  74.304 113.911  0.00  0.00     0.006 C 
ENDBRANCH   8   9
BRANCH   8  11
ATOM     11  C   LIG d   1      -1.439  74.244 115.990  0.00  0.00     0.028 C 
ATOM     12  C   LIG d   1      -2.792  74.187 116.718  0.00  0.00     0.006 C 
ENDBRANCH   8  11
ENDBRANCH   7   8
ENDBRANCH   1   7
BRANCH   6  13
ATOM     13  N   LIG d   1      -2.041  77.688 117.258  0.00  0.00    -0.311 N 
ATOM     14  C   LIG d   1      -1.210  77.262 118.208  0.00  0.00     0.210 C 
ATOM     15  C   LIG d   1      -1.868  76.968 119.559  0.00  0.00     0.109 C 
ATOM     16  O   LIG d   1       0.015  77.130 118.068  0.00  0.00    -0.276 OA
ATOM     17  H   LIG d   1      -3.014  77.797 117.467  0.00  0.00     0.149 HD
ENDBRANCH   6  13
BRANCH   5  18
ATOM     18  N   LIG d   1      -0.235  80.031 116.496  0.00  0.00     0.381 N 
ATOM     19  H   LIG d   1      -0.037  79.387 117.236  0.00  0.00    -0.090 HD
ATOM     20  H   LIG d   1      -0.508  80.907 116.906  0.00  0.00    -0.090 HD
ATOM     21  H   LIG d   1       0.576  80.159 115.932  0.00  0.00    -0.090 HD
ENDBRANCH   5  18
BRANCH   3  22
ATOM     22  C   LIG d   1      -2.102  79.846 112.090  0.00  0.00     0.382 C 
ATOM     23  O   LIG d   1      -2.704  80.946 112.036  0.00  0.00    -0.241 OA
ATOM     24  O   LIG d   1      -1.715  79.307 111.036  0.00  0.00    -0.241 OA
ENDBRANCH   3  22
TORSDOF 7
ENDMDL
MODEL 8
REMARK VINA RESULT:      -4.0      1.898      2.690
REMARK  7 active torsions:
REMARK  status: ('A' for Active; 'I' for Inactive)
REMARK    1  A    between atoms: C_2  and  C_3 
REMARK    2  A    between atoms: C_3  and  O_6 
REMARK    3  A    between atoms: C_3  and  C_4 
REMARK    4  A    between atoms: C_7  and  O_6 
REMARK    5  A    between atoms: C_9  and  C_10 
REMARK    6  A    between atoms: N_15  and  C_14 
REMARK    7  A    between atoms: N_20  and  C_19 
REMARK       I    between atoms: C_22  and  N_20 
ROOT
ATOM      1  C   LIG d   1      -0.625  78.825 116.265  0.00  0.00     0.161 C 
ATOM      2  C   LIG d   1      -1.069  79.719 115.276  0.00  0.00     0.016 C 
ATOM      3  C   LIG d   1      -2.018  79.377 114.286  0.00  0.00     0.038 C 
ATOM      4  C   LIG d   1      -2.707  78.155 114.310  0.00  0.00     0.028 C 
ATOM      5  C   LIG d   1      -1.927  77.033 114.989  0.00  0.00    -0.047 C 
ATOM      6  C   LIG d   1      -1.447  77.523 116.374  0.00  0.00     0.091 C 
ENDROOT
BRANCH   1   7
ATOM      7  O   LIG d   1      -0.573  79.493 117.540  0.00  0.00    -0.368 OA
BRANCH   7   8
ATOM      8  C   LIG d   1      -1.461  80.627 117.703  0.00  0.00     0.119 C 
BRANCH   8   9
ATOM      9  C   LIG d   1      -0.683  81.718 118.463  0.00  0.00     0.028 C 
ATOM     10  C   LIG d   1      -1.608  82.804 119.040  0.00  0.00     0.006 C 
ENDBRANCH   8   9
BRANCH   8  11
ATOM     11  C   LIG d   1      -2.652  80.278 118.600  0.00  0.00     0.028 C 
ATOM     12  C   LIG d   1      -3.950  80.057 117.807  0.00  0.00     0.006 C 
ENDBRANCH   8  11
ENDBRANCH   7   8
ENDBRANCH   1   7
BRANCH   6  13
ATOM     13  N   LIG d   1      -0.604  76.516 117.070  0.00  0.00    -0.311 N 
ATOM     14  C   LIG d   1      -1.085  75.640 117.951  0.00  0.00     0.210 C 
ATOM     15  C   LIG d   1      -0.041  74.704 118.567  0.00  0.00     0.109 C 
ATOM     16  O   LIG d   1      -2.282  75.528 118.256  0.00  0.00    -0.276 OA
ATOM     17  H   LIG d   1       0.375  76.516 116.859  0.00  0.00     0.149 HD
ENDBRANCH   6  13
BRANCH   5  18
ATOM     18  N   LIG d   1      -2.813  75.857 115.066  0.00  0.00     0.381 N 
ATOM     19  H   LIG d   1      -3.115  75.722 116.011  0.00  0.00    -0.090 HD
ATOM     20  H   LIG d   1      -2.299  75.043 114.780  0.00  0.00    -0.090 HD
ATOM     21  H   LIG d   1      -3.603  75.986 114.473  0.00  0.00    -0.090 HD
ENDBRANCH   5  18
BRANCH   3  22
ATOM     22  C   LIG d   1      -2.259  80.248 113.234  0.00  0.00     0.382 C 
ATOM     23  O   LIG d   1      -3.410  80.335 112.744  0.00  0.00    -0.241 OA
ATOM     24  O   LIG d   1      -1.329  80.914 112.741  0.00  0.00    -0.241 OA
ENDBRANCH   3  22
TORSDOF 7
ENDMDL
MODEL 9
REMARK VINA RESULT:      -4.0      2.363      4.224
REMARK  7 active torsions:
REMARK  status: ('A' for Active; 'I' for Inactive)
REMARK    1  A    between atoms: C_2  and  C_3 
REMARK    2  A    between atoms: C_3  and  O_6 
REMARK    3  A    between atoms: C_3  and  C_4 
REMARK    4  A    between atoms: C_7  and  O_6 
REMARK    5  A    between atoms: C_9  and  C_10 
REMARK    6  A    between atoms: N_15  and  C_14 
REMARK    7  A    between atoms: N_20  and  C_19 
REMARK       I    between atoms: C_22  and  N_20 
ROOT
ATOM      1  C   LIG d   1      -2.393  79.748 113.682  0.00  0.00     0.161 C 
ATOM      2  C   LIG d   1      -2.157  80.338 112.428  0.00  0.00     0.016 C 
ATOM      3  C   LIG d   1      -0.906  80.872 112.043  0.00  0.00     0.038 C 
ATOM      4  C   LIG d   1       0.242  80.717 112.834  0.00  0.00     0.028 C 
ATOM      5  C   LIG d   1      -0.062  80.576 114.322  0.00  0.00    -0.047 C 
ATOM      6  C   LIG d   1      -1.124  79.470 114.515  0.00  0.00     0.091 C 
ENDROOT
BRANCH   1   7
ATOM      7  O   LIG d   1      -3.159  78.539 113.516  0.00  0.00    -0.368 OA
BRANCH   7   8
ATOM      8  C   LIG d   1      -2.397  77.311 113.415  0.00  0.00     0.119 C 
BRANCH   8   9
ATOM      9  C   LIG d   1      -2.584  76.767 111.985  0.00  0.00     0.028 C 
ATOM     10  C   LIG d   1      -3.945  77.154 111.383  0.00  0.00     0.006 C 
ENDBRANCH   8   9
BRANCH   8  11
ATOM     11  C   LIG d   1      -2.961  76.227 114.338  0.00  0.00     0.028 C 
ATOM     12  C   LIG d   1      -4.112  76.735 115.220  0.00  0.00     0.006 C 
ENDBRANCH   8  11
ENDBRANCH   7   8
ENDBRANCH   1   7
BRANCH   6  13
ATOM     13  N   LIG d   1      -1.541  79.325 115.934  0.00  0.00    -0.311 N 
ATOM     14  C   LIG d   1      -1.053  78.393 116.750  0.00  0.00     0.210 C 
ATOM     15  C   LIG d   1      -1.632  78.406 118.168  0.00  0.00     0.109 C 
ATOM     16  O   LIG d   1      -0.171  77.576 116.443  0.00  0.00    -0.276 OA
ATOM     17  H   LIG d   1      -2.230  79.967 116.275  0.00  0.00     0.149 HD
ENDBRANCH   6  13
BRANCH   5  18
ATOM     18  N   LIG d   1       1.209  80.284 115.011  0.00  0.00     0.381 N 
ATOM     19  H   LIG d   1       1.573  81.121 115.420  0.00  0.00    -0.090 HD
ATOM     20  H   LIG d   1       1.874  79.947 114.337  0.00  0.00    -0.090 HD
ATOM     21  H   LIG d   1       1.064  79.596 115.717  0.00  0.00    -0.090 HD
ENDBRANCH   5  18
BRANCH   3  22
ATOM     22  C   LIG d   1      -0.804  81.607 110.871  0.00  0.00     0.382 C 
ATOM     23  O   LIG d   1      -0.101  81.180 109.923  0.00  0.00    -0.241 OA
ATOM     24  O   LIG d   1      -1.370  82.711 110.767  0.00  0.00    -0.241 OA
ENDBRANCH   3  22
TORSDOF 7
ENDMDL
