MODEL 1
REMARK VINA RESULT:      -4.8      0.000      0.000
REMARK  7 active torsions:
REMARK  status: ('A' for Active; 'I' for Inactive)
REMARK    1  A    between atoms: C_2  and  C_3 
REMARK    2  A    between atoms: C_3  and  O_6 
REMARK    3  A    between atoms: C_3  and  C_4 
REMARK    4  A    between atoms: C_7  and  O_6 
REMARK    5  A    between atoms: C_9  and  C_10 
REMARK    6  A    between atoms: N_15  and  C_14 
REMARK    7  A    between atoms: N_20  and  C_19 
REMARK       I    between atoms: C_22  and  N_20 
ROOT
ATOM      1  C   LIG d   1       1.657  81.203 112.596  0.00  0.00     0.161 C 
ATOM      2  C   LIG d   1       2.569  81.957 111.838  0.00  0.00     0.016 C 
ATOM      3  C   LIG d   1       2.536  82.027 110.426  0.00  0.00     0.038 C 
ATOM      4  C   LIG d   1       1.489  81.465 109.680  0.00  0.00     0.028 C 
ATOM      5  C   LIG d   1       0.829  80.273 110.365  0.00  0.00    -0.047 C 
ATOM      6  C   LIG d   1       0.442  80.674 111.806  0.00  0.00     0.091 C 
ENDROOT
BRANCH   1   7
ATOM      7  O   LIG d   1       1.219  81.969 113.736  0.00  0.00    -0.368 OA
BRANCH   7   8
ATOM      8  C   LIG d   1       2.222  82.801 114.369  0.00  0.00     0.119 C 
BRANCH   8   9
ATOM      9  C   LIG d   1       2.468  82.236 115.781  0.00  0.00     0.028 C 
ATOM     10  C   LIG d   1       1.799  80.867 115.991  0.00  0.00     0.006 C 
ENDBRANCH   8   9
BRANCH   8  11
ATOM     11  C   LIG d   1       1.707  84.227 114.586  0.00  0.00     0.028 C 
ATOM     12  C   LIG d   1       0.694  84.664 113.516  0.00  0.00     0.006 C 
ENDBRANCH   8  11
ENDBRANCH   7   8
ENDBRANCH   1   7
BRANCH   6  13
ATOM     13  N   LIG d   1      -0.134  79.539 112.575  0.00  0.00    -0.311 N 
ATOM     14  C   LIG d   1      -1.440  79.284 112.638  0.00  0.00     0.210 C 
ATOM     15  C   LIG d   1      -1.822  78.078 113.502  0.00  0.00     0.109 C 
ATOM     16  O   LIG d   1      -2.315  79.924 112.036  0.00  0.00    -0.276 OA
ATOM     17  H   LIG d   1       0.508  78.950 113.068  0.00  0.00     0.149 HD
ENDBRANCH   6  13
BRANCH   5  18
ATOM     18  N   LIG d   1      -0.329  79.873 109.544  0.00  0.00     0.381 N 
ATOM     19  H   LIG d   1      -0.038  79.714 108.601  0.00  0.00    -0.090 HD
ATOM     20  H   LIG d   1      -1.001  80.620 109.545  0.00  0.00    -0.090 HD
ATOM     21  H   LIG d   1      -0.741  79.046 109.916  0.00  0.00    -0.090 HD
ENDBRANCH   5  18
BRANCH   3  22
ATOM     22  C   LIG d   1       3.580  82.632 109.744  0.00  0.00     0.382 C 
ATOM     23  O   LIG d   1       4.595  81.964 109.431  0.00  0.00    -0.241 OA
ATOM     24  O   LIG d   1       3.540  83.848 109.476  0.00  0.00    -0.241 OA
ENDBRANCH   3  22
TORSDOF 7
ENDMDL
MODEL 2
REMARK VINA RESULT:      -4.7      6.102      7.977
REMARK  7 active torsions:
REMARK  status: ('A' for Active; 'I' for Inactive)
REMARK    1  A    between atoms: C_2  and  C_3 
REMARK    2  A    between atoms: C_3  and  O_6 
REMARK    3  A    between atoms: C_3  and  C_4 
REMARK    4  A    between atoms: C_7  and  O_6 
REMARK    5  A    between atoms: C_9  and  C_10 
REMARK    6  A    between atoms: N_15  and  C_14 
REMARK    7  A    between atoms: N_20  and  C_19 
REMARK       I    between atoms: C_22  and  N_20 
ROOT
ATOM      1  C   LIG d   1      -1.000  77.615 116.901  0.00  0.00     0.161 C 
ATOM      2  C   LIG d   1      -1.767  78.137 115.847  0.00  0.00     0.016 C 
ATOM      3  C   LIG d   1      -1.904  77.498 114.593  0.00  0.00     0.038 C 
ATOM      4  C   LIG d   1      -1.400  76.210 114.359  0.00  0.00     0.028 C 
ATOM      5  C   LIG d   1      -0.193  75.865 115.224  0.00  0.00    -0.047 C 
ATOM      6  C   LIG d   1      -0.535  76.158 116.703  0.00  0.00     0.091 C 
ENDROOT
BRANCH   1   7
ATOM      7  O   LIG d   1      -1.722  77.746 118.142  0.00  0.00    -0.368 OA
BRANCH   7   8
ATOM      8  C   LIG d   1      -3.163  77.624 118.057  0.00  0.00     0.119 C 
BRANCH   8   9
ATOM      9  C   LIG d   1      -3.770  78.559 119.121  0.00  0.00     0.028 C 
ATOM     10  C   LIG d   1      -2.962  79.857 119.292  0.00  0.00     0.006 C 
ENDBRANCH   8   9
BRANCH   8  11
ATOM     11  C   LIG d   1      -3.626  76.216 118.443  0.00  0.00     0.028 C 
ATOM     12  C   LIG d   1      -4.112  75.397 117.236  0.00  0.00     0.006 C 
ENDBRANCH   8  11
ENDBRANCH   7   8
ENDBRANCH   1   7
BRANCH   6  13
ATOM     13  N   LIG d   1       0.621  75.927 117.608  0.00  0.00    -0.311 N 
ATOM     14  C   LIG d   1       0.565  75.144 118.684  0.00  0.00     0.210 C 
ATOM     15  C   LIG d   1       1.864  75.060 119.491  0.00  0.00     0.109 C 
ATOM     16  O   LIG d   1      -0.428  74.485 119.028  0.00  0.00    -0.276 OA
ATOM     17  H   LIG d   1       1.476  76.399 117.386  0.00  0.00     0.149 HD
ENDBRANCH   6  13
BRANCH   5  18
ATOM     18  N   LIG d   1       0.143  74.450 114.977  0.00  0.00     0.381 N 
ATOM     19  H   LIG d   1      -0.346  74.122 114.168  0.00  0.00    -0.090 HD
ATOM     20  H   LIG d   1      -0.152  73.904 115.767  0.00  0.00    -0.090 HD
ATOM     21  H   LIG d   1       1.125  74.351 114.843  0.00  0.00    -0.090 HD
ENDBRANCH   5  18
BRANCH   3  22
ATOM     22  C   LIG d   1      -2.516  78.167 113.544  0.00  0.00     0.382 C 
ATOM     23  O   LIG d   1      -2.645  79.414 113.586  0.00  0.00    -0.241 OA
ATOM     24  O   LIG d   1      -2.980  77.534 112.577  0.00  0.00    -0.241 OA
ENDBRANCH   3  22
TORSDOF 7
ENDMDL
MODEL 3
REMARK VINA RESULT:      -4.6      5.020      7.761
REMARK  7 active torsions:
REMARK  status: ('A' for Active; 'I' for Inactive)
REMARK    1  A    between atoms: C_2  and  C_3 
REMARK    2  A    between atoms: C_3  and  O_6 
REMARK    3  A    between atoms: C_3  and  C_4 
REMARK    4  A    between atoms: C_7  and  O_6 
REMARK    5  A    between atoms: C_9  and  C_10 
REMARK    6  A    between atoms: N_15  and  C_14 
REMARK    7  A    between atoms: N_20  and  C_19 
REMARK       I    between atoms: C_22  and  N_20 
ROOT
ATOM      1  C   LIG d   1      -2.027  76.851 115.782  0.00  0.00     0.161 C 
ATOM      2  C   LIG d   1      -2.479  76.951 114.455  0.00  0.00     0.016 C 
ATOM      3  C   LIG d   1      -1.925  77.844 113.510  0.00  0.00     0.038 C 
ATOM      4  C   LIG d   1      -0.773  78.596 113.787  0.00  0.00     0.028 C 
ATOM      5  C   LIG d   1      -0.591  78.901 115.269  0.00  0.00    -0.047 C 
ATOM      6  C   LIG d   1      -0.700  77.583 116.070  0.00  0.00     0.091 C 
ENDROOT
BRANCH   1   7
ATOM      7  O   LIG d   1      -1.926  75.463 116.160  0.00  0.00    -0.368 OA
BRANCH   7   8
ATOM      8  C   LIG d   1      -2.893  74.996 117.133  0.00  0.00     0.119 C 
BRANCH   8   9
ATOM      9  C   LIG d   1      -3.801  76.188 117.492  0.00  0.00     0.028 C 
ATOM     10  C   LIG d   1      -3.659  76.613 118.963  0.00  0.00     0.006 C 
ENDBRANCH   8   9
BRANCH   8  11
ATOM     11  C   LIG d   1      -2.213  74.595 118.446  0.00  0.00     0.028 C 
ATOM     12  C   LIG d   1      -0.745  74.182 118.254  0.00  0.00     0.006 C 
ENDBRANCH   8  11
ENDBRANCH   7   8
ENDBRANCH   1   7
BRANCH   6  13
ATOM     13  N   LIG d   1      -0.617  77.803 117.537  0.00  0.00    -0.311 N 
ATOM     14  C   LIG d   1       0.434  77.447 118.274  0.00  0.00     0.210 C 
ATOM     15  C   LIG d   1       0.307  77.746 119.771  0.00  0.00     0.109 C 
ATOM     16  O   LIG d   1       1.474  76.941 117.824  0.00  0.00    -0.276 OA
ATOM     17  H   LIG d   1      -1.404  78.236 117.979  0.00  0.00     0.149 HD
ENDBRANCH   6  13
BRANCH   5  18
ATOM     18  N   LIG d   1       0.715  79.568 115.430  0.00  0.00     0.381 N 
ATOM     19  H   LIG d   1       0.873  79.774 116.396  0.00  0.00    -0.090 HD
ATOM     20  H   LIG d   1       0.702  80.435 114.921  0.00  0.00    -0.090 HD
ATOM     21  H   LIG d   1       1.442  78.982 115.084  0.00  0.00    -0.090 HD
ENDBRANCH   5  18
BRANCH   3  22
ATOM     22  C   LIG d   1      -2.548  78.021 112.284  0.00  0.00     0.382 C 
ATOM     23  O   LIG d   1      -1.984  78.690 111.385  0.00  0.00    -0.241 OA
ATOM     24  O   LIG d   1      -3.687  77.558 112.082  0.00  0.00    -0.241 OA
ENDBRANCH   3  22
TORSDOF 7
ENDMDL
MODEL 4
REMARK VINA RESULT:      -4.4      3.288      7.048
REMARK  7 active torsions:
REMARK  status: ('A' for Active; 'I' for Inactive)
REMARK    1  A    between atoms: C_2  and  C_3 
REMARK    2  A    between atoms: C_3  and  O_6 
REMARK    3  A    between atoms: C_3  and  C_4 
REMARK    4  A    between atoms: C_7  and  O_6 
REMARK    5  A    between atoms: C_9  and  C_10 
REMARK    6  A    between atoms: N_15  and  C_14 
REMARK    7  A    between atoms: N_20  and  C_19 
REMARK       I    between atoms: C_22  and  N_20 
ROOT
ATOM      1  C   LIG d   1      -1.033  78.604 113.879  0.00  0.00     0.161 C 
ATOM      2  C   LIG d   1      -2.181  77.816 113.690  0.00  0.00     0.016 C 
ATOM      3  C   LIG d   1      -2.824  77.115 114.736  0.00  0.00     0.038 C 
ATOM      4  C   LIG d   1      -2.449  77.278 116.078  0.00  0.00     0.028 C 
ATOM      5  C   LIG d   1      -0.984  77.665 116.254  0.00  0.00    -0.047 C 
ATOM      6  C   LIG d   1      -0.675  78.882 115.353  0.00  0.00     0.091 C 
ENDROOT
BRANCH   1   7
ATOM      7  O   LIG d   1      -1.166  79.842 113.153  0.00  0.00    -0.368 OA
BRANCH   7   8
ATOM      8  C   LIG d   1      -0.144  80.114 112.163  0.00  0.00     0.119 C 
BRANCH   8   9
ATOM      9  C   LIG d   1      -0.094  81.640 111.955  0.00  0.00     0.028 C 
ATOM     10  C   LIG d   1       1.275  82.238 112.320  0.00  0.00     0.006 C 
ENDBRANCH   8   9
BRANCH   8  11
ATOM     11  C   LIG d   1      -0.520  79.530 110.798  0.00  0.00     0.028 C 
ATOM     12  C   LIG d   1       0.565  79.756 109.734  0.00  0.00     0.006 C 
ENDBRANCH   8  11
ENDBRANCH   7   8
ENDBRANCH   1   7
BRANCH   6  13
ATOM     13  N   LIG d   1       0.758  79.273 115.402  0.00  0.00    -0.311 N 
ATOM     14  C   LIG d   1       1.255  80.128 116.294  0.00  0.00     0.210 C 
ATOM     15  C   LIG d   1       2.755  80.409 116.156  0.00  0.00     0.109 C 
ATOM     16  O   LIG d   1       0.603  80.655 117.208  0.00  0.00    -0.276 OA
ATOM     17  H   LIG d   1       1.365  78.868 114.716  0.00  0.00     0.149 HD
ENDBRANCH   6  13
BRANCH   5  18
ATOM     18  N   LIG d   1      -0.764  77.936 117.688  0.00  0.00     0.381 N 
ATOM     19  H   LIG d   1      -1.213  77.231 118.238  0.00  0.00    -0.090 HD
ATOM     20  H   LIG d   1      -1.174  78.824 117.917  0.00  0.00    -0.090 HD
ATOM     21  H   LIG d   1       0.212  77.951 117.886  0.00  0.00    -0.090 HD
ENDBRANCH   5  18
BRANCH   3  22
ATOM     22  C   LIG d   1      -3.831  76.210 114.439  0.00  0.00     0.382 C 
ATOM     23  O   LIG d   1      -4.439  76.285 113.344  0.00  0.00    -0.241 OA
ATOM     24  O   LIG d   1      -4.170  75.346 115.271  0.00  0.00    -0.241 OA
ENDBRANCH   3  22
TORSDOF 7
ENDMDL
MODEL 5
REMARK VINA RESULT:      -4.2      5.456      7.150
REMARK  7 active torsions:
REMARK  status: ('A' for Active; 'I' for Inactive)
REMARK    1  A    between atoms: C_2  and  C_3 
REMARK    2  A    between atoms: C_3  and  O_6 
REMARK    3  A    between atoms: C_3  and  C_4 
REMARK    4  A    between atoms: C_7  and  O_6 
REMARK    5  A    between atoms: C_9  and  C_10 
REMARK    6  A    between atoms: N_15  and  C_14 
REMARK    7  A    between atoms: N_20  and  C_19 
REMARK       I    between atoms: C_22  and  N_20 
ROOT
ATOM      1  C   LIG d   1      -0.413  78.103 116.857  0.00  0.00     0.161 C 
ATOM      2  C   LIG d   1      -1.272  78.487 115.813  0.00  0.00     0.016 C 
ATOM      3  C   LIG d   1      -1.773  77.585 114.847  0.00  0.00     0.038 C 
ATOM      4  C   LIG d   1      -1.570  76.201 114.948  0.00  0.00     0.028 C 
ATOM      5  C   LIG d   1      -0.295  75.829 115.697  0.00  0.00    -0.047 C 
ATOM      6  C   LIG d   1      -0.270  76.578 117.049  0.00  0.00     0.091 C 
ENDROOT
BRANCH   1   7
ATOM      7  O   LIG d   1      -0.832  78.725 118.088  0.00  0.00    -0.368 OA
BRANCH   7   8
ATOM      8  C   LIG d   1      -0.476  80.120 118.250  0.00  0.00     0.119 C 
BRANCH   8   9
ATOM      9  C   LIG d   1       1.061  80.217 118.183  0.00  0.00     0.028 C 
ATOM     10  C   LIG d   1       1.538  81.322 117.226  0.00  0.00     0.006 C 
ENDBRANCH   8   9
BRANCH   8  11
ATOM     11  C   LIG d   1      -0.854  80.634 119.642  0.00  0.00     0.028 C 
ATOM     12  C   LIG d   1      -1.604  81.975 119.599  0.00  0.00     0.006 C 
ENDBRANCH   8  11
ENDBRANCH   7   8
ENDBRANCH   1   7
BRANCH   6  13
ATOM     13  N   LIG d   1       0.984  76.336 117.808  0.00  0.00    -0.311 N 
ATOM     14  C   LIG d   1       1.097  75.412 118.761  0.00  0.00     0.210 C 
ATOM     15  C   LIG d   1       2.472  75.341 119.432  0.00  0.00     0.109 C 
ATOM     16  O   LIG d   1       0.200  74.622 119.090  0.00  0.00    -0.276 OA
ATOM     17  H   LIG d   1       1.772  76.912 117.583  0.00  0.00     0.149 HD
ENDBRANCH   6  13
BRANCH   5  18
ATOM     18  N   LIG d   1      -0.279  74.362 115.848  0.00  0.00     0.381 N 
ATOM     19  H   LIG d   1       0.090  73.940 115.020  0.00  0.00    -0.090 HD
ATOM     20  H   LIG d   1      -1.222  74.038 115.975  0.00  0.00    -0.090 HD
ATOM     21  H   LIG d   1       0.276  74.107 116.635  0.00  0.00    -0.090 HD
ENDBRANCH   5  18
BRANCH   3  22
ATOM     22  C   LIG d   1      -2.454  78.072 113.741  0.00  0.00     0.382 C 
ATOM     23  O   LIG d   1      -2.579  79.310 113.577  0.00  0.00    -0.241 OA
ATOM     24  O   LIG d   1      -2.983  77.289 112.930  0.00  0.00    -0.241 OA
ENDBRANCH   3  22
TORSDOF 7
ENDMDL
MODEL 6
REMARK VINA RESULT:      -4.2      5.990      7.473
REMARK  7 active torsions:
REMARK  status: ('A' for Active; 'I' for Inactive)
REMARK    1  A    between atoms: C_2  and  C_3 
REMARK    2  A    between atoms: C_3  and  O_6 
REMARK    3  A    between atoms: C_3  and  C_4 
REMARK    4  A    between atoms: C_7  and  O_6 
REMARK    5  A    between atoms: C_9  and  C_10 
REMARK    6  A    between atoms: N_15  and  C_14 
REMARK    7  A    between atoms: N_20  and  C_19 
REMARK       I    between atoms: C_22  and  N_20 
ROOT
ATOM      1  C   LIG d   1      -0.983  77.669 116.979  0.00  0.00     0.161 C 
ATOM      2  C   LIG d   1      -1.769  78.171 115.928  0.00  0.00     0.016 C 
ATOM      3  C   LIG d   1      -1.925  77.510 114.688  0.00  0.00     0.038 C 
ATOM      4  C   LIG d   1      -1.423  76.219 114.468  0.00  0.00     0.028 C 
ATOM      5  C   LIG d   1      -0.201  75.891 115.319  0.00  0.00    -0.047 C 
ATOM      6  C   LIG d   1      -0.519  76.209 116.798  0.00  0.00     0.091 C 
ENDROOT
BRANCH   1   7
ATOM      7  O   LIG d   1      -1.685  77.820 118.229  0.00  0.00    -0.368 OA
BRANCH   7   8
ATOM      8  C   LIG d   1      -1.146  78.802 119.147  0.00  0.00     0.119 C 
BRANCH   8   9
ATOM      9  C   LIG d   1      -2.125  79.991 119.181  0.00  0.00     0.028 C 
ATOM     10  C   LIG d   1      -3.587  79.553 118.993  0.00  0.00     0.006 C 
ENDBRANCH   8   9
BRANCH   8  11
ATOM     11  C   LIG d   1       0.176  79.381 118.632  0.00  0.00     0.028 C 
ATOM     12  C   LIG d   1       1.360  79.085 119.567  0.00  0.00     0.006 C 
ENDBRANCH   8  11
ENDBRANCH   7   8
ENDBRANCH   1   7
BRANCH   6  13
ATOM     13  N   LIG d   1       0.652  75.996 117.688  0.00  0.00    -0.311 N 
ATOM     14  C   LIG d   1       0.643  75.157 118.723  0.00  0.00     0.210 C 
ATOM     15  C   LIG d   1       1.949  75.103 119.522  0.00  0.00     0.109 C 
ATOM     16  O   LIG d   1      -0.311  74.429 119.035  0.00  0.00    -0.276 OA
ATOM     17  H   LIG d   1       1.479  76.523 117.488  0.00  0.00     0.149 HD
ENDBRANCH   6  13
BRANCH   5  18
ATOM     18  N   LIG d   1       0.133  74.472 115.091  0.00  0.00     0.381 N 
ATOM     19  H   LIG d   1      -0.704  73.949 114.928  0.00  0.00    -0.090 HD
ATOM     20  H   LIG d   1       0.578  74.107 115.915  0.00  0.00    -0.090 HD
ATOM     21  H   LIG d   1       0.744  74.387 114.309  0.00  0.00    -0.090 HD
ENDBRANCH   5  18
BRANCH   3  22
ATOM     22  C   LIG d   1      -2.555  78.160 113.638  0.00  0.00     0.382 C 
ATOM     23  O   LIG d   1      -3.037  77.496 112.689  0.00  0.00    -0.241 OA
ATOM     24  O   LIG d   1      -2.609  79.404 113.605  0.00  0.00    -0.241 OA
ENDBRANCH   3  22
TORSDOF 7
ENDMDL
MODEL 7
REMARK VINA RESULT:      -4.2      2.692      5.605
REMARK  7 active torsions:
REMARK  status: ('A' for Active; 'I' for Inactive)
REMARK    1  A    between atoms: C_2  and  C_3 
REMARK    2  A    between atoms: C_3  and  O_6 
REMARK    3  A    between atoms: C_3  and  C_4 
REMARK    4  A    between atoms: C_7  and  O_6 
REMARK    5  A    between atoms: C_9  and  C_10 
REMARK    6  A    between atoms: N_15  and  C_14 
REMARK    7  A    between atoms: N_20  and  C_19 
REMARK       I    between atoms: C_22  and  N_20 
ROOT
ATOM      1  C   LIG d   1       0.210  80.122 112.882  0.00  0.00     0.161 C 
ATOM      2  C   LIG d   1      -0.835  79.551 112.137  0.00  0.00     0.016 C 
ATOM      3  C   LIG d   1      -1.750  78.615 112.672  0.00  0.00     0.038 C 
ATOM      4  C   LIG d   1      -1.774  78.300 114.039  0.00  0.00     0.028 C 
ATOM      5  C   LIG d   1      -0.422  78.467 114.723  0.00  0.00    -0.047 C 
ATOM      6  C   LIG d   1       0.132  79.875 114.403  0.00  0.00     0.091 C 
ENDROOT
BRANCH   1   7
ATOM      7  O   LIG d   1       0.290  81.535 112.608  0.00  0.00    -0.368 OA
BRANCH   7   8
ATOM      8  C   LIG d   1       0.131  81.925 111.221  0.00  0.00     0.119 C 
BRANCH   8   9
ATOM      9  C   LIG d   1       1.519  81.843 110.556  0.00  0.00     0.028 C 
ATOM     10  C   LIG d   1       1.770  83.003 109.578  0.00  0.00     0.006 C 
ENDBRANCH   8   9
BRANCH   8  11
ATOM     11  C   LIG d   1      -0.290  83.392 111.100  0.00  0.00     0.028 C 
ATOM     12  C   LIG d   1      -0.357  84.107 112.459  0.00  0.00     0.006 C 
ENDBRANCH   8  11
ENDBRANCH   7   8
ENDBRANCH   1   7
BRANCH   6  13
ATOM     13  N   LIG d   1       1.491  80.091 114.965  0.00  0.00    -0.311 N 
ATOM     14  C   LIG d   1       1.711  80.581 116.183  0.00  0.00     0.210 C 
ATOM     15  C   LIG d   1       3.187  80.743 116.558  0.00  0.00     0.109 C 
ATOM     16  O   LIG d   1       0.823  80.866 117.002  0.00  0.00    -0.276 OA
ATOM     17  H   LIG d   1       2.269  79.856 114.380  0.00  0.00     0.149 HD
ENDBRANCH   6  13
BRANCH   5  18
ATOM     18  N   LIG d   1      -0.621  78.239 116.167  0.00  0.00     0.381 N 
ATOM     19  H   LIG d   1      -0.833  79.106 116.621  0.00  0.00    -0.090 HD
ATOM     20  H   LIG d   1       0.230  77.877 116.560  0.00  0.00    -0.090 HD
ATOM     21  H   LIG d   1      -1.364  77.591 116.310  0.00  0.00    -0.090 HD
ENDBRANCH   5  18
BRANCH   3  22
ATOM     22  C   LIG d   1      -2.629  77.954 111.828  0.00  0.00     0.382 C 
ATOM     23  O   LIG d   1      -3.680  77.446 112.290  0.00  0.00    -0.241 OA
ATOM     24  O   LIG d   1      -2.364  77.820 110.619  0.00  0.00    -0.241 OA
ENDBRANCH   3  22
TORSDOF 7
ENDMDL
MODEL 8
REMARK VINA RESULT:      -4.2      1.774      4.969
REMARK  7 active torsions:
REMARK  status: ('A' for Active; 'I' for Inactive)
REMARK    1  A    between atoms: C_2  and  C_3 
REMARK    2  A    between atoms: C_3  and  O_6 
REMARK    3  A    between atoms: C_3  and  C_4 
REMARK    4  A    between atoms: C_7  and  O_6 
REMARK    5  A    between atoms: C_9  and  C_10 
REMARK    6  A    between atoms: N_15  and  C_14 
REMARK    7  A    between atoms: N_20  and  C_19 
REMARK       I    between atoms: C_22  and  N_20 
ROOT
ATOM      1  C   LIG d   1       0.965  80.951 113.252  0.00  0.00     0.161 C 
ATOM      2  C   LIG d   1      -0.018  79.948 113.266  0.00  0.00     0.016 C 
ATOM      3  C   LIG d   1      -0.694  79.504 112.106  0.00  0.00     0.038 C 
ATOM      4  C   LIG d   1      -0.322  79.931 110.822  0.00  0.00     0.028 C 
ATOM      5  C   LIG d   1       0.320  81.314 110.806  0.00  0.00    -0.047 C 
ATOM      6  C   LIG d   1       1.463  81.349 111.847  0.00  0.00     0.091 C 
ENDROOT
BRANCH   1   7
ATOM      7  O   LIG d   1       2.075  80.559 114.084  0.00  0.00    -0.368 OA
BRANCH   7   8
ATOM      8  C   LIG d   1       1.983  80.924 115.483  0.00  0.00     0.119 C 
BRANCH   8   9
ATOM      9  C   LIG d   1       2.325  82.422 115.594  0.00  0.00     0.028 C 
ATOM     10  C   LIG d   1       3.148  82.744 116.853  0.00  0.00     0.006 C 
ENDBRANCH   8   9
BRANCH   8  11
ATOM     11  C   LIG d   1       3.045  80.202 116.318  0.00  0.00     0.028 C 
ATOM     12  C   LIG d   1       2.456  79.089 117.198  0.00  0.00     0.006 C 
ENDBRANCH   8  11
ENDBRANCH   7   8
ENDBRANCH   1   7
BRANCH   6  13
ATOM     13  N   LIG d   1       2.089  82.693 111.955  0.00  0.00    -0.311 N 
ATOM     14  C   LIG d   1       3.186  83.046 111.288  0.00  0.00     0.210 C 
ATOM     15  C   LIG d   1       3.677  84.472 111.560  0.00  0.00     0.109 C 
ATOM     16  O   LIG d   1       3.781  82.326 110.473  0.00  0.00    -0.276 OA
ATOM     17  H   LIG d   1       1.653  83.351 112.571  0.00  0.00     0.149 HD
ENDBRANCH   6  13
BRANCH   5  18
ATOM     18  N   LIG d   1       0.782  81.575 109.430  0.00  0.00     0.381 N 
ATOM     19  H   LIG d   1       0.098  82.116 108.940  0.00  0.00    -0.090 HD
ATOM     20  H   LIG d   1       0.892  80.698 108.952  0.00  0.00    -0.090 HD
ATOM     21  H   LIG d   1       1.651  82.062 109.449  0.00  0.00    -0.090 HD
ENDBRANCH   5  18
BRANCH   3  22
ATOM     22  C   LIG d   1      -1.781  78.652 112.228  0.00  0.00     0.382 C 
ATOM     23  O   LIG d   1      -1.768  77.534 111.660  0.00  0.00    -0.241 OA
ATOM     24  O   LIG d   1      -2.793  79.007 112.861  0.00  0.00    -0.241 OA
ENDBRANCH   3  22
TORSDOF 7
ENDMDL
MODEL 9
REMARK VINA RESULT:      -4.1      5.145      7.791
REMARK  7 active torsions:
REMARK  status: ('A' for Active; 'I' for Inactive)
REMARK    1  A    between atoms: C_2  and  C_3 
REMARK    2  A    between atoms: C_3  and  O_6 
REMARK    3  A    between atoms: C_3  and  C_4 
REMARK    4  A    between atoms: C_7  and  O_6 
REMARK    5  A    between atoms: C_9  and  C_10 
REMARK    6  A    between atoms: N_15  and  C_14 
REMARK    7  A    between atoms: N_20  and  C_19 
REMARK       I    between atoms: C_22  and  N_20 
ROOT
ATOM      1  C   LIG d   1      -1.508  78.104 116.158  0.00  0.00     0.161 C 
ATOM      2  C   LIG d   1      -1.920  77.573 117.391  0.00  0.00     0.016 C 
ATOM      3  C   LIG d   1      -1.906  76.190 117.686  0.00  0.00     0.038 C 
ATOM      4  C   LIG d   1      -1.332  75.252 116.815  0.00  0.00     0.028 C 
ATOM      5  C   LIG d   1      -1.365  75.683 115.353  0.00  0.00    -0.047 C 
ATOM      6  C   LIG d   1      -0.775  77.107 115.236  0.00  0.00     0.091 C 
ENDROOT
BRANCH   1   7
ATOM      7  O   LIG d   1      -0.695  79.274 116.377  0.00  0.00    -0.368 OA
BRANCH   7   8
ATOM      8  C   LIG d   1       0.090  79.286 117.595  0.00  0.00     0.119 C 
BRANCH   8   9
ATOM      9  C   LIG d   1       0.003  80.705 118.188  0.00  0.00     0.028 C 
ATOM     10  C   LIG d   1      -1.223  80.885 119.100  0.00  0.00     0.006 C 
ENDBRANCH   8   9
BRANCH   8  11
ATOM     11  C   LIG d   1       1.576  79.059 117.302  0.00  0.00     0.028 C 
ATOM     12  C   LIG d   1       2.020  77.611 117.560  0.00  0.00     0.006 C 
ENDBRANCH   8  11
ENDBRANCH   7   8
ENDBRANCH   1   7
BRANCH   6  13
ATOM     13  N   LIG d   1      -0.847  77.639 113.850  0.00  0.00    -0.311 N 
ATOM     14  C   LIG d   1      -1.964  77.643 113.124  0.00  0.00     0.210 C 
ATOM     15  C   LIG d   1      -1.815  78.219 111.712  0.00  0.00     0.109 C 
ATOM     16  O   LIG d   1      -3.071  77.255 113.526  0.00  0.00    -0.276 OA
ATOM     17  H   LIG d   1      -0.001  78.002 113.456  0.00  0.00     0.149 HD
ENDBRANCH   6  13
BRANCH   5  18
ATOM     18  N   LIG d   1      -0.614  74.680 114.575  0.00  0.00     0.381 N 
ATOM     19  H   LIG d   1      -0.916  74.696 113.621  0.00  0.00    -0.090 HD
ATOM     20  H   LIG d   1      -0.804  73.768 114.951  0.00  0.00    -0.090 HD
ATOM     21  H   LIG d   1       0.362  74.871 114.625  0.00  0.00    -0.090 HD
ENDBRANCH   5  18
BRANCH   3  22
ATOM     22  C   LIG d   1      -2.506  75.729 118.848  0.00  0.00     0.382 C 
ATOM     23  O   LIG d   1      -3.031  76.541 119.647  0.00  0.00    -0.241 OA
ATOM     24  O   LIG d   1      -2.491  74.516 119.128  0.00  0.00    -0.241 OA
ENDBRANCH   3  22
TORSDOF 7
ENDMDL
