MODEL 1
REMARK VINA RESULT:      -5.3      0.000      0.000
REMARK  7 active torsions:
REMARK  status: ('A' for Active; 'I' for Inactive)
REMARK    1  A    between atoms: C_2  and  C_3 
REMARK    2  A    between atoms: C_3  and  O_6 
REMARK    3  A    between atoms: C_3  and  C_4 
REMARK    4  A    between atoms: C_7  and  O_6 
REMARK    5  A    between atoms: C_9  and  C_10 
REMARK    6  A    between atoms: N_15  and  C_14 
REMARK    7  A    between atoms: N_20  and  C_19 
REMARK       I    between atoms: C_22  and  N_20 
ROOT
ATOM      1  C   LIG d   1      -0.983  80.066 112.964  0.00  0.00     0.161 C 
ATOM      2  C   LIG d   1      -1.462  78.898 112.348  0.00  0.00     0.016 C 
ATOM      3  C   LIG d   1      -1.128  78.521 111.027  0.00  0.00     0.038 C 
ATOM      4  C   LIG d   1      -0.164  79.215 110.280  0.00  0.00     0.028 C 
ATOM      5  C   LIG d   1      -0.034  80.682 110.673  0.00  0.00    -0.047 C 
ATOM      6  C   LIG d   1       0.156  80.777 112.204  0.00  0.00     0.091 C 
ENDROOT
BRANCH   1   7
ATOM      7  O   LIG d   1      -0.578  79.775 114.316  0.00  0.00    -0.368 OA
BRANCH   7   8
ATOM      8  C   LIG d   1      -1.170  78.598 114.920  0.00  0.00     0.119 C 
BRANCH   8   9
ATOM      9  C   LIG d   1      -2.156  79.080 116.002  0.00  0.00     0.028 C 
ATOM     10  C   LIG d   1      -3.615  79.064 115.516  0.00  0.00     0.006 C 
ENDBRANCH   8   9
BRANCH   8  11
ATOM     11  C   LIG d   1      -0.122  77.768 115.666  0.00  0.00     0.028 C 
ATOM     12  C   LIG d   1      -0.483  76.275 115.735  0.00  0.00     0.006 C 
ENDBRANCH   8  11
ENDBRANCH   7   8
ENDBRANCH   1   7
BRANCH   6  13
ATOM     13  N   LIG d   1       0.208  82.183 112.683  0.00  0.00    -0.311 N 
ATOM     14  C   LIG d   1      -0.563  83.153 112.194  0.00  0.00     0.210 C 
ATOM     15  C   LIG d   1      -0.336  84.535 112.815  0.00  0.00     0.109 C 
ATOM     16  O   LIG d   1      -1.436  82.993 111.328  0.00  0.00    -0.276 OA
ATOM     17  H   LIG d   1       0.867  82.394 113.407  0.00  0.00     0.149 HD
ENDBRANCH   6  13
BRANCH   5  18
ATOM     18  N   LIG d   1       1.096  81.249 109.913  0.00  0.00     0.381 N 
ATOM     19  H   LIG d   1       1.023  80.987 108.951  0.00  0.00    -0.090 HD
ATOM     20  H   LIG d   1       1.954  80.872 110.278  0.00  0.00    -0.090 HD
ATOM     21  H   LIG d   1       1.100  82.242 109.996  0.00  0.00    -0.090 HD
ENDBRANCH   5  18
BRANCH   3  22
ATOM     22  C   LIG d   1      -1.790  77.462 110.426  0.00  0.00     0.382 C 
ATOM     23  O   LIG d   1      -3.000  77.574 110.115  0.00  0.00    -0.241 OA
ATOM     24  O   LIG d   1      -1.205  76.379 110.232  0.00  0.00    -0.241 OA
ENDBRANCH   3  22
TORSDOF 7
ENDMDL
MODEL 2
REMARK VINA RESULT:      -5.3      3.503      5.750
REMARK  7 active torsions:
REMARK  status: ('A' for Active; 'I' for Inactive)
REMARK    1  A    between atoms: C_2  and  C_3 
REMARK    2  A    between atoms: C_3  and  O_6 
REMARK    3  A    between atoms: C_3  and  C_4 
REMARK    4  A    between atoms: C_7  and  O_6 
REMARK    5  A    between atoms: C_9  and  C_10 
REMARK    6  A    between atoms: N_15  and  C_14 
REMARK    7  A    between atoms: N_20  and  C_19 
REMARK       I    between atoms: C_22  and  N_20 
ROOT
ATOM      1  C   LIG d   1      -2.298  78.433 116.142  0.00  0.00     0.161 C 
ATOM      2  C   LIG d   1      -2.761  79.042 114.963  0.00  0.00     0.016 C 
ATOM      3  C   LIG d   1      -2.328  78.664 113.671  0.00  0.00     0.038 C 
ATOM      4  C   LIG d   1      -1.511  77.544 113.461  0.00  0.00     0.028 C 
ATOM      5  C   LIG d   1      -0.619  77.212 114.652  0.00  0.00    -0.047 C 
ATOM      6  C   LIG d   1      -1.491  77.136 115.926  0.00  0.00     0.091 C 
ENDROOT
BRANCH   1   7
ATOM      7  O   LIG d   1      -3.404  78.193 117.034  0.00  0.00    -0.368 OA
BRANCH   7   8
ATOM      8  C   LIG d   1      -3.656  79.218 118.027  0.00  0.00     0.119 C 
BRANCH   8   9
ATOM      9  C   LIG d   1      -2.327  79.957 118.278  0.00  0.00     0.028 C 
ATOM     10  C   LIG d   1      -2.511  81.220 119.136  0.00  0.00     0.006 C 
ENDBRANCH   8   9
BRANCH   8  11
ATOM     11  C   LIG d   1      -4.040  78.605 119.376  0.00  0.00     0.028 C 
ATOM     12  C   LIG d   1      -3.147  77.417 119.767  0.00  0.00     0.006 C 
ENDBRANCH   8  11
ENDBRANCH   7   8
ENDBRANCH   1   7
BRANCH   6  13
ATOM     13  N   LIG d   1      -0.684  76.899 117.152  0.00  0.00    -0.311 N 
ATOM     14  C   LIG d   1      -0.369  75.685 117.598  0.00  0.00     0.210 C 
ATOM     15  C   LIG d   1       0.453  75.664 118.891  0.00  0.00     0.109 C 
ATOM     16  O   LIG d   1      -0.664  74.623 117.029  0.00  0.00    -0.276 OA
ATOM     17  H   LIG d   1      -0.377  77.706 117.658  0.00  0.00     0.149 HD
ENDBRANCH   6  13
BRANCH   5  18
ATOM     18  N   LIG d   1       0.076  75.947 114.350  0.00  0.00     0.381 N 
ATOM     19  H   LIG d   1       0.153  75.830 113.360  0.00  0.00    -0.090 HD
ATOM     20  H   LIG d   1      -0.465  75.184 114.717  0.00  0.00    -0.090 HD
ATOM     21  H   LIG d   1       0.983  75.949 114.763  0.00  0.00    -0.090 HD
ENDBRANCH   5  18
BRANCH   3  22
ATOM     22  C   LIG d   1      -2.682  79.436 112.575  0.00  0.00     0.382 C 
ATOM     23  O   LIG d   1      -2.216  79.167 111.442  0.00  0.00    -0.241 OA
ATOM     24  O   LIG d   1      -3.427  80.425 112.713  0.00  0.00    -0.241 OA
ENDBRANCH   3  22
TORSDOF 7
ENDMDL
MODEL 3
REMARK VINA RESULT:      -5.2      3.625      5.993
REMARK  7 active torsions:
REMARK  status: ('A' for Active; 'I' for Inactive)
REMARK    1  A    between atoms: C_2  and  C_3 
REMARK    2  A    between atoms: C_3  and  O_6 
REMARK    3  A    between atoms: C_3  and  C_4 
REMARK    4  A    between atoms: C_7  and  O_6 
REMARK    5  A    between atoms: C_9  and  C_10 
REMARK    6  A    between atoms: N_15  and  C_14 
REMARK    7  A    between atoms: N_20  and  C_19 
REMARK       I    between atoms: C_22  and  N_20 
ROOT
ATOM      1  C   LIG d   1      -2.233  78.392 116.359  0.00  0.00     0.161 C 
ATOM      2  C   LIG d   1      -2.725  79.057 115.224  0.00  0.00     0.016 C 
ATOM      3  C   LIG d   1      -2.331  78.739 113.904  0.00  0.00     0.038 C 
ATOM      4  C   LIG d   1      -1.527  77.625 113.618  0.00  0.00     0.028 C 
ATOM      5  C   LIG d   1      -0.604  77.234 114.767  0.00  0.00    -0.047 C 
ATOM      6  C   LIG d   1      -1.440  77.102 116.061  0.00  0.00     0.091 C 
ENDROOT
BRANCH   1   7
ATOM      7  O   LIG d   1      -3.315  78.116 117.270  0.00  0.00    -0.368 OA
BRANCH   7   8
ATOM      8  C   LIG d   1      -3.196  78.693 118.594  0.00  0.00     0.119 C 
BRANCH   8   9
ATOM      9  C   LIG d   1      -3.636  77.619 119.608  0.00  0.00     0.028 C 
ATOM     10  C   LIG d   1      -4.392  76.457 118.942  0.00  0.00     0.006 C 
ENDBRANCH   8   9
BRANCH   8  11
ATOM     11  C   LIG d   1      -4.174  79.856 118.785  0.00  0.00     0.028 C 
ATOM     12  C   LIG d   1      -3.480  81.150 119.238  0.00  0.00     0.006 C 
ENDBRANCH   8  11
ENDBRANCH   7   8
ENDBRANCH   1   7
BRANCH   6  13
ATOM     13  N   LIG d   1      -0.601  76.804 117.251  0.00  0.00    -0.311 N 
ATOM     14  C   LIG d   1      -0.290  75.568 117.637  0.00  0.00     0.210 C 
ATOM     15  C   LIG d   1       0.569  75.484 118.903  0.00  0.00     0.109 C 
ATOM     16  O   LIG d   1      -0.617  74.535 117.034  0.00  0.00    -0.276 OA
ATOM     17  H   LIG d   1      -0.267  77.585 117.780  0.00  0.00     0.149 HD
ENDBRANCH   6  13
BRANCH   5  18
ATOM     18  N   LIG d   1       0.075  75.980 114.388  0.00  0.00     0.381 N 
ATOM     19  H   LIG d   1       0.083  75.351 115.165  0.00  0.00    -0.090 HD
ATOM     20  H   LIG d   1       1.026  76.188 114.140  0.00  0.00    -0.090 HD
ATOM     21  H   LIG d   1      -0.394  75.560 113.615  0.00  0.00    -0.090 HD
ENDBRANCH   5  18
BRANCH   3  22
ATOM     22  C   LIG d   1      -2.710  79.563 112.855  0.00  0.00     0.382 C 
ATOM     23  O   LIG d   1      -2.259  79.360 111.703  0.00  0.00    -0.241 OA
ATOM     24  O   LIG d   1      -3.464  80.534 113.056  0.00  0.00    -0.241 OA
ENDBRANCH   3  22
TORSDOF 7
ENDMDL
MODEL 4
REMARK VINA RESULT:      -5.0      4.260      6.066
REMARK  7 active torsions:
REMARK  status: ('A' for Active; 'I' for Inactive)
REMARK    1  A    between atoms: C_2  and  C_3 
REMARK    2  A    between atoms: C_3  and  O_6 
REMARK    3  A    between atoms: C_3  and  C_4 
REMARK    4  A    between atoms: C_7  and  O_6 
REMARK    5  A    between atoms: C_9  and  C_10 
REMARK    6  A    between atoms: N_15  and  C_14 
REMARK    7  A    between atoms: N_20  and  C_19 
REMARK       I    between atoms: C_22  and  N_20 
ROOT
ATOM      1  C   LIG d   1      -0.670  78.314 116.436  0.00  0.00     0.161 C 
ATOM      2  C   LIG d   1      -1.693  78.647 115.534  0.00  0.00     0.016 C 
ATOM      3  C   LIG d   1      -2.267  77.722 114.631  0.00  0.00     0.038 C 
ATOM      4  C   LIG d   1      -1.958  76.354 114.676  0.00  0.00     0.028 C 
ATOM      5  C   LIG d   1      -0.566  76.065 115.228  0.00  0.00    -0.047 C 
ATOM      6  C   LIG d   1      -0.398  76.801 116.576  0.00  0.00     0.091 C 
ENDROOT
BRANCH   1   7
ATOM      7  O   LIG d   1      -0.948  78.894 117.726  0.00  0.00    -0.368 OA
BRANCH   7   8
ATOM      8  C   LIG d   1      -2.347  79.024 118.078  0.00  0.00     0.119 C 
BRANCH   8   9
ATOM      9  C   LIG d   1      -2.525  80.387 118.776  0.00  0.00     0.028 C 
ATOM     10  C   LIG d   1      -1.236  81.226 118.760  0.00  0.00     0.006 C 
ENDBRANCH   8   9
BRANCH   8  11
ATOM     11  C   LIG d   1      -2.759  77.979 119.119  0.00  0.00     0.028 C 
ATOM     12  C   LIG d   1      -3.607  76.845 118.522  0.00  0.00     0.006 C 
ENDBRANCH   8  11
ENDBRANCH   7   8
ENDBRANCH   1   7
BRANCH   6  13
ATOM     13  N   LIG d   1       0.966  76.640 117.144  0.00  0.00    -0.311 N 
ATOM     14  C   LIG d   1       1.212  76.014 118.293  0.00  0.00     0.210 C 
ATOM     15  C   LIG d   1       2.687  75.978 118.707  0.00  0.00     0.109 C 
ATOM     16  O   LIG d   1       0.354  75.457 118.994  0.00  0.00    -0.276 OA
ATOM     17  H   LIG d   1       1.726  77.035 116.625  0.00  0.00     0.149 HD
ENDBRANCH   6  13
BRANCH   5  18
ATOM     18  N   LIG d   1      -0.429  74.601 115.347  0.00  0.00     0.381 N 
ATOM     19  H   LIG d   1      -0.028  74.229 114.510  0.00  0.00    -0.090 HD
ATOM     20  H   LIG d   1      -1.342  74.198 115.466  0.00  0.00    -0.090 HD
ATOM     21  H   LIG d   1       0.146  74.375 116.129  0.00  0.00    -0.090 HD
ENDBRANCH   5  18
BRANCH   3  22
ATOM     22  C   LIG d   1      -3.131  78.170 113.644  0.00  0.00     0.382 C 
ATOM     23  O   LIG d   1      -3.499  79.369 113.630  0.00  0.00    -0.241 OA
ATOM     24  O   LIG d   1      -3.582  77.380 112.793  0.00  0.00    -0.241 OA
ENDBRANCH   3  22
TORSDOF 7
ENDMDL
MODEL 5
REMARK VINA RESULT:      -4.9      2.613      4.090
REMARK  7 active torsions:
REMARK  status: ('A' for Active; 'I' for Inactive)
REMARK    1  A    between atoms: C_2  and  C_3 
REMARK    2  A    between atoms: C_3  and  O_6 
REMARK    3  A    between atoms: C_3  and  C_4 
REMARK    4  A    between atoms: C_7  and  O_6 
REMARK    5  A    between atoms: C_9  and  C_10 
REMARK    6  A    between atoms: N_15  and  C_14 
REMARK    7  A    between atoms: N_20  and  C_19 
REMARK       I    between atoms: C_22  and  N_20 
ROOT
ATOM      1  C   LIG d   1      -2.112  77.920 115.010  0.00  0.00     0.161 C 
ATOM      2  C   LIG d   1      -2.728  77.545 113.805  0.00  0.00     0.016 C 
ATOM      3  C   LIG d   1      -2.387  78.101 112.550  0.00  0.00     0.038 C 
ATOM      4  C   LIG d   1      -1.294  78.966 112.395  0.00  0.00     0.028 C 
ATOM      5  C   LIG d   1      -0.966  79.759 113.655  0.00  0.00    -0.047 C 
ATOM      6  C   LIG d   1      -0.841  78.781 114.846  0.00  0.00     0.091 C 
ENDROOT
BRANCH   1   7
ATOM      7  O   LIG d   1      -1.824  76.748 115.797  0.00  0.00    -0.368 OA
BRANCH   7   8
ATOM      8  C   LIG d   1      -2.529  76.639 117.058  0.00  0.00     0.119 C 
BRANCH   8   9
ATOM      9  C   LIG d   1      -1.494  76.263 118.136  0.00  0.00     0.028 C 
ATOM     10  C   LIG d   1      -0.325  75.442 117.566  0.00  0.00     0.006 C 
ENDBRANCH   8   9
BRANCH   8  11
ATOM     11  C   LIG d   1      -3.532  75.481 117.038  0.00  0.00     0.028 C 
ATOM     12  C   LIG d   1      -3.316  74.527 115.852  0.00  0.00     0.006 C 
ENDBRANCH   8  11
ENDBRANCH   7   8
ENDBRANCH   1   7
BRANCH   6  13
ATOM     13  N   LIG d   1      -0.604  79.483 116.134  0.00  0.00    -0.311 N 
ATOM     14  C   LIG d   1       0.395  79.180 116.961  0.00  0.00     0.210 C 
ATOM     15  C   LIG d   1       0.446  80.014 118.245  0.00  0.00     0.109 C 
ATOM     16  O   LIG d   1       1.262  78.323 116.738  0.00  0.00    -0.276 OA
ATOM     17  H   LIG d   1      -1.243  80.215 116.379  0.00  0.00     0.149 HD
ENDBRANCH   6  13
BRANCH   5  18
ATOM     18  N   LIG d   1       0.274  80.515 113.396  0.00  0.00     0.381 N 
ATOM     19  H   LIG d   1       0.076  81.495 113.376  0.00  0.00    -0.090 HD
ATOM     20  H   LIG d   1       0.635  80.248 112.497  0.00  0.00    -0.090 HD
ATOM     21  H   LIG d   1       0.948  80.318 114.104  0.00  0.00    -0.090 HD
ENDBRANCH   5  18
BRANCH   3  22
ATOM     22  C   LIG d   1      -3.169  77.822 111.440  0.00  0.00     0.382 C 
ATOM     23  O   LIG d   1      -4.410  77.682 111.566  0.00  0.00    -0.241 OA
ATOM     24  O   LIG d   1      -2.645  77.665 110.321  0.00  0.00    -0.241 OA
ENDBRANCH   3  22
TORSDOF 7
ENDMDL
MODEL 6
REMARK VINA RESULT:      -4.8      3.535      4.992
REMARK  7 active torsions:
REMARK  status: ('A' for Active; 'I' for Inactive)
REMARK    1  A    between atoms: C_2  and  C_3 
REMARK    2  A    between atoms: C_3  and  O_6 
REMARK    3  A    between atoms: C_3  and  C_4 
REMARK    4  A    between atoms: C_7  and  O_6 
REMARK    5  A    between atoms: C_9  and  C_10 
REMARK    6  A    between atoms: N_15  and  C_14 
REMARK    7  A    between atoms: N_20  and  C_19 
REMARK       I    between atoms: C_22  and  N_20 
ROOT
ATOM      1  C   LIG d   1      -2.107  77.520 116.778  0.00  0.00     0.161 C 
ATOM      2  C   LIG d   1      -2.899  77.020 115.731  0.00  0.00     0.016 C 
ATOM      3  C   LIG d   1      -2.744  77.413 114.381  0.00  0.00     0.038 C 
ATOM      4  C   LIG d   1      -1.678  78.224 113.964  0.00  0.00     0.028 C 
ATOM      5  C   LIG d   1      -1.160  79.153 115.056  0.00  0.00    -0.047 C 
ATOM      6  C   LIG d   1      -0.868  78.321 116.326  0.00  0.00     0.091 C 
ENDROOT
BRANCH   1   7
ATOM      7  O   LIG d   1      -1.716  76.442 117.651  0.00  0.00    -0.368 OA
BRANCH   7   8
ATOM      8  C   LIG d   1      -0.466  75.783 117.331  0.00  0.00     0.119 C 
BRANCH   8   9
ATOM      9  C   LIG d   1      -0.810  74.412 116.716  0.00  0.00     0.028 C 
ATOM     10  C   LIG d   1      -0.668  74.403 115.185  0.00  0.00     0.006 C 
ENDBRANCH   8   9
BRANCH   8  11
ATOM     11  C   LIG d   1       0.340  75.471 118.595  0.00  0.00     0.028 C 
ATOM     12  C   LIG d   1       1.797  75.952 118.507  0.00  0.00     0.006 C 
ENDBRANCH   8  11
ENDBRANCH   7   8
ENDBRANCH   1   7
BRANCH   6  13
ATOM     13  N   LIG d   1      -0.436  79.165 117.470  0.00  0.00    -0.311 N 
ATOM     14  C   LIG d   1       0.839  79.436 117.741  0.00  0.00     0.210 C 
ATOM     15  C   LIG d   1       1.066  80.309 118.979  0.00  0.00     0.109 C 
ATOM     16  O   LIG d   1       1.803  79.062 117.055  0.00  0.00    -0.276 OA
ATOM     17  H   LIG d   1      -1.155  79.535 118.061  0.00  0.00     0.149 HD
ENDBRANCH   6  13
BRANCH   5  18
ATOM     18  N   LIG d   1       0.035  79.839 114.528  0.00  0.00     0.381 N 
ATOM     19  H   LIG d   1       0.706  79.164 114.222  0.00  0.00    -0.090 HD
ATOM     20  H   LIG d   1       0.449  80.384 115.264  0.00  0.00    -0.090 HD
ATOM     21  H   LIG d   1      -0.220  80.432 113.769  0.00  0.00    -0.090 HD
ENDBRANCH   5  18
BRANCH   3  22
ATOM     22  C   LIG d   1      -3.684  77.025 113.440  0.00  0.00     0.382 C 
ATOM     23  O   LIG d   1      -3.811  77.676 112.375  0.00  0.00    -0.241 OA
ATOM     24  O   LIG d   1      -4.438  76.058 113.661  0.00  0.00    -0.241 OA
ENDBRANCH   3  22
TORSDOF 7
ENDMDL
MODEL 7
REMARK VINA RESULT:      -4.7      4.016      6.040
REMARK  7 active torsions:
REMARK  status: ('A' for Active; 'I' for Inactive)
REMARK    1  A    between atoms: C_2  and  C_3 
REMARK    2  A    between atoms: C_3  and  O_6 
REMARK    3  A    between atoms: C_3  and  C_4 
REMARK    4  A    between atoms: C_7  and  O_6 
REMARK    5  A    between atoms: C_9  and  C_10 
REMARK    6  A    between atoms: N_15  and  C_14 
REMARK    7  A    between atoms: N_20  and  C_19 
REMARK       I    between atoms: C_22  and  N_20 
ROOT
ATOM      1  C   LIG d   1      -0.663  78.470 116.634  0.00  0.00     0.161 C 
ATOM      2  C   LIG d   1      -1.646  78.949 115.752  0.00  0.00     0.016 C 
ATOM      3  C   LIG d   1      -2.132  78.207 114.651  0.00  0.00     0.038 C 
ATOM      4  C   LIG d   1      -1.774  76.867 114.444  0.00  0.00     0.028 C 
ATOM      5  C   LIG d   1      -0.406  76.510 115.015  0.00  0.00    -0.047 C 
ATOM      6  C   LIG d   1      -0.343  76.967 116.490  0.00  0.00     0.091 C 
ENDROOT
BRANCH   1   7
ATOM      7  O   LIG d   1      -1.036  78.774 117.993  0.00  0.00    -0.368 OA
BRANCH   7   8
ATOM      8  C   LIG d   1      -0.253  79.798 118.654  0.00  0.00     0.119 C 
BRANCH   8   9
ATOM      9  C   LIG d   1      -1.140  81.052 118.777  0.00  0.00     0.028 C 
ATOM     10  C   LIG d   1      -2.632  80.705 118.912  0.00  0.00     0.006 C 
ENDBRANCH   8   9
BRANCH   8  11
ATOM     11  C   LIG d   1       0.941  80.228 117.797  0.00  0.00     0.028 C 
ATOM     12  C   LIG d   1       1.142  81.751 117.776  0.00  0.00     0.006 C 
ENDBRANCH   8  11
ENDBRANCH   7   8
ENDBRANCH   1   7
BRANCH   6  13
ATOM     13  N   LIG d   1       0.992  76.732 117.100  0.00  0.00    -0.311 N 
ATOM     14  C   LIG d   1       1.170  76.072 118.242  0.00  0.00     0.210 C 
ATOM     15  C   LIG d   1       2.626  75.959 118.704  0.00  0.00     0.109 C 
ATOM     16  O   LIG d   1       0.263  75.540 118.901  0.00  0.00    -0.276 OA
ATOM     17  H   LIG d   1       1.787  77.102 116.615  0.00  0.00     0.149 HD
ENDBRANCH   6  13
BRANCH   5  18
ATOM     18  N   LIG d   1      -0.220  75.056 114.851  0.00  0.00     0.381 N 
ATOM     19  H   LIG d   1      -1.005  74.666 114.369  0.00  0.00    -0.090 HD
ATOM     20  H   LIG d   1      -0.166  74.631 115.760  0.00  0.00    -0.090 HD
ATOM     21  H   LIG d   1       0.616  74.874 114.341  0.00  0.00    -0.090 HD
ENDBRANCH   5  18
BRANCH   3  22
ATOM     22  C   LIG d   1      -2.955  78.821 113.719  0.00  0.00     0.382 C 
ATOM     23  O   LIG d   1      -3.270  80.027 113.858  0.00  0.00    -0.241 OA
ATOM     24  O   LIG d   1      -3.424  78.171 112.765  0.00  0.00    -0.241 OA
ENDBRANCH   3  22
TORSDOF 7
ENDMDL
MODEL 8
REMARK VINA RESULT:      -4.7      3.261      5.575
REMARK  7 active torsions:
REMARK  status: ('A' for Active; 'I' for Inactive)
REMARK    1  A    between atoms: C_2  and  C_3 
REMARK    2  A    between atoms: C_3  and  O_6 
REMARK    3  A    between atoms: C_3  and  C_4 
REMARK    4  A    between atoms: C_7  and  O_6 
REMARK    5  A    between atoms: C_9  and  C_10 
REMARK    6  A    between atoms: N_15  and  C_14 
REMARK    7  A    between atoms: N_20  and  C_19 
REMARK       I    between atoms: C_22  and  N_20 
ROOT
ATOM      1  C   LIG d   1      -0.863  78.095 114.838  0.00  0.00     0.161 C 
ATOM      2  C   LIG d   1      -1.854  77.132 114.587  0.00  0.00     0.016 C 
ATOM      3  C   LIG d   1      -2.371  76.270 115.581  0.00  0.00     0.038 C 
ATOM      4  C   LIG d   1      -2.038  76.417 116.936  0.00  0.00     0.028 C 
ATOM      5  C   LIG d   1      -0.666  77.043 117.158  0.00  0.00    -0.047 C 
ATOM      6  C   LIG d   1      -0.569  78.346 116.332  0.00  0.00     0.091 C 
ENDROOT
BRANCH   1   7
ATOM      7  O   LIG d   1      -1.207  79.332 114.181  0.00  0.00    -0.368 OA
BRANCH   7   8
ATOM      8  C   LIG d   1      -1.029  79.360 112.743  0.00  0.00     0.119 C 
BRANCH   8   9
ATOM      9  C   LIG d   1      -0.695  80.811 112.347  0.00  0.00     0.028 C 
ATOM     10  C   LIG d   1       0.682  80.932 111.673  0.00  0.00     0.006 C 
ENDBRANCH   8   9
BRANCH   8  11
ATOM     11  C   LIG d   1      -2.336  79.031 112.014  0.00  0.00     0.028 C 
ATOM     12  C   LIG d   1      -2.152  77.979 110.909  0.00  0.00     0.006 C 
ENDBRANCH   8  11
ENDBRANCH   7   8
ENDBRANCH   1   7
BRANCH   6  13
ATOM     13  N   LIG d   1       0.773  78.978 116.426  0.00  0.00    -0.311 N 
ATOM     14  C   LIG d   1       0.991  80.153 117.014  0.00  0.00     0.210 C 
ATOM     15  C   LIG d   1       2.445  80.633 116.982  0.00  0.00     0.109 C 
ATOM     16  O   LIG d   1       0.123  80.828 117.587  0.00  0.00    -0.276 OA
ATOM     17  H   LIG d   1       1.540  78.483 116.014  0.00  0.00     0.149 HD
ENDBRANCH   6  13
BRANCH   5  18
ATOM     18  N   LIG d   1      -0.506  77.264 118.608  0.00  0.00     0.381 N 
ATOM     19  H   LIG d   1      -0.091  78.160 118.770  0.00  0.00    -0.090 HD
ATOM     20  H   LIG d   1       0.108  76.561 118.978  0.00  0.00    -0.090 HD
ATOM     21  H   LIG d   1      -1.392  77.214 119.060  0.00  0.00    -0.090 HD
ENDBRANCH   5  18
BRANCH   3  22
ATOM     22  C   LIG d   1      -3.202  75.221 115.218  0.00  0.00     0.382 C 
ATOM     23  O   LIG d   1      -3.953  75.334 114.219  0.00  0.00    -0.241 OA
ATOM     24  O   LIG d   1      -3.242  74.180 115.901  0.00  0.00    -0.241 OA
ENDBRANCH   3  22
TORSDOF 7
ENDMDL
MODEL 9
REMARK VINA RESULT:      -4.6      3.655      6.054
REMARK  7 active torsions:
REMARK  status: ('A' for Active; 'I' for Inactive)
REMARK    1  A    between atoms: C_2  and  C_3 
REMARK    2  A    between atoms: C_3  and  O_6 
REMARK    3  A    between atoms: C_3  and  C_4 
REMARK    4  A    between atoms: C_7  and  O_6 
REMARK    5  A    between atoms: C_9  and  C_10 
REMARK    6  A    between atoms: N_15  and  C_14 
REMARK    7  A    between atoms: N_20  and  C_19 
REMARK       I    between atoms: C_22  and  N_20 
ROOT
ATOM      1  C   LIG d   1      -1.581  76.577 115.733  0.00  0.00     0.161 C 
ATOM      2  C   LIG d   1      -0.909  75.953 116.797  0.00  0.00     0.016 C 
ATOM      3  C   LIG d   1       0.123  76.575 117.537  0.00  0.00     0.038 C 
ATOM      4  C   LIG d   1       0.451  77.927 117.359  0.00  0.00     0.028 C 
ATOM      5  C   LIG d   1       0.147  78.445 115.957  0.00  0.00    -0.047 C 
ATOM      6  C   LIG d   1      -1.314  78.090 115.597  0.00  0.00     0.091 C 
ENDROOT
BRANCH   1   7
ATOM      7  O   LIG d   1      -2.997  76.325 115.835  0.00  0.00    -0.368 OA
BRANCH   7   8
ATOM      8  C   LIG d   1      -3.413  75.455 116.916  0.00  0.00     0.119 C 
BRANCH   8   9
ATOM      9  C   LIG d   1      -4.247  74.316 116.298  0.00  0.00     0.028 C 
ATOM     10  C   LIG d   1      -4.440  74.486 114.782  0.00  0.00     0.006 C 
ENDBRANCH   8   9
BRANCH   8  11
ATOM     11  C   LIG d   1      -4.361  76.176 117.879  0.00  0.00     0.028 C 
ATOM     12  C   LIG d   1      -4.026  77.667 118.039  0.00  0.00     0.006 C 
ENDBRANCH   8  11
ENDBRANCH   7   8
ENDBRANCH   1   7
BRANCH   6  13
ATOM     13  N   LIG d   1      -1.668  78.487 114.209  0.00  0.00    -0.311 N 
ATOM     14  C   LIG d   1      -2.780  79.150 113.897  0.00  0.00     0.210 C 
ATOM     15  C   LIG d   1      -2.961  79.442 112.405  0.00  0.00     0.109 C 
ATOM     16  O   LIG d   1      -3.617  79.552 114.719  0.00  0.00    -0.276 OA
ATOM     17  H   LIG d   1      -1.028  78.228 113.484  0.00  0.00     0.149 HD
ENDBRANCH   6  13
BRANCH   5  18
ATOM     18  N   LIG d   1       0.407  79.897 115.952  0.00  0.00     0.381 N 
ATOM     19  H   LIG d   1      -0.029  80.317 115.155  0.00  0.00    -0.090 HD
ATOM     20  H   LIG d   1       1.398  80.050 115.887  0.00  0.00    -0.090 HD
ATOM     21  H   LIG d   1       0.055  80.310 116.788  0.00  0.00    -0.090 HD
ENDBRANCH   5  18
BRANCH   3  22
ATOM     22  C   LIG d   1       0.867  75.830 118.440  0.00  0.00     0.382 C 
ATOM     23  O   LIG d   1       0.286  75.089 119.269  0.00  0.00    -0.241 OA
ATOM     24  O   LIG d   1       2.108  75.924 118.465  0.00  0.00    -0.241 OA
ENDBRANCH   3  22
TORSDOF 7
ENDMDL
