MODEL 1
REMARK VINA RESULT:      -5.4      0.000      0.000
REMARK  7 active torsions:
REMARK  status: ('A' for Active; 'I' for Inactive)
REMARK    1  A    between atoms: C_2  and  C_3 
REMARK    2  A    between atoms: C_3  and  O_6 
REMARK    3  A    between atoms: C_3  and  C_4 
REMARK    4  A    between atoms: C_7  and  O_6 
REMARK    5  A    between atoms: C_9  and  C_10 
REMARK    6  A    between atoms: N_15  and  C_14 
REMARK    7  A    between atoms: N_20  and  C_19 
REMARK       I    between atoms: C_22  and  N_20 
ROOT
ATOM      1  C   LIG d   1       1.460  81.300 112.816  0.00  0.00     0.161 C 
ATOM      2  C   LIG d   1       2.601  81.892 112.248  0.00  0.00     0.016 C 
ATOM      3  C   LIG d   1       2.796  82.023 110.853  0.00  0.00     0.038 C 
ATOM      4  C   LIG d   1       1.789  81.706 109.930  0.00  0.00     0.028 C 
ATOM      5  C   LIG d   1       0.822  80.639 110.432  0.00  0.00    -0.047 C 
ATOM      6  C   LIG d   1       0.301  81.049 111.828  0.00  0.00     0.091 C 
ENDROOT
BRANCH   1   7
ATOM      7  O   LIG d   1       1.005  82.091 113.932  0.00  0.00    -0.368 OA
BRANCH   7   8
ATOM      8  C   LIG d   1       1.890  83.152 114.365  0.00  0.00     0.119 C 
BRANCH   8   9
ATOM      9  C   LIG d   1       2.175  82.936 115.864  0.00  0.00     0.028 C 
ATOM     10  C   LIG d   1       3.107  84.012 116.446  0.00  0.00     0.006 C 
ENDBRANCH   8   9
BRANCH   8  11
ATOM     11  C   LIG d   1       1.207  84.520 114.275  0.00  0.00     0.028 C 
ATOM     12  C   LIG d   1       0.301  84.654 113.041  0.00  0.00     0.006 C 
ENDBRANCH   8  11
ENDBRANCH   7   8
ENDBRANCH   1   7
BRANCH   6  13
ATOM     13  N   LIG d   1      -0.586  80.019 112.428  0.00  0.00    -0.311 N 
ATOM     14  C   LIG d   1      -1.907  80.156 112.524  0.00  0.00     0.210 C 
ATOM     15  C   LIG d   1      -2.631  78.984 113.195  0.00  0.00     0.109 C 
ATOM     16  O   LIG d   1      -2.552  81.121 112.089  0.00  0.00    -0.276 OA
ATOM     17  H   LIG d   1      -0.149  79.189 112.778  0.00  0.00     0.149 HD
ENDBRANCH   6  13
BRANCH   5  18
ATOM     18  N   LIG d   1      -0.253  80.505 109.430  0.00  0.00     0.381 N 
ATOM     19  H   LIG d   1      -1.134  80.395 109.892  0.00  0.00    -0.090 HD
ATOM     20  H   LIG d   1      -0.082  79.684 108.877  0.00  0.00    -0.090 HD
ATOM     21  H   LIG d   1      -0.275  81.310 108.844  0.00  0.00    -0.090 HD
ENDBRANCH   5  18
BRANCH   3  22
ATOM     22  C   LIG d   1       4.027  82.439 110.369  0.00  0.00     0.382 C 
ATOM     23  O   LIG d   1       4.576  81.813 109.430  0.00  0.00    -0.241 OA
ATOM     24  O   LIG d   1       4.616  83.407 110.887  0.00  0.00    -0.241 OA
ENDBRANCH   3  22
TORSDOF 7
ENDMDL
MODEL 2
REMARK VINA RESULT:      -4.7      2.935      5.870
REMARK  7 active torsions:
REMARK  status: ('A' for Active; 'I' for Inactive)
REMARK    1  A    between atoms: C_2  and  C_3 
REMARK    2  A    between atoms: C_3  and  O_6 
REMARK    3  A    between atoms: C_3  and  C_4 
REMARK    4  A    between atoms: C_7  and  O_6 
REMARK    5  A    between atoms: C_9  and  C_10 
REMARK    6  A    between atoms: N_15  and  C_14 
REMARK    7  A    between atoms: N_20  and  C_19 
REMARK       I    between atoms: C_22  and  N_20 
ROOT
ATOM      1  C   LIG d   1      -0.565  80.137 112.768  0.00  0.00     0.161 C 
ATOM      2  C   LIG d   1      -1.596  79.505 112.053  0.00  0.00     0.016 C 
ATOM      3  C   LIG d   1      -2.420  78.496 112.604  0.00  0.00     0.038 C 
ATOM      4  C   LIG d   1      -2.366  78.156 113.964  0.00  0.00     0.028 C 
ATOM      5  C   LIG d   1      -1.003  78.408 114.598  0.00  0.00    -0.047 C 
ATOM      6  C   LIG d   1      -0.564  79.857 114.285  0.00  0.00     0.091 C 
ENDROOT
BRANCH   1   7
ATOM      7  O   LIG d   1      -0.598  81.556 112.520  0.00  0.00    -0.368 OA
BRANCH   7   8
ATOM      8  C   LIG d   1       0.133  82.017 111.356  0.00  0.00     0.119 C 
BRANCH   8   9
ATOM      9  C   LIG d   1       1.568  81.467 111.463  0.00  0.00     0.028 C 
ATOM     10  C   LIG d   1       2.058  80.846 110.144  0.00  0.00     0.006 C 
ENDBRANCH   8   9
BRANCH   8  11
ATOM     11  C   LIG d   1       0.282  83.542 111.360  0.00  0.00     0.028 C 
ATOM     12  C   LIG d   1       0.151  84.156 109.957  0.00  0.00     0.006 C 
ENDBRANCH   8  11
ENDBRANCH   7   8
ENDBRANCH   1   7
BRANCH   6  13
ATOM     13  N   LIG d   1       0.797  80.161 114.798  0.00  0.00    -0.311 N 
ATOM     14  C   LIG d   1       1.033  80.612 116.028  0.00  0.00     0.210 C 
ATOM     15  C   LIG d   1       2.508  80.880 116.347  0.00  0.00     0.109 C 
ATOM     16  O   LIG d   1       0.165  80.785 116.897  0.00  0.00    -0.276 OA
ATOM     17  H   LIG d   1       1.563  80.019 114.169  0.00  0.00     0.149 HD
ENDBRANCH   6  13
BRANCH   5  18
ATOM     18  N   LIG d   1      -1.127  78.141 116.043  0.00  0.00     0.381 N 
ATOM     19  H   LIG d   1      -2.009  77.708 116.233  0.00  0.00    -0.090 HD
ATOM     20  H   LIG d   1      -1.091  79.014 116.539  0.00  0.00    -0.090 HD
ATOM     21  H   LIG d   1      -0.386  77.548 116.345  0.00  0.00    -0.090 HD
ENDBRANCH   5  18
BRANCH   3  22
ATOM     22  C   LIG d   1      -3.283  77.788 111.781  0.00  0.00     0.382 C 
ATOM     23  O   LIG d   1      -4.438  77.505 112.180  0.00  0.00    -0.241 OA
ATOM     24  O   LIG d   1      -2.906  77.391 110.663  0.00  0.00    -0.241 OA
ENDBRANCH   3  22
TORSDOF 7
ENDMDL
MODEL 3
REMARK VINA RESULT:      -4.6      5.430      7.974
REMARK  7 active torsions:
REMARK  status: ('A' for Active; 'I' for Inactive)
REMARK    1  A    between atoms: C_2  and  C_3 
REMARK    2  A    between atoms: C_3  and  O_6 
REMARK    3  A    between atoms: C_3  and  C_4 
REMARK    4  A    between atoms: C_7  and  O_6 
REMARK    5  A    between atoms: C_9  and  C_10 
REMARK    6  A    between atoms: N_15  and  C_14 
REMARK    7  A    between atoms: N_20  and  C_19 
REMARK       I    between atoms: C_22  and  N_20 
ROOT
ATOM      1  C   LIG d   1      -2.346  76.872 115.706  0.00  0.00     0.161 C 
ATOM      2  C   LIG d   1      -2.782  76.900 114.371  0.00  0.00     0.016 C 
ATOM      3  C   LIG d   1      -2.288  77.812 113.409  0.00  0.00     0.038 C 
ATOM      4  C   LIG d   1      -1.207  78.664 113.682  0.00  0.00     0.028 C 
ATOM      5  C   LIG d   1      -1.075  79.021 115.159  0.00  0.00    -0.047 C 
ATOM      6  C   LIG d   1      -1.089  77.719 115.993  0.00  0.00     0.091 C 
ENDROOT
BRANCH   1   7
ATOM      7  O   LIG d   1      -2.138  75.509 116.123  0.00  0.00    -0.368 OA
BRANCH   7   8
ATOM      8  C   LIG d   1      -0.758  75.086 116.255  0.00  0.00     0.119 C 
BRANCH   8   9
ATOM      9  C   LIG d   1      -0.425  74.205 115.036  0.00  0.00     0.028 C 
ATOM     10  C   LIG d   1       0.418  74.948 113.986  0.00  0.00     0.006 C 
ENDBRANCH   8   9
BRANCH   8  11
ATOM     11  C   LIG d   1      -0.567  74.180 117.475  0.00  0.00     0.028 C 
ATOM     12  C   LIG d   1      -1.709  74.306 118.496  0.00  0.00     0.006 C 
ENDBRANCH   8  11
ENDBRANCH   7   8
ENDBRANCH   1   7
BRANCH   6  13
ATOM     13  N   LIG d   1      -1.049  77.983 117.455  0.00  0.00    -0.311 N 
ATOM     14  C   LIG d   1       0.075  77.981 118.170  0.00  0.00     0.210 C 
ATOM     15  C   LIG d   1      -0.110  78.257 119.666  0.00  0.00     0.109 C 
ATOM     16  O   LIG d   1       1.211  77.810 117.702  0.00  0.00    -0.276 OA
ATOM     17  H   LIG d   1      -1.922  78.162 117.911  0.00  0.00     0.149 HD
ENDBRANCH   6  13
BRANCH   5  18
ATOM     18  N   LIG d   1       0.168  79.798 115.321  0.00  0.00     0.381 N 
ATOM     19  H   LIG d   1       0.731  79.391 116.040  0.00  0.00    -0.090 HD
ATOM     20  H   LIG d   1      -0.068  80.735 115.597  0.00  0.00    -0.090 HD
ATOM     21  H   LIG d   1       0.673  79.815 114.462  0.00  0.00    -0.090 HD
ENDBRANCH   5  18
BRANCH   3  22
ATOM     22  C   LIG d   1      -2.903  77.905 112.170  0.00  0.00     0.382 C 
ATOM     23  O   LIG d   1      -2.254  78.313 111.177  0.00  0.00    -0.241 OA
ATOM     24  O   LIG d   1      -4.111  77.628 112.042  0.00  0.00    -0.241 OA
ENDBRANCH   3  22
TORSDOF 7
ENDMDL
MODEL 4
REMARK VINA RESULT:      -4.6      5.095      7.087
REMARK  7 active torsions:
REMARK  status: ('A' for Active; 'I' for Inactive)
REMARK    1  A    between atoms: C_2  and  C_3 
REMARK    2  A    between atoms: C_3  and  O_6 
REMARK    3  A    between atoms: C_3  and  C_4 
REMARK    4  A    between atoms: C_7  and  O_6 
REMARK    5  A    between atoms: C_9  and  C_10 
REMARK    6  A    between atoms: N_15  and  C_14 
REMARK    7  A    between atoms: N_20  and  C_19 
REMARK       I    between atoms: C_22  and  N_20 
ROOT
ATOM      1  C   LIG d   1      -2.774  78.434 115.622  0.00  0.00     0.161 C 
ATOM      2  C   LIG d   1      -2.988  79.428 114.654  0.00  0.00     0.016 C 
ATOM      3  C   LIG d   1      -2.394  79.405 113.371  0.00  0.00     0.038 C 
ATOM      4  C   LIG d   1      -1.661  78.301 112.912  0.00  0.00     0.028 C 
ATOM      5  C   LIG d   1      -1.002  77.504 114.033  0.00  0.00    -0.047 C 
ATOM      6  C   LIG d   1      -2.067  77.165 115.101  0.00  0.00     0.091 C 
ENDROOT
BRANCH   1   7
ATOM      7  O   LIG d   1      -4.024  78.088 116.251  0.00  0.00    -0.368 OA
BRANCH   7   8
ATOM      8  C   LIG d   1      -4.151  78.437 117.652  0.00  0.00     0.119 C 
BRANCH   8   9
ATOM      9  C   LIG d   1      -2.856  79.162 118.067  0.00  0.00     0.028 C 
ATOM     10  C   LIG d   1      -3.132  80.524 118.727  0.00  0.00     0.006 C 
ENDBRANCH   8   9
BRANCH   8  11
ATOM     11  C   LIG d   1      -4.216  77.187 118.534  0.00  0.00     0.028 C 
ATOM     12  C   LIG d   1      -2.989  77.037 119.447  0.00  0.00     0.006 C 
ENDBRANCH   8  11
ENDBRANCH   7   8
ENDBRANCH   1   7
BRANCH   6  13
ATOM     13  N   LIG d   1      -1.489  76.459 116.274  0.00  0.00    -0.311 N 
ATOM     14  C   LIG d   1      -1.293  75.142 116.314  0.00  0.00     0.210 C 
ATOM     15  C   LIG d   1      -0.704  74.615 117.626  0.00  0.00     0.109 C 
ATOM     16  O   LIG d   1      -1.522  74.364 115.375  0.00  0.00    -0.276 OA
ATOM     17  H   LIG d   1      -1.246  77.017 117.069  0.00  0.00     0.149 HD
ENDBRANCH   6  13
BRANCH   5  18
ATOM     18  N   LIG d   1      -0.389  76.307 113.428  0.00  0.00     0.381 N 
ATOM     19  H   LIG d   1      -0.601  75.501 113.982  0.00  0.00    -0.090 HD
ATOM     20  H   LIG d   1       0.609  76.425 113.413  0.00  0.00    -0.090 HD
ATOM     21  H   LIG d   1      -0.730  76.181 112.501  0.00  0.00    -0.090 HD
ENDBRANCH   5  18
BRANCH   3  22
ATOM     22  C   LIG d   1      -2.498  80.515 112.545  0.00  0.00     0.382 C 
ATOM     23  O   LIG d   1      -1.673  80.684 111.616  0.00  0.00    -0.241 OA
ATOM     24  O   LIG d   1      -3.380  81.371 112.746  0.00  0.00    -0.241 OA
ENDBRANCH   3  22
TORSDOF 7
ENDMDL
MODEL 5
REMARK VINA RESULT:      -4.3      6.473      7.937
REMARK  7 active torsions:
REMARK  status: ('A' for Active; 'I' for Inactive)
REMARK    1  A    between atoms: C_2  and  C_3 
REMARK    2  A    between atoms: C_3  and  O_6 
REMARK    3  A    between atoms: C_3  and  C_4 
REMARK    4  A    between atoms: C_7  and  O_6 
REMARK    5  A    between atoms: C_9  and  C_10 
REMARK    6  A    between atoms: N_15  and  C_14 
REMARK    7  A    between atoms: N_20  and  C_19 
REMARK       I    between atoms: C_22  and  N_20 
ROOT
ATOM      1  C   LIG d   1      -0.607  78.018 117.040  0.00  0.00     0.161 C 
ATOM      2  C   LIG d   1      -1.532  78.304 116.022  0.00  0.00     0.016 C 
ATOM      3  C   LIG d   1      -2.121  77.312 115.204  0.00  0.00     0.038 C 
ATOM      4  C   LIG d   1      -1.938  75.944 115.451  0.00  0.00     0.028 C 
ATOM      5  C   LIG d   1      -0.619  75.625 116.146  0.00  0.00    -0.047 C 
ATOM      6  C   LIG d   1      -0.480  76.523 117.397  0.00  0.00     0.091 C 
ENDROOT
BRANCH   1   7
ATOM      7  O   LIG d   1      -0.922  78.789 118.216  0.00  0.00    -0.368 OA
BRANCH   7   8
ATOM      8  C   LIG d   1      -1.694  79.996 118.000  0.00  0.00     0.119 C 
BRANCH   8   9
ATOM      9  C   LIG d   1      -0.803  81.192 118.387  0.00  0.00     0.028 C 
ATOM     10  C   LIG d   1      -1.592  82.309 119.089  0.00  0.00     0.006 C 
ENDBRANCH   8   9
BRANCH   8  11
ATOM     11  C   LIG d   1      -2.897  80.065 118.946  0.00  0.00     0.028 C 
ATOM     12  C   LIG d   1      -4.227  79.751 118.242  0.00  0.00     0.006 C 
ENDBRANCH   8  11
ENDBRANCH   7   8
ENDBRANCH   1   7
BRANCH   6  13
ATOM     13  N   LIG d   1       0.821  76.334 118.089  0.00  0.00    -0.311 N 
ATOM     14  C   LIG d   1       0.989  75.515 119.125  0.00  0.00     0.210 C 
ATOM     15  C   LIG d   1       2.407  75.485 119.703  0.00  0.00     0.109 C 
ATOM     16  O   LIG d   1       0.105  74.786 119.601  0.00  0.00    -0.276 OA
ATOM     17  H   LIG d   1       1.600  76.864 117.748  0.00  0.00     0.149 HD
ENDBRANCH   6  13
BRANCH   5  18
ATOM     18  N   LIG d   1      -0.620  74.185 116.466  0.00  0.00     0.381 N 
ATOM     19  H   LIG d   1      -1.263  73.706 115.868  0.00  0.00    -0.090 HD
ATOM     20  H   LIG d   1      -0.923  74.063 117.416  0.00  0.00    -0.090 HD
ATOM     21  H   LIG d   1       0.295  73.809 116.351  0.00  0.00    -0.090 HD
ENDBRANCH   5  18
BRANCH   3  22
ATOM     22  C   LIG d   1      -2.871  77.688 114.101  0.00  0.00     0.382 C 
ATOM     23  O   LIG d   1      -3.133  78.899 113.903  0.00  0.00    -0.241 OA
ATOM     24  O   LIG d   1      -3.328  76.828 113.325  0.00  0.00    -0.241 OA
ENDBRANCH   3  22
TORSDOF 7
ENDMDL
MODEL 6
REMARK VINA RESULT:      -4.2      4.631      7.630
REMARK  7 active torsions:
REMARK  status: ('A' for Active; 'I' for Inactive)
REMARK    1  A    between atoms: C_2  and  C_3 
REMARK    2  A    between atoms: C_3  and  O_6 
REMARK    3  A    between atoms: C_3  and  C_4 
REMARK    4  A    between atoms: C_7  and  O_6 
REMARK    5  A    between atoms: C_9  and  C_10 
REMARK    6  A    between atoms: N_15  and  C_14 
REMARK    7  A    between atoms: N_20  and  C_19 
REMARK       I    between atoms: C_22  and  N_20 
ROOT
ATOM      1  C   LIG d   1      -1.851  78.364 116.547  0.00  0.00     0.161 C 
ATOM      2  C   LIG d   1      -2.738  77.622 115.749  0.00  0.00     0.016 C 
ATOM      3  C   LIG d   1      -2.717  77.646 114.335  0.00  0.00     0.038 C 
ATOM      4  C   LIG d   1      -1.704  78.300 113.619  0.00  0.00     0.028 C 
ATOM      5  C   LIG d   1      -1.089  79.473 114.376  0.00  0.00    -0.047 C 
ATOM      6  C   LIG d   1      -0.669  78.996 115.785  0.00  0.00     0.091 C 
ENDROOT
BRANCH   1   7
ATOM      7  O   LIG d   1      -1.368  77.545 117.631  0.00  0.00    -0.368 OA
BRANCH   7   8
ATOM      8  C   LIG d   1      -0.255  76.671 117.322  0.00  0.00     0.119 C 
BRANCH   8   9
ATOM      9  C   LIG d   1      -0.741  75.220 117.503  0.00  0.00     0.028 C 
ATOM     10  C   LIG d   1      -0.804  74.452 116.172  0.00  0.00     0.006 C 
ENDBRANCH   8   9
BRANCH   8  11
ATOM     11  C   LIG d   1       0.886  76.845 118.329  0.00  0.00     0.028 C 
ATOM     12  C   LIG d   1       0.548  77.846 119.446  0.00  0.00     0.006 C 
ENDBRANCH   8  11
ENDBRANCH   7   8
ENDBRANCH   1   7
BRANCH   6  13
ATOM     13  N   LIG d   1      -0.134  80.102 116.621  0.00  0.00    -0.311 N 
ATOM     14  C   LIG d   1       1.167  80.317 116.808  0.00  0.00     0.210 C 
ATOM     15  C   LIG d   1       1.502  81.499 117.723  0.00  0.00     0.109 C 
ATOM     16  O   LIG d   1       2.076  79.661 116.277  0.00  0.00    -0.276 OA
ATOM     17  H   LIG d   1      -0.802  80.703 117.064  0.00  0.00     0.149 HD
ENDBRANCH   6  13
BRANCH   5  18
ATOM     18  N   LIG d   1       0.043  79.976 113.574  0.00  0.00     0.381 N 
ATOM     19  H   LIG d   1       0.700  80.438 114.169  0.00  0.00    -0.090 HD
ATOM     20  H   LIG d   1      -0.303  80.643 112.907  0.00  0.00    -0.090 HD
ATOM     21  H   LIG d   1       0.487  79.221 113.100  0.00  0.00    -0.090 HD
ENDBRANCH   5  18
BRANCH   3  22
ATOM     22  C   LIG d   1      -3.742  77.042 113.623  0.00  0.00     0.382 C 
ATOM     23  O   LIG d   1      -4.280  75.997 114.062  0.00  0.00    -0.241 OA
ATOM     24  O   LIG d   1      -4.106  77.504 112.525  0.00  0.00    -0.241 OA
ENDBRANCH   3  22
TORSDOF 7
ENDMDL
MODEL 7
REMARK VINA RESULT:      -4.2      2.869      5.932
REMARK  7 active torsions:
REMARK  status: ('A' for Active; 'I' for Inactive)
REMARK    1  A    between atoms: C_2  and  C_3 
REMARK    2  A    between atoms: C_3  and  O_6 
REMARK    3  A    between atoms: C_3  and  C_4 
REMARK    4  A    between atoms: C_7  and  O_6 
REMARK    5  A    between atoms: C_9  and  C_10 
REMARK    6  A    between atoms: N_15  and  C_14 
REMARK    7  A    between atoms: N_20  and  C_19 
REMARK       I    between atoms: C_22  and  N_20 
ROOT
ATOM      1  C   LIG d   1      -0.987  79.977 113.768  0.00  0.00     0.161 C 
ATOM      2  C   LIG d   1      -1.874  78.979 113.330  0.00  0.00     0.016 C 
ATOM      3  C   LIG d   1      -2.053  78.641 111.969  0.00  0.00     0.038 C 
ATOM      4  C   LIG d   1      -1.241  79.176 110.958  0.00  0.00     0.028 C 
ATOM      5  C   LIG d   1      -0.681  80.554 111.298  0.00  0.00    -0.047 C 
ATOM      6  C   LIG d   1      -0.012  80.494 112.690  0.00  0.00     0.091 C 
ENDROOT
BRANCH   1   7
ATOM      7  O   LIG d   1      -0.258  79.510 114.921  0.00  0.00    -0.368 OA
BRANCH   7   8
ATOM      8  C   LIG d   1      -0.981  78.636 115.822  0.00  0.00     0.119 C 
BRANCH   8   9
ATOM      9  C   LIG d   1      -1.208  79.410 117.135  0.00  0.00     0.028 C 
ATOM     10  C   LIG d   1      -2.697  79.519 117.503  0.00  0.00     0.006 C 
ENDBRANCH   8   9
BRANCH   8  11
ATOM     11  C   LIG d   1      -0.140  77.417 116.210  0.00  0.00     0.028 C 
ATOM     12  C   LIG d   1       0.523  77.564 117.588  0.00  0.00     0.006 C 
ENDBRANCH   8  11
ENDBRANCH   7   8
ENDBRANCH   1   7
BRANCH   6  13
ATOM     13  N   LIG d   1       0.488  81.821 113.135  0.00  0.00    -0.311 N 
ATOM     14  C   LIG d   1       1.780  82.098 113.304  0.00  0.00     0.210 C 
ATOM     15  C   LIG d   1       2.078  83.521 113.788  0.00  0.00     0.109 C 
ATOM     16  O   LIG d   1       2.709  81.312 113.068  0.00  0.00    -0.276 OA
ATOM     17  H   LIG d   1      -0.196  82.528 113.320  0.00  0.00     0.149 HD
ENDBRANCH   6  13
BRANCH   5  18
ATOM     18  N   LIG d   1       0.255  80.932 110.222  0.00  0.00     0.381 N 
ATOM     19  H   LIG d   1       0.364  81.926 110.202  0.00  0.00    -0.090 HD
ATOM     20  H   LIG d   1      -0.128  80.639 109.340  0.00  0.00    -0.090 HD
ATOM     21  H   LIG d   1       1.139  80.496 110.370  0.00  0.00    -0.090 HD
ENDBRANCH   5  18
BRANCH   3  22
ATOM     22  C   LIG d   1      -3.082  77.786 111.603  0.00  0.00     0.382 C 
ATOM     23  O   LIG d   1      -3.088  77.265 110.462  0.00  0.00    -0.241 OA
ATOM     24  O   LIG d   1      -4.026  77.563 112.384  0.00  0.00    -0.241 OA
ENDBRANCH   3  22
TORSDOF 7
ENDMDL
MODEL 8
REMARK VINA RESULT:      -4.1      5.276      7.465
REMARK  7 active torsions:
REMARK  status: ('A' for Active; 'I' for Inactive)
REMARK    1  A    between atoms: C_2  and  C_3 
REMARK    2  A    between atoms: C_3  and  O_6 
REMARK    3  A    between atoms: C_3  and  C_4 
REMARK    4  A    between atoms: C_7  and  O_6 
REMARK    5  A    between atoms: C_9  and  C_10 
REMARK    6  A    between atoms: N_15  and  C_14 
REMARK    7  A    between atoms: N_20  and  C_19 
REMARK       I    between atoms: C_22  and  N_20 
ROOT
ATOM      1  C   LIG d   1      -1.838  78.097 115.951  0.00  0.00     0.161 C 
ATOM      2  C   LIG d   1      -2.045  77.378 117.140  0.00  0.00     0.016 C 
ATOM      3  C   LIG d   1      -1.480  76.106 117.388  0.00  0.00     0.038 C 
ATOM      4  C   LIG d   1      -0.542  75.529 116.519  0.00  0.00     0.028 C 
ATOM      5  C   LIG d   1      -0.694  75.989 115.073  0.00  0.00    -0.047 C 
ATOM      6  C   LIG d   1      -0.729  77.534 115.039  0.00  0.00     0.091 C 
ENDROOT
BRANCH   1   7
ATOM      7  O   LIG d   1      -1.580  79.482 116.256  0.00  0.00    -0.368 OA
BRANCH   7   8
ATOM      8  C   LIG d   1      -0.870  79.741 117.492  0.00  0.00     0.119 C 
BRANCH   8   9
ATOM      9  C   LIG d   1      -1.698  80.761 118.297  0.00  0.00     0.028 C 
ATOM     10  C   LIG d   1      -0.873  81.991 118.711  0.00  0.00     0.006 C 
ENDBRANCH   8   9
BRANCH   8  11
ATOM     11  C   LIG d   1       0.474  80.427 117.230  0.00  0.00     0.028 C 
ATOM     12  C   LIG d   1       1.639  79.431 117.119  0.00  0.00     0.006 C 
ENDBRANCH   8  11
ENDBRANCH   7   8
ENDBRANCH   1   7
BRANCH   6  13
ATOM     13  N   LIG d   1      -0.960  78.065 113.670  0.00  0.00    -0.311 N 
ATOM     14  C   LIG d   1      -1.991  77.706 112.908  0.00  0.00     0.210 C 
ATOM     15  C   LIG d   1      -2.030  78.358 111.522  0.00  0.00     0.109 C 
ATOM     16  O   LIG d   1      -2.895  76.933 113.260  0.00  0.00    -0.276 OA
ATOM     17  H   LIG d   1      -0.291  78.722 113.317  0.00  0.00     0.149 HD
ENDBRANCH   6  13
BRANCH   5  18
ATOM     18  N   LIG d   1       0.429  75.419 114.304  0.00  0.00     0.381 N 
ATOM     19  H   LIG d   1       1.205  75.250 114.913  0.00  0.00    -0.090 HD
ATOM     20  H   LIG d   1       0.715  76.082 113.606  0.00  0.00    -0.090 HD
ATOM     21  H   LIG d   1       0.148  74.568 113.869  0.00  0.00    -0.090 HD
ENDBRANCH   5  18
BRANCH   3  22
ATOM     22  C   LIG d   1      -1.884  75.379 118.497  0.00  0.00     0.382 C 
ATOM     23  O   LIG d   1      -2.275  74.194 118.362  0.00  0.00    -0.241 OA
ATOM     24  O   LIG d   1      -1.905  75.907 119.625  0.00  0.00    -0.241 OA
ENDBRANCH   3  22
TORSDOF 7
ENDMDL
MODEL 9
REMARK VINA RESULT:      -4.1      5.493      7.832
REMARK  7 active torsions:
REMARK  status: ('A' for Active; 'I' for Inactive)
REMARK    1  A    between atoms: C_2  and  C_3 
REMARK    2  A    between atoms: C_3  and  O_6 
REMARK    3  A    between atoms: C_3  and  C_4 
REMARK    4  A    between atoms: C_7  and  O_6 
REMARK    5  A    between atoms: C_9  and  C_10 
REMARK    6  A    between atoms: N_15  and  C_14 
REMARK    7  A    between atoms: N_20  and  C_19 
REMARK       I    between atoms: C_22  and  N_20 
ROOT
ATOM      1  C   LIG d   1      -0.915  77.813 117.116  0.00  0.00     0.161 C 
ATOM      2  C   LIG d   1      -1.382  78.598 116.049  0.00  0.00     0.016 C 
ATOM      3  C   LIG d   1      -1.434  78.142 114.712  0.00  0.00     0.038 C 
ATOM      4  C   LIG d   1      -1.161  76.808 114.372  0.00  0.00     0.028 C 
ATOM      5  C   LIG d   1      -0.203  76.121 115.339  0.00  0.00    -0.047 C 
ATOM      6  C   LIG d   1      -0.718  76.319 116.783  0.00  0.00     0.091 C 
ENDROOT
BRANCH   1   7
ATOM      7  O   LIG d   1      -1.790  77.961 118.252  0.00  0.00    -0.368 OA
BRANCH   7   8
ATOM      8  C   LIG d   1      -3.183  78.227 117.953  0.00  0.00     0.119 C 
BRANCH   8   9
ATOM      9  C   LIG d   1      -3.656  79.341 118.906  0.00  0.00     0.028 C 
ATOM     10  C   LIG d   1      -2.687  80.535 118.940  0.00  0.00     0.006 C 
ENDBRANCH   8   9
BRANCH   8  11
ATOM     11  C   LIG d   1      -4.063  77.016 118.276  0.00  0.00     0.028 C 
ATOM     12  C   LIG d   1      -4.332  76.131 117.049  0.00  0.00     0.006 C 
ENDBRANCH   8  11
ENDBRANCH   7   8
ENDBRANCH   1   7
BRANCH   6  13
ATOM     13  N   LIG d   1       0.206  75.749 117.798  0.00  0.00    -0.311 N 
ATOM     14  C   LIG d   1      -0.174  74.870 118.724  0.00  0.00     0.210 C 
ATOM     15  C   LIG d   1       0.932  74.425 119.685  0.00  0.00     0.109 C 
ATOM     16  O   LIG d   1      -1.315  74.393 118.820  0.00  0.00    -0.276 OA
ATOM     17  H   LIG d   1       1.158  76.058 117.772  0.00  0.00     0.149 HD
ENDBRANCH   6  13
BRANCH   5  18
ATOM     18  N   LIG d   1      -0.116  74.702 114.946  0.00  0.00     0.381 N 
ATOM     19  H   LIG d   1      -1.021  74.366 114.685  0.00  0.00    -0.090 HD
ATOM     20  H   LIG d   1       0.205  74.165 115.733  0.00  0.00    -0.090 HD
ATOM     21  H   LIG d   1       0.517  74.597 114.184  0.00  0.00    -0.090 HD
ENDBRANCH   5  18
BRANCH   3  22
ATOM     22  C   LIG d   1      -1.723  79.036 113.692  0.00  0.00     0.382 C 
ATOM     23  O   LIG d   1      -0.793  79.535 113.014  0.00  0.00    -0.241 OA
ATOM     24  O   LIG d   1      -2.898  79.383 113.470  0.00  0.00    -0.241 OA
ENDBRANCH   3  22
TORSDOF 7
ENDMDL
