MODEL 1
REMARK VINA RESULT:      -5.1      0.000      0.000
REMARK  7 active torsions:
REMARK  status: ('A' for Active; 'I' for Inactive)
REMARK    1  A    between atoms: C_2  and  C_3 
REMARK    2  A    between atoms: C_3  and  O_6 
REMARK    3  A    between atoms: C_3  and  C_4 
REMARK    4  A    between atoms: C_7  and  O_6 
REMARK    5  A    between atoms: C_9  and  C_10 
REMARK    6  A    between atoms: N_15  and  C_14 
REMARK    7  A    between atoms: N_20  and  C_19 
REMARK       I    between atoms: C_22  and  N_20 
ROOT
ATOM      1  C   LIG d   1      -2.294  78.258 114.955  0.00  0.00     0.161 C 
ATOM      2  C   LIG d   1      -2.633  79.432 114.261  0.00  0.00     0.016 C 
ATOM      3  C   LIG d   1      -2.381  79.621 112.883  0.00  0.00     0.038 C 
ATOM      4  C   LIG d   1      -1.907  78.584 112.067  0.00  0.00     0.028 C 
ATOM      5  C   LIG d   1      -1.080  77.548 112.822  0.00  0.00    -0.047 C 
ATOM      6  C   LIG d   1      -1.878  77.074 114.058  0.00  0.00     0.091 C 
ENDROOT
BRANCH   1   7
ATOM      7  O   LIG d   1      -3.380  77.873 115.822  0.00  0.00    -0.368 OA
BRANCH   7   8
ATOM      8  C   LIG d   1      -3.393  78.483 117.136  0.00  0.00     0.119 C 
BRANCH   8   9
ATOM      9  C   LIG d   1      -1.989  78.303 117.745  0.00  0.00     0.028 C 
ATOM     10  C   LIG d   1      -1.452  79.599 118.374  0.00  0.00     0.006 C 
ENDBRANCH   8   9
BRANCH   8  11
ATOM     11  C   LIG d   1      -4.344  77.745 118.083  0.00  0.00     0.028 C 
ATOM     12  C   LIG d   1      -4.280  76.218 117.921  0.00  0.00     0.006 C 
ENDBRANCH   8  11
ENDBRANCH   7   8
ENDBRANCH   1   7
BRANCH   6  13
ATOM     13  N   LIG d   1      -1.107  76.122 114.899  0.00  0.00    -0.311 N 
ATOM     14  C   LIG d   1      -1.629  75.011 115.415  0.00  0.00     0.210 C 
ATOM     15  C   LIG d   1      -0.666  74.180 116.269  0.00  0.00     0.109 C 
ATOM     16  O   LIG d   1      -2.789  74.617 115.221  0.00  0.00    -0.276 OA
ATOM     17  H   LIG d   1      -0.148  76.348 115.082  0.00  0.00     0.149 HD
ENDBRANCH   6  13
BRANCH   5  18
ATOM     18  N   LIG d   1      -0.767  76.456 111.881  0.00  0.00     0.381 N 
ATOM     19  H   LIG d   1      -1.503  75.779 111.891  0.00  0.00    -0.090 HD
ATOM     20  H   LIG d   1       0.080  76.004 112.178  0.00  0.00    -0.090 HD
ATOM     21  H   LIG d   1      -0.653  76.820 110.961  0.00  0.00    -0.090 HD
ENDBRANCH   5  18
BRANCH   3  22
ATOM     22  C   LIG d   1      -2.567  80.873 112.316  0.00  0.00     0.382 C 
ATOM     23  O   LIG d   1      -1.575  81.598 112.058  0.00  0.00    -0.241 OA
ATOM     24  O   LIG d   1      -3.715  81.305 112.100  0.00  0.00    -0.241 OA
ENDBRANCH   3  22
TORSDOF 7
ENDMDL
MODEL 2
REMARK VINA RESULT:      -4.6      2.992      4.636
REMARK  7 active torsions:
REMARK  status: ('A' for Active; 'I' for Inactive)
REMARK    1  A    between atoms: C_2  and  C_3 
REMARK    2  A    between atoms: C_3  and  O_6 
REMARK    3  A    between atoms: C_3  and  C_4 
REMARK    4  A    between atoms: C_7  and  O_6 
REMARK    5  A    between atoms: C_9  and  C_10 
REMARK    6  A    between atoms: N_15  and  C_14 
REMARK    7  A    between atoms: N_20  and  C_19 
REMARK       I    between atoms: C_22  and  N_20 
ROOT
ATOM      1  C   LIG d   1      -1.312  78.025 116.082  0.00  0.00     0.161 C 
ATOM      2  C   LIG d   1      -2.305  77.444 115.276  0.00  0.00     0.016 C 
ATOM      3  C   LIG d   1      -2.332  77.566 113.867  0.00  0.00     0.038 C 
ATOM      4  C   LIG d   1      -1.278  78.153 113.153  0.00  0.00     0.028 C 
ATOM      5  C   LIG d   1      -0.507  79.194 113.958  0.00  0.00    -0.047 C 
ATOM      6  C   LIG d   1      -0.093  78.576 115.313  0.00  0.00     0.091 C 
ENDROOT
BRANCH   1   7
ATOM      7  O   LIG d   1      -0.887  77.084 117.087  0.00  0.00    -0.368 OA
BRANCH   7   8
ATOM      8  C   LIG d   1       0.199  76.200 116.714  0.00  0.00     0.119 C 
BRANCH   8   9
ATOM      9  C   LIG d   1      -0.349  74.760 116.729  0.00  0.00     0.028 C 
ATOM     10  C   LIG d   1      -0.513  74.180 115.314  0.00  0.00     0.006 C 
ENDBRANCH   8   9
BRANCH   8  11
ATOM     11  C   LIG d   1       1.318  76.219 117.760  0.00  0.00     0.028 C 
ATOM     12  C   LIG d   1       2.716  76.067 117.140  0.00  0.00     0.006 C 
ENDBRANCH   8  11
ENDBRANCH   7   8
ENDBRANCH   1   7
BRANCH   6  13
ATOM     13  N   LIG d   1       0.592  79.554 116.197  0.00  0.00    -0.311 N 
ATOM     14  C   LIG d   1       1.913  79.728 116.212  0.00  0.00     0.210 C 
ATOM     15  C   LIG d   1       2.415  80.774 117.212  0.00  0.00     0.109 C 
ATOM     16  O   LIG d   1       2.712  79.140 115.468  0.00  0.00    -0.276 OA
ATOM     17  H   LIG d   1       0.016  80.096 116.810  0.00  0.00     0.149 HD
ENDBRANCH   6  13
BRANCH   5  18
ATOM     18  N   LIG d   1       0.645  79.625 113.143  0.00  0.00     0.381 N 
ATOM     19  H   LIG d   1       0.691  80.624 113.122  0.00  0.00    -0.090 HD
ATOM     20  H   LIG d   1       0.519  79.295 112.202  0.00  0.00    -0.090 HD
ATOM     21  H   LIG d   1       1.488  79.254 113.522  0.00  0.00    -0.090 HD
ENDBRANCH   5  18
BRANCH   3  22
ATOM     22  C   LIG d   1      -3.444  77.131 113.162  0.00  0.00     0.382 C 
ATOM     23  O   LIG d   1      -4.223  76.291 113.674  0.00  0.00    -0.241 OA
ATOM     24  O   LIG d   1      -3.653  77.533 112.002  0.00  0.00    -0.241 OA
ENDBRANCH   3  22
TORSDOF 7
ENDMDL
MODEL 3
REMARK VINA RESULT:      -4.5      2.790      4.221
REMARK  7 active torsions:
REMARK  status: ('A' for Active; 'I' for Inactive)
REMARK    1  A    between atoms: C_2  and  C_3 
REMARK    2  A    between atoms: C_3  and  O_6 
REMARK    3  A    between atoms: C_3  and  C_4 
REMARK    4  A    between atoms: C_7  and  O_6 
REMARK    5  A    between atoms: C_9  and  C_10 
REMARK    6  A    between atoms: N_15  and  C_14 
REMARK    7  A    between atoms: N_20  and  C_19 
REMARK       I    between atoms: C_22  and  N_20 
ROOT
ATOM      1  C   LIG d   1      -1.472  78.115 116.046  0.00  0.00     0.161 C 
ATOM      2  C   LIG d   1      -2.452  77.523 115.232  0.00  0.00     0.016 C 
ATOM      3  C   LIG d   1      -2.432  77.586 113.819  0.00  0.00     0.038 C 
ATOM      4  C   LIG d   1      -1.342  78.120 113.116  0.00  0.00     0.028 C 
ATOM      5  C   LIG d   1      -0.574  79.177 113.902  0.00  0.00    -0.047 C 
ATOM      6  C   LIG d   1      -0.217  78.606 115.294  0.00  0.00     0.091 C 
ENDROOT
BRANCH   1   7
ATOM      7  O   LIG d   1      -1.100  77.207 117.101  0.00  0.00    -0.368 OA
BRANCH   7   8
ATOM      8  C   LIG d   1      -1.447  75.815 116.897  0.00  0.00     0.119 C 
BRANCH   8   9
ATOM      9  C   LIG d   1      -1.859  75.236 118.265  0.00  0.00     0.028 C 
ATOM     10  C   LIG d   1      -3.008  76.024 118.914  0.00  0.00     0.006 C 
ENDBRANCH   8   9
BRANCH   8  11
ATOM     11  C   LIG d   1      -0.230  74.995 116.459  0.00  0.00     0.028 C 
ATOM     12  C   LIG d   1      -0.426  74.324 115.091  0.00  0.00     0.006 C 
ENDBRANCH   8  11
ENDBRANCH   7   8
ENDBRANCH   1   7
BRANCH   6  13
ATOM     13  N   LIG d   1       0.463  79.606 116.159  0.00  0.00    -0.311 N 
ATOM     14  C   LIG d   1       1.782  79.789 116.170  0.00  0.00     0.210 C 
ATOM     15  C   LIG d   1       2.279  80.856 117.150  0.00  0.00     0.109 C 
ATOM     16  O   LIG d   1       2.585  79.191 115.437  0.00  0.00    -0.276 OA
ATOM     17  H   LIG d   1      -0.116  80.156 116.762  0.00  0.00     0.149 HD
ENDBRANCH   6  13
BRANCH   5  18
ATOM     18  N   LIG d   1       0.613  79.548 113.108  0.00  0.00     0.381 N 
ATOM     19  H   LIG d   1       1.236  80.096 113.666  0.00  0.00    -0.090 HD
ATOM     20  H   LIG d   1       0.319  80.104 112.325  0.00  0.00    -0.090 HD
ATOM     21  H   LIG d   1       1.078  78.728 112.786  0.00  0.00    -0.090 HD
ENDBRANCH   5  18
BRANCH   3  22
ATOM     22  C   LIG d   1      -3.531  77.146 113.097  0.00  0.00     0.382 C 
ATOM     23  O   LIG d   1      -4.319  76.310 113.601  0.00  0.00    -0.241 OA
ATOM     24  O   LIG d   1      -3.718  77.540 111.930  0.00  0.00    -0.241 OA
ENDBRANCH   3  22
TORSDOF 7
ENDMDL
MODEL 4
REMARK VINA RESULT:      -4.4      2.214      3.172
REMARK  7 active torsions:
REMARK  status: ('A' for Active; 'I' for Inactive)
REMARK    1  A    between atoms: C_2  and  C_3 
REMARK    2  A    between atoms: C_3  and  O_6 
REMARK    3  A    between atoms: C_3  and  C_4 
REMARK    4  A    between atoms: C_7  and  O_6 
REMARK    5  A    between atoms: C_9  and  C_10 
REMARK    6  A    between atoms: N_15  and  C_14 
REMARK    7  A    between atoms: N_20  and  C_19 
REMARK       I    between atoms: C_22  and  N_20 
ROOT
ATOM      1  C   LIG d   1      -0.789  78.551 114.331  0.00  0.00     0.161 C 
ATOM      2  C   LIG d   1      -0.026  79.375 113.487  0.00  0.00     0.016 C 
ATOM      3  C   LIG d   1      -0.368  79.641 112.142  0.00  0.00     0.038 C 
ATOM      4  C   LIG d   1      -1.587  79.220 111.589  0.00  0.00     0.028 C 
ATOM      5  C   LIG d   1      -2.148  77.964 112.248  0.00  0.00    -0.047 C 
ATOM      6  C   LIG d   1      -2.180  78.173 113.780  0.00  0.00     0.091 C 
ENDROOT
BRANCH   1   7
ATOM      7  O   LIG d   1      -0.915  79.164 115.629  0.00  0.00    -0.368 OA
BRANCH   7   8
ATOM      8  C   LIG d   1       0.048  78.746 116.628  0.00  0.00     0.119 C 
BRANCH   8   9
ATOM      9  C   LIG d   1      -0.660  77.751 117.567  0.00  0.00     0.028 C 
ATOM     10  C   LIG d   1      -0.250  76.294 117.296  0.00  0.00     0.006 C 
ENDBRANCH   8   9
BRANCH   8  11
ATOM     11  C   LIG d   1       0.469  79.917 117.521  0.00  0.00     0.028 C 
ATOM     12  C   LIG d   1      -0.640  80.356 118.490  0.00  0.00     0.006 C 
ENDBRANCH   8  11
ENDBRANCH   7   8
ENDBRANCH   1   7
BRANCH   6  13
ATOM     13  N   LIG d   1      -2.637  76.961 114.507  0.00  0.00    -0.311 N 
ATOM     14  C   LIG d   1      -3.597  76.978 115.431  0.00  0.00     0.210 C 
ATOM     15  C   LIG d   1      -3.901  75.621 116.073  0.00  0.00     0.109 C 
ATOM     16  O   LIG d   1      -4.248  77.983 115.755  0.00  0.00    -0.276 OA
ATOM     17  H   LIG d   1      -2.184  76.096 114.284  0.00  0.00     0.149 HD
ENDBRANCH   6  13
BRANCH   5  18
ATOM     18  N   LIG d   1      -3.483  77.717 111.671  0.00  0.00     0.381 N 
ATOM     19  H   LIG d   1      -4.147  77.567 112.404  0.00  0.00    -0.090 HD
ATOM     20  H   LIG d   1      -3.444  76.887 111.106  0.00  0.00    -0.090 HD
ATOM     21  H   LIG d   1      -3.763  78.494 111.114  0.00  0.00    -0.090 HD
ENDBRANCH   5  18
BRANCH   3  22
ATOM     22  C   LIG d   1       0.533  80.303 111.321  0.00  0.00     0.382 C 
ATOM     23  O   LIG d   1       1.732  80.419 111.672  0.00  0.00    -0.241 OA
ATOM     24  O   LIG d   1       0.152  80.825 110.256  0.00  0.00    -0.241 OA
ENDBRANCH   3  22
TORSDOF 7
ENDMDL
MODEL 5
REMARK VINA RESULT:      -4.4      2.362      3.114
REMARK  7 active torsions:
REMARK  status: ('A' for Active; 'I' for Inactive)
REMARK    1  A    between atoms: C_2  and  C_3 
REMARK    2  A    between atoms: C_3  and  O_6 
REMARK    3  A    between atoms: C_3  and  C_4 
REMARK    4  A    between atoms: C_7  and  O_6 
REMARK    5  A    between atoms: C_9  and  C_10 
REMARK    6  A    between atoms: N_15  and  C_14 
REMARK    7  A    between atoms: N_20  and  C_19 
REMARK       I    between atoms: C_22  and  N_20 
ROOT
ATOM      1  C   LIG d   1      -0.882  78.551 114.380  0.00  0.00     0.161 C 
ATOM      2  C   LIG d   1      -0.102  79.347 113.524  0.00  0.00     0.016 C 
ATOM      3  C   LIG d   1      -0.424  79.576 112.167  0.00  0.00     0.038 C 
ATOM      4  C   LIG d   1      -1.637  79.145 111.610  0.00  0.00     0.028 C 
ATOM      5  C   LIG d   1      -2.215  77.912 112.296  0.00  0.00    -0.047 C 
ATOM      6  C   LIG d   1      -2.266  78.164 113.820  0.00  0.00     0.091 C 
ENDROOT
BRANCH   1   7
ATOM      7  O   LIG d   1      -1.022  79.202 115.659  0.00  0.00    -0.368 OA
BRANCH   7   8
ATOM      8  C   LIG d   1      -0.280  78.616 116.757  0.00  0.00     0.119 C 
BRANCH   8   9
ATOM      9  C   LIG d   1       0.974  79.483 116.982  0.00  0.00     0.028 C 
ATOM     10  C   LIG d   1       2.243  78.843 116.393  0.00  0.00     0.006 C 
ENDBRANCH   8   9
BRANCH   8  11
ATOM     11  C   LIG d   1       0.248  77.225 116.393  0.00  0.00     0.028 C 
ATOM     12  C   LIG d   1      -0.367  76.111 117.255  0.00  0.00     0.006 C 
ENDBRANCH   8  11
ENDBRANCH   7   8
ENDBRANCH   1   7
BRANCH   6  13
ATOM     13  N   LIG d   1      -2.740  76.975 114.576  0.00  0.00    -0.311 N 
ATOM     14  C   LIG d   1      -3.660  77.037 115.537  0.00  0.00     0.210 C 
ATOM     15  C   LIG d   1      -3.990  75.697 116.202  0.00  0.00     0.109 C 
ATOM     16  O   LIG d   1      -4.257  78.068 115.880  0.00  0.00    -0.276 OA
ATOM     17  H   LIG d   1      -2.331  76.092 114.341  0.00  0.00     0.149 HD
ENDBRANCH   6  13
BRANCH   5  18
ATOM     18  N   LIG d   1      -3.542  77.655 111.707  0.00  0.00     0.381 N 
ATOM     19  H   LIG d   1      -4.173  77.342 112.418  0.00  0.00    -0.090 HD
ATOM     20  H   LIG d   1      -3.458  76.928 111.019  0.00  0.00    -0.090 HD
ATOM     21  H   LIG d   1      -3.894  78.485 111.283  0.00  0.00    -0.090 HD
ENDBRANCH   5  18
BRANCH   3  22
ATOM     22  C   LIG d   1       0.492  80.210 111.341  0.00  0.00     0.382 C 
ATOM     23  O   LIG d   1       1.664  80.409 111.741  0.00  0.00    -0.241 OA
ATOM     24  O   LIG d   1       0.148  80.625 110.218  0.00  0.00    -0.241 OA
ENDBRANCH   3  22
TORSDOF 7
ENDMDL
MODEL 6
REMARK VINA RESULT:      -4.4      3.324      5.640
REMARK  7 active torsions:
REMARK  status: ('A' for Active; 'I' for Inactive)
REMARK    1  A    between atoms: C_2  and  C_3 
REMARK    2  A    between atoms: C_3  and  O_6 
REMARK    3  A    between atoms: C_3  and  C_4 
REMARK    4  A    between atoms: C_7  and  O_6 
REMARK    5  A    between atoms: C_9  and  C_10 
REMARK    6  A    between atoms: N_15  and  C_14 
REMARK    7  A    between atoms: N_20  and  C_19 
REMARK       I    between atoms: C_22  and  N_20 
ROOT
ATOM      1  C   LIG d   1       0.107  79.655 114.022  0.00  0.00     0.161 C 
ATOM      2  C   LIG d   1      -0.582  78.529 114.501  0.00  0.00     0.016 C 
ATOM      3  C   LIG d   1      -1.322  77.658 113.669  0.00  0.00     0.038 C 
ATOM      4  C   LIG d   1      -1.299  77.770 112.271  0.00  0.00     0.028 C 
ATOM      5  C   LIG d   1      -1.029  79.189 111.781  0.00  0.00    -0.047 C 
ATOM      6  C   LIG d   1       0.236  79.730 112.486  0.00  0.00     0.091 C 
ENDROOT
BRANCH   1   7
ATOM      7  O   LIG d   1       1.408  79.731 114.638  0.00  0.00    -0.368 OA
BRANCH   7   8
ATOM      8  C   LIG d   1       1.516  79.173 115.971  0.00  0.00     0.119 C 
BRANCH   8   9
ATOM      9  C   LIG d   1       1.483  80.348 116.968  0.00  0.00     0.028 C 
ATOM     10  C   LIG d   1       0.209  80.351 117.830  0.00  0.00     0.006 C 
ENDBRANCH   8   9
BRANCH   8  11
ATOM     11  C   LIG d   1       2.873  78.497 116.185  0.00  0.00     0.028 C 
ATOM     12  C   LIG d   1       3.465  78.776 117.575  0.00  0.00     0.006 C 
ENDBRANCH   8  11
ENDBRANCH   7   8
ENDBRANCH   1   7
BRANCH   6  13
ATOM     13  N   LIG d   1       0.523  81.144 112.128  0.00  0.00    -0.311 N 
ATOM     14  C   LIG d   1       1.589  81.519 111.422  0.00  0.00     0.210 C 
ATOM     15  C   LIG d   1       1.706  83.027 111.180  0.00  0.00     0.109 C 
ATOM     16  O   LIG d   1       2.431  80.743 110.947  0.00  0.00    -0.276 OA
ATOM     17  H   LIG d   1      -0.125  81.836 112.447  0.00  0.00     0.149 HD
ENDBRANCH   6  13
BRANCH   5  18
ATOM     18  N   LIG d   1      -0.894  79.136 110.313  0.00  0.00     0.381 N 
ATOM     19  H   LIG d   1      -1.209  78.248 109.976  0.00  0.00    -0.090 HD
ATOM     20  H   LIG d   1       0.076  79.239 110.072  0.00  0.00    -0.090 HD
ATOM     21  H   LIG d   1      -1.428  79.866 109.896  0.00  0.00    -0.090 HD
ENDBRANCH   5  18
BRANCH   3  22
ATOM     22  C   LIG d   1      -2.129  76.684 114.238  0.00  0.00     0.382 C 
ATOM     23  O   LIG d   1      -3.151  76.283 113.631  0.00  0.00    -0.241 OA
ATOM     24  O   LIG d   1      -1.873  76.235 115.371  0.00  0.00    -0.241 OA
ENDBRANCH   3  22
TORSDOF 7
ENDMDL
MODEL 7
REMARK VINA RESULT:      -4.2      3.177      4.950
REMARK  7 active torsions:
REMARK  status: ('A' for Active; 'I' for Inactive)
REMARK    1  A    between atoms: C_2  and  C_3 
REMARK    2  A    between atoms: C_3  and  O_6 
REMARK    3  A    between atoms: C_3  and  C_4 
REMARK    4  A    between atoms: C_7  and  O_6 
REMARK    5  A    between atoms: C_9  and  C_10 
REMARK    6  A    between atoms: N_15  and  C_14 
REMARK    7  A    between atoms: N_20  and  C_19 
REMARK       I    between atoms: C_22  and  N_20 
ROOT
ATOM      1  C   LIG d   1      -0.722  78.177 116.050  0.00  0.00     0.161 C 
ATOM      2  C   LIG d   1       0.397  79.023 116.128  0.00  0.00     0.016 C 
ATOM      3  C   LIG d   1       1.686  78.576 116.502  0.00  0.00     0.038 C 
ATOM      4  C   LIG d   1       1.976  77.215 116.677  0.00  0.00     0.028 C 
ATOM      5  C   LIG d   1       0.768  76.387 117.101  0.00  0.00    -0.047 C 
ATOM      6  C   LIG d   1      -0.400  76.670 116.129  0.00  0.00     0.091 C 
ENDROOT
BRANCH   1   7
ATOM      7  O   LIG d   1      -1.470  78.468 114.853  0.00  0.00    -0.368 OA
BRANCH   7   8
ATOM      8  C   LIG d   1      -0.880  78.021 113.607  0.00  0.00     0.119 C 
BRANCH   8   9
ATOM      9  C   LIG d   1      -0.615  79.271 112.746  0.00  0.00     0.028 C 
ATOM     10  C   LIG d   1      -0.942  79.040 111.261  0.00  0.00     0.006 C 
ENDBRANCH   8   9
BRANCH   8  11
ATOM     11  C   LIG d   1      -1.863  77.171 112.797  0.00  0.00     0.028 C 
ATOM     12  C   LIG d   1      -3.256  77.095 113.442  0.00  0.00     0.006 C 
ENDBRANCH   8  11
ENDBRANCH   7   8
ENDBRANCH   1   7
BRANCH   6  13
ATOM     13  N   LIG d   1      -1.648  75.965 116.522  0.00  0.00    -0.311 N 
ATOM     14  C   LIG d   1      -2.043  74.816 115.976  0.00  0.00     0.210 C 
ATOM     15  C   LIG d   1      -3.370  74.268 116.511  0.00  0.00     0.109 C 
ATOM     16  O   LIG d   1      -1.404  74.181 115.123  0.00  0.00    -0.276 OA
ATOM     17  H   LIG d   1      -2.211  76.394 117.230  0.00  0.00     0.149 HD
ENDBRANCH   6  13
BRANCH   5  18
ATOM     18  N   LIG d   1       1.180  74.971 117.113  0.00  0.00     0.381 N 
ATOM     19  H   LIG d   1       1.350  74.675 118.053  0.00  0.00    -0.090 HD
ATOM     20  H   LIG d   1       2.034  74.876 116.593  0.00  0.00    -0.090 HD
ATOM     21  H   LIG d   1       0.469  74.405 116.703  0.00  0.00    -0.090 HD
ENDBRANCH   5  18
BRANCH   3  22
ATOM     22  C   LIG d   1       2.691  79.500 116.743  0.00  0.00     0.382 C 
ATOM     23  O   LIG d   1       3.735  79.149 117.342  0.00  0.00    -0.241 OA
ATOM     24  O   LIG d   1       2.547  80.691 116.407  0.00  0.00    -0.241 OA
ENDBRANCH   3  22
TORSDOF 7
ENDMDL
MODEL 8
REMARK VINA RESULT:      -4.1      2.368      5.092
REMARK  7 active torsions:
REMARK  status: ('A' for Active; 'I' for Inactive)
REMARK    1  A    between atoms: C_2  and  C_3 
REMARK    2  A    between atoms: C_3  and  O_6 
REMARK    3  A    between atoms: C_3  and  C_4 
REMARK    4  A    between atoms: C_7  and  O_6 
REMARK    5  A    between atoms: C_9  and  C_10 
REMARK    6  A    between atoms: N_15  and  C_14 
REMARK    7  A    between atoms: N_20  and  C_19 
REMARK       I    between atoms: C_22  and  N_20 
ROOT
ATOM      1  C   LIG d   1      -1.447  78.651 115.164  0.00  0.00     0.161 C 
ATOM      2  C   LIG d   1      -1.814  77.533 115.932  0.00  0.00     0.016 C 
ATOM      3  C   LIG d   1      -1.845  76.215 115.421  0.00  0.00     0.038 C 
ATOM      4  C   LIG d   1      -1.361  75.904 114.142  0.00  0.00     0.028 C 
ATOM      5  C   LIG d   1      -1.455  77.066 113.160  0.00  0.00    -0.047 C 
ATOM      6  C   LIG d   1      -0.810  78.317 113.799  0.00  0.00     0.091 C 
ENDROOT
BRANCH   1   7
ATOM      7  O   LIG d   1      -0.573  79.504 115.930  0.00  0.00    -0.368 OA
BRANCH   7   8
ATOM      8  C   LIG d   1      -0.196  79.017 117.241  0.00  0.00     0.119 C 
BRANCH   8   9
ATOM      9  C   LIG d   1      -0.781  79.990 118.282  0.00  0.00     0.028 C 
ATOM     10  C   LIG d   1       0.098  81.237 118.478  0.00  0.00     0.006 C 
ENDBRANCH   8   9
BRANCH   8  11
ATOM     11  C   LIG d   1       1.321  79.072 117.441  0.00  0.00     0.028 C 
ATOM     12  C   LIG d   1       2.099  79.015 116.117  0.00  0.00     0.006 C 
ENDBRANCH   8  11
ENDBRANCH   7   8
ENDBRANCH   1   7
BRANCH   6  13
ATOM     13  N   LIG d   1      -0.934  79.522 112.938  0.00  0.00    -0.311 N 
ATOM     14  C   LIG d   1       0.109  80.243 112.530  0.00  0.00     0.210 C 
ATOM     15  C   LIG d   1      -0.242  81.457 111.666  0.00  0.00     0.109 C 
ATOM     16  O   LIG d   1       1.294  79.973 112.776  0.00  0.00    -0.276 OA
ATOM     17  H   LIG d   1      -1.858  79.794 112.665  0.00  0.00     0.149 HD
ENDBRANCH   6  13
BRANCH   5  18
ATOM     18  N   LIG d   1      -0.792  76.648 111.910  0.00  0.00     0.381 N 
ATOM     19  H   LIG d   1      -0.278  77.416 111.526  0.00  0.00    -0.090 HD
ATOM     20  H   LIG d   1      -1.494  76.376 111.245  0.00  0.00    -0.090 HD
ATOM     21  H   LIG d   1      -0.178  75.884 112.088  0.00  0.00    -0.090 HD
ENDBRANCH   5  18
BRANCH   3  22
ATOM     22  C   LIG d   1      -2.401  75.197 116.181  0.00  0.00     0.382 C 
ATOM     23  O   LIG d   1      -2.397  75.275 117.433  0.00  0.00    -0.241 OA
ATOM     24  O   LIG d   1      -2.866  74.180 115.631  0.00  0.00    -0.241 OA
ENDBRANCH   3  22
TORSDOF 7
ENDMDL
MODEL 9
REMARK VINA RESULT:      -3.9      3.522      5.182
REMARK  7 active torsions:
REMARK  status: ('A' for Active; 'I' for Inactive)
REMARK    1  A    between atoms: C_2  and  C_3 
REMARK    2  A    between atoms: C_3  and  O_6 
REMARK    3  A    between atoms: C_3  and  C_4 
REMARK    4  A    between atoms: C_7  and  O_6 
REMARK    5  A    between atoms: C_9  and  C_10 
REMARK    6  A    between atoms: N_15  and  C_14 
REMARK    7  A    between atoms: N_20  and  C_19 
REMARK       I    between atoms: C_22  and  N_20 
ROOT
ATOM      1  C   LIG d   1      -0.068  77.499 116.279  0.00  0.00     0.161 C 
ATOM      2  C   LIG d   1       1.098  78.283 116.317  0.00  0.00     0.016 C 
ATOM      3  C   LIG d   1       2.337  77.811 116.807  0.00  0.00     0.038 C 
ATOM      4  C   LIG d   1       2.534  76.466 117.153  0.00  0.00     0.028 C 
ATOM      5  C   LIG d   1       1.258  75.764 117.607  0.00  0.00    -0.047 C 
ATOM      6  C   LIG d   1       0.155  75.996 116.550  0.00  0.00     0.091 C 
ENDROOT
BRANCH   1   7
ATOM      7  O   LIG d   1      -0.742  77.687 115.020  0.00  0.00    -0.368 OA
BRANCH   7   8
ATOM      8  C   LIG d   1      -1.780  78.698 114.997  0.00  0.00     0.119 C 
BRANCH   8   9
ATOM      9  C   LIG d   1      -3.059  78.060 115.573  0.00  0.00     0.028 C 
ATOM     10  C   LIG d   1      -3.464  78.674 116.924  0.00  0.00     0.006 C 
ENDBRANCH   8   9
BRANCH   8  11
ATOM     11  C   LIG d   1      -2.137  79.098 113.562  0.00  0.00     0.028 C 
ATOM     12  C   LIG d   1      -0.906  79.196 112.648  0.00  0.00     0.006 C 
ENDBRANCH   8  11
ENDBRANCH   7   8
ENDBRANCH   1   7
BRANCH   6  13
ATOM     13  N   LIG d   1      -1.151  75.414 116.956  0.00  0.00    -0.311 N 
ATOM     14  C   LIG d   1      -1.902  74.665 116.151  0.00  0.00     0.210 C 
ATOM     15  C   LIG d   1      -3.221  74.182 116.761  0.00  0.00     0.109 C 
ATOM     16  O   LIG d   1      -1.586  74.327 115.000  0.00  0.00    -0.276 OA
ATOM     17  H   LIG d   1      -1.469  75.612 117.884  0.00  0.00     0.149 HD
ENDBRANCH   6  13
BRANCH   5  18
ATOM     18  N   LIG d   1       1.579  74.338 117.804  0.00  0.00     0.381 N 
ATOM     19  H   LIG d   1       1.021  73.777 117.192  0.00  0.00    -0.090 HD
ATOM     20  H   LIG d   1       1.361  74.084 118.752  0.00  0.00    -0.090 HD
ATOM     21  H   LIG d   1       2.546  74.178 117.624  0.00  0.00    -0.090 HD
ENDBRANCH   5  18
BRANCH   3  22
ATOM     22  C   LIG d   1       3.387  78.698 116.991  0.00  0.00     0.382 C 
ATOM     23  O   LIG d   1       3.156  79.873 117.367  0.00  0.00    -0.241 OA
ATOM     24  O   LIG d   1       4.557  78.353 116.743  0.00  0.00    -0.241 OA
ENDBRANCH   3  22
TORSDOF 7
ENDMDL
