MODEL 1
REMARK VINA RESULT:      -4.8      0.000      0.000
REMARK  7 active torsions:
REMARK  status: ('A' for Active; 'I' for Inactive)
REMARK    1  A    between atoms: C_2  and  C_3 
REMARK    2  A    between atoms: C_3  and  O_6 
REMARK    3  A    between atoms: C_3  and  C_4 
REMARK    4  A    between atoms: C_7  and  O_6 
REMARK    5  A    between atoms: C_9  and  C_10 
REMARK    6  A    between atoms: N_15  and  C_14 
REMARK    7  A    between atoms: N_20  and  C_19 
REMARK       I    between atoms: C_22  and  N_20 
ROOT
ATOM      1  C   LIG d   1       1.775  81.502 112.547  0.00  0.00     0.161 C 
ATOM      2  C   LIG d   1       2.823  82.080 111.811  0.00  0.00     0.016 C 
ATOM      3  C   LIG d   1       2.853  82.117 110.398  0.00  0.00     0.038 C 
ATOM      4  C   LIG d   1       1.758  81.710 109.622  0.00  0.00     0.028 C 
ATOM      5  C   LIG d   1       0.890  80.657 110.304  0.00  0.00    -0.047 C 
ATOM      6  C   LIG d   1       0.520  81.153 111.721  0.00  0.00     0.091 C 
ENDROOT
BRANCH   1   7
ATOM      7  O   LIG d   1       1.425  82.358 113.653  0.00  0.00    -0.368 OA
BRANCH   7   8
ATOM      8  C   LIG d   1       2.397  82.447 114.723  0.00  0.00     0.119 C 
BRANCH   8   9
ATOM      9  C   LIG d   1       1.972  81.449 115.819  0.00  0.00     0.028 C 
ATOM     10  C   LIG d   1       3.146  81.034 116.722  0.00  0.00     0.006 C 
ENDBRANCH   8   9
BRANCH   8  11
ATOM     11  C   LIG d   1       2.363  83.824 115.394  0.00  0.00     0.028 C 
ATOM     12  C   LIG d   1       3.735  84.516 115.403  0.00  0.00     0.006 C 
ENDBRANCH   8  11
ENDBRANCH   7   8
ENDBRANCH   1   7
BRANCH   6  13
ATOM     13  N   LIG d   1      -0.258  80.145 112.488  0.00  0.00    -0.311 N 
ATOM     14  C   LIG d   1      -1.549  80.286 112.785  0.00  0.00     0.210 C 
ATOM     15  C   LIG d   1      -2.154  79.140 113.601  0.00  0.00     0.109 C 
ATOM     16  O   LIG d   1      -2.258  81.236 112.421  0.00  0.00    -0.276 OA
ATOM     17  H   LIG d   1       0.232  79.328 112.796  0.00  0.00     0.149 HD
ENDBRANCH   6  13
BRANCH   5  18
ATOM     18  N   LIG d   1      -0.287  80.426 109.446  0.00  0.00     0.381 N 
ATOM     19  H   LIG d   1      -0.847  79.691 109.830  0.00  0.00    -0.090 HD
ATOM     20  H   LIG d   1       0.026  80.140 108.535  0.00  0.00    -0.090 HD
ATOM     21  H   LIG d   1      -0.826  81.260 109.374  0.00  0.00    -0.090 HD
ENDBRANCH   5  18
BRANCH   3  22
ATOM     22  C   LIG d   1       4.005  82.529 109.746  0.00  0.00     0.382 C 
ATOM     23  O   LIG d   1       4.150  83.734 109.430  0.00  0.00    -0.241 OA
ATOM     24  O   LIG d   1       4.882  81.702 109.430  0.00  0.00    -0.241 OA
ENDBRANCH   3  22
TORSDOF 7
ENDMDL
MODEL 2
REMARK VINA RESULT:      -4.7      2.825      5.872
REMARK  7 active torsions:
REMARK  status: ('A' for Active; 'I' for Inactive)
REMARK    1  A    between atoms: C_2  and  C_3 
REMARK    2  A    between atoms: C_3  and  O_6 
REMARK    3  A    between atoms: C_3  and  C_4 
REMARK    4  A    between atoms: C_7  and  O_6 
REMARK    5  A    between atoms: C_9  and  C_10 
REMARK    6  A    between atoms: N_15  and  C_14 
REMARK    7  A    between atoms: N_20  and  C_19 
REMARK       I    between atoms: C_22  and  N_20 
ROOT
ATOM      1  C   LIG d   1      -0.120  80.389 112.906  0.00  0.00     0.161 C 
ATOM      2  C   LIG d   1      -1.153  79.810 112.151  0.00  0.00     0.016 C 
ATOM      3  C   LIG d   1      -2.185  79.026 112.717  0.00  0.00     0.038 C 
ATOM      4  C   LIG d   1      -2.338  78.893 114.105  0.00  0.00     0.028 C 
ATOM      5  C   LIG d   1      -1.031  79.041 114.876  0.00  0.00    -0.047 C 
ATOM      6  C   LIG d   1      -0.333  80.347 114.434  0.00  0.00     0.091 C 
ENDROOT
BRANCH   1   7
ATOM      7  O   LIG d   1       0.104  81.744 112.468  0.00  0.00    -0.368 OA
BRANCH   7   8
ATOM      8  C   LIG d   1       0.743  81.900 111.177  0.00  0.00     0.119 C 
BRANCH   8   9
ATOM      9  C   LIG d   1       2.266  81.881 111.408  0.00  0.00     0.028 C 
ATOM     10  C   LIG d   1       2.921  80.586 110.899  0.00  0.00     0.006 C 
ENDBRANCH   8   9
BRANCH   8  11
ATOM     11  C   LIG d   1       0.442  83.273 110.568  0.00  0.00     0.028 C 
ATOM     12  C   LIG d   1       1.407  83.644 109.431  0.00  0.00     0.006 C 
ENDBRANCH   8  11
ENDBRANCH   7   8
ENDBRANCH   1   7
BRANCH   6  13
ATOM     13  N   LIG d   1       0.994  80.527 115.078  0.00  0.00    -0.311 N 
ATOM     14  C   LIG d   1       1.162  81.131 116.253  0.00  0.00     0.210 C 
ATOM     15  C   LIG d   1       2.616  81.229 116.728  0.00  0.00     0.109 C 
ATOM     16  O   LIG d   1       0.243  81.567 116.963  0.00  0.00    -0.276 OA
ATOM     17  H   LIG d   1       1.792  80.176 114.586  0.00  0.00     0.149 HD
ENDBRANCH   6  13
BRANCH   5  18
ATOM     18  N   LIG d   1      -1.357  79.018 116.314  0.00  0.00     0.381 N 
ATOM     19  H   LIG d   1      -2.250  79.442 116.466  0.00  0.00    -0.090 HD
ATOM     20  H   LIG d   1      -0.666  79.551 116.813  0.00  0.00    -0.090 HD
ATOM     21  H   LIG d   1      -1.366  78.079 116.647  0.00  0.00    -0.090 HD
ENDBRANCH   5  18
BRANCH   3  22
ATOM     22  C   LIG d   1      -3.053  78.332 111.888  0.00  0.00     0.382 C 
ATOM     23  O   LIG d   1      -2.653  77.902 110.779  0.00  0.00    -0.241 OA
ATOM     24  O   LIG d   1      -4.244  78.168 112.216  0.00  0.00    -0.241 OA
ENDBRANCH   3  22
TORSDOF 7
ENDMDL
MODEL 3
REMARK VINA RESULT:      -4.4      1.838      4.885
REMARK  7 active torsions:
REMARK  status: ('A' for Active; 'I' for Inactive)
REMARK    1  A    between atoms: C_2  and  C_3 
REMARK    2  A    between atoms: C_3  and  O_6 
REMARK    3  A    between atoms: C_3  and  C_4 
REMARK    4  A    between atoms: C_7  and  O_6 
REMARK    5  A    between atoms: C_9  and  C_10 
REMARK    6  A    between atoms: N_15  and  C_14 
REMARK    7  A    between atoms: N_20  and  C_19 
REMARK       I    between atoms: C_22  and  N_20 
ROOT
ATOM      1  C   LIG d   1       0.080  81.568 111.617  0.00  0.00     0.161 C 
ATOM      2  C   LIG d   1      -1.049  80.812 111.975  0.00  0.00     0.016 C 
ATOM      3  C   LIG d   1      -1.244  79.469 111.577  0.00  0.00     0.038 C 
ATOM      4  C   LIG d   1      -0.246  78.739 110.915  0.00  0.00     0.028 C 
ATOM      5  C   LIG d   1       0.699  79.611 110.095  0.00  0.00    -0.047 C 
ATOM      6  C   LIG d   1       1.231  80.754 110.989  0.00  0.00     0.091 C 
ENDROOT
BRANCH   1   7
ATOM      7  O   LIG d   1       0.554  82.308 112.759  0.00  0.00    -0.368 OA
BRANCH   7   8
ATOM      8  C   LIG d   1       1.862  81.937 113.261  0.00  0.00     0.119 C 
BRANCH   8   9
ATOM      9  C   LIG d   1       1.653  81.224 114.611  0.00  0.00     0.028 C 
ATOM     10  C   LIG d   1       2.336  81.961 115.775  0.00  0.00     0.006 C 
ENDBRANCH   8   9
BRANCH   8  11
ATOM     11  C   LIG d   1       2.708  83.172 113.581  0.00  0.00     0.028 C 
ATOM     12  C   LIG d   1       2.369  84.375 112.686  0.00  0.00     0.006 C 
ENDBRANCH   8  11
ENDBRANCH   7   8
ENDBRANCH   1   7
BRANCH   6  13
ATOM     13  N   LIG d   1       2.096  81.703 110.241  0.00  0.00    -0.311 N 
ATOM     14  C   LIG d   1       3.427  81.648 110.254  0.00  0.00     0.210 C 
ATOM     15  C   LIG d   1       4.127  82.733 109.430  0.00  0.00     0.109 C 
ATOM     16  O   LIG d   1       4.093  80.783 110.843  0.00  0.00    -0.276 OA
ATOM     17  H   LIG d   1       1.638  82.418 109.711  0.00  0.00     0.149 HD
ENDBRANCH   6  13
BRANCH   5  18
ATOM     18  N   LIG d   1       1.769  78.740 109.572  0.00  0.00     0.381 N 
ATOM     19  H   LIG d   1       1.592  77.792 109.837  0.00  0.00    -0.090 HD
ATOM     20  H   LIG d   1       2.644  79.023 109.976  0.00  0.00    -0.090 HD
ATOM     21  H   LIG d   1       1.813  78.813 108.580  0.00  0.00    -0.090 HD
ENDBRANCH   5  18
BRANCH   3  22
ATOM     22  C   LIG d   1      -2.466  78.855 111.807  0.00  0.00     0.382 C 
ATOM     23  O   LIG d   1      -2.814  77.871 111.110  0.00  0.00    -0.241 OA
ATOM     24  O   LIG d   1      -3.244  79.301 112.671  0.00  0.00    -0.241 OA
ENDBRANCH   3  22
TORSDOF 7
ENDMDL
MODEL 4
REMARK VINA RESULT:      -4.4      5.346      7.687
REMARK  7 active torsions:
REMARK  status: ('A' for Active; 'I' for Inactive)
REMARK    1  A    between atoms: C_2  and  C_3 
REMARK    2  A    between atoms: C_3  and  O_6 
REMARK    3  A    between atoms: C_3  and  C_4 
REMARK    4  A    between atoms: C_7  and  O_6 
REMARK    5  A    between atoms: C_9  and  C_10 
REMARK    6  A    between atoms: N_15  and  C_14 
REMARK    7  A    between atoms: N_20  and  C_19 
REMARK       I    between atoms: C_22  and  N_20 
ROOT
ATOM      1  C   LIG d   1      -2.711  77.337 115.748  0.00  0.00     0.161 C 
ATOM      2  C   LIG d   1      -3.026  77.406 114.381  0.00  0.00     0.016 C 
ATOM      3  C   LIG d   1      -2.413  78.314 113.486  0.00  0.00     0.038 C 
ATOM      4  C   LIG d   1      -1.328  79.116 113.870  0.00  0.00     0.028 C 
ATOM      5  C   LIG d   1      -1.314  79.441 115.360  0.00  0.00    -0.047 C 
ATOM      6  C   LIG d   1      -1.451  78.127 116.162  0.00  0.00     0.091 C 
ENDROOT
BRANCH   1   7
ATOM      7  O   LIG d   1      -2.593  75.959 116.154  0.00  0.00    -0.368 OA
BRANCH   7   8
ATOM      8  C   LIG d   1      -1.248  75.426 116.217  0.00  0.00     0.119 C 
BRANCH   8   9
ATOM      9  C   LIG d   1      -1.114  74.371 115.103  0.00  0.00     0.028 C 
ATOM     10  C   LIG d   1      -0.002  74.715 114.098  0.00  0.00     0.006 C 
ENDBRANCH   8   9
BRANCH   8  11
ATOM     11  C   LIG d   1      -1.011  74.666 117.526  0.00  0.00     0.028 C 
ATOM     12  C   LIG d   1      -2.200  74.764 118.495  0.00  0.00     0.006 C 
ENDBRANCH   8  11
ENDBRANCH   7   8
ENDBRANCH   1   7
BRANCH   6  13
ATOM     13  N   LIG d   1      -1.530  78.363 117.628  0.00  0.00    -0.311 N 
ATOM     14  C   LIG d   1      -0.476  78.300 118.438  0.00  0.00     0.210 C 
ATOM     15  C   LIG d   1      -0.781  78.557 119.918  0.00  0.00     0.109 C 
ATOM     16  O   LIG d   1       0.689  78.086 118.069  0.00  0.00    -0.276 OA
ATOM     17  H   LIG d   1      -2.433  78.574 118.008  0.00  0.00     0.149 HD
ENDBRANCH   6  13
BRANCH   5  18
ATOM     18  N   LIG d   1      -0.060  80.165 115.646  0.00  0.00     0.381 N 
ATOM     19  H   LIG d   1      -0.262  81.119 115.868  0.00  0.00    -0.090 HD
ATOM     20  H   LIG d   1       0.519  80.148 114.825  0.00  0.00    -0.090 HD
ATOM     21  H   LIG d   1       0.417  79.733 116.407  0.00  0.00    -0.090 HD
ENDBRANCH   5  18
BRANCH   3  22
ATOM     22  C   LIG d   1      -2.913  78.454 112.200  0.00  0.00     0.382 C 
ATOM     23  O   LIG d   1      -2.196  78.954 111.300  0.00  0.00    -0.241 OA
ATOM     24  O   LIG d   1      -4.086  78.126 111.939  0.00  0.00    -0.241 OA
ENDBRANCH   3  22
TORSDOF 7
ENDMDL
MODEL 5
REMARK VINA RESULT:      -4.4      5.322      7.847
REMARK  7 active torsions:
REMARK  status: ('A' for Active; 'I' for Inactive)
REMARK    1  A    between atoms: C_2  and  C_3 
REMARK    2  A    between atoms: C_3  and  O_6 
REMARK    3  A    between atoms: C_3  and  C_4 
REMARK    4  A    between atoms: C_7  and  O_6 
REMARK    5  A    between atoms: C_9  and  C_10 
REMARK    6  A    between atoms: N_15  and  C_14 
REMARK    7  A    between atoms: N_20  and  C_19 
REMARK       I    between atoms: C_22  and  N_20 
ROOT
ATOM      1  C   LIG d   1      -2.448  77.280 115.685  0.00  0.00     0.161 C 
ATOM      2  C   LIG d   1      -2.890  77.337 114.352  0.00  0.00     0.016 C 
ATOM      3  C   LIG d   1      -2.396  78.266 113.408  0.00  0.00     0.038 C 
ATOM      4  C   LIG d   1      -1.311  79.108 113.693  0.00  0.00     0.028 C 
ATOM      5  C   LIG d   1      -1.171  79.434 115.176  0.00  0.00    -0.047 C 
ATOM      6  C   LIG d   1      -1.186  78.116 115.984  0.00  0.00     0.091 C 
ENDROOT
BRANCH   1   7
ATOM      7  O   LIG d   1      -2.243  75.908 116.073  0.00  0.00    -0.368 OA
BRANCH   7   8
ATOM      8  C   LIG d   1      -3.204  75.360 117.009  0.00  0.00     0.119 C 
BRANCH   8   9
ATOM      9  C   LIG d   1      -4.098  76.521 117.487  0.00  0.00     0.028 C 
ATOM     10  C   LIG d   1      -3.991  76.757 119.003  0.00  0.00     0.006 C 
ENDBRANCH   8   9
BRANCH   8  11
ATOM     11  C   LIG d   1      -2.514  74.833 118.271  0.00  0.00     0.028 C 
ATOM     12  C   LIG d   1      -1.154  74.180 117.978  0.00  0.00     0.006 C 
ENDBRANCH   8  11
ENDBRANCH   7   8
ENDBRANCH   1   7
BRANCH   6  13
ATOM     13  N   LIG d   1      -1.138  78.350 117.450  0.00  0.00    -0.311 N 
ATOM     14  C   LIG d   1      -0.209  77.824 118.247  0.00  0.00     0.210 C 
ATOM     15  C   LIG d   1      -0.355  78.175 119.731  0.00  0.00     0.109 C 
ATOM     16  O   LIG d   1       0.741  77.126 117.860  0.00  0.00    -0.276 OA
ATOM     17  H   LIG d   1      -1.853  78.930 117.844  0.00  0.00     0.149 HD
ENDBRANCH   6  13
BRANCH   5  18
ATOM     18  N   LIG d   1       0.077  80.203 115.347  0.00  0.00     0.381 N 
ATOM     19  H   LIG d   1       0.004  80.792 116.153  0.00  0.00    -0.090 HD
ATOM     20  H   LIG d   1       0.212  80.788 114.541  0.00  0.00    -0.090 HD
ATOM     21  H   LIG d   1       0.849  79.582 115.450  0.00  0.00    -0.090 HD
ENDBRANCH   5  18
BRANCH   3  22
ATOM     22  C   LIG d   1      -3.017  78.387 112.174  0.00  0.00     0.382 C 
ATOM     23  O   LIG d   1      -4.238  78.123 112.057  0.00  0.00    -0.241 OA
ATOM     24  O   LIG d   1      -2.361  78.715 111.166  0.00  0.00    -0.241 OA
ENDBRANCH   3  22
TORSDOF 7
ENDMDL
MODEL 6
REMARK VINA RESULT:      -4.2      5.861      7.356
REMARK  7 active torsions:
REMARK  status: ('A' for Active; 'I' for Inactive)
REMARK    1  A    between atoms: C_2  and  C_3 
REMARK    2  A    between atoms: C_3  and  O_6 
REMARK    3  A    between atoms: C_3  and  C_4 
REMARK    4  A    between atoms: C_7  and  O_6 
REMARK    5  A    between atoms: C_9  and  C_10 
REMARK    6  A    between atoms: N_15  and  C_14 
REMARK    7  A    between atoms: N_20  and  C_19 
REMARK       I    between atoms: C_22  and  N_20 
ROOT
ATOM      1  C   LIG d   1      -1.380  77.457 115.792  0.00  0.00     0.161 C 
ATOM      2  C   LIG d   1      -1.640  78.165 114.607  0.00  0.00     0.016 C 
ATOM      3  C   LIG d   1      -2.742  77.892 113.763  0.00  0.00     0.038 C 
ATOM      4  C   LIG d   1      -3.748  76.985 114.128  0.00  0.00     0.028 C 
ATOM      5  C   LIG d   1      -3.263  75.888 115.069  0.00  0.00    -0.047 C 
ATOM      6  C   LIG d   1      -2.527  76.539 116.263  0.00  0.00     0.091 C 
ENDROOT
BRANCH   1   7
ATOM      7  O   LIG d   1      -1.011  78.375 116.839  0.00  0.00    -0.368 OA
BRANCH   7   8
ATOM      8  C   LIG d   1      -1.536  79.720 116.722  0.00  0.00     0.119 C 
BRANCH   8   9
ATOM      9  C   LIG d   1      -0.431  80.691 117.181  0.00  0.00     0.028 C 
ATOM     10  C   LIG d   1      -0.929  81.688 118.241  0.00  0.00     0.006 C 
ENDBRANCH   8   9
BRANCH   8  11
ATOM     11  C   LIG d   1      -2.703  79.949 117.687  0.00  0.00     0.028 C 
ATOM     12  C   LIG d   1      -4.074  79.854 116.998  0.00  0.00     0.006 C 
ENDBRANCH   8  11
ENDBRANCH   7   8
ENDBRANCH   1   7
BRANCH   6  13
ATOM     13  N   LIG d   1      -1.947  75.532 117.189  0.00  0.00    -0.311 N 
ATOM     14  C   LIG d   1      -2.400  75.326 118.424  0.00  0.00     0.210 C 
ATOM     15  C   LIG d   1      -1.646  74.254 119.218  0.00  0.00     0.109 C 
ATOM     16  O   LIG d   1      -3.375  75.905 118.926  0.00  0.00    -0.276 OA
ATOM     17  H   LIG d   1      -1.172  74.995 116.852  0.00  0.00     0.149 HD
ENDBRANCH   6  13
BRANCH   5  18
ATOM     18  N   LIG d   1      -4.440  75.098 115.476  0.00  0.00     0.381 N 
ATOM     19  H   LIG d   1      -4.899  75.546 116.244  0.00  0.00    -0.090 HD
ATOM     20  H   LIG d   1      -4.133  74.190 115.779  0.00  0.00    -0.090 HD
ATOM     21  H   LIG d   1      -5.070  75.005 114.711  0.00  0.00    -0.090 HD
ENDBRANCH   5  18
BRANCH   3  22
ATOM     22  C   LIG d   1      -2.823  78.501 112.520  0.00  0.00     0.382 C 
ATOM     23  O   LIG d   1      -3.197  79.695 112.430  0.00  0.00    -0.241 OA
ATOM     24  O   LIG d   1      -2.569  77.858 111.484  0.00  0.00    -0.241 OA
ENDBRANCH   3  22
TORSDOF 7
ENDMDL
MODEL 7
REMARK VINA RESULT:      -4.2      1.720      4.881
REMARK  7 active torsions:
REMARK  status: ('A' for Active; 'I' for Inactive)
REMARK    1  A    between atoms: C_2  and  C_3 
REMARK    2  A    between atoms: C_3  and  O_6 
REMARK    3  A    between atoms: C_3  and  C_4 
REMARK    4  A    between atoms: C_7  and  O_6 
REMARK    5  A    between atoms: C_9  and  C_10 
REMARK    6  A    between atoms: N_15  and  C_14 
REMARK    7  A    between atoms: N_20  and  C_19 
REMARK       I    between atoms: C_22  and  N_20 
ROOT
ATOM      1  C   LIG d   1       1.307  81.366 112.820  0.00  0.00     0.161 C 
ATOM      2  C   LIG d   1       0.057  81.017 113.357  0.00  0.00     0.016 C 
ATOM      3  C   LIG d   1      -0.900  80.242 112.662  0.00  0.00     0.038 C 
ATOM      4  C   LIG d   1      -0.609  79.633 111.432  0.00  0.00     0.028 C 
ATOM      5  C   LIG d   1       0.453  80.374 110.626  0.00  0.00    -0.047 C 
ATOM      6  C   LIG d   1       1.686  80.618 111.525  0.00  0.00     0.091 C 
ENDROOT
BRANCH   1   7
ATOM      7  O   LIG d   1       2.333  81.193 113.818  0.00  0.00    -0.368 OA
BRANCH   7   8
ATOM      8  C   LIG d   1       2.129  81.892 115.070  0.00  0.00     0.119 C 
BRANCH   8   9
ATOM      9  C   LIG d   1       2.891  83.229 114.982  0.00  0.00     0.028 C 
ATOM     10  C   LIG d   1       2.032  84.424 115.430  0.00  0.00     0.006 C 
ENDBRANCH   8   9
BRANCH   8  11
ATOM     11  C   LIG d   1       2.767  81.138 116.240  0.00  0.00     0.028 C 
ATOM     12  C   LIG d   1       1.984  81.302 117.552  0.00  0.00     0.006 C 
ENDBRANCH   8  11
ENDBRANCH   7   8
ENDBRANCH   1   7
BRANCH   6  13
ATOM     13  N   LIG d   1       2.740  81.411 110.839  0.00  0.00    -0.311 N 
ATOM     14  C   LIG d   1       3.775  80.862 110.207  0.00  0.00     0.210 C 
ATOM     15  C   LIG d   1       4.756  81.862 109.584  0.00  0.00     0.109 C 
ATOM     16  O   LIG d   1       3.958  79.643 110.074  0.00  0.00    -0.276 OA
ATOM     17  H   LIG d   1       2.653  82.408 110.871  0.00  0.00     0.149 HD
ENDBRANCH   6  13
BRANCH   5  18
ATOM     18  N   LIG d   1       0.758  79.558 109.435  0.00  0.00     0.381 N 
ATOM     19  H   LIG d   1       0.248  79.905 108.647  0.00  0.00    -0.090 HD
ATOM     20  H   LIG d   1       0.467  78.612 109.606  0.00  0.00    -0.090 HD
ATOM     21  H   LIG d   1       1.735  79.584 109.245  0.00  0.00    -0.090 HD
ENDBRANCH   5  18
BRANCH   3  22
ATOM     22  C   LIG d   1      -2.179  80.104 113.179  0.00  0.00     0.382 C 
ATOM     23  O   LIG d   1      -3.177  80.351 112.459  0.00  0.00    -0.241 OA
ATOM     24  O   LIG d   1      -2.348  79.777 114.369  0.00  0.00    -0.241 OA
ENDBRANCH   3  22
TORSDOF 7
ENDMDL
MODEL 8
REMARK VINA RESULT:      -4.1      5.319      7.116
REMARK  7 active torsions:
REMARK  status: ('A' for Active; 'I' for Inactive)
REMARK    1  A    between atoms: C_2  and  C_3 
REMARK    2  A    between atoms: C_3  and  O_6 
REMARK    3  A    between atoms: C_3  and  C_4 
REMARK    4  A    between atoms: C_7  and  O_6 
REMARK    5  A    between atoms: C_9  and  C_10 
REMARK    6  A    between atoms: N_15  and  C_14 
REMARK    7  A    between atoms: N_20  and  C_19 
REMARK       I    between atoms: C_22  and  N_20 
ROOT
ATOM      1  C   LIG d   1      -2.514  78.999 116.246  0.00  0.00     0.161 C 
ATOM      2  C   LIG d   1      -2.790  79.881 115.188  0.00  0.00     0.016 C 
ATOM      3  C   LIG d   1      -2.422  79.626 113.846  0.00  0.00     0.038 C 
ATOM      4  C   LIG d   1      -1.883  78.394 113.447  0.00  0.00     0.028 C 
ATOM      5  C   LIG d   1      -1.125  77.675 114.559  0.00  0.00    -0.047 C 
ATOM      6  C   LIG d   1      -2.026  77.601 115.813  0.00  0.00     0.091 C 
ENDROOT
BRANCH   1   7
ATOM      7  O   LIG d   1      -3.670  78.884 117.100  0.00  0.00    -0.368 OA
BRANCH   7   8
ATOM      8  C   LIG d   1      -3.527  79.414 118.441  0.00  0.00     0.119 C 
BRANCH   8   9
ATOM      9  C   LIG d   1      -4.440  78.586 119.365  0.00  0.00     0.028 C 
ATOM     10  C   LIG d   1      -4.345  77.076 119.086  0.00  0.00     0.006 C 
ENDBRANCH   8   9
BRANCH   8  11
ATOM     11  C   LIG d   1      -4.052  80.849 118.532  0.00  0.00     0.028 C 
ATOM     12  C   LIG d   1      -3.109  81.781 119.310  0.00  0.00     0.006 C 
ENDBRANCH   8  11
ENDBRANCH   7   8
ENDBRANCH   1   7
BRANCH   6  13
ATOM     13  N   LIG d   1      -1.331  76.987 116.974  0.00  0.00    -0.311 N 
ATOM     14  C   LIG d   1      -1.392  75.688 117.262  0.00  0.00     0.210 C 
ATOM     15  C   LIG d   1      -0.618  75.267 118.516  0.00  0.00     0.109 C 
ATOM     16  O   LIG d   1      -1.986  74.840 116.581  0.00  0.00    -0.276 OA
ATOM     17  H   LIG d   1      -0.800  77.599 117.563  0.00  0.00     0.149 HD
ENDBRANCH   6  13
BRANCH   5  18
ATOM     18  N   LIG d   1      -0.737  76.348 114.047  0.00  0.00     0.381 N 
ATOM     19  H   LIG d   1      -1.509  75.929 113.568  0.00  0.00    -0.090 HD
ATOM     20  H   LIG d   1      -0.491  75.759 114.823  0.00  0.00    -0.090 HD
ATOM     21  H   LIG d   1       0.039  76.435 113.428  0.00  0.00    -0.090 HD
ENDBRANCH   5  18
BRANCH   3  22
ATOM     22  C   LIG d   1      -2.556  80.625 112.895  0.00  0.00     0.382 C 
ATOM     23  O   LIG d   1      -1.535  81.145 112.384  0.00  0.00    -0.241 OA
ATOM     24  O   LIG d   1      -3.684  81.045 112.574  0.00  0.00    -0.241 OA
ENDBRANCH   3  22
TORSDOF 7
ENDMDL
MODEL 9
REMARK VINA RESULT:      -4.0      3.400      6.600
REMARK  7 active torsions:
REMARK  status: ('A' for Active; 'I' for Inactive)
REMARK    1  A    between atoms: C_2  and  C_3 
REMARK    2  A    between atoms: C_3  and  O_6 
REMARK    3  A    between atoms: C_3  and  C_4 
REMARK    4  A    between atoms: C_7  and  O_6 
REMARK    5  A    between atoms: C_9  and  C_10 
REMARK    6  A    between atoms: N_15  and  C_14 
REMARK    7  A    between atoms: N_20  and  C_19 
REMARK       I    between atoms: C_22  and  N_20 
ROOT
ATOM      1  C   LIG d   1      -1.847  79.765 114.589  0.00  0.00     0.161 C 
ATOM      2  C   LIG d   1      -2.560  78.654 115.071  0.00  0.00     0.016 C 
ATOM      3  C   LIG d   1      -3.036  77.615 114.239  0.00  0.00     0.038 C 
ATOM      4  C   LIG d   1      -2.699  77.539 112.880  0.00  0.00     0.028 C 
ATOM      5  C   LIG d   1      -2.409  78.898 112.252  0.00  0.00    -0.047 C 
ATOM      6  C   LIG d   1      -1.374  79.644 113.125  0.00  0.00     0.091 C 
ENDROOT
BRANCH   1   7
ATOM      7  O   LIG d   1      -0.729  80.042 115.456  0.00  0.00    -0.368 OA
BRANCH   7   8
ATOM      8  C   LIG d   1      -0.903  79.693 116.851  0.00  0.00     0.119 C 
BRANCH   8   9
ATOM      9  C   LIG d   1      -1.091  81.005 117.637  0.00  0.00     0.028 C 
ATOM     10  C   LIG d   1      -2.348  80.984 118.522  0.00  0.00     0.006 C 
ENDBRANCH   8   9
BRANCH   8  11
ATOM     11  C   LIG d   1       0.364  79.053 117.427  0.00  0.00     0.028 C 
ATOM     12  C   LIG d   1       0.097  77.689 118.083  0.00  0.00     0.006 C 
ENDBRANCH   8  11
ENDBRANCH   7   8
ENDBRANCH   1   7
BRANCH   6  13
ATOM     13  N   LIG d   1      -1.096  81.016 112.628  0.00  0.00    -0.311 N 
ATOM     14  C   LIG d   1      -0.155  81.293 111.726  0.00  0.00     0.210 C 
ATOM     15  C   LIG d   1      -0.021  82.776 111.366  0.00  0.00     0.109 C 
ATOM     16  O   LIG d   1       0.559  80.447 111.167  0.00  0.00    -0.276 OA
ATOM     17  H   LIG d   1      -1.651  81.760 113.005  0.00  0.00     0.149 HD
ENDBRANCH   6  13
BRANCH   5  18
ATOM     18  N   LIG d   1      -1.938  78.661 110.874  0.00  0.00     0.381 N 
ATOM     19  H   LIG d   1      -1.298  77.892 110.862  0.00  0.00    -0.090 HD
ATOM     20  H   LIG d   1      -1.453  79.479 110.550  0.00  0.00    -0.090 HD
ATOM     21  H   LIG d   1      -2.712  78.467 110.278  0.00  0.00    -0.090 HD
ENDBRANCH   5  18
BRANCH   3  22
ATOM     22  C   LIG d   1      -3.893  76.657 114.759  0.00  0.00     0.382 C 
ATOM     23  O   LIG d   1      -4.440  75.824 113.997  0.00  0.00    -0.241 OA
ATOM     24  O   LIG d   1      -4.162  76.643 115.976  0.00  0.00    -0.241 OA
ENDBRANCH   3  22
TORSDOF 7
ENDMDL
