MODEL 1
REMARK VINA RESULT:      -5.8      0.000      0.000
REMARK  7 active torsions:
REMARK  status: ('A' for Active; 'I' for Inactive)
REMARK    1  A    between atoms: C_2  and  C_3 
REMARK    2  A    between atoms: C_3  and  O_6 
REMARK    3  A    between atoms: C_3  and  C_4 
REMARK    4  A    between atoms: C_7  and  O_6 
REMARK    5  A    between atoms: C_9  and  C_10 
REMARK    6  A    between atoms: N_15  and  C_14 
REMARK    7  A    between atoms: N_20  and  C_19 
REMARK       I    between atoms: C_22  and  N_20 
ROOT
ATOM      1  C   LIG d   1       0.168  82.604 112.218  0.00  0.00     0.161 C 
ATOM      2  C   LIG d   1      -1.087  82.218 112.718  0.00  0.00     0.016 C 
ATOM      3  C   LIG d   1      -1.710  80.991 112.394  0.00  0.00     0.038 C 
ATOM      4  C   LIG d   1      -1.047  79.993 111.663  0.00  0.00     0.028 C 
ATOM      5  C   LIG d   1       0.016  80.541 110.718  0.00  0.00    -0.047 C 
ATOM      6  C   LIG d   1       0.954  81.482 111.508  0.00  0.00     0.091 C 
ENDROOT
BRANCH   1   7
ATOM      7  O   LIG d   1       0.960  83.179 113.276  0.00  0.00    -0.368 OA
BRANCH   7   8
ATOM      8  C   LIG d   1       0.469  82.973 114.623  0.00  0.00     0.119 C 
BRANCH   8   9
ATOM      9  C   LIG d   1       0.486  84.339 115.336  0.00  0.00     0.028 C 
ATOM     10  C   LIG d   1       0.431  84.203 116.867  0.00  0.00     0.006 C 
ENDBRANCH   8   9
BRANCH   8  11
ATOM     11  C   LIG d   1       1.417  82.082 115.432  0.00  0.00     0.028 C 
ATOM     12  C   LIG d   1       1.153  80.583 115.220  0.00  0.00     0.006 C 
ENDBRANCH   8  11
ENDBRANCH   7   8
ENDBRANCH   1   7
BRANCH   6  13
ATOM     13  N   LIG d   1       1.974  82.126 110.640  0.00  0.00    -0.311 N 
ATOM     14  C   LIG d   1       3.173  81.599 110.402  0.00  0.00     0.210 C 
ATOM     15  C   LIG d   1       4.080  82.437 109.495  0.00  0.00     0.109 C 
ATOM     16  O   LIG d   1       3.561  80.502 110.830  0.00  0.00    -0.276 OA
ATOM     17  H   LIG d   1       1.731  83.005 110.226  0.00  0.00     0.149 HD
ENDBRANCH   6  13
BRANCH   5  18
ATOM     18  N   LIG d   1       0.720  79.389 110.123  0.00  0.00     0.381 N 
ATOM     19  H   LIG d   1       1.575  79.223 110.616  0.00  0.00    -0.090 HD
ATOM     20  H   LIG d   1       0.943  79.602 109.167  0.00  0.00    -0.090 HD
ATOM     21  H   LIG d   1       0.143  78.578 110.165  0.00  0.00    -0.090 HD
ENDBRANCH   5  18
BRANCH   3  22
ATOM     22  C   LIG d   1      -3.025  80.768 112.770  0.00  0.00     0.382 C 
ATOM     23  O   LIG d   1      -3.851  81.713 112.754  0.00  0.00    -0.241 OA
ATOM     24  O   LIG d   1      -3.387  79.644 113.167  0.00  0.00    -0.241 OA
ENDBRANCH   3  22
TORSDOF 7
ENDMDL
MODEL 2
REMARK VINA RESULT:      -5.7      1.116      1.487
REMARK  7 active torsions:
REMARK  status: ('A' for Active; 'I' for Inactive)
REMARK    1  A    between atoms: C_2  and  C_3 
REMARK    2  A    between atoms: C_3  and  O_6 
REMARK    3  A    between atoms: C_3  and  C_4 
REMARK    4  A    between atoms: C_7  and  O_6 
REMARK    5  A    between atoms: C_9  and  C_10 
REMARK    6  A    between atoms: N_15  and  C_14 
REMARK    7  A    between atoms: N_20  and  C_19 
REMARK       I    between atoms: C_22  and  N_20 
ROOT
ATOM      1  C   LIG d   1      -0.294  83.142 111.992  0.00  0.00     0.161 C 
ATOM      2  C   LIG d   1      -1.469  82.568 112.505  0.00  0.00     0.016 C 
ATOM      3  C   LIG d   1      -1.785  81.196 112.380  0.00  0.00     0.038 C 
ATOM      4  C   LIG d   1      -0.868  80.269 111.861  0.00  0.00     0.028 C 
ATOM      5  C   LIG d   1       0.120  80.882 110.874  0.00  0.00    -0.047 C 
ATOM      6  C   LIG d   1       0.768  82.127 111.520  0.00  0.00     0.091 C 
ENDROOT
BRANCH   1   7
ATOM      7  O   LIG d   1       0.272  84.046 112.961  0.00  0.00    -0.368 OA
BRANCH   7   8
ATOM      8  C   LIG d   1       0.470  83.511 114.292  0.00  0.00     0.119 C 
BRANCH   8   9
ATOM      9  C   LIG d   1      -0.368  84.365 115.264  0.00  0.00     0.028 C 
ATOM     10  C   LIG d   1      -1.152  83.508 116.272  0.00  0.00     0.006 C 
ENDBRANCH   8   9
BRANCH   8  11
ATOM     11  C   LIG d   1       1.921  83.682 114.751  0.00  0.00     0.028 C 
ATOM     12  C   LIG d   1       2.775  84.471 113.746  0.00  0.00     0.006 C 
ENDBRANCH   8  11
ENDBRANCH   7   8
ENDBRANCH   1   7
BRANCH   6  13
ATOM     13  N   LIG d   1       1.686  82.835 110.591  0.00  0.00    -0.311 N 
ATOM     14  C   LIG d   1       2.973  82.522 110.450  0.00  0.00     0.210 C 
ATOM     15  C   LIG d   1       3.745  83.391 109.452  0.00  0.00     0.109 C 
ATOM     16  O   LIG d   1       3.540  81.586 111.032  0.00  0.00    -0.276 OA
ATOM     17  H   LIG d   1       1.301  83.589 110.055  0.00  0.00     0.149 HD
ENDBRANCH   6  13
BRANCH   5  18
ATOM     18  N   LIG d   1       1.100  79.838 110.518  0.00  0.00     0.381 N 
ATOM     19  H   LIG d   1       1.907  79.918 111.104  0.00  0.00    -0.090 HD
ATOM     20  H   LIG d   1       1.387  79.973 109.565  0.00  0.00    -0.090 HD
ATOM     21  H   LIG d   1       0.691  78.936 110.625  0.00  0.00    -0.090 HD
ENDBRANCH   5  18
BRANCH   3  22
ATOM     22  C   LIG d   1      -3.045  80.744 112.740  0.00  0.00     0.382 C 
ATOM     23  O   LIG d   1      -3.210  79.547 113.077  0.00  0.00    -0.241 OA
ATOM     24  O   LIG d   1      -4.028  81.508 112.690  0.00  0.00    -0.241 OA
ENDBRANCH   3  22
TORSDOF 7
ENDMDL
MODEL 3
REMARK VINA RESULT:      -4.9      1.787      4.824
REMARK  7 active torsions:
REMARK  status: ('A' for Active; 'I' for Inactive)
REMARK    1  A    between atoms: C_2  and  C_3 
REMARK    2  A    between atoms: C_3  and  O_6 
REMARK    3  A    between atoms: C_3  and  C_4 
REMARK    4  A    between atoms: C_7  and  O_6 
REMARK    5  A    between atoms: C_9  and  C_10 
REMARK    6  A    between atoms: N_15  and  C_14 
REMARK    7  A    between atoms: N_20  and  C_19 
REMARK       I    between atoms: C_22  and  N_20 
ROOT
ATOM      1  C   LIG d   1       0.798  82.537 112.381  0.00  0.00     0.161 C 
ATOM      2  C   LIG d   1       1.877  83.132 111.706  0.00  0.00     0.016 C 
ATOM      3  C   LIG d   1       2.476  82.575 110.553  0.00  0.00     0.038 C 
ATOM      4  C   LIG d   1       1.936  81.454 109.904  0.00  0.00     0.028 C 
ATOM      5  C   LIG d   1       1.156  80.533 110.836  0.00  0.00    -0.047 C 
ATOM      6  C   LIG d   1       0.125  81.373 111.624  0.00  0.00     0.091 C 
ENDROOT
BRANCH   1   7
ATOM      7  O   LIG d   1      -0.177  83.541 112.725  0.00  0.00    -0.368 OA
BRANCH   7   8
ATOM      8  C   LIG d   1       0.027  84.220 113.989  0.00  0.00     0.119 C 
BRANCH   8   9
ATOM      9  C   LIG d   1       0.595  83.188 114.983  0.00  0.00     0.028 C 
ATOM     10  C   LIG d   1       1.876  83.684 115.675  0.00  0.00     0.006 C 
ENDBRANCH   8   9
BRANCH   8  11
ATOM     11  C   LIG d   1      -1.302  84.678 114.596  0.00  0.00     0.028 C 
ATOM     12  C   LIG d   1      -2.190  83.505 115.040  0.00  0.00     0.006 C 
ENDBRANCH   8  11
ENDBRANCH   7   8
ENDBRANCH   1   7
BRANCH   6  13
ATOM     13  N   LIG d   1      -0.624  80.563 112.620  0.00  0.00    -0.311 N 
ATOM     14  C   LIG d   1      -1.946  80.623 112.770  0.00  0.00     0.210 C 
ATOM     15  C   LIG d   1      -2.515  79.719 113.868  0.00  0.00     0.109 C 
ATOM     16  O   LIG d   1      -2.705  81.316 112.076  0.00  0.00    -0.276 OA
ATOM     17  H   LIG d   1      -0.089  79.950 113.204  0.00  0.00     0.149 HD
ENDBRANCH   6  13
BRANCH   5  18
ATOM     18  N   LIG d   1       0.534  79.483 110.007  0.00  0.00     0.381 N 
ATOM     19  H   LIG d   1       1.120  78.672 109.992  0.00  0.00    -0.090 HD
ATOM     20  H   LIG d   1       0.442  79.824 109.066  0.00  0.00    -0.090 HD
ATOM     21  H   LIG d   1      -0.363  79.247 110.372  0.00  0.00    -0.090 HD
ENDBRANCH   5  18
BRANCH   3  22
ATOM     22  C   LIG d   1       3.653  83.117 110.059  0.00  0.00     0.382 C 
ATOM     23  O   LIG d   1       3.827  84.360 110.079  0.00  0.00    -0.241 OA
ATOM     24  O   LIG d   1       4.524  82.384 109.555  0.00  0.00    -0.241 OA
ENDBRANCH   3  22
TORSDOF 7
ENDMDL
MODEL 4
REMARK VINA RESULT:      -4.9      2.361      4.748
REMARK  7 active torsions:
REMARK  status: ('A' for Active; 'I' for Inactive)
REMARK    1  A    between atoms: C_2  and  C_3 
REMARK    2  A    between atoms: C_3  and  O_6 
REMARK    3  A    between atoms: C_3  and  C_4 
REMARK    4  A    between atoms: C_7  and  O_6 
REMARK    5  A    between atoms: C_9  and  C_10 
REMARK    6  A    between atoms: N_15  and  C_14 
REMARK    7  A    between atoms: N_20  and  C_19 
REMARK       I    between atoms: C_22  and  N_20 
ROOT
ATOM      1  C   LIG d   1       0.571  81.019 113.724  0.00  0.00     0.161 C 
ATOM      2  C   LIG d   1      -0.602  80.617 113.062  0.00  0.00     0.016 C 
ATOM      3  C   LIG d   1      -1.847  81.269 113.220  0.00  0.00     0.038 C 
ATOM      4  C   LIG d   1      -1.970  82.467 113.939  0.00  0.00     0.028 C 
ATOM      5  C   LIG d   1      -0.921  82.627 115.034  0.00  0.00    -0.047 C 
ATOM      6  C   LIG d   1       0.480  82.390 114.425  0.00  0.00     0.091 C 
ENDROOT
BRANCH   1   7
ATOM      7  O   LIG d   1       1.681  80.998 112.805  0.00  0.00    -0.368 OA
BRANCH   7   8
ATOM      8  C   LIG d   1       1.356  81.195 111.407  0.00  0.00     0.119 C 
BRANCH   8   9
ATOM      9  C   LIG d   1       2.342  80.348 110.579  0.00  0.00     0.028 C 
ATOM     10  C   LIG d   1       1.647  79.594 109.432  0.00  0.00     0.006 C 
ENDBRANCH   8   9
BRANCH   8  11
ATOM     11  C   LIG d   1       1.604  82.643 110.976  0.00  0.00     0.028 C 
ATOM     12  C   LIG d   1       0.307  83.394 110.636  0.00  0.00     0.006 C 
ENDBRANCH   8  11
ENDBRANCH   7   8
ENDBRANCH   1   7
BRANCH   6  13
ATOM     13  N   LIG d   1       1.559  82.445 115.446  0.00  0.00    -0.311 N 
ATOM     14  C   LIG d   1       2.218  83.560 115.757  0.00  0.00     0.210 C 
ATOM     15  C   LIG d   1       3.306  83.392 116.822  0.00  0.00     0.109 C 
ATOM     16  O   LIG d   1       1.983  84.678 115.274  0.00  0.00    -0.276 OA
ATOM     17  H   LIG d   1       1.793  81.589 115.909  0.00  0.00     0.149 HD
ENDBRANCH   6  13
BRANCH   5  18
ATOM     18  N   LIG d   1      -1.080  83.976 115.610  0.00  0.00     0.381 N 
ATOM     19  H   LIG d   1      -1.869  83.991 116.225  0.00  0.00    -0.090 HD
ATOM     20  H   LIG d   1      -1.248  84.630 114.865  0.00  0.00    -0.090 HD
ATOM     21  H   LIG d   1      -0.256  84.233 116.108  0.00  0.00    -0.090 HD
ENDBRANCH   5  18
BRANCH   3  22
ATOM     22  C   LIG d   1      -2.993  80.699 112.688  0.00  0.00     0.382 C 
ATOM     23  O   LIG d   1      -4.031  81.391 112.551  0.00  0.00    -0.241 OA
ATOM     24  O   LIG d   1      -3.016  79.492 112.384  0.00  0.00    -0.241 OA
ENDBRANCH   3  22
TORSDOF 7
ENDMDL
MODEL 5
REMARK VINA RESULT:      -4.9      2.169      4.829
REMARK  7 active torsions:
REMARK  status: ('A' for Active; 'I' for Inactive)
REMARK    1  A    between atoms: C_2  and  C_3 
REMARK    2  A    between atoms: C_3  and  O_6 
REMARK    3  A    between atoms: C_3  and  C_4 
REMARK    4  A    between atoms: C_7  and  O_6 
REMARK    5  A    between atoms: C_9  and  C_10 
REMARK    6  A    between atoms: N_15  and  C_14 
REMARK    7  A    between atoms: N_20  and  C_19 
REMARK       I    between atoms: C_22  and  N_20 
ROOT
ATOM      1  C   LIG d   1       0.158  82.047 113.711  0.00  0.00     0.161 C 
ATOM      2  C   LIG d   1       1.072  82.861 113.021  0.00  0.00     0.016 C 
ATOM      3  C   LIG d   1       1.417  82.667 111.664  0.00  0.00     0.038 C 
ATOM      4  C   LIG d   1       0.753  81.731 110.857  0.00  0.00     0.028 C 
ATOM      5  C   LIG d   1       0.185  80.552 111.639  0.00  0.00    -0.047 C 
ATOM      6  C   LIG d   1      -0.659  81.091 112.817  0.00  0.00     0.091 C 
ENDROOT
BRANCH   1   7
ATOM      7  O   LIG d   1      -0.723  82.866 114.505  0.00  0.00    -0.368 OA
BRANCH   7   8
ATOM      8  C   LIG d   1      -0.583  82.744 115.942  0.00  0.00     0.119 C 
BRANCH   8   9
ATOM      9  C   LIG d   1      -2.001  82.744 116.547  0.00  0.00     0.028 C 
ATOM     10  C   LIG d   1      -3.093  82.949 115.484  0.00  0.00     0.006 C 
ENDBRANCH   8   9
BRANCH   8  11
ATOM     11  C   LIG d   1       0.112  83.971 116.539  0.00  0.00     0.028 C 
ATOM     12  C   LIG d   1       0.042  84.007 118.074  0.00  0.00     0.006 C 
ENDBRANCH   8  11
ENDBRANCH   7   8
ENDBRANCH   1   7
BRANCH   6  13
ATOM     13  N   LIG d   1      -1.183  80.003 113.683  0.00  0.00    -0.311 N 
ATOM     14  C   LIG d   1      -2.480  79.726 113.808  0.00  0.00     0.210 C 
ATOM     15  C   LIG d   1      -2.806  78.578 114.768  0.00  0.00     0.109 C 
ATOM     16  O   LIG d   1      -3.389  80.302 113.192  0.00  0.00    -0.276 OA
ATOM     17  H   LIG d   1      -0.512  79.465 114.195  0.00  0.00     0.149 HD
ENDBRANCH   6  13
BRANCH   5  18
ATOM     18  N   LIG d   1      -0.597  79.728 110.697  0.00  0.00     0.381 N 
ATOM     19  H   LIG d   1      -0.554  78.767 110.972  0.00  0.00    -0.090 HD
ATOM     20  H   LIG d   1      -0.195  79.813 109.780  0.00  0.00    -0.090 HD
ATOM     21  H   LIG d   1      -1.545  80.035 110.681  0.00  0.00    -0.090 HD
ENDBRANCH   5  18
BRANCH   3  22
ATOM     22  C   LIG d   1       2.465  83.388 111.112  0.00  0.00     0.382 C 
ATOM     23  O   LIG d   1       2.303  83.999 110.028  0.00  0.00    -0.241 OA
ATOM     24  O   LIG d   1       3.583  83.398 111.661  0.00  0.00    -0.241 OA
ENDBRANCH   3  22
TORSDOF 7
ENDMDL
MODEL 6
REMARK VINA RESULT:      -4.8      2.321      3.035
REMARK  7 active torsions:
REMARK  status: ('A' for Active; 'I' for Inactive)
REMARK    1  A    between atoms: C_2  and  C_3 
REMARK    2  A    between atoms: C_3  and  O_6 
REMARK    3  A    between atoms: C_3  and  C_4 
REMARK    4  A    between atoms: C_7  and  O_6 
REMARK    5  A    between atoms: C_9  and  C_10 
REMARK    6  A    between atoms: N_15  and  C_14 
REMARK    7  A    between atoms: N_20  and  C_19 
REMARK       I    between atoms: C_22  and  N_20 
ROOT
ATOM      1  C   LIG d   1      -2.497  81.934 113.076  0.00  0.00     0.161 C 
ATOM      2  C   LIG d   1      -2.906  80.796 113.791  0.00  0.00     0.016 C 
ATOM      3  C   LIG d   1      -2.262  79.541 113.691  0.00  0.00     0.038 C 
ATOM      4  C   LIG d   1      -1.064  79.377 112.979  0.00  0.00     0.028 C 
ATOM      5  C   LIG d   1      -0.898  80.374 111.837  0.00  0.00    -0.047 C 
ATOM      6  C   LIG d   1      -1.126  81.802 112.380  0.00  0.00     0.091 C 
ENDROOT
BRANCH   1   7
ATOM      7  O   LIG d   1      -2.511  83.086 113.942  0.00  0.00    -0.368 OA
BRANCH   7   8
ATOM      8  C   LIG d   1      -1.346  83.265 114.784  0.00  0.00     0.119 C 
BRANCH   8   9
ATOM      9  C   LIG d   1      -1.814  83.172 116.249  0.00  0.00     0.028 C 
ATOM     10  C   LIG d   1      -1.242  81.940 116.971  0.00  0.00     0.006 C 
ENDBRANCH   8   9
BRANCH   8  11
ATOM     11  C   LIG d   1      -0.760  84.672 114.634  0.00  0.00     0.028 C 
ATOM     12  C   LIG d   1       0.776  84.680 114.619  0.00  0.00     0.006 C 
ENDBRANCH   8  11
ENDBRANCH   7   8
ENDBRANCH   1   7
BRANCH   6  13
ATOM     13  N   LIG d   1      -1.065  82.832 111.310  0.00  0.00    -0.311 N 
ATOM     14  C   LIG d   1       0.051  83.481 110.980  0.00  0.00     0.210 C 
ATOM     15  C   LIG d   1      -0.110  84.517 109.863  0.00  0.00     0.109 C 
ATOM     16  O   LIG d   1       1.165  83.273 111.484  0.00  0.00    -0.276 OA
ATOM     17  H   LIG d   1      -1.917  83.041 110.828  0.00  0.00     0.149 HD
ENDBRANCH   6  13
BRANCH   5  18
ATOM     18  N   LIG d   1       0.450  80.180 111.269  0.00  0.00     0.381 N 
ATOM     19  H   LIG d   1       0.975  79.556 111.849  0.00  0.00    -0.090 HD
ATOM     20  H   LIG d   1       0.925  81.065 111.248  0.00  0.00    -0.090 HD
ATOM     21  H   LIG d   1       0.382  79.809 110.347  0.00  0.00    -0.090 HD
ENDBRANCH   5  18
BRANCH   3  22
ATOM     22  C   LIG d   1      -2.838  78.424 114.276  0.00  0.00     0.382 C 
ATOM     23  O   LIG d   1      -3.386  77.553 113.558  0.00  0.00    -0.241 OA
ATOM     24  O   LIG d   1      -2.856  78.298 115.515  0.00  0.00    -0.241 OA
ENDBRANCH   3  22
TORSDOF 7
ENDMDL
MODEL 7
REMARK VINA RESULT:      -4.6      3.998      5.378
REMARK  7 active torsions:
REMARK  status: ('A' for Active; 'I' for Inactive)
REMARK    1  A    between atoms: C_2  and  C_3 
REMARK    2  A    between atoms: C_3  and  O_6 
REMARK    3  A    between atoms: C_3  and  C_4 
REMARK    4  A    between atoms: C_7  and  O_6 
REMARK    5  A    between atoms: C_9  and  C_10 
REMARK    6  A    between atoms: N_15  and  C_14 
REMARK    7  A    between atoms: N_20  and  C_19 
REMARK       I    between atoms: C_22  and  N_20 
ROOT
ATOM      1  C   LIG d   1      -0.902  80.219 115.720  0.00  0.00     0.161 C 
ATOM      2  C   LIG d   1      -1.600  80.981 114.769  0.00  0.00     0.016 C 
ATOM      3  C   LIG d   1      -2.354  80.412 113.717  0.00  0.00     0.038 C 
ATOM      4  C   LIG d   1      -2.586  79.031 113.634  0.00  0.00     0.028 C 
ATOM      5  C   LIG d   1      -1.487  78.192 114.278  0.00  0.00    -0.047 C 
ATOM      6  C   LIG d   1      -1.234  78.712 115.712  0.00  0.00     0.091 C 
ENDROOT
BRANCH   1   7
ATOM      7  O   LIG d   1      -1.109  80.771 117.035  0.00  0.00    -0.368 OA
BRANCH   7   8
ATOM      8  C   LIG d   1      -2.241  81.664 117.181  0.00  0.00     0.119 C 
BRANCH   8   9
ATOM      9  C   LIG d   1      -1.764  82.887 117.989  0.00  0.00     0.028 C 
ATOM     10  C   LIG d   1      -0.548  83.576 117.348  0.00  0.00     0.006 C 
ENDBRANCH   8   9
BRANCH   8  11
ATOM     11  C   LIG d   1      -3.349  81.027 118.024  0.00  0.00     0.028 C 
ATOM     12  C   LIG d   1      -4.353  80.224 117.182  0.00  0.00     0.006 C 
ENDBRANCH   8  11
ENDBRANCH   7   8
ENDBRANCH   1   7
BRANCH   6  13
ATOM     13  N   LIG d   1      -0.116  78.001 116.384  0.00  0.00    -0.311 N 
ATOM     14  C   LIG d   1      -0.289  76.944 117.175  0.00  0.00     0.210 C 
ATOM     15  C   LIG d   1       0.996  76.374 117.784  0.00  0.00     0.109 C 
ATOM     16  O   LIG d   1      -1.382  76.405 117.406  0.00  0.00    -0.276 OA
ATOM     17  H   LIG d   1       0.808  78.353 116.227  0.00  0.00     0.149 HD
ENDBRANCH   6  13
BRANCH   5  18
ATOM     18  N   LIG d   1      -1.923  76.784 114.243  0.00  0.00     0.381 N 
ATOM     19  H   LIG d   1      -1.999  76.429 115.175  0.00  0.00    -0.090 HD
ATOM     20  H   LIG d   1      -1.231  76.242 113.754  0.00  0.00    -0.090 HD
ATOM     21  H   LIG d   1      -2.801  76.710 113.779  0.00  0.00    -0.090 HD
ENDBRANCH   5  18
BRANCH   3  22
ATOM     22  C   LIG d   1      -2.851  81.225 112.710  0.00  0.00     0.382 C 
ATOM     23  O   LIG d   1      -2.082  81.668 111.824  0.00  0.00    -0.241 OA
ATOM     24  O   LIG d   1      -4.052  81.557 112.701  0.00  0.00    -0.241 OA
ENDBRANCH   3  22
TORSDOF 7
ENDMDL
MODEL 8
REMARK VINA RESULT:      -4.3      2.520      5.042
REMARK  7 active torsions:
REMARK  status: ('A' for Active; 'I' for Inactive)
REMARK    1  A    between atoms: C_2  and  C_3 
REMARK    2  A    between atoms: C_3  and  O_6 
REMARK    3  A    between atoms: C_3  and  C_4 
REMARK    4  A    between atoms: C_7  and  O_6 
REMARK    5  A    between atoms: C_9  and  C_10 
REMARK    6  A    between atoms: N_15  and  C_14 
REMARK    7  A    between atoms: N_20  and  C_19 
REMARK       I    between atoms: C_22  and  N_20 
ROOT
ATOM      1  C   LIG d   1       0.265  81.078 114.434  0.00  0.00     0.161 C 
ATOM      2  C   LIG d   1       1.132  80.915 113.340  0.00  0.00     0.016 C 
ATOM      3  C   LIG d   1       0.683  80.787 112.005  0.00  0.00     0.038 C 
ATOM      4  C   LIG d   1      -0.663  80.967 111.654  0.00  0.00     0.028 C 
ATOM      5  C   LIG d   1      -1.632  80.631 112.782  0.00  0.00    -0.047 C 
ATOM      6  C   LIG d   1      -1.199  81.387 114.059  0.00  0.00     0.091 C 
ENDROOT
BRANCH   1   7
ATOM      7  O   LIG d   1       0.781  82.092 115.318  0.00  0.00    -0.368 OA
BRANCH   7   8
ATOM      8  C   LIG d   1       0.642  83.462 114.867  0.00  0.00     0.119 C 
BRANCH   8   9
ATOM      9  C   LIG d   1       2.056  84.070 114.790  0.00  0.00     0.028 C 
ATOM     10  C   LIG d   1       2.472  84.406 113.348  0.00  0.00     0.006 C 
ENDBRANCH   8   9
BRANCH   8  11
ATOM     11  C   LIG d   1      -0.109  84.314 115.894  0.00  0.00     0.028 C 
ATOM     12  C   LIG d   1      -0.329  83.582 117.228  0.00  0.00     0.006 C 
ENDBRANCH   8  11
ENDBRANCH   7   8
ENDBRANCH   1   7
BRANCH   6  13
ATOM     13  N   LIG d   1      -2.045  81.049 115.233  0.00  0.00    -0.311 N 
ATOM     14  C   LIG d   1      -3.133  81.737 115.575  0.00  0.00     0.210 C 
ATOM     15  C   LIG d   1      -3.849  81.232 116.832  0.00  0.00     0.109 C 
ATOM     16  O   LIG d   1      -3.592  82.697 114.938  0.00  0.00    -0.276 OA
ATOM     17  H   LIG d   1      -1.763  80.265 115.787  0.00  0.00     0.149 HD
ENDBRANCH   6  13
BRANCH   5  18
ATOM     18  N   LIG d   1      -2.988  80.993 112.328  0.00  0.00     0.381 N 
ATOM     19  H   LIG d   1      -2.930  81.690 111.612  0.00  0.00    -0.090 HD
ATOM     20  H   LIG d   1      -3.499  81.379 113.103  0.00  0.00    -0.090 HD
ATOM     21  H   LIG d   1      -3.458  80.187 111.979  0.00  0.00    -0.090 HD
ENDBRANCH   5  18
BRANCH   3  22
ATOM     22  C   LIG d   1       1.582  80.437 111.009  0.00  0.00     0.382 C 
ATOM     23  O   LIG d   1       1.170  79.901 109.952  0.00  0.00    -0.241 OA
ATOM     24  O   LIG d   1       2.805  80.611 111.172  0.00  0.00    -0.241 OA
ENDBRANCH   3  22
TORSDOF 7
ENDMDL
MODEL 9
REMARK VINA RESULT:      -4.1      3.911      5.282
REMARK  7 active torsions:
REMARK  status: ('A' for Active; 'I' for Inactive)
REMARK    1  A    between atoms: C_2  and  C_3 
REMARK    2  A    between atoms: C_3  and  O_6 
REMARK    3  A    between atoms: C_3  and  C_4 
REMARK    4  A    between atoms: C_7  and  O_6 
REMARK    5  A    between atoms: C_9  and  C_10 
REMARK    6  A    between atoms: N_15  and  C_14 
REMARK    7  A    between atoms: N_20  and  C_19 
REMARK       I    between atoms: C_22  and  N_20 
ROOT
ATOM      1  C   LIG d   1      -0.631  80.068 115.459  0.00  0.00     0.161 C 
ATOM      2  C   LIG d   1      -1.338  80.876 114.554  0.00  0.00     0.016 C 
ATOM      3  C   LIG d   1      -2.330  80.378 113.677  0.00  0.00     0.038 C 
ATOM      4  C   LIG d   1      -2.790  79.055 113.753  0.00  0.00     0.028 C 
ATOM      5  C   LIG d   1      -1.752  78.084 114.305  0.00  0.00    -0.047 C 
ATOM      6  C   LIG d   1      -1.197  78.644 115.634  0.00  0.00     0.091 C 
ENDROOT
BRANCH   1   7
ATOM      7  O   LIG d   1      -0.538  80.731 116.736  0.00  0.00    -0.368 OA
BRANCH   7   8
ATOM      8  C   LIG d   1       0.631  81.563 116.939  0.00  0.00     0.119 C 
BRANCH   8   9
ATOM      9  C   LIG d   1       1.585  80.801 117.879  0.00  0.00     0.028 C 
ATOM     10  C   LIG d   1       2.653  80.004 117.111  0.00  0.00     0.006 C 
ENDBRANCH   8   9
BRANCH   8  11
ATOM     11  C   LIG d   1       0.274  82.853 117.682  0.00  0.00     0.028 C 
ATOM     12  C   LIG d   1      -0.712  83.738 116.902  0.00  0.00     0.006 C 
ENDBRANCH   8  11
ENDBRANCH   7   8
ENDBRANCH   1   7
BRANCH   6  13
ATOM     13  N   LIG d   1      -0.115  77.796 116.199  0.00  0.00    -0.311 N 
ATOM     14  C   LIG d   1      -0.321  76.871 117.135  0.00  0.00     0.210 C 
ATOM     15  C   LIG d   1       0.935  76.123 117.592  0.00  0.00     0.109 C 
ATOM     16  O   LIG d   1      -1.429  76.577 117.607  0.00  0.00    -0.276 OA
ATOM     17  H   LIG d   1       0.812  77.946 115.850  0.00  0.00     0.149 HD
ENDBRANCH   6  13
BRANCH   5  18
ATOM     18  N   LIG d   1      -2.408  76.771 114.459  0.00  0.00     0.381 N 
ATOM     19  H   LIG d   1      -3.359  76.830 114.155  0.00  0.00    -0.090 HD
ATOM     20  H   LIG d   1      -2.402  76.517 115.431  0.00  0.00    -0.090 HD
ATOM     21  H   LIG d   1      -1.923  76.083 113.926  0.00  0.00    -0.090 HD
ENDBRANCH   5  18
BRANCH   3  22
ATOM     22  C   LIG d   1      -2.843  81.198 112.684  0.00  0.00     0.382 C 
ATOM     23  O   LIG d   1      -2.075  81.715 111.838  0.00  0.00    -0.241 OA
ATOM     24  O   LIG d   1      -4.060  81.464 112.650  0.00  0.00    -0.241 OA
ENDBRANCH   3  22
TORSDOF 7
ENDMDL
