MODEL 1
REMARK VINA RESULT:      -5.6      0.000      0.000
REMARK  7 active torsions:
REMARK  status: ('A' for Active; 'I' for Inactive)
REMARK    1  A    between atoms: C_2  and  C_3 
REMARK    2  A    between atoms: C_3  and  O_6 
REMARK    3  A    between atoms: C_3  and  C_4 
REMARK    4  A    between atoms: C_7  and  O_6 
REMARK    5  A    between atoms: C_9  and  C_10 
REMARK    6  A    between atoms: N_15  and  C_14 
REMARK    7  A    between atoms: N_20  and  C_19 
REMARK       I    between atoms: C_22  and  N_20 
ROOT
ATOM      1  C   LIG d   1       0.681  82.509 112.452  0.00  0.00     0.161 C 
ATOM      2  C   LIG d   1      -0.576  82.194 112.995  0.00  0.00     0.016 C 
ATOM      3  C   LIG d   1      -1.354  81.092 112.568  0.00  0.00     0.038 C 
ATOM      4  C   LIG d   1      -0.856  80.137 111.669  0.00  0.00     0.028 C 
ATOM      5  C   LIG d   1       0.202  80.691 110.721  0.00  0.00    -0.047 C 
ATOM      6  C   LIG d   1       1.288  81.415 111.550  0.00  0.00     0.091 C 
ENDROOT
BRANCH   1   7
ATOM      7  O   LIG d   1       1.597  82.851 113.511  0.00  0.00    -0.368 OA
BRANCH   7   8
ATOM      8  C   LIG d   1       1.792  84.267 113.752  0.00  0.00     0.119 C 
BRANCH   8   9
ATOM      9  C   LIG d   1       3.311  84.518 113.831  0.00  0.00     0.028 C 
ATOM     10  C   LIG d   1       3.955  84.658 112.441  0.00  0.00     0.006 C 
ENDBRANCH   8   9
BRANCH   8  11
ATOM     11  C   LIG d   1       1.242  84.680 115.120  0.00  0.00     0.028 C 
ATOM     12  C   LIG d   1       1.345  83.560 116.167  0.00  0.00     0.006 C 
ENDBRANCH   8  11
ENDBRANCH   7   8
ENDBRANCH   1   7
BRANCH   6  13
ATOM     13  N   LIG d   1       2.319  82.059 110.694  0.00  0.00    -0.311 N 
ATOM     14  C   LIG d   1       3.427  81.441 110.290  0.00  0.00     0.210 C 
ATOM     15  C   LIG d   1       4.366  82.293 109.430  0.00  0.00     0.109 C 
ATOM     16  O   LIG d   1       3.706  80.257 110.534  0.00  0.00    -0.276 OA
ATOM     17  H   LIG d   1       2.158  83.009 110.423  0.00  0.00     0.149 HD
ENDBRANCH   6  13
BRANCH   5  18
ATOM     18  N   LIG d   1       0.732  79.561 109.935  0.00  0.00     0.381 N 
ATOM     19  H   LIG d   1       1.656  79.337 110.245  0.00  0.00    -0.090 HD
ATOM     20  H   LIG d   1       0.781  79.832 108.969  0.00  0.00    -0.090 HD
ATOM     21  H   LIG d   1       0.138  78.768 110.036  0.00  0.00    -0.090 HD
ENDBRANCH   5  18
BRANCH   3  22
ATOM     22  C   LIG d   1      -2.661  80.961 113.012  0.00  0.00     0.382 C 
ATOM     23  O   LIG d   1      -3.544  81.754 112.607  0.00  0.00    -0.241 OA
ATOM     24  O   LIG d   1      -2.959  80.086 113.847  0.00  0.00    -0.241 OA
ENDBRANCH   3  22
TORSDOF 7
ENDMDL
MODEL 2
REMARK VINA RESULT:      -5.6      1.184      1.938
REMARK  7 active torsions:
REMARK  status: ('A' for Active; 'I' for Inactive)
REMARK    1  A    between atoms: C_2  and  C_3 
REMARK    2  A    between atoms: C_3  and  O_6 
REMARK    3  A    between atoms: C_3  and  C_4 
REMARK    4  A    between atoms: C_7  and  O_6 
REMARK    5  A    between atoms: C_9  and  C_10 
REMARK    6  A    between atoms: N_15  and  C_14 
REMARK    7  A    between atoms: N_20  and  C_19 
REMARK       I    between atoms: C_22  and  N_20 
ROOT
ATOM      1  C   LIG d   1       0.277  83.094 112.251  0.00  0.00     0.161 C 
ATOM      2  C   LIG d   1      -0.947  82.670 112.793  0.00  0.00     0.016 C 
ATOM      3  C   LIG d   1      -1.492  81.384 112.574  0.00  0.00     0.038 C 
ATOM      4  C   LIG d   1      -0.771  80.375 111.918  0.00  0.00     0.028 C 
ATOM      5  C   LIG d   1       0.251  80.912 110.921  0.00  0.00    -0.047 C 
ATOM      6  C   LIG d   1       1.130  81.971 111.624  0.00  0.00     0.091 C 
ENDROOT
BRANCH   1   7
ATOM      7  O   LIG d   1       1.036  83.800 113.252  0.00  0.00    -0.368 OA
BRANCH   7   8
ATOM      8  C   LIG d   1       0.811  83.397 114.625  0.00  0.00     0.119 C 
BRANCH   8   9
ATOM      9  C   LIG d   1       0.607  84.679 115.456  0.00  0.00     0.028 C 
ATOM     10  C   LIG d   1      -0.449  84.500 116.560  0.00  0.00     0.006 C 
ENDBRANCH   8   9
BRANCH   8  11
ATOM     11  C   LIG d   1       2.052  82.723 115.218  0.00  0.00     0.028 C 
ATOM     12  C   LIG d   1       1.947  81.189 115.231  0.00  0.00     0.006 C 
ENDBRANCH   8  11
ENDBRANCH   7   8
ENDBRANCH   1   7
BRANCH   6  13
ATOM     13  N   LIG d   1       2.102  82.607 110.697  0.00  0.00    -0.311 N 
ATOM     14  C   LIG d   1       3.330  82.138 110.487  0.00  0.00     0.210 C 
ATOM     15  C   LIG d   1       4.176  82.957 109.507  0.00  0.00     0.109 C 
ATOM     16  O   LIG d   1       3.789  81.103 110.994  0.00  0.00    -0.276 OA
ATOM     17  H   LIG d   1       1.801  83.435 110.220  0.00  0.00     0.149 HD
ENDBRANCH   6  13
BRANCH   5  18
ATOM     18  N   LIG d   1       1.024  79.763 110.413  0.00  0.00     0.381 N 
ATOM     19  H   LIG d   1       1.914  79.725 110.869  0.00  0.00    -0.090 HD
ATOM     20  H   LIG d   1       1.180  79.886 109.428  0.00  0.00    -0.090 HD
ATOM     21  H   LIG d   1       0.523  78.917 110.574  0.00  0.00    -0.090 HD
ENDBRANCH   5  18
BRANCH   3  22
ATOM     22  C   LIG d   1      -2.789  81.108 112.980  0.00  0.00     0.382 C 
ATOM     23  O   LIG d   1      -3.009  80.161 113.773  0.00  0.00    -0.241 OA
ATOM     24  O   LIG d   1      -3.745  81.766 112.530  0.00  0.00    -0.241 OA
ENDBRANCH   3  22
TORSDOF 7
ENDMDL
MODEL 3
REMARK VINA RESULT:      -5.0      2.690      4.494
REMARK  7 active torsions:
REMARK  status: ('A' for Active; 'I' for Inactive)
REMARK    1  A    between atoms: C_2  and  C_3 
REMARK    2  A    between atoms: C_3  and  O_6 
REMARK    3  A    between atoms: C_3  and  C_4 
REMARK    4  A    between atoms: C_7  and  O_6 
REMARK    5  A    between atoms: C_9  and  C_10 
REMARK    6  A    between atoms: N_15  and  C_14 
REMARK    7  A    between atoms: N_20  and  C_19 
REMARK       I    between atoms: C_22  and  N_20 
ROOT
ATOM      1  C   LIG d   1      -0.600  80.824 112.143  0.00  0.00     0.161 C 
ATOM      2  C   LIG d   1      -1.303  79.622 111.959  0.00  0.00     0.016 C 
ATOM      3  C   LIG d   1      -2.161  79.064 112.935  0.00  0.00     0.038 C 
ATOM      4  C   LIG d   1      -2.492  79.753 114.111  0.00  0.00     0.028 C 
ATOM      5  C   LIG d   1      -1.414  80.733 114.564  0.00  0.00    -0.047 C 
ATOM      6  C   LIG d   1      -1.035  81.645 113.375  0.00  0.00     0.091 C 
ENDROOT
BRANCH   1   7
ATOM      7  O   LIG d   1      -0.684  81.628 110.950  0.00  0.00    -0.368 OA
BRANCH   7   8
ATOM      8  C   LIG d   1       0.532  81.741 110.171  0.00  0.00     0.119 C 
BRANCH   8   9
ATOM      9  C   LIG d   1       1.635  80.966 110.918  0.00  0.00     0.028 C 
ATOM     10  C   LIG d   1       2.944  81.766 111.026  0.00  0.00     0.006 C 
ENDBRANCH   8   9
BRANCH   8  11
ATOM     11  C   LIG d   1       1.024  83.191 110.113  0.00  0.00     0.028 C 
ATOM     12  C   LIG d   1      -0.122  84.212 110.193  0.00  0.00     0.006 C 
ENDBRANCH   8  11
ENDBRANCH   7   8
ENDBRANCH   1   7
BRANCH   6  13
ATOM     13  N   LIG d   1       0.073  82.578 113.708  0.00  0.00    -0.311 N 
ATOM     14  C   LIG d   1      -0.070  83.902 113.750  0.00  0.00     0.210 C 
ATOM     15  C   LIG d   1       1.204  84.680 114.094  0.00  0.00     0.109 C 
ATOM     16  O   LIG d   1      -1.139  84.503 113.567  0.00  0.00    -0.276 OA
ATOM     17  H   LIG d   1       0.968  82.173 113.901  0.00  0.00     0.149 HD
ENDBRANCH   6  13
BRANCH   5  18
ATOM     18  N   LIG d   1      -1.947  81.479 115.719  0.00  0.00     0.381 N 
ATOM     19  H   LIG d   1      -2.944  81.405 115.740  0.00  0.00    -0.090 HD
ATOM     20  H   LIG d   1      -1.706  82.450 115.618  0.00  0.00    -0.090 HD
ATOM     21  H   LIG d   1      -1.562  81.120 116.564  0.00  0.00    -0.090 HD
ENDBRANCH   5  18
BRANCH   3  22
ATOM     22  C   LIG d   1      -2.665  77.785 112.757  0.00  0.00     0.382 C 
ATOM     23  O   LIG d   1      -3.507  77.564 111.854  0.00  0.00    -0.241 OA
ATOM     24  O   LIG d   1      -2.322  76.859 113.516  0.00  0.00    -0.241 OA
ENDBRANCH   3  22
TORSDOF 7
ENDMDL
MODEL 4
REMARK VINA RESULT:      -4.9      2.019      4.860
REMARK  7 active torsions:
REMARK  status: ('A' for Active; 'I' for Inactive)
REMARK    1  A    between atoms: C_2  and  C_3 
REMARK    2  A    between atoms: C_3  and  O_6 
REMARK    3  A    between atoms: C_3  and  C_4 
REMARK    4  A    between atoms: C_7  and  O_6 
REMARK    5  A    between atoms: C_9  and  C_10 
REMARK    6  A    between atoms: N_15  and  C_14 
REMARK    7  A    between atoms: N_20  and  C_19 
REMARK       I    between atoms: C_22  and  N_20 
ROOT
ATOM      1  C   LIG d   1       0.816  81.266 113.055  0.00  0.00     0.161 C 
ATOM      2  C   LIG d   1       1.781  82.169 112.579  0.00  0.00     0.016 C 
ATOM      3  C   LIG d   1       2.018  82.403 111.205  0.00  0.00     0.038 C 
ATOM      4  C   LIG d   1       1.196  81.857 110.208  0.00  0.00     0.028 C 
ATOM      5  C   LIG d   1       0.533  80.547 110.619  0.00  0.00    -0.047 C 
ATOM      6  C   LIG d   1      -0.166  80.745 111.984  0.00  0.00     0.091 C 
ENDROOT
BRANCH   1   7
ATOM      7  O   LIG d   1       0.092  81.858 114.152  0.00  0.00    -0.368 OA
BRANCH   7   8
ATOM      8  C   LIG d   1      -0.971  82.775 113.794  0.00  0.00     0.119 C 
BRANCH   8   9
ATOM      9  C   LIG d   1      -0.450  84.205 114.039  0.00  0.00     0.028 C 
ATOM     10  C   LIG d   1       0.284  84.339 115.384  0.00  0.00     0.006 C 
ENDBRANCH   8   9
BRANCH   8  11
ATOM     11  C   LIG d   1      -2.179  82.619 114.723  0.00  0.00     0.028 C 
ATOM     12  C   LIG d   1      -2.059  81.404 115.656  0.00  0.00     0.006 C 
ENDBRANCH   8  11
ENDBRANCH   7   8
ENDBRANCH   1   7
BRANCH   6  13
ATOM     13  N   LIG d   1      -0.769  79.489 112.500  0.00  0.00    -0.311 N 
ATOM     14  C   LIG d   1      -2.079  79.319 112.666  0.00  0.00     0.210 C 
ATOM     15  C   LIG d   1      -2.488  77.954 113.229  0.00  0.00     0.109 C 
ATOM     16  O   LIG d   1      -2.944  80.157 112.371  0.00  0.00    -0.276 OA
ATOM     17  H   LIG d   1      -0.142  78.745 112.735  0.00  0.00     0.149 HD
ENDBRANCH   6  13
BRANCH   5  18
ATOM     18  N   LIG d   1      -0.400  80.163 109.543  0.00  0.00     0.381 N 
ATOM     19  H   LIG d   1      -1.329  80.448 109.782  0.00  0.00    -0.090 HD
ATOM     20  H   LIG d   1      -0.392  79.162 109.448  0.00  0.00    -0.090 HD
ATOM     21  H   LIG d   1      -0.124  80.588 108.685  0.00  0.00    -0.090 HD
ENDBRANCH   5  18
BRANCH   3  22
ATOM     22  C   LIG d   1       3.113  83.159 110.815  0.00  0.00     0.382 C 
ATOM     23  O   LIG d   1       3.213  83.552 109.628  0.00  0.00    -0.241 OA
ATOM     24  O   LIG d   1       4.024  83.416 111.625  0.00  0.00    -0.241 OA
ENDBRANCH   3  22
TORSDOF 7
ENDMDL
MODEL 5
REMARK VINA RESULT:      -4.7      3.111      4.374
REMARK  7 active torsions:
REMARK  status: ('A' for Active; 'I' for Inactive)
REMARK    1  A    between atoms: C_2  and  C_3 
REMARK    2  A    between atoms: C_3  and  O_6 
REMARK    3  A    between atoms: C_3  and  C_4 
REMARK    4  A    between atoms: C_7  and  O_6 
REMARK    5  A    between atoms: C_9  and  C_10 
REMARK    6  A    between atoms: N_15  and  C_14 
REMARK    7  A    between atoms: N_20  and  C_19 
REMARK       I    between atoms: C_22  and  N_20 
ROOT
ATOM      1  C   LIG d   1      -2.258  80.926 114.201  0.00  0.00     0.161 C 
ATOM      2  C   LIG d   1      -2.608  79.665 114.713  0.00  0.00     0.016 C 
ATOM      3  C   LIG d   1      -2.396  78.455 114.014  0.00  0.00     0.038 C 
ATOM      4  C   LIG d   1      -1.676  78.410 112.811  0.00  0.00     0.028 C 
ATOM      5  C   LIG d   1      -1.747  79.708 112.013  0.00  0.00    -0.047 C 
ATOM      6  C   LIG d   1      -1.371  80.887 112.939  0.00  0.00     0.091 C 
ENDROOT
BRANCH   1   7
ATOM      7  O   LIG d   1      -1.630  81.714 115.231  0.00  0.00    -0.368 OA
BRANCH   7   8
ATOM      8  C   LIG d   1      -2.440  82.765 115.812  0.00  0.00     0.119 C 
BRANCH   8   9
ATOM      9  C   LIG d   1      -1.560  84.026 115.912  0.00  0.00     0.028 C 
ATOM     10  C   LIG d   1      -0.737  84.067 117.210  0.00  0.00     0.006 C 
ENDBRANCH   8   9
BRANCH   8  11
ATOM     11  C   LIG d   1      -2.835  82.432 117.254  0.00  0.00     0.028 C 
ATOM     12  C   LIG d   1      -4.293  81.961 117.379  0.00  0.00     0.006 C 
ENDBRANCH   8  11
ENDBRANCH   7   8
ENDBRANCH   1   7
BRANCH   6  13
ATOM     13  N   LIG d   1      -1.497  82.204 112.261  0.00  0.00    -0.311 N 
ATOM     14  C   LIG d   1      -0.480  82.820 111.661  0.00  0.00     0.210 C 
ATOM     15  C   LIG d   1      -0.822  84.178 111.041  0.00  0.00     0.109 C 
ATOM     16  O   LIG d   1       0.666  82.356 111.557  0.00  0.00    -0.276 OA
ATOM     17  H   LIG d   1      -2.399  82.637 112.270  0.00  0.00     0.149 HD
ENDBRANCH   6  13
BRANCH   5  18
ATOM     18  N   LIG d   1      -0.844  79.571 110.856  0.00  0.00     0.381 N 
ATOM     19  H   LIG d   1      -0.256  80.378 110.787  0.00  0.00    -0.090 HD
ATOM     20  H   LIG d   1      -1.395  79.510 110.018  0.00  0.00    -0.090 HD
ATOM     21  H   LIG d   1      -0.285  78.752 110.954  0.00  0.00    -0.090 HD
ENDBRANCH   5  18
BRANCH   3  22
ATOM     22  C   LIG d   1      -2.942  77.276 114.498  0.00  0.00     0.382 C 
ATOM     23  O   LIG d   1      -2.706  76.914 115.676  0.00  0.00    -0.241 OA
ATOM     24  O   LIG d   1      -3.631  76.548 113.759  0.00  0.00    -0.241 OA
ENDBRANCH   3  22
TORSDOF 7
ENDMDL
MODEL 6
REMARK VINA RESULT:      -4.6      3.062      3.865
REMARK  7 active torsions:
REMARK  status: ('A' for Active; 'I' for Inactive)
REMARK    1  A    between atoms: C_2  and  C_3 
REMARK    2  A    between atoms: C_3  and  O_6 
REMARK    3  A    between atoms: C_3  and  C_4 
REMARK    4  A    between atoms: C_7  and  O_6 
REMARK    5  A    between atoms: C_9  and  C_10 
REMARK    6  A    between atoms: N_15  and  C_14 
REMARK    7  A    between atoms: N_20  and  C_19 
REMARK       I    between atoms: C_22  and  N_20 
ROOT
ATOM      1  C   LIG d   1      -2.160  82.094 114.073  0.00  0.00     0.161 C 
ATOM      2  C   LIG d   1      -2.541  81.083 114.971  0.00  0.00     0.016 C 
ATOM      3  C   LIG d   1      -2.401  79.703 114.695  0.00  0.00     0.038 C 
ATOM      4  C   LIG d   1      -1.727  79.240 113.555  0.00  0.00     0.028 C 
ATOM      5  C   LIG d   1      -1.777  80.215 112.384  0.00  0.00    -0.047 C 
ATOM      6  C   LIG d   1      -1.321  81.609 112.872  0.00  0.00     0.091 C 
ENDROOT
BRANCH   1   7
ATOM      7  O   LIG d   1      -1.465  83.139 114.780  0.00  0.00    -0.368 OA
BRANCH   7   8
ATOM      8  C   LIG d   1      -0.815  82.750 116.016  0.00  0.00     0.119 C 
BRANCH   8   9
ATOM      9  C   LIG d   1      -1.132  83.832 117.066  0.00  0.00     0.028 C 
ATOM     10  C   LIG d   1       0.115  84.269 117.854  0.00  0.00     0.006 C 
ENDBRANCH   8   9
BRANCH   8  11
ATOM     11  C   LIG d   1       0.709  82.760 115.871  0.00  0.00     0.028 C 
ATOM     12  C   LIG d   1       1.288  81.369 115.570  0.00  0.00     0.006 C 
ENDBRANCH   8  11
ENDBRANCH   7   8
ENDBRANCH   1   7
BRANCH   6  13
ATOM     13  N   LIG d   1      -1.420  82.643 111.808  0.00  0.00    -0.311 N 
ATOM     14  C   LIG d   1      -0.472  83.549 111.576  0.00  0.00     0.210 C 
ATOM     15  C   LIG d   1      -0.784  84.535 110.446  0.00  0.00     0.109 C 
ATOM     16  O   LIG d   1       0.610  83.610 112.178  0.00  0.00    -0.276 OA
ATOM     17  H   LIG d   1      -2.252  82.646 111.252  0.00  0.00     0.149 HD
ENDBRANCH   6  13
BRANCH   5  18
ATOM     18  N   LIG d   1      -0.922  79.670 111.313  0.00  0.00     0.381 N 
ATOM     19  H   LIG d   1      -0.055  80.168 111.285  0.00  0.00    -0.090 HD
ATOM     20  H   LIG d   1      -1.386  79.795 110.430  0.00  0.00    -0.090 HD
ATOM     21  H   LIG d   1      -0.752  78.701 111.472  0.00  0.00    -0.090 HD
ENDBRANCH   5  18
BRANCH   3  22
ATOM     22  C   LIG d   1      -2.975  78.770 115.545  0.00  0.00     0.382 C 
ATOM     23  O   LIG d   1      -3.570  77.773 115.072  0.00  0.00    -0.241 OA
ATOM     24  O   LIG d   1      -2.943  78.937 116.779  0.00  0.00    -0.241 OA
ENDBRANCH   3  22
TORSDOF 7
ENDMDL
MODEL 7
REMARK VINA RESULT:      -4.5      4.138      5.675
REMARK  7 active torsions:
REMARK  status: ('A' for Active; 'I' for Inactive)
REMARK    1  A    between atoms: C_2  and  C_3 
REMARK    2  A    between atoms: C_3  and  O_6 
REMARK    3  A    between atoms: C_3  and  C_4 
REMARK    4  A    between atoms: C_7  and  O_6 
REMARK    5  A    between atoms: C_9  and  C_10 
REMARK    6  A    between atoms: N_15  and  C_14 
REMARK    7  A    between atoms: N_20  and  C_19 
REMARK       I    between atoms: C_22  and  N_20 
ROOT
ATOM      1  C   LIG d   1      -0.712  79.862 115.024  0.00  0.00     0.161 C 
ATOM      2  C   LIG d   1      -0.933  81.165 114.547  0.00  0.00     0.016 C 
ATOM      3  C   LIG d   1      -1.610  81.446 113.337  0.00  0.00     0.038 C 
ATOM      4  C   LIG d   1      -2.247  80.442 112.593  0.00  0.00     0.028 C 
ATOM      5  C   LIG d   1      -1.618  79.064 112.772  0.00  0.00    -0.047 C 
ATOM      6  C   LIG d   1      -1.496  78.760 114.282  0.00  0.00     0.091 C 
ENDROOT
BRANCH   1   7
ATOM      7  O   LIG d   1      -0.985  79.807 116.438  0.00  0.00    -0.368 OA
BRANCH   7   8
ATOM      8  C   LIG d   1      -1.701  80.938 116.994  0.00  0.00     0.119 C 
BRANCH   8   9
ATOM      9  C   LIG d   1      -0.787  81.591 118.048  0.00  0.00     0.028 C 
ATOM     10  C   LIG d   1      -1.253  83.005 118.434  0.00  0.00     0.006 C 
ENDBRANCH   8   9
BRANCH   8  11
ATOM     11  C   LIG d   1      -2.947  80.486 117.761  0.00  0.00     0.028 C 
ATOM     12  C   LIG d   1      -3.907  79.651 116.899  0.00  0.00     0.006 C 
ENDBRANCH   8  11
ENDBRANCH   7   8
ENDBRANCH   1   7
BRANCH   6  13
ATOM     13  N   LIG d   1      -0.814  77.467 114.547  0.00  0.00    -0.311 N 
ATOM     14  C   LIG d   1      -1.454  76.301 114.621  0.00  0.00     0.210 C 
ATOM     15  C   LIG d   1      -0.563  75.092 114.923  0.00  0.00     0.109 C 
ATOM     16  O   LIG d   1      -2.671  76.150 114.434  0.00  0.00    -0.276 OA
ATOM     17  H   LIG d   1       0.178  77.493 114.680  0.00  0.00     0.149 HD
ENDBRANCH   6  13
BRANCH   5  18
ATOM     18  N   LIG d   1      -2.462  78.092 112.052  0.00  0.00     0.381 N 
ATOM     19  H   LIG d   1      -2.066  77.177 112.130  0.00  0.00    -0.090 HD
ATOM     20  H   LIG d   1      -2.488  78.342 111.079  0.00  0.00    -0.090 HD
ATOM     21  H   LIG d   1      -3.384  78.096 112.429  0.00  0.00    -0.090 HD
ENDBRANCH   5  18
BRANCH   3  22
ATOM     22  C   LIG d   1      -1.619  82.740 112.840  0.00  0.00     0.382 C 
ATOM     23  O   LIG d   1      -1.646  82.936 111.601  0.00  0.00    -0.241 OA
ATOM     24  O   LIG d   1      -1.556  83.715 113.613  0.00  0.00    -0.241 OA
ENDBRANCH   3  22
TORSDOF 7
ENDMDL
MODEL 8
REMARK VINA RESULT:      -4.4      2.540      4.615
REMARK  7 active torsions:
REMARK  status: ('A' for Active; 'I' for Inactive)
REMARK    1  A    between atoms: C_2  and  C_3 
REMARK    2  A    between atoms: C_3  and  O_6 
REMARK    3  A    between atoms: C_3  and  C_4 
REMARK    4  A    between atoms: C_7  and  O_6 
REMARK    5  A    between atoms: C_9  and  C_10 
REMARK    6  A    between atoms: N_15  and  C_14 
REMARK    7  A    between atoms: N_20  and  C_19 
REMARK       I    between atoms: C_22  and  N_20 
ROOT
ATOM      1  C   LIG d   1       0.909  81.891 113.491  0.00  0.00     0.161 C 
ATOM      2  C   LIG d   1      -0.353  81.580 112.957  0.00  0.00     0.016 C 
ATOM      3  C   LIG d   1      -1.544  81.592 113.719  0.00  0.00     0.038 C 
ATOM      4  C   LIG d   1      -1.576  82.066 115.039  0.00  0.00     0.028 C 
ATOM      5  C   LIG d   1      -0.247  81.910 115.770  0.00  0.00    -0.047 C 
ATOM      6  C   LIG d   1       0.878  82.518 114.901  0.00  0.00     0.091 C 
ENDROOT
BRANCH   1   7
ATOM      7  O   LIG d   1       1.629  82.745 112.580  0.00  0.00    -0.368 OA
BRANCH   7   8
ATOM      8  C   LIG d   1       1.548  82.391 111.177  0.00  0.00     0.119 C 
BRANCH   8   9
ATOM      9  C   LIG d   1       2.762  81.498 110.855  0.00  0.00     0.028 C 
ATOM     10  C   LIG d   1       2.366  80.221 110.095  0.00  0.00     0.006 C 
ENDBRANCH   8   9
BRANCH   8  11
ATOM     11  C   LIG d   1       1.702  83.623 110.281  0.00  0.00     0.028 C 
ATOM     12  C   LIG d   1       3.166  83.912 109.912  0.00  0.00     0.006 C 
ENDBRANCH   8  11
ENDBRANCH   7   8
ENDBRANCH   1   7
BRANCH   6  13
ATOM     13  N   LIG d   1       2.223  82.333 115.505  0.00  0.00    -0.311 N 
ATOM     14  C   LIG d   1       2.821  83.254 116.259  0.00  0.00     0.210 C 
ATOM     15  C   LIG d   1       4.215  82.869 116.766  0.00  0.00     0.109 C 
ATOM     16  O   LIG d   1       2.317  84.340 116.582  0.00  0.00    -0.276 OA
ATOM     17  H   LIG d   1       2.691  81.467 115.320  0.00  0.00     0.149 HD
ENDBRANCH   6  13
BRANCH   5  18
ATOM     18  N   LIG d   1      -0.382  82.568 117.084  0.00  0.00     0.381 N 
ATOM     19  H   LIG d   1       0.369  83.215 117.217  0.00  0.00    -0.090 HD
ATOM     20  H   LIG d   1      -0.328  81.869 117.804  0.00  0.00    -0.090 HD
ATOM     21  H   LIG d   1      -1.255  83.045 117.138  0.00  0.00    -0.090 HD
ENDBRANCH   5  18
BRANCH   3  22
ATOM     22  C   LIG d   1      -2.714  81.088 113.171  0.00  0.00     0.382 C 
ATOM     23  O   LIG d   1      -2.999  79.874 113.309  0.00  0.00    -0.241 OA
ATOM     24  O   LIG d   1      -3.466  81.823 112.503  0.00  0.00    -0.241 OA
ENDBRANCH   3  22
TORSDOF 7
ENDMDL
MODEL 9
REMARK VINA RESULT:      -4.3      2.935      4.318
REMARK  7 active torsions:
REMARK  status: ('A' for Active; 'I' for Inactive)
REMARK    1  A    between atoms: C_2  and  C_3 
REMARK    2  A    between atoms: C_3  and  O_6 
REMARK    3  A    between atoms: C_3  and  C_4 
REMARK    4  A    between atoms: C_7  and  O_6 
REMARK    5  A    between atoms: C_9  and  C_10 
REMARK    6  A    between atoms: N_15  and  C_14 
REMARK    7  A    between atoms: N_20  and  C_19 
REMARK       I    between atoms: C_22  and  N_20 
ROOT
ATOM      1  C   LIG d   1      -0.544  83.733 114.778  0.00  0.00     0.161 C 
ATOM      2  C   LIG d   1      -1.684  83.023 114.367  0.00  0.00     0.016 C 
ATOM      3  C   LIG d   1      -1.635  81.718 113.826  0.00  0.00     0.038 C 
ATOM      4  C   LIG d   1      -0.449  80.970 113.800  0.00  0.00     0.028 C 
ATOM      5  C   LIG d   1       0.808  81.831 113.738  0.00  0.00    -0.047 C 
ATOM      6  C   LIG d   1       0.747  82.891 114.861  0.00  0.00     0.091 C 
ENDROOT
BRANCH   1   7
ATOM      7  O   LIG d   1      -0.800  84.381 116.040  0.00  0.00    -0.368 OA
BRANCH   7   8
ATOM      8  C   LIG d   1      -0.439  83.632 117.226  0.00  0.00     0.119 C 
BRANCH   8   9
ATOM      9  C   LIG d   1      -1.729  83.009 117.792  0.00  0.00     0.028 C 
ATOM     10  C   LIG d   1      -1.652  82.774 119.310  0.00  0.00     0.006 C 
ENDBRANCH   8   9
BRANCH   8  11
ATOM     11  C   LIG d   1       0.083  84.557 118.331  0.00  0.00     0.028 C 
ATOM     12  C   LIG d   1       1.599  84.429 118.548  0.00  0.00     0.006 C 
ENDBRANCH   8  11
ENDBRANCH   7   8
ENDBRANCH   1   7
BRANCH   6  13
ATOM     13  N   LIG d   1       1.899  83.829 114.819  0.00  0.00    -0.311 N 
ATOM     14  C   LIG d   1       3.077  83.569 115.383  0.00  0.00     0.210 C 
ATOM     15  C   LIG d   1       4.122  84.680 115.240  0.00  0.00     0.109 C 
ATOM     16  O   LIG d   1       3.366  82.511 115.962  0.00  0.00    -0.276 OA
ATOM     17  H   LIG d   1       1.762  84.699 114.342  0.00  0.00     0.149 HD
ENDBRANCH   6  13
BRANCH   5  18
ATOM     18  N   LIG d   1       1.971  80.931 113.855  0.00  0.00     0.381 N 
ATOM     19  H   LIG d   1       2.693  81.377 114.385  0.00  0.00    -0.090 HD
ATOM     20  H   LIG d   1       2.328  80.738 112.936  0.00  0.00    -0.090 HD
ATOM     21  H   LIG d   1       1.701  80.081 114.299  0.00  0.00    -0.090 HD
ENDBRANCH   5  18
BRANCH   3  22
ATOM     22  C   LIG d   1      -2.776  81.162 113.267  0.00  0.00     0.382 C 
ATOM     23  O   LIG d   1      -3.048  79.954 113.466  0.00  0.00    -0.241 OA
ATOM     24  O   LIG d   1      -3.514  81.843 112.530  0.00  0.00    -0.241 OA
ENDBRANCH   3  22
TORSDOF 7
ENDMDL
