MODEL 1
REMARK VINA RESULT:      -4.5      0.000      0.000
REMARK  7 active torsions:
REMARK  status: ('A' for Active; 'I' for Inactive)
REMARK    1  A    between atoms: C_2  and  C_3 
REMARK    2  A    between atoms: C_3  and  O_6 
REMARK    3  A    between atoms: C_3  and  C_4 
REMARK    4  A    between atoms: C_7  and  O_6 
REMARK    5  A    between atoms: C_9  and  C_10 
REMARK    6  A    between atoms: N_15  and  C_14 
REMARK    7  A    between atoms: N_20  and  C_19 
REMARK       I    between atoms: C_22  and  N_20 
ROOT
ATOM      1  C   LIG d   1      -2.135  77.534 115.368  0.00  0.00     0.161 C 
ATOM      2  C   LIG d   1      -2.500  78.453 114.371  0.00  0.00     0.016 C 
ATOM      3  C   LIG d   1      -2.086  78.345 113.023  0.00  0.00     0.038 C 
ATOM      4  C   LIG d   1      -1.397  77.219 112.547  0.00  0.00     0.028 C 
ATOM      5  C   LIG d   1      -0.574  76.514 113.621  0.00  0.00    -0.047 C 
ATOM      6  C   LIG d   1      -1.476  76.240 114.845  0.00  0.00     0.091 C 
ENDROOT
BRANCH   1   7
ATOM      7  O   LIG d   1      -3.280  77.219 116.185  0.00  0.00    -0.368 OA
BRANCH   7   8
ATOM      8  C   LIG d   1      -3.478  78.053 117.353  0.00  0.00     0.119 C 
BRANCH   8   9
ATOM      9  C   LIG d   1      -2.091  78.534 117.820  0.00  0.00     0.028 C 
ATOM     10  C   LIG d   1      -2.148  79.902 118.519  0.00  0.00     0.006 C 
ENDBRANCH   8   9
BRANCH   8  11
ATOM     11  C   LIG d   1      -4.043  77.245 118.525  0.00  0.00     0.028 C 
ATOM     12  C   LIG d   1      -2.947  76.580 119.374  0.00  0.00     0.006 C 
ENDBRANCH   8  11
ENDBRANCH   7   8
ENDBRANCH   1   7
BRANCH   6  13
ATOM     13  N   LIG d   1      -0.728  75.628 115.975  0.00  0.00    -0.311 N 
ATOM     14  C   LIG d   1      -1.238  74.686 116.767  0.00  0.00     0.210 C 
ATOM     15  C   LIG d   1      -0.305  74.206 117.883  0.00  0.00     0.109 C 
ATOM     16  O   LIG d   1      -2.362  74.180 116.631  0.00  0.00    -0.276 OA
ATOM     17  H   LIG d   1       0.203  75.958 116.137  0.00  0.00     0.149 HD
ENDBRANCH   6  13
BRANCH   5  18
ATOM     18  N   LIG d   1      -0.022  75.284 113.022  0.00  0.00     0.381 N 
ATOM     19  H   LIG d   1      -0.732  74.814 112.497  0.00  0.00    -0.090 HD
ATOM     20  H   LIG d   1       0.283  74.673 113.759  0.00  0.00    -0.090 HD
ATOM     21  H   LIG d   1       0.746  75.509 112.429  0.00  0.00    -0.090 HD
ENDBRANCH   5  18
BRANCH   3  22
ATOM     22  C   LIG d   1      -2.326  79.390 112.144  0.00  0.00     0.382 C 
ATOM     23  O   LIG d   1      -3.179  80.265 112.429  0.00  0.00    -0.241 OA
ATOM     24  O   LIG d   1      -1.732  79.445 111.050  0.00  0.00    -0.241 OA
ENDBRANCH   3  22
TORSDOF 7
ENDMDL
MODEL 2
REMARK VINA RESULT:      -4.5      2.033      2.513
REMARK  7 active torsions:
REMARK  status: ('A' for Active; 'I' for Inactive)
REMARK    1  A    between atoms: C_2  and  C_3 
REMARK    2  A    between atoms: C_3  and  O_6 
REMARK    3  A    between atoms: C_3  and  C_4 
REMARK    4  A    between atoms: C_7  and  O_6 
REMARK    5  A    between atoms: C_9  and  C_10 
REMARK    6  A    between atoms: N_15  and  C_14 
REMARK    7  A    between atoms: N_20  and  C_19 
REMARK       I    between atoms: C_22  and  N_20 
ROOT
ATOM      1  C   LIG d   1      -1.334  76.518 115.957  0.00  0.00     0.161 C 
ATOM      2  C   LIG d   1      -2.021  77.352 115.060  0.00  0.00     0.016 C 
ATOM      3  C   LIG d   1      -1.859  77.288 113.657  0.00  0.00     0.038 C 
ATOM      4  C   LIG d   1      -1.106  76.275 113.043  0.00  0.00     0.028 C 
ATOM      5  C   LIG d   1       0.005  75.725 113.931  0.00  0.00    -0.047 C 
ATOM      6  C   LIG d   1      -0.594  75.333 115.301  0.00  0.00     0.091 C 
ENDROOT
BRANCH   1   7
ATOM      7  O   LIG d   1      -2.240  76.042 116.972  0.00  0.00    -0.368 OA
BRANCH   7   8
ATOM      8  C   LIG d   1      -3.644  76.021 116.615  0.00  0.00     0.119 C 
BRANCH   8   9
ATOM      9  C   LIG d   1      -4.440  76.521 117.836  0.00  0.00     0.028 C 
ATOM     10  C   LIG d   1      -3.530  76.878 119.024  0.00  0.00     0.006 C 
ENDBRANCH   8   9
BRANCH   8  11
ATOM     11  C   LIG d   1      -4.135  74.591 116.369  0.00  0.00     0.028 C 
ATOM     12  C   LIG d   1      -4.418  74.306 114.885  0.00  0.00     0.006 C 
ENDBRANCH   8  11
ENDBRANCH   7   8
ENDBRANCH   1   7
BRANCH   6  13
ATOM     13  N   LIG d   1       0.441  74.864 116.259  0.00  0.00    -0.311 N 
ATOM     14  C   LIG d   1       1.472  75.611 116.648  0.00  0.00     0.210 C 
ATOM     15  C   LIG d   1       2.433  74.927 117.626  0.00  0.00     0.109 C 
ATOM     16  O   LIG d   1       1.665  76.786 116.302  0.00  0.00    -0.276 OA
ATOM     17  H   LIG d   1       0.344  73.933 116.614  0.00  0.00     0.149 HD
ENDBRANCH   6  13
BRANCH   5  18
ATOM     18  N   LIG d   1       0.619  74.586 113.222  0.00  0.00     0.381 N 
ATOM     19  H   LIG d   1       1.300  74.920 112.570  0.00  0.00    -0.090 HD
ATOM     20  H   LIG d   1      -0.095  74.099 112.709  0.00  0.00    -0.090 HD
ATOM     21  H   LIG d   1       1.048  73.968 113.875  0.00  0.00    -0.090 HD
ENDBRANCH   5  18
BRANCH   3  22
ATOM     22  C   LIG d   1      -2.421  78.268 112.854  0.00  0.00     0.382 C 
ATOM     23  O   LIG d   1      -2.835  79.336 113.366  0.00  0.00    -0.241 OA
ATOM     24  O   LIG d   1      -2.560  78.080 111.630  0.00  0.00    -0.241 OA
ENDBRANCH   3  22
TORSDOF 7
ENDMDL
MODEL 3
REMARK VINA RESULT:      -4.4      5.151      6.753
REMARK  7 active torsions:
REMARK  status: ('A' for Active; 'I' for Inactive)
REMARK    1  A    between atoms: C_2  and  C_3 
REMARK    2  A    between atoms: C_3  and  O_6 
REMARK    3  A    between atoms: C_3  and  C_4 
REMARK    4  A    between atoms: C_7  and  O_6 
REMARK    5  A    between atoms: C_9  and  C_10 
REMARK    6  A    between atoms: N_15  and  C_14 
REMARK    7  A    between atoms: N_20  and  C_19 
REMARK       I    between atoms: C_22  and  N_20 
ROOT
ATOM      1  C   LIG d   1       1.457  81.691 112.735  0.00  0.00     0.161 C 
ATOM      2  C   LIG d   1       2.363  82.579 112.131  0.00  0.00     0.016 C 
ATOM      3  C   LIG d   1       2.401  82.824 110.739  0.00  0.00     0.038 C 
ATOM      4  C   LIG d   1       1.430  82.306 109.868  0.00  0.00     0.028 C 
ATOM      5  C   LIG d   1       0.805  81.006 110.362  0.00  0.00    -0.047 C 
ATOM      6  C   LIG d   1       0.319  81.203 111.816  0.00  0.00     0.091 C 
ENDROOT
BRANCH   1   7
ATOM      7  O   LIG d   1       0.915  82.285 113.932  0.00  0.00    -0.368 OA
BRANCH   7   8
ATOM      8  C   LIG d   1       1.434  81.778 115.186  0.00  0.00     0.119 C 
BRANCH   8   9
ATOM      9  C   LIG d   1       2.415  82.829 115.740  0.00  0.00     0.028 C 
ATOM     10  C   LIG d   1       1.978  83.377 117.109  0.00  0.00     0.006 C 
ENDBRANCH   8   9
BRANCH   8  11
ATOM     11  C   LIG d   1       2.271  80.514 114.973  0.00  0.00     0.028 C 
ATOM     12  C   LIG d   1       1.585  79.247 115.507  0.00  0.00     0.006 C 
ENDBRANCH   8  11
ENDBRANCH   7   8
ENDBRANCH   1   7
BRANCH   6  13
ATOM     13  N   LIG d   1      -0.230  79.953 112.404  0.00  0.00    -0.311 N 
ATOM     14  C   LIG d   1      -1.529  79.660 112.422  0.00  0.00     0.210 C 
ATOM     15  C   LIG d   1      -1.883  78.330 113.095  0.00  0.00     0.109 C 
ATOM     16  O   LIG d   1      -2.419  80.360 111.917  0.00  0.00    -0.276 OA
ATOM     17  H   LIG d   1       0.426  79.313 112.808  0.00  0.00     0.149 HD
ENDBRANCH   6  13
BRANCH   5  18
ATOM     18  N   LIG d   1      -0.283  80.653 109.431  0.00  0.00     0.381 N 
ATOM     19  H   LIG d   1      -0.635  81.480 108.992  0.00  0.00    -0.090 HD
ATOM     20  H   LIG d   1      -1.031  80.229 109.951  0.00  0.00    -0.090 HD
ATOM     21  H   LIG d   1       0.052  80.018 108.739  0.00  0.00    -0.090 HD
ENDBRANCH   5  18
BRANCH   3  22
ATOM     22  C   LIG d   1       3.443  83.562 110.199  0.00  0.00     0.382 C 
ATOM     23  O   LIG d   1       4.619  83.127 110.265  0.00  0.00    -0.241 OA
ATOM     24  O   LIG d   1       3.229  84.677 109.687  0.00  0.00    -0.241 OA
ENDBRANCH   3  22
TORSDOF 7
ENDMDL
MODEL 4
REMARK VINA RESULT:      -4.3      3.177      5.618
REMARK  7 active torsions:
REMARK  status: ('A' for Active; 'I' for Inactive)
REMARK    1  A    between atoms: C_2  and  C_3 
REMARK    2  A    between atoms: C_3  and  O_6 
REMARK    3  A    between atoms: C_3  and  C_4 
REMARK    4  A    between atoms: C_7  and  O_6 
REMARK    5  A    between atoms: C_9  and  C_10 
REMARK    6  A    between atoms: N_15  and  C_14 
REMARK    7  A    between atoms: N_20  and  C_19 
REMARK       I    between atoms: C_22  and  N_20 
ROOT
ATOM      1  C   LIG d   1      -0.515  78.222 114.473  0.00  0.00     0.161 C 
ATOM      2  C   LIG d   1      -1.023  77.037 115.033  0.00  0.00     0.016 C 
ATOM      3  C   LIG d   1      -2.025  76.252 114.417  0.00  0.00     0.038 C 
ATOM      4  C   LIG d   1      -2.483  76.520 113.119  0.00  0.00     0.028 C 
ATOM      5  C   LIG d   1      -2.366  77.989 112.726  0.00  0.00    -0.047 C 
ATOM      6  C   LIG d   1      -0.923  78.469 113.005  0.00  0.00     0.091 C 
ENDROOT
BRANCH   1   7
ATOM      7  O   LIG d   1       0.919  78.249 114.605  0.00  0.00    -0.368 OA
BRANCH   7   8
ATOM      8  C   LIG d   1       1.436  78.861 115.812  0.00  0.00     0.119 C 
BRANCH   8   9
ATOM      9  C   LIG d   1       1.569  80.373 115.545  0.00  0.00     0.028 C 
ATOM     10  C   LIG d   1       2.508  80.681 114.367  0.00  0.00     0.006 C 
ENDBRANCH   8   9
BRANCH   8  11
ATOM     11  C   LIG d   1       2.857  78.377 116.118  0.00  0.00     0.028 C 
ATOM     12  C   LIG d   1       2.930  76.863 116.369  0.00  0.00     0.006 C 
ENDBRANCH   8  11
ENDBRANCH   7   8
ENDBRANCH   1   7
BRANCH   6  13
ATOM     13  N   LIG d   1      -0.745  79.918 112.728  0.00  0.00    -0.311 N 
ATOM     14  C   LIG d   1      -0.447  80.403 111.523  0.00  0.00     0.210 C 
ATOM     15  C   LIG d   1      -0.287  81.925 111.460  0.00  0.00     0.109 C 
ATOM     16  O   LIG d   1      -0.331  79.719 110.495  0.00  0.00    -0.276 OA
ATOM     17  H   LIG d   1      -0.852  80.547 113.499  0.00  0.00     0.149 HD
ENDBRANCH   6  13
BRANCH   5  18
ATOM     18  N   LIG d   1      -2.748  78.102 111.306  0.00  0.00     0.381 N 
ATOM     19  H   LIG d   1      -2.765  79.065 111.035  0.00  0.00    -0.090 HD
ATOM     20  H   LIG d   1      -3.672  77.725 111.186  0.00  0.00    -0.090 HD
ATOM     21  H   LIG d   1      -2.101  77.602 110.737  0.00  0.00    -0.090 HD
ENDBRANCH   5  18
BRANCH   3  22
ATOM     22  C   LIG d   1      -2.608  75.209 115.119  0.00  0.00     0.382 C 
ATOM     23  O   LIG d   1      -2.308  75.017 116.322  0.00  0.00    -0.241 OA
ATOM     24  O   LIG d   1      -3.397  74.429 114.553  0.00  0.00    -0.241 OA
ENDBRANCH   3  22
TORSDOF 7
ENDMDL
MODEL 5
REMARK VINA RESULT:      -4.2      2.121      2.884
REMARK  7 active torsions:
REMARK  status: ('A' for Active; 'I' for Inactive)
REMARK    1  A    between atoms: C_2  and  C_3 
REMARK    2  A    between atoms: C_3  and  O_6 
REMARK    3  A    between atoms: C_3  and  C_4 
REMARK    4  A    between atoms: C_7  and  O_6 
REMARK    5  A    between atoms: C_9  and  C_10 
REMARK    6  A    between atoms: N_15  and  C_14 
REMARK    7  A    between atoms: N_20  and  C_19 
REMARK       I    between atoms: C_22  and  N_20 
ROOT
ATOM      1  C   LIG d   1      -1.841  77.128 115.088  0.00  0.00     0.161 C 
ATOM      2  C   LIG d   1      -2.353  77.746 113.936  0.00  0.00     0.016 C 
ATOM      3  C   LIG d   1      -1.618  78.670 113.157  0.00  0.00     0.038 C 
ATOM      4  C   LIG d   1      -0.259  78.924 113.394  0.00  0.00     0.028 C 
ATOM      5  C   LIG d   1       0.153  78.707 114.846  0.00  0.00    -0.047 C 
ATOM      6  C   LIG d   1      -0.323  77.308 115.299  0.00  0.00     0.091 C 
ENDROOT
BRANCH   1   7
ATOM      7  O   LIG d   1      -2.183  75.727 115.084  0.00  0.00    -0.368 OA
BRANCH   7   8
ATOM      8  C   LIG d   1      -2.886  75.240 116.254  0.00  0.00     0.119 C 
BRANCH   8   9
ATOM      9  C   LIG d   1      -3.983  74.275 115.765  0.00  0.00     0.028 C 
ATOM     10  C   LIG d   1      -4.440  74.584 114.329  0.00  0.00     0.006 C 
ENDBRANCH   8   9
BRANCH   8  11
ATOM     11  C   LIG d   1      -3.630  76.371 116.969  0.00  0.00     0.028 C 
ATOM     12  C   LIG d   1      -3.244  76.494 118.452  0.00  0.00     0.006 C 
ENDBRANCH   8  11
ENDBRANCH   7   8
ENDBRANCH   1   7
BRANCH   6  13
ATOM     13  N   LIG d   1      -0.034  77.048 116.733  0.00  0.00    -0.311 N 
ATOM     14  C   LIG d   1       0.645  75.986 117.164  0.00  0.00     0.210 C 
ATOM     15  C   LIG d   1       0.814  75.899 118.684  0.00  0.00     0.109 C 
ATOM     16  O   LIG d   1       1.152  75.125 116.429  0.00  0.00    -0.276 OA
ATOM     17  H   LIG d   1      -0.381  77.713 117.397  0.00  0.00     0.149 HD
ENDBRANCH   6  13
BRANCH   5  18
ATOM     18  N   LIG d   1       1.617  78.873 114.923  0.00  0.00     0.381 N 
ATOM     19  H   LIG d   1       1.977  79.124 114.024  0.00  0.00    -0.090 HD
ATOM     20  H   LIG d   1       2.029  77.998 115.195  0.00  0.00    -0.090 HD
ATOM     21  H   LIG d   1       1.846  79.578 115.589  0.00  0.00    -0.090 HD
ENDBRANCH   5  18
BRANCH   3  22
ATOM     22  C   LIG d   1      -2.255  79.380 112.151  0.00  0.00     0.382 C 
ATOM     23  O   LIG d   1      -1.846  79.296 110.968  0.00  0.00    -0.241 OA
ATOM     24  O   LIG d   1      -3.206  80.139 112.418  0.00  0.00    -0.241 OA
ENDBRANCH   3  22
TORSDOF 7
ENDMDL
MODEL 6
REMARK VINA RESULT:      -4.1      2.368      3.356
REMARK  7 active torsions:
REMARK  status: ('A' for Active; 'I' for Inactive)
REMARK    1  A    between atoms: C_2  and  C_3 
REMARK    2  A    between atoms: C_3  and  O_6 
REMARK    3  A    between atoms: C_3  and  C_4 
REMARK    4  A    between atoms: C_7  and  O_6 
REMARK    5  A    between atoms: C_9  and  C_10 
REMARK    6  A    between atoms: N_15  and  C_14 
REMARK    7  A    between atoms: N_20  and  C_19 
REMARK       I    between atoms: C_22  and  N_20 
ROOT
ATOM      1  C   LIG d   1      -1.018  78.327 113.958  0.00  0.00     0.161 C 
ATOM      2  C   LIG d   1      -0.400  79.386 113.272  0.00  0.00     0.016 C 
ATOM      3  C   LIG d   1      -0.778  79.797 111.973  0.00  0.00     0.038 C 
ATOM      4  C   LIG d   1      -1.908  79.272 111.329  0.00  0.00     0.028 C 
ATOM      5  C   LIG d   1      -2.254  77.854 111.773  0.00  0.00    -0.047 C 
ATOM      6  C   LIG d   1      -2.324  77.815 113.316  0.00  0.00     0.091 C 
ENDROOT
BRANCH   1   7
ATOM      7  O   LIG d   1      -1.247  78.702 115.331  0.00  0.00    -0.368 OA
BRANCH   7   8
ATOM      8  C   LIG d   1      -0.238  78.286 116.283  0.00  0.00     0.119 C 
BRANCH   8   9
ATOM      9  C   LIG d   1      -0.768  77.029 117.000  0.00  0.00     0.028 C 
ATOM     10  C   LIG d   1      -0.099  75.739 116.495  0.00  0.00     0.006 C 
ENDBRANCH   8   9
BRANCH   8  11
ATOM     11  C   LIG d   1      -0.047  79.331 117.386  0.00  0.00     0.028 C 
ATOM     12  C   LIG d   1      -1.364  79.708 118.084  0.00  0.00     0.006 C 
ENDBRANCH   8  11
ENDBRANCH   7   8
ENDBRANCH   1   7
BRANCH   6  13
ATOM     13  N   LIG d   1      -2.575  76.446 113.838  0.00  0.00    -0.311 N 
ATOM     14  C   LIG d   1      -3.579  76.148 114.661  0.00  0.00     0.210 C 
ATOM     15  C   LIG d   1      -3.645  74.680 115.094  0.00  0.00     0.109 C 
ATOM     16  O   LIG d   1      -4.440  76.953 115.047  0.00  0.00    -0.276 OA
ATOM     17  H   LIG d   1      -1.943  75.725 113.549  0.00  0.00     0.149 HD
ENDBRANCH   6  13
BRANCH   5  18
ATOM     18  N   LIG d   1      -3.527  77.483 111.126  0.00  0.00     0.381 N 
ATOM     19  H   LIG d   1      -3.877  78.258 110.598  0.00  0.00    -0.090 HD
ATOM     20  H   LIG d   1      -4.199  77.258 111.838  0.00  0.00    -0.090 HD
ATOM     21  H   LIG d   1      -3.390  76.699 110.528  0.00  0.00    -0.090 HD
ENDBRANCH   5  18
BRANCH   3  22
ATOM     22  C   LIG d   1       0.002  80.717 111.289  0.00  0.00     0.382 C 
ATOM     23  O   LIG d   1       0.758  81.492 111.923  0.00  0.00    -0.241 OA
ATOM     24  O   LIG d   1      -0.073  80.811 110.050  0.00  0.00    -0.241 OA
ENDBRANCH   3  22
TORSDOF 7
ENDMDL
MODEL 7
REMARK VINA RESULT:      -4.1      1.743      2.225
REMARK  7 active torsions:
REMARK  status: ('A' for Active; 'I' for Inactive)
REMARK    1  A    between atoms: C_2  and  C_3 
REMARK    2  A    between atoms: C_3  and  O_6 
REMARK    3  A    between atoms: C_3  and  C_4 
REMARK    4  A    between atoms: C_7  and  O_6 
REMARK    5  A    between atoms: C_9  and  C_10 
REMARK    6  A    between atoms: N_15  and  C_14 
REMARK    7  A    between atoms: N_20  and  C_19 
REMARK       I    between atoms: C_22  and  N_20 
ROOT
ATOM      1  C   LIG d   1      -1.521  77.855 115.569  0.00  0.00     0.161 C 
ATOM      2  C   LIG d   1      -2.280  78.112 114.415  0.00  0.00     0.016 C 
ATOM      3  C   LIG d   1      -2.111  77.408 113.200  0.00  0.00     0.038 C 
ATOM      4  C   LIG d   1      -1.270  76.289 113.103  0.00  0.00     0.028 C 
ATOM      5  C   LIG d   1      -0.115  76.311 114.097  0.00  0.00    -0.047 C 
ATOM      6  C   LIG d   1      -0.677  76.565 115.515  0.00  0.00     0.091 C 
ENDROOT
BRANCH   1   7
ATOM      7  O   LIG d   1      -2.381  77.843 116.726  0.00  0.00    -0.368 OA
BRANCH   7   8
ATOM      8  C   LIG d   1      -2.792  76.537 117.201  0.00  0.00     0.119 C 
BRANCH   8   9
ATOM      9  C   LIG d   1      -4.173  76.236 116.588  0.00  0.00     0.028 C 
ATOM     10  C   LIG d   1      -4.153  74.998 115.676  0.00  0.00     0.006 C 
ENDBRANCH   8   9
BRANCH   8  11
ATOM     11  C   LIG d   1      -3.012  76.540 118.716  0.00  0.00     0.028 C 
ATOM     12  C   LIG d   1      -2.011  75.646 119.465  0.00  0.00     0.006 C 
ENDBRANCH   8  11
ENDBRANCH   7   8
ENDBRANCH   1   7
BRANCH   6  13
ATOM     13  N   LIG d   1       0.395  76.685 116.537  0.00  0.00    -0.311 N 
ATOM     14  C   LIG d   1       0.843  75.656 117.254  0.00  0.00     0.210 C 
ATOM     15  C   LIG d   1       1.938  76.002 118.267  0.00  0.00     0.109 C 
ATOM     16  O   LIG d   1       0.460  74.483 117.124  0.00  0.00    -0.276 OA
ATOM     17  H   LIG d   1       0.784  77.595 116.685  0.00  0.00     0.149 HD
ENDBRANCH   6  13
BRANCH   5  18
ATOM     18  N   LIG d   1       0.599  75.025 113.980  0.00  0.00     0.381 N 
ATOM     19  H   LIG d   1       0.111  74.319 114.494  0.00  0.00    -0.090 HD
ATOM     20  H   LIG d   1       1.517  75.126 114.376  0.00  0.00    -0.090 HD
ATOM     21  H   LIG d   1       0.669  74.760 113.022  0.00  0.00    -0.090 HD
ENDBRANCH   5  18
BRANCH   3  22
ATOM     22  C   LIG d   1      -2.759  77.847 112.056  0.00  0.00     0.382 C 
ATOM     23  O   LIG d   1      -3.801  77.269 111.665  0.00  0.00    -0.241 OA
ATOM     24  O   LIG d   1      -2.289  78.785 111.385  0.00  0.00    -0.241 OA
ENDBRANCH   3  22
TORSDOF 7
ENDMDL
MODEL 8
REMARK VINA RESULT:      -4.1      2.663      3.417
REMARK  7 active torsions:
REMARK  status: ('A' for Active; 'I' for Inactive)
REMARK    1  A    between atoms: C_2  and  C_3 
REMARK    2  A    between atoms: C_3  and  O_6 
REMARK    3  A    between atoms: C_3  and  C_4 
REMARK    4  A    between atoms: C_7  and  O_6 
REMARK    5  A    between atoms: C_9  and  C_10 
REMARK    6  A    between atoms: N_15  and  C_14 
REMARK    7  A    between atoms: N_20  and  C_19 
REMARK       I    between atoms: C_22  and  N_20 
ROOT
ATOM      1  C   LIG d   1       0.036  77.485 114.433  0.00  0.00     0.161 C 
ATOM      2  C   LIG d   1      -0.511  78.403 113.521  0.00  0.00     0.016 C 
ATOM      3  C   LIG d   1      -1.897  78.652 113.403  0.00  0.00     0.038 C 
ATOM      4  C   LIG d   1      -2.827  78.106 114.301  0.00  0.00     0.028 C 
ATOM      5  C   LIG d   1      -2.374  76.784 114.913  0.00  0.00    -0.047 C 
ATOM      6  C   LIG d   1      -0.954  76.962 115.495  0.00  0.00     0.091 C 
ENDROOT
BRANCH   1   7
ATOM      7  O   LIG d   1       1.196  78.058 115.067  0.00  0.00    -0.368 OA
BRANCH   7   8
ATOM      8  C   LIG d   1       1.102  79.460 115.421  0.00  0.00     0.119 C 
BRANCH   8   9
ATOM      9  C   LIG d   1       2.372  80.156 114.896  0.00  0.00     0.028 C 
ATOM     10  C   LIG d   1       2.254  81.690 114.923  0.00  0.00     0.006 C 
ENDBRANCH   8   9
BRANCH   8  11
ATOM     11  C   LIG d   1       1.131  79.654 116.940  0.00  0.00     0.028 C 
ATOM     12  C   LIG d   1      -0.250  79.992 117.525  0.00  0.00     0.006 C 
ENDBRANCH   8  11
ENDBRANCH   7   8
ENDBRANCH   1   7
BRANCH   6  13
ATOM     13  N   LIG d   1      -0.401  75.694 116.039  0.00  0.00    -0.311 N 
ATOM     14  C   LIG d   1       0.059  75.569 117.283  0.00  0.00     0.210 C 
ATOM     15  C   LIG d   1       0.603  74.180 117.634  0.00  0.00     0.109 C 
ATOM     16  O   LIG d   1       0.038  76.466 118.139  0.00  0.00    -0.276 OA
ATOM     17  H   LIG d   1      -0.375  74.906 115.422  0.00  0.00     0.149 HD
ENDBRANCH   6  13
BRANCH   5  18
ATOM     18  N   LIG d   1      -3.372  76.399 115.929  0.00  0.00     0.381 N 
ATOM     19  H   LIG d   1      -2.909  76.148 116.780  0.00  0.00    -0.090 HD
ATOM     20  H   LIG d   1      -3.880  75.598 115.598  0.00  0.00    -0.090 HD
ATOM     21  H   LIG d   1      -4.000  77.154 116.094  0.00  0.00    -0.090 HD
ENDBRANCH   5  18
BRANCH   3  22
ATOM     22  C   LIG d   1      -2.371  79.424 112.353  0.00  0.00     0.382 C 
ATOM     23  O   LIG d   1      -3.198  80.341 112.573  0.00  0.00    -0.241 OA
ATOM     24  O   LIG d   1      -2.015  79.186 111.184  0.00  0.00    -0.241 OA
ENDBRANCH   3  22
TORSDOF 7
ENDMDL
MODEL 9
REMARK VINA RESULT:      -3.9      2.861      3.940
REMARK  7 active torsions:
REMARK  status: ('A' for Active; 'I' for Inactive)
REMARK    1  A    between atoms: C_2  and  C_3 
REMARK    2  A    between atoms: C_3  and  O_6 
REMARK    3  A    between atoms: C_3  and  C_4 
REMARK    4  A    between atoms: C_7  and  O_6 
REMARK    5  A    between atoms: C_9  and  C_10 
REMARK    6  A    between atoms: N_15  and  C_14 
REMARK    7  A    between atoms: N_20  and  C_19 
REMARK       I    between atoms: C_22  and  N_20 
ROOT
ATOM      1  C   LIG d   1      -0.078  77.142 114.738  0.00  0.00     0.161 C 
ATOM      2  C   LIG d   1      -0.781  77.755 113.688  0.00  0.00     0.016 C 
ATOM      3  C   LIG d   1      -2.035  77.299 113.221  0.00  0.00     0.038 C 
ATOM      4  C   LIG d   1      -2.746  76.283 113.878  0.00  0.00     0.028 C 
ATOM      5  C   LIG d   1      -1.849  75.304 114.628  0.00  0.00    -0.047 C 
ATOM      6  C   LIG d   1      -0.888  76.102 115.539  0.00  0.00     0.091 C 
ENDROOT
BRANCH   1   7
ATOM      7  O   LIG d   1       0.457  78.149 115.621  0.00  0.00    -0.368 OA
BRANCH   7   8
ATOM      8  C   LIG d   1       1.883  78.386 115.529  0.00  0.00     0.119 C 
BRANCH   8   9
ATOM      9  C   LIG d   1       2.530  77.823 116.809  0.00  0.00     0.028 C 
ATOM     10  C   LIG d   1       3.536  76.698 116.513  0.00  0.00     0.006 C 
ENDBRANCH   8   9
BRANCH   8  11
ATOM     11  C   LIG d   1       2.200  79.884 115.538  0.00  0.00     0.028 C 
ATOM     12  C   LIG d   1       3.360  80.254 114.600  0.00  0.00     0.006 C 
ENDBRANCH   8  11
ENDBRANCH   7   8
ENDBRANCH   1   7
BRANCH   6  13
ATOM     13  N   LIG d   1       0.081  75.225 116.247  0.00  0.00    -0.311 N 
ATOM     14  C   LIG d   1       0.154  75.133 117.573  0.00  0.00     0.210 C 
ATOM     15  C   LIG d   1       1.237  74.185 118.098  0.00  0.00     0.109 C 
ATOM     16  O   LIG d   1      -0.597  75.723 118.365  0.00  0.00    -0.276 OA
ATOM     17  H   LIG d   1       0.707  74.687 115.680  0.00  0.00     0.149 HD
ENDBRANCH   6  13
BRANCH   5  18
ATOM     18  N   LIG d   1      -2.724  74.383 115.377  0.00  0.00     0.381 N 
ATOM     19  H   LIG d   1      -2.886  74.741 116.297  0.00  0.00    -0.090 HD
ATOM     20  H   LIG d   1      -2.264  73.494 115.462  0.00  0.00    -0.090 HD
ATOM     21  H   LIG d   1      -3.591  74.272 114.899  0.00  0.00    -0.090 HD
ENDBRANCH   5  18
BRANCH   3  22
ATOM     22  C   LIG d   1      -2.573  77.835 112.061  0.00  0.00     0.382 C 
ATOM     23  O   LIG d   1      -1.982  78.771 111.470  0.00  0.00    -0.241 OA
ATOM     24  O   LIG d   1      -3.663  77.424 111.621  0.00  0.00    -0.241 OA
ENDBRANCH   3  22
TORSDOF 7
ENDMDL
