MODEL 1
REMARK VINA RESULT:      -5.6      0.000      0.000
REMARK  7 active torsions:
REMARK  status: ('A' for Active; 'I' for Inactive)
REMARK    1  A    between atoms: C_2  and  C_3 
REMARK    2  A    between atoms: C_3  and  O_6 
REMARK    3  A    between atoms: C_3  and  C_4 
REMARK    4  A    between atoms: C_7  and  O_6 
REMARK    5  A    between atoms: C_9  and  C_10 
REMARK    6  A    between atoms: N_15  and  C_14 
REMARK    7  A    between atoms: N_20  and  C_19 
REMARK       I    between atoms: C_22  and  N_20 
ROOT
ATOM      1  C   LIG d   1       0.489  83.468 112.027  0.00  0.00     0.161 C 
ATOM      2  C   LIG d   1      -0.727  82.978 112.530  0.00  0.00     0.016 C 
ATOM      3  C   LIG d   1      -1.173  81.651 112.333  0.00  0.00     0.038 C 
ATOM      4  C   LIG d   1      -0.356  80.674 111.744  0.00  0.00     0.028 C 
ATOM      5  C   LIG d   1       0.672  81.248 110.775  0.00  0.00    -0.047 C 
ATOM      6  C   LIG d   1       1.444  82.387 111.478  0.00  0.00     0.091 C 
ENDROOT
BRANCH   1   7
ATOM      7  O   LIG d   1       1.152  84.257 113.034  0.00  0.00    -0.368 OA
BRANCH   7   8
ATOM      8  C   LIG d   1       1.246  83.661 114.351  0.00  0.00     0.119 C 
BRANCH   8   9
ATOM      9  C   LIG d   1       0.589  84.635 115.349  0.00  0.00     0.028 C 
ATOM     10  C   LIG d   1      -0.526  83.968 116.171  0.00  0.00     0.006 C 
ENDBRANCH   8   9
BRANCH   8  11
ATOM     11  C   LIG d   1       2.704  83.538 114.805  0.00  0.00     0.028 C 
ATOM     12  C   LIG d   1       3.615  84.605 114.178  0.00  0.00     0.006 C 
ENDBRANCH   8  11
ENDBRANCH   7   8
ENDBRANCH   1   7
BRANCH   6  13
ATOM     13  N   LIG d   1       2.412  83.059 110.572  0.00  0.00    -0.311 N 
ATOM     14  C   LIG d   1       3.663  82.638 110.393  0.00  0.00     0.210 C 
ATOM     15  C   LIG d   1       4.499  83.487 109.431  0.00  0.00     0.109 C 
ATOM     16  O   LIG d   1       4.149  81.623 110.914  0.00  0.00    -0.276 OA
ATOM     17  H   LIG d   1       2.091  83.873 110.085  0.00  0.00     0.149 HD
ENDBRANCH   6  13
BRANCH   5  18
ATOM     18  N   LIG d   1       1.543  80.139 110.342  0.00  0.00     0.381 N 
ATOM     19  H   LIG d   1       2.230  79.953 111.045  0.00  0.00    -0.090 HD
ATOM     20  H   LIG d   1       2.020  80.411 109.500  0.00  0.00    -0.090 HD
ATOM     21  H   LIG d   1       0.998  79.322 110.175  0.00  0.00    -0.090 HD
ENDBRANCH   5  18
BRANCH   3  22
ATOM     22  C   LIG d   1      -2.466  81.299 112.691  0.00  0.00     0.382 C 
ATOM     23  O   LIG d   1      -2.657  80.445 113.590  0.00  0.00    -0.241 OA
ATOM     24  O   LIG d   1      -3.442  81.794 112.097  0.00  0.00    -0.241 OA
ENDBRANCH   3  22
TORSDOF 7
ENDMDL
MODEL 2
REMARK VINA RESULT:      -5.3      1.899      4.795
REMARK  7 active torsions:
REMARK  status: ('A' for Active; 'I' for Inactive)
REMARK    1  A    between atoms: C_2  and  C_3 
REMARK    2  A    between atoms: C_3  and  O_6 
REMARK    3  A    between atoms: C_3  and  C_4 
REMARK    4  A    between atoms: C_7  and  O_6 
REMARK    5  A    between atoms: C_9  and  C_10 
REMARK    6  A    between atoms: N_15  and  C_14 
REMARK    7  A    between atoms: N_20  and  C_19 
REMARK       I    between atoms: C_22  and  N_20 
ROOT
ATOM      1  C   LIG d   1       0.581  81.875 112.770  0.00  0.00     0.161 C 
ATOM      2  C   LIG d   1       1.531  82.781 112.269  0.00  0.00     0.016 C 
ATOM      3  C   LIG d   1       1.990  82.768 110.932  0.00  0.00     0.038 C 
ATOM      4  C   LIG d   1       1.414  81.938 109.959  0.00  0.00     0.028 C 
ATOM      5  C   LIG d   1       0.808  80.662 110.532  0.00  0.00    -0.047 C 
ATOM      6  C   LIG d   1      -0.140  81.035 111.695  0.00  0.00     0.091 C 
ENDROOT
BRANCH   1   7
ATOM      7  O   LIG d   1      -0.378  82.575 113.586  0.00  0.00    -0.368 OA
BRANCH   7   8
ATOM      8  C   LIG d   1      -0.198  82.462 115.019  0.00  0.00     0.119 C 
BRANCH   8   9
ATOM      9  C   LIG d   1      -1.425  81.718 115.583  0.00  0.00     0.028 C 
ATOM     10  C   LIG d   1      -2.706  82.565 115.517  0.00  0.00     0.006 C 
ENDBRANCH   8   9
BRANCH   8  11
ATOM     11  C   LIG d   1      -0.214  83.838 115.693  0.00  0.00     0.028 C 
ATOM     12  C   LIG d   1       0.509  83.845 117.049  0.00  0.00     0.006 C 
ENDBRANCH   8  11
ENDBRANCH   7   8
ENDBRANCH   1   7
BRANCH   6  13
ATOM     13  N   LIG d   1      -0.710  79.838 112.368  0.00  0.00    -0.311 N 
ATOM     14  C   LIG d   1      -2.005  79.702 112.647  0.00  0.00     0.210 C 
ATOM     15  C   LIG d   1      -2.379  78.400 113.362  0.00  0.00     0.109 C 
ATOM     16  O   LIG d   1      -2.885  80.522 112.343  0.00  0.00    -0.276 OA
ATOM     17  H   LIG d   1      -0.072  79.110 112.622  0.00  0.00     0.149 HD
ENDBRANCH   6  13
BRANCH   5  18
ATOM     18  N   LIG d   1       0.123  79.959 109.431  0.00  0.00     0.381 N 
ATOM     19  H   LIG d   1      -0.862  79.936 109.604  0.00  0.00    -0.090 HD
ATOM     20  H   LIG d   1       0.458  79.013 109.391  0.00  0.00    -0.090 HD
ATOM     21  H   LIG d   1       0.305  80.420 108.567  0.00  0.00    -0.090 HD
ENDBRANCH   5  18
BRANCH   3  22
ATOM     22  C   LIG d   1       3.064  83.564 110.566  0.00  0.00     0.382 C 
ATOM     23  O   LIG d   1       4.178  83.409 111.122  0.00  0.00    -0.241 OA
ATOM     24  O   LIG d   1       2.923  84.466 109.719  0.00  0.00    -0.241 OA
ENDBRANCH   3  22
TORSDOF 7
ENDMDL
MODEL 3
REMARK VINA RESULT:      -5.1      3.640      5.834
REMARK  7 active torsions:
REMARK  status: ('A' for Active; 'I' for Inactive)
REMARK    1  A    between atoms: C_2  and  C_3 
REMARK    2  A    between atoms: C_3  and  O_6 
REMARK    3  A    between atoms: C_3  and  C_4 
REMARK    4  A    between atoms: C_7  and  O_6 
REMARK    5  A    between atoms: C_9  and  C_10 
REMARK    6  A    between atoms: N_15  and  C_14 
REMARK    7  A    between atoms: N_20  and  C_19 
REMARK       I    between atoms: C_22  and  N_20 
ROOT
ATOM      1  C   LIG d   1      -0.666  80.087 114.810  0.00  0.00     0.161 C 
ATOM      2  C   LIG d   1      -0.678  81.326 114.147  0.00  0.00     0.016 C 
ATOM      3  C   LIG d   1      -1.162  81.498 112.830  0.00  0.00     0.038 C 
ATOM      4  C   LIG d   1      -1.809  80.465 112.136  0.00  0.00     0.028 C 
ATOM      5  C   LIG d   1      -1.366  79.072 112.572  0.00  0.00    -0.047 C 
ATOM      6  C   LIG d   1      -1.470  78.971 114.111  0.00  0.00     0.091 C 
ENDROOT
BRANCH   1   7
ATOM      7  O   LIG d   1      -1.118  80.255 116.168  0.00  0.00    -0.368 OA
BRANCH   7   8
ATOM      8  C   LIG d   1      -2.009  81.372 116.409  0.00  0.00     0.119 C 
BRANCH   8   9
ATOM      9  C   LIG d   1      -1.552  82.055 117.713  0.00  0.00     0.028 C 
ATOM     10  C   LIG d   1      -0.442  83.093 117.474  0.00  0.00     0.006 C 
ENDBRANCH   8   9
BRANCH   8  11
ATOM     11  C   LIG d   1      -3.439  80.896 116.680  0.00  0.00     0.028 C 
ATOM     12  C   LIG d   1      -3.945  81.295 118.076  0.00  0.00     0.006 C 
ENDBRANCH   8  11
ENDBRANCH   7   8
ENDBRANCH   1   7
BRANCH   6  13
ATOM     13  N   LIG d   1      -0.975  77.669 114.628  0.00  0.00    -0.311 N 
ATOM     14  C   LIG d   1      -1.748  76.593 114.767  0.00  0.00     0.210 C 
ATOM     15  C   LIG d   1      -1.043  75.359 115.337  0.00  0.00     0.109 C 
ATOM     16  O   LIG d   1      -2.944  76.535 114.442  0.00  0.00    -0.276 OA
ATOM     17  H   LIG d   1      -0.009  77.618 114.886  0.00  0.00     0.149 HD
ENDBRANCH   6  13
BRANCH   5  18
ATOM     18  N   LIG d   1      -2.216  78.093 111.869  0.00  0.00     0.381 N 
ATOM     19  H   LIG d   1      -2.679  77.507 112.535  0.00  0.00    -0.090 HD
ATOM     20  H   LIG d   1      -1.635  77.514 111.289  0.00  0.00    -0.090 HD
ATOM     21  H   LIG d   1      -2.890  78.567 111.309  0.00  0.00    -0.090 HD
ENDBRANCH   5  18
BRANCH   3  22
ATOM     22  C   LIG d   1      -0.963  82.705 112.177  0.00  0.00     0.382 C 
ATOM     23  O   LIG d   1      -1.006  83.781 112.822  0.00  0.00    -0.241 OA
ATOM     24  O   LIG d   1      -0.787  82.736 110.945  0.00  0.00    -0.241 OA
ENDBRANCH   3  22
TORSDOF 7
ENDMDL
MODEL 4
REMARK VINA RESULT:      -5.0      2.675      3.936
REMARK  7 active torsions:
REMARK  status: ('A' for Active; 'I' for Inactive)
REMARK    1  A    between atoms: C_2  and  C_3 
REMARK    2  A    between atoms: C_3  and  O_6 
REMARK    3  A    between atoms: C_3  and  C_4 
REMARK    4  A    between atoms: C_7  and  O_6 
REMARK    5  A    between atoms: C_9  and  C_10 
REMARK    6  A    between atoms: N_15  and  C_14 
REMARK    7  A    between atoms: N_20  and  C_19 
REMARK       I    between atoms: C_22  and  N_20 
ROOT
ATOM      1  C   LIG d   1      -1.836  81.121 114.073  0.00  0.00     0.161 C 
ATOM      2  C   LIG d   1      -2.353  79.984 114.717  0.00  0.00     0.016 C 
ATOM      3  C   LIG d   1      -2.351  78.694 114.138  0.00  0.00     0.038 C 
ATOM      4  C   LIG d   1      -1.692  78.424 112.929  0.00  0.00     0.028 C 
ATOM      5  C   LIG d   1      -1.596  79.635 112.008  0.00  0.00    -0.047 C 
ATOM      6  C   LIG d   1      -1.012  80.826 112.802  0.00  0.00     0.091 C 
ENDROOT
BRANCH   1   7
ATOM      7  O   LIG d   1      -1.058  81.898 115.005  0.00  0.00    -0.368 OA
BRANCH   7   8
ATOM      8  C   LIG d   1      -1.810  82.692 115.956  0.00  0.00     0.119 C 
BRANCH   8   9
ATOM      9  C   LIG d   1      -1.761  84.156 115.477  0.00  0.00     0.028 C 
ATOM     10  C   LIG d   1      -0.448  84.493 114.752  0.00  0.00     0.006 C 
ENDBRANCH   8   9
BRANCH   8  11
ATOM     11  C   LIG d   1      -1.140  82.693 117.333  0.00  0.00     0.028 C 
ATOM     12  C   LIG d   1      -1.617  81.539 118.229  0.00  0.00     0.006 C 
ENDBRANCH   8  11
ENDBRANCH   7   8
ENDBRANCH   1   7
BRANCH   6  13
ATOM     13  N   LIG d   1      -0.964  82.075 111.998  0.00  0.00    -0.311 N 
ATOM     14  C   LIG d   1       0.112  82.466 111.316  0.00  0.00     0.210 C 
ATOM     15  C   LIG d   1      -0.045  83.795 110.570  0.00  0.00     0.109 C 
ATOM     16  O   LIG d   1       1.169  81.824 111.233  0.00  0.00    -0.276 OA
ATOM     17  H   LIG d   1      -1.789  82.641 111.985  0.00  0.00     0.149 HD
ENDBRANCH   6  13
BRANCH   5  18
ATOM     18  N   LIG d   1      -0.768  79.250 110.850  0.00  0.00     0.381 N 
ATOM     19  H   LIG d   1       0.052  79.823 110.815  0.00  0.00    -0.090 HD
ATOM     20  H   LIG d   1      -1.294  79.402 110.008  0.00  0.00    -0.090 HD
ATOM     21  H   LIG d   1      -0.509  78.291 110.920  0.00  0.00    -0.090 HD
ENDBRANCH   5  18
BRANCH   3  22
ATOM     22  C   LIG d   1      -3.050  77.665 114.750  0.00  0.00     0.382 C 
ATOM     23  O   LIG d   1      -2.791  76.472 114.461  0.00  0.00    -0.241 OA
ATOM     24  O   LIG d   1      -3.967  77.916 115.556  0.00  0.00    -0.241 OA
ENDBRANCH   3  22
TORSDOF 7
ENDMDL
MODEL 5
REMARK VINA RESULT:      -4.9      2.555      4.373
REMARK  7 active torsions:
REMARK  status: ('A' for Active; 'I' for Inactive)
REMARK    1  A    between atoms: C_2  and  C_3 
REMARK    2  A    between atoms: C_3  and  O_6 
REMARK    3  A    between atoms: C_3  and  C_4 
REMARK    4  A    between atoms: C_7  and  O_6 
REMARK    5  A    between atoms: C_9  and  C_10 
REMARK    6  A    between atoms: N_15  and  C_14 
REMARK    7  A    between atoms: N_20  and  C_19 
REMARK       I    between atoms: C_22  and  N_20 
ROOT
ATOM      1  C   LIG d   1      -0.185  81.063 111.687  0.00  0.00     0.161 C 
ATOM      2  C   LIG d   1      -0.840  79.821 111.642  0.00  0.00     0.016 C 
ATOM      3  C   LIG d   1      -1.753  79.386 112.630  0.00  0.00     0.038 C 
ATOM      4  C   LIG d   1      -2.191  80.233 113.659  0.00  0.00     0.028 C 
ATOM      5  C   LIG d   1      -1.178  81.311 114.029  0.00  0.00    -0.047 C 
ATOM      6  C   LIG d   1      -0.735  82.045 112.743  0.00  0.00     0.091 C 
ENDROOT
BRANCH   1   7
ATOM      7  O   LIG d   1      -0.200  81.671 110.381  0.00  0.00    -0.368 OA
BRANCH   7   8
ATOM      8  C   LIG d   1       1.049  81.640 109.648  0.00  0.00     0.119 C 
BRANCH   8   9
ATOM      9  C   LIG d   1       2.066  80.856 110.501  0.00  0.00     0.028 C 
ATOM     10  C   LIG d   1       3.429  81.563 110.586  0.00  0.00     0.006 C 
ENDBRANCH   8   9
BRANCH   8  11
ATOM     11  C   LIG d   1       1.643  83.043 109.498  0.00  0.00     0.028 C 
ATOM     12  C   LIG d   1       0.612  84.156 109.746  0.00  0.00     0.006 C 
ENDBRANCH   8  11
ENDBRANCH   7   8
ENDBRANCH   1   7
BRANCH   6  13
ATOM     13  N   LIG d   1       0.319  83.060 113.004  0.00  0.00    -0.311 N 
ATOM     14  C   LIG d   1       1.482  82.776 113.588  0.00  0.00     0.210 C 
ATOM     15  C   LIG d   1       2.419  83.973 113.781  0.00  0.00     0.109 C 
ATOM     16  O   LIG d   1       1.840  81.640 113.935  0.00  0.00    -0.276 OA
ATOM     17  H   LIG d   1       0.125  84.002 112.726  0.00  0.00     0.149 HD
ENDBRANCH   6  13
BRANCH   5  18
ATOM     18  N   LIG d   1      -1.817  82.204 115.014  0.00  0.00     0.381 N 
ATOM     19  H   LIG d   1      -2.426  82.845 114.545  0.00  0.00    -0.090 HD
ATOM     20  H   LIG d   1      -1.104  82.733 115.484  0.00  0.00    -0.090 HD
ATOM     21  H   LIG d   1      -2.334  81.668 115.675  0.00  0.00    -0.090 HD
ENDBRANCH   5  18
BRANCH   3  22
ATOM     22  C   LIG d   1      -2.207  78.076 112.617  0.00  0.00     0.382 C 
ATOM     23  O   LIG d   1      -1.604  77.196 113.277  0.00  0.00    -0.241 OA
ATOM     24  O   LIG d   1      -3.187  77.754 111.917  0.00  0.00    -0.241 OA
ENDBRANCH   3  22
TORSDOF 7
ENDMDL
MODEL 6
REMARK VINA RESULT:      -4.7      3.412      5.745
REMARK  7 active torsions:
REMARK  status: ('A' for Active; 'I' for Inactive)
REMARK    1  A    between atoms: C_2  and  C_3 
REMARK    2  A    between atoms: C_3  and  O_6 
REMARK    3  A    between atoms: C_3  and  C_4 
REMARK    4  A    between atoms: C_7  and  O_6 
REMARK    5  A    between atoms: C_9  and  C_10 
REMARK    6  A    between atoms: N_15  and  C_14 
REMARK    7  A    between atoms: N_20  and  C_19 
REMARK       I    between atoms: C_22  and  N_20 
ROOT
ATOM      1  C   LIG d   1      -1.287  80.685 114.874  0.00  0.00     0.161 C 
ATOM      2  C   LIG d   1      -1.208  82.048 114.544  0.00  0.00     0.016 C 
ATOM      3  C   LIG d   1      -1.027  82.521 113.224  0.00  0.00     0.038 C 
ATOM      4  C   LIG d   1      -1.065  81.660 112.117  0.00  0.00     0.028 C 
ATOM      5  C   LIG d   1      -0.637  80.233 112.444  0.00  0.00    -0.047 C 
ATOM      6  C   LIG d   1      -1.441  79.736 113.667  0.00  0.00     0.091 C 
ENDROOT
BRANCH   1   7
ATOM      7  O   LIG d   1      -2.354  80.472 115.818  0.00  0.00    -0.368 OA
BRANCH   7   8
ATOM      8  C   LIG d   1      -1.952  80.139 117.170  0.00  0.00     0.119 C 
BRANCH   8   9
ATOM      9  C   LIG d   1      -2.916  79.052 117.685  0.00  0.00     0.028 C 
ATOM     10  C   LIG d   1      -2.197  77.725 117.985  0.00  0.00     0.006 C 
ENDBRANCH   8   9
BRANCH   8  11
ATOM     11  C   LIG d   1      -2.139  81.328 118.116  0.00  0.00     0.028 C 
ATOM     12  C   LIG d   1      -0.837  82.108 118.359  0.00  0.00     0.006 C 
ENDBRANCH   8  11
ENDBRANCH   7   8
ENDBRANCH   1   7
BRANCH   6  13
ATOM     13  N   LIG d   1      -1.024  78.379 114.106  0.00  0.00    -0.311 N 
ATOM     14  C   LIG d   1      -1.852  77.336 114.149  0.00  0.00     0.210 C 
ATOM     15  C   LIG d   1      -1.223  76.032 114.651  0.00  0.00     0.109 C 
ATOM     16  O   LIG d   1      -3.039  77.359 113.790  0.00  0.00    -0.276 OA
ATOM     17  H   LIG d   1      -0.070  78.263 114.385  0.00  0.00     0.149 HD
ENDBRANCH   6  13
BRANCH   5  18
ATOM     18  N   LIG d   1      -0.855  79.415 111.237  0.00  0.00     0.381 N 
ATOM     19  H   LIG d   1      -0.881  78.446 111.485  0.00  0.00    -0.090 HD
ATOM     20  H   LIG d   1      -0.087  79.557 110.604  0.00  0.00    -0.090 HD
ATOM     21  H   LIG d   1      -1.710  79.676 110.797  0.00  0.00    -0.090 HD
ENDBRANCH   5  18
BRANCH   3  22
ATOM     22  C   LIG d   1      -0.766  83.865 113.005  0.00  0.00     0.382 C 
ATOM     23  O   LIG d   1      -0.825  84.679 113.958  0.00  0.00    -0.241 OA
ATOM     24  O   LIG d   1      -0.516  84.281 111.857  0.00  0.00    -0.241 OA
ENDBRANCH   3  22
TORSDOF 7
ENDMDL
MODEL 7
REMARK VINA RESULT:      -4.7      3.149      4.507
REMARK  7 active torsions:
REMARK  status: ('A' for Active; 'I' for Inactive)
REMARK    1  A    between atoms: C_2  and  C_3 
REMARK    2  A    between atoms: C_3  and  O_6 
REMARK    3  A    between atoms: C_3  and  C_4 
REMARK    4  A    between atoms: C_7  and  O_6 
REMARK    5  A    between atoms: C_9  and  C_10 
REMARK    6  A    between atoms: N_15  and  C_14 
REMARK    7  A    between atoms: N_20  and  C_19 
REMARK       I    between atoms: C_22  and  N_20 
ROOT
ATOM      1  C   LIG d   1      -1.809  80.302 114.811  0.00  0.00     0.161 C 
ATOM      2  C   LIG d   1      -2.392  79.085 115.202  0.00  0.00     0.016 C 
ATOM      3  C   LIG d   1      -2.544  77.980 114.333  0.00  0.00     0.038 C 
ATOM      4  C   LIG d   1      -1.984  77.966 113.047  0.00  0.00     0.028 C 
ATOM      5  C   LIG d   1      -1.830  79.356 112.438  0.00  0.00    -0.047 C 
ATOM      6  C   LIG d   1      -1.092  80.266 113.446  0.00  0.00     0.091 C 
ENDROOT
BRANCH   1   7
ATOM      7  O   LIG d   1      -0.910  80.765 115.838  0.00  0.00    -0.368 OA
BRANCH   7   8
ATOM      8  C   LIG d   1      -1.357  81.907 116.610  0.00  0.00     0.119 C 
BRANCH   8   9
ATOM      9  C   LIG d   1      -2.106  81.367 117.843  0.00  0.00     0.028 C 
ATOM     10  C   LIG d   1      -1.226  81.353 119.105  0.00  0.00     0.006 C 
ENDBRANCH   8   9
BRANCH   8  11
ATOM     11  C   LIG d   1      -2.391  82.731 115.837  0.00  0.00     0.028 C 
ATOM     12  C   LIG d   1      -1.877  84.131 115.462  0.00  0.00     0.006 C 
ENDBRANCH   8  11
ENDBRANCH   7   8
ENDBRANCH   1   7
BRANCH   6  13
ATOM     13  N   LIG d   1      -0.974  81.667 112.963  0.00  0.00    -0.311 N 
ATOM     14  C   LIG d   1       0.094  82.133 112.318  0.00  0.00     0.210 C 
ATOM     15  C   LIG d   1       0.019  83.612 111.926  0.00  0.00     0.109 C 
ATOM     16  O   LIG d   1       1.084  81.453 112.006  0.00  0.00    -0.276 OA
ATOM     17  H   LIG d   1      -1.745  82.279 113.147  0.00  0.00     0.149 HD
ENDBRANCH   6  13
BRANCH   5  18
ATOM     18  N   LIG d   1      -1.109  79.205 111.160  0.00  0.00     0.381 N 
ATOM     19  H   LIG d   1      -0.163  79.515 111.265  0.00  0.00    -0.090 HD
ATOM     20  H   LIG d   1      -1.553  79.780 110.466  0.00  0.00    -0.090 HD
ATOM     21  H   LIG d   1      -1.123  78.251 110.871  0.00  0.00    -0.090 HD
ENDBRANCH   5  18
BRANCH   3  22
ATOM     22  C   LIG d   1      -3.299  76.889 114.734  0.00  0.00     0.382 C 
ATOM     23  O   LIG d   1      -3.035  76.306 115.813  0.00  0.00    -0.241 OA
ATOM     24  O   LIG d   1      -4.213  76.452 114.009  0.00  0.00    -0.241 OA
ENDBRANCH   3  22
TORSDOF 7
ENDMDL
MODEL 8
REMARK VINA RESULT:      -4.5      1.666      2.430
REMARK  7 active torsions:
REMARK  status: ('A' for Active; 'I' for Inactive)
REMARK    1  A    between atoms: C_2  and  C_3 
REMARK    2  A    between atoms: C_3  and  O_6 
REMARK    3  A    between atoms: C_3  and  C_4 
REMARK    4  A    between atoms: C_7  and  O_6 
REMARK    5  A    between atoms: C_9  and  C_10 
REMARK    6  A    between atoms: N_15  and  C_14 
REMARK    7  A    between atoms: N_20  and  C_19 
REMARK       I    between atoms: C_22  and  N_20 
ROOT
ATOM      1  C   LIG d   1       0.127  81.966 113.563  0.00  0.00     0.161 C 
ATOM      2  C   LIG d   1      -0.835  81.321 114.357  0.00  0.00     0.016 C 
ATOM      3  C   LIG d   1      -1.575  80.197 113.923  0.00  0.00     0.038 C 
ATOM      4  C   LIG d   1      -1.293  79.545 112.714  0.00  0.00     0.028 C 
ATOM      5  C   LIG d   1      -0.678  80.462 111.661  0.00  0.00    -0.047 C 
ATOM      6  C   LIG d   1       0.527  81.202 112.283  0.00  0.00     0.091 C 
ENDROOT
BRANCH   1   7
ATOM      7  O   LIG d   1       1.294  82.264 114.355  0.00  0.00    -0.368 OA
BRANCH   7   8
ATOM      8  C   LIG d   1       1.398  83.620 114.853  0.00  0.00     0.119 C 
BRANCH   8   9
ATOM      9  C   LIG d   1       2.729  84.202 114.338  0.00  0.00     0.028 C 
ATOM     10  C   LIG d   1       3.805  84.264 115.435  0.00  0.00     0.006 C 
ENDBRANCH   8   9
BRANCH   8  11
ATOM     11  C   LIG d   1       1.508  83.646 116.380  0.00  0.00     0.028 C 
ATOM     12  C   LIG d   1       0.138  83.697 117.075  0.00  0.00     0.006 C 
ENDBRANCH   8  11
ENDBRANCH   7   8
ENDBRANCH   1   7
BRANCH   6  13
ATOM     13  N   LIG d   1       1.136  82.183 111.346  0.00  0.00    -0.311 N 
ATOM     14  C   LIG d   1       2.448  82.285 111.142  0.00  0.00     0.210 C 
ATOM     15  C   LIG d   1       2.865  83.375 110.150  0.00  0.00     0.109 C 
ATOM     16  O   LIG d   1       3.304  81.555 111.664  0.00  0.00    -0.276 OA
ATOM     17  H   LIG d   1       0.511  82.794 110.857  0.00  0.00     0.149 HD
ENDBRANCH   6  13
BRANCH   5  18
ATOM     18  N   LIG d   1      -0.308  79.626 110.503  0.00  0.00     0.381 N 
ATOM     19  H   LIG d   1       0.481  80.025 110.036  0.00  0.00    -0.090 HD
ATOM     20  H   LIG d   1      -1.079  79.604 109.859  0.00  0.00    -0.090 HD
ATOM     21  H   LIG d   1      -0.092  78.701 110.805  0.00  0.00    -0.090 HD
ENDBRANCH   5  18
BRANCH   3  22
ATOM     22  C   LIG d   1      -2.638  79.737 114.687  0.00  0.00     0.382 C 
ATOM     23  O   LIG d   1      -2.907  78.512 114.713  0.00  0.00    -0.241 OA
ATOM     24  O   LIG d   1      -3.358  80.537 115.313  0.00  0.00    -0.241 OA
ENDBRANCH   3  22
TORSDOF 7
ENDMDL
MODEL 9
REMARK VINA RESULT:      -4.3      2.274      4.741
REMARK  7 active torsions:
REMARK  status: ('A' for Active; 'I' for Inactive)
REMARK    1  A    between atoms: C_2  and  C_3 
REMARK    2  A    between atoms: C_3  and  O_6 
REMARK    3  A    between atoms: C_3  and  C_4 
REMARK    4  A    between atoms: C_7  and  O_6 
REMARK    5  A    between atoms: C_9  and  C_10 
REMARK    6  A    between atoms: N_15  and  C_14 
REMARK    7  A    between atoms: N_20  and  C_19 
REMARK       I    between atoms: C_22  and  N_20 
ROOT
ATOM      1  C   LIG d   1       1.099  81.999 113.843  0.00  0.00     0.161 C 
ATOM      2  C   LIG d   1       1.982  81.797 112.769  0.00  0.00     0.016 C 
ATOM      3  C   LIG d   1       1.579  81.275 111.518  0.00  0.00     0.038 C 
ATOM      4  C   LIG d   1       0.228  81.060 111.205  0.00  0.00     0.028 C 
ATOM      5  C   LIG d   1      -0.639  80.773 112.426  0.00  0.00    -0.047 C 
ATOM      6  C   LIG d   1      -0.397  81.875 113.483  0.00  0.00     0.091 C 
ENDROOT
BRANCH   1   7
ATOM      7  O   LIG d   1       1.362  83.276 114.457  0.00  0.00    -0.368 OA
BRANCH   7   8
ATOM      8  C   LIG d   1       2.412  83.300 115.455  0.00  0.00     0.119 C 
BRANCH   8   9
ATOM      9  C   LIG d   1       1.758  83.636 116.809  0.00  0.00     0.028 C 
ATOM     10  C   LIG d   1       0.395  84.329 116.645  0.00  0.00     0.006 C 
ENDBRANCH   8   9
BRANCH   8  11
ATOM     11  C   LIG d   1       3.406  84.435 115.191  0.00  0.00     0.028 C 
ATOM     12  C   LIG d   1       4.358  84.680 116.372  0.00  0.00     0.006 C 
ENDBRANCH   8  11
ENDBRANCH   7   8
ENDBRANCH   1   7
BRANCH   6  13
ATOM     13  N   LIG d   1      -1.143  81.625 114.744  0.00  0.00    -0.311 N 
ATOM     14  C   LIG d   1      -2.358  82.114 114.985  0.00  0.00     0.210 C 
ATOM     15  C   LIG d   1      -2.940  81.752 116.355  0.00  0.00     0.109 C 
ATOM     16  O   LIG d   1      -3.022  82.787 114.182  0.00  0.00    -0.276 OA
ATOM     17  H   LIG d   1      -0.691  81.063 115.438  0.00  0.00     0.149 HD
ENDBRANCH   6  13
BRANCH   5  18
ATOM     18  N   LIG d   1      -2.040  80.706 111.972  0.00  0.00     0.381 N 
ATOM     19  H   LIG d   1      -2.653  80.930 112.730  0.00  0.00    -0.090 HD
ATOM     20  H   LIG d   1      -2.240  79.768 111.671  0.00  0.00    -0.090 HD
ATOM     21  H   LIG d   1      -2.185  81.342 111.218  0.00  0.00    -0.090 HD
ENDBRANCH   5  18
BRANCH   3  22
ATOM     22  C   LIG d   1       2.537  80.925 110.579  0.00  0.00     0.382 C 
ATOM     23  O   LIG d   1       3.732  81.271 110.743  0.00  0.00    -0.241 OA
ATOM     24  O   LIG d   1       2.214  80.306 109.547  0.00  0.00    -0.241 OA
ENDBRANCH   3  22
TORSDOF 7
ENDMDL
