MODEL 1
REMARK VINA RESULT:      -5.3      0.000      0.000
REMARK  7 active torsions:
REMARK  status: ('A' for Active; 'I' for Inactive)
REMARK    1  A    between atoms: C_2  and  C_3 
REMARK    2  A    between atoms: C_3  and  O_6 
REMARK    3  A    between atoms: C_3  and  C_4 
REMARK    4  A    between atoms: C_7  and  O_6 
REMARK    5  A    between atoms: C_9  and  C_10 
REMARK    6  A    between atoms: N_15  and  C_14 
REMARK    7  A    between atoms: N_20  and  C_19 
REMARK       I    between atoms: C_22  and  N_20 
ROOT
ATOM      1  C   LIG d   1       0.923  81.252 113.064  0.00  0.00     0.161 C 
ATOM      2  C   LIG d   1       1.895  82.207 112.724  0.00  0.00     0.016 C 
ATOM      3  C   LIG d   1       2.134  82.637 111.398  0.00  0.00     0.038 C 
ATOM      4  C   LIG d   1       1.308  82.248 110.333  0.00  0.00     0.028 C 
ATOM      5  C   LIG d   1       0.634  80.898 110.550  0.00  0.00    -0.047 C 
ATOM      6  C   LIG d   1      -0.063  80.900 111.930  0.00  0.00     0.091 C 
ENDROOT
BRANCH   1   7
ATOM      7  O   LIG d   1       0.204  81.683 114.237  0.00  0.00    -0.368 OA
BRANCH   7   8
ATOM      8  C   LIG d   1       0.474  80.948 115.456  0.00  0.00     0.119 C 
BRANCH   8   9
ATOM      9  C   LIG d   1      -0.882  80.503 116.038  0.00  0.00     0.028 C 
ATOM     10  C   LIG d   1      -1.017  78.972 116.107  0.00  0.00     0.006 C 
ENDBRANCH   8   9
BRANCH   8  11
ATOM     11  C   LIG d   1       1.097  81.851 116.524  0.00  0.00     0.028 C 
ATOM     12  C   LIG d   1       2.625  81.707 116.608  0.00  0.00     0.006 C 
ENDBRANCH   8  11
ENDBRANCH   7   8
ENDBRANCH   1   7
BRANCH   6  13
ATOM     13  N   LIG d   1      -0.676  79.587 112.258  0.00  0.00    -0.311 N 
ATOM     14  C   LIG d   1      -1.978  79.422 112.485  0.00  0.00     0.210 C 
ATOM     15  C   LIG d   1      -2.398  77.989 112.826  0.00  0.00     0.109 C 
ATOM     16  O   LIG d   1      -2.829  80.320 112.404  0.00  0.00    -0.276 OA
ATOM     17  H   LIG d   1      -0.061  78.798 112.313  0.00  0.00     0.149 HD
ENDBRANCH   6  13
BRANCH   5  18
ATOM     18  N   LIG d   1      -0.301  80.681 109.430  0.00  0.00     0.381 N 
ATOM     19  H   LIG d   1      -0.860  81.500 109.293  0.00  0.00    -0.090 HD
ATOM     20  H   LIG d   1      -0.913  79.918 109.660  0.00  0.00    -0.090 HD
ATOM     21  H   LIG d   1       0.205  80.472 108.598  0.00  0.00    -0.090 HD
ENDBRANCH   5  18
BRANCH   3  22
ATOM     22  C   LIG d   1       3.235  83.433 111.122  0.00  0.00     0.382 C 
ATOM     23  O   LIG d   1       3.504  83.740 109.935  0.00  0.00    -0.241 OA
ATOM     24  O   LIG d   1       3.988  83.811 112.039  0.00  0.00    -0.241 OA
ENDBRANCH   3  22
TORSDOF 7
ENDMDL
MODEL 2
REMARK VINA RESULT:      -5.2      2.803      4.207
REMARK  7 active torsions:
REMARK  status: ('A' for Active; 'I' for Inactive)
REMARK    1  A    between atoms: C_2  and  C_3 
REMARK    2  A    between atoms: C_3  and  O_6 
REMARK    3  A    between atoms: C_3  and  C_4 
REMARK    4  A    between atoms: C_7  and  O_6 
REMARK    5  A    between atoms: C_9  and  C_10 
REMARK    6  A    between atoms: N_15  and  C_14 
REMARK    7  A    between atoms: N_20  and  C_19 
REMARK       I    between atoms: C_22  and  N_20 
ROOT
ATOM      1  C   LIG d   1      -2.344  79.838 114.520  0.00  0.00     0.161 C 
ATOM      2  C   LIG d   1      -1.783  80.999 113.963  0.00  0.00     0.016 C 
ATOM      3  C   LIG d   1      -1.250  81.055 112.654  0.00  0.00     0.038 C 
ATOM      4  C   LIG d   1      -1.381  79.987 111.754  0.00  0.00     0.028 C 
ATOM      5  C   LIG d   1      -1.489  78.628 112.438  0.00  0.00    -0.047 C 
ATOM      6  C   LIG d   1      -2.597  78.695 113.514  0.00  0.00     0.091 C 
ENDROOT
BRANCH   1   7
ATOM      7  O   LIG d   1      -3.562  80.170 115.216  0.00  0.00    -0.368 OA
BRANCH   7   8
ATOM      8  C   LIG d   1      -3.464  80.268 116.658  0.00  0.00     0.119 C 
BRANCH   8   9
ATOM      9  C   LIG d   1      -2.059  79.781 117.062  0.00  0.00     0.028 C 
ATOM     10  C   LIG d   1      -1.338  80.772 117.991  0.00  0.00     0.006 C 
ENDBRANCH   8   9
BRANCH   8  11
ATOM     11  C   LIG d   1      -4.440  79.310 117.349  0.00  0.00     0.028 C 
ATOM     12  C   LIG d   1      -3.797  77.960 117.706  0.00  0.00     0.006 C 
ENDBRANCH   8  11
ENDBRANCH   7   8
ENDBRANCH   1   7
BRANCH   6  13
ATOM     13  N   LIG d   1      -2.711  77.432 114.288  0.00  0.00    -0.311 N 
ATOM     14  C   LIG d   1      -3.619  76.492 114.029  0.00  0.00     0.210 C 
ATOM     15  C   LIG d   1      -3.577  75.277 114.961  0.00  0.00     0.109 C 
ATOM     16  O   LIG d   1      -4.435  76.536 113.096  0.00  0.00    -0.276 OA
ATOM     17  H   LIG d   1      -2.068  77.300 115.044  0.00  0.00     0.149 HD
ENDBRANCH   6  13
BRANCH   5  18
ATOM     18  N   LIG d   1      -1.759  77.624 111.392  0.00  0.00     0.381 N 
ATOM     19  H   LIG d   1      -2.739  77.596 111.193  0.00  0.00    -0.090 HD
ATOM     20  H   LIG d   1      -1.480  76.719 111.730  0.00  0.00    -0.090 HD
ATOM     21  H   LIG d   1      -1.251  77.848 110.564  0.00  0.00    -0.090 HD
ENDBRANCH   5  18
BRANCH   3  22
ATOM     22  C   LIG d   1      -0.542  82.176 112.248  0.00  0.00     0.382 C 
ATOM     23  O   LIG d   1      -1.011  82.925 111.358  0.00  0.00    -0.241 OA
ATOM     24  O   LIG d   1       0.580  82.423 112.730  0.00  0.00    -0.241 OA
ENDBRANCH   3  22
TORSDOF 7
ENDMDL
MODEL 3
REMARK VINA RESULT:      -5.0      2.123      5.301
REMARK  7 active torsions:
REMARK  status: ('A' for Active; 'I' for Inactive)
REMARK    1  A    between atoms: C_2  and  C_3 
REMARK    2  A    between atoms: C_3  and  O_6 
REMARK    3  A    between atoms: C_3  and  C_4 
REMARK    4  A    between atoms: C_7  and  O_6 
REMARK    5  A    between atoms: C_9  and  C_10 
REMARK    6  A    between atoms: N_15  and  C_14 
REMARK    7  A    between atoms: N_20  and  C_19 
REMARK       I    between atoms: C_22  and  N_20 
ROOT
ATOM      1  C   LIG d   1      -2.102  80.388 114.015  0.00  0.00     0.161 C 
ATOM      2  C   LIG d   1      -2.655  79.125 114.284  0.00  0.00     0.016 C 
ATOM      3  C   LIG d   1      -2.650  78.059 113.354  0.00  0.00     0.038 C 
ATOM      4  C   LIG d   1      -1.952  78.138 112.140  0.00  0.00     0.028 C 
ATOM      5  C   LIG d   1      -1.810  79.562 111.614  0.00  0.00    -0.047 C 
ATOM      6  C   LIG d   1      -1.239  80.457 112.738  0.00  0.00     0.091 C 
ENDROOT
BRANCH   1   7
ATOM      7  O   LIG d   1      -1.347  80.844 115.155  0.00  0.00    -0.368 OA
BRANCH   7   8
ATOM      8  C   LIG d   1      -0.050  80.228 115.348  0.00  0.00     0.119 C 
BRANCH   8   9
ATOM      9  C   LIG d   1      -0.019  79.654 116.778  0.00  0.00     0.028 C 
ATOM     10  C   LIG d   1      -0.138  78.120 116.797  0.00  0.00     0.006 C 
ENDBRANCH   8   9
BRANCH   8  11
ATOM     11  C   LIG d   1       1.073  81.269 115.304  0.00  0.00     0.028 C 
ATOM     12  C   LIG d   1       2.308  80.847 116.116  0.00  0.00     0.006 C 
ENDBRANCH   8  11
ENDBRANCH   7   8
ENDBRANCH   1   7
BRANCH   6  13
ATOM     13  N   LIG d   1      -1.147  81.885 112.334  0.00  0.00    -0.311 N 
ATOM     14  C   LIG d   1      -0.056  82.425 111.792  0.00  0.00     0.210 C 
ATOM     15  C   LIG d   1      -0.167  83.918 111.468  0.00  0.00     0.109 C 
ATOM     16  O   LIG d   1       0.981  81.802 111.520  0.00  0.00    -0.276 OA
ATOM     17  H   LIG d   1      -1.954  82.456 112.490  0.00  0.00     0.149 HD
ENDBRANCH   6  13
BRANCH   5  18
ATOM     18  N   LIG d   1      -0.946  79.512 110.419  0.00  0.00     0.381 N 
ATOM     19  H   LIG d   1      -1.461  79.144 109.645  0.00  0.00    -0.090 HD
ATOM     20  H   LIG d   1      -0.172  78.900 110.603  0.00  0.00    -0.090 HD
ATOM     21  H   LIG d   1      -0.613  80.426 110.201  0.00  0.00    -0.090 HD
ENDBRANCH   5  18
BRANCH   3  22
ATOM     22  C   LIG d   1      -3.382  76.912 113.620  0.00  0.00     0.382 C 
ATOM     23  O   LIG d   1      -2.987  76.104 114.495  0.00  0.00    -0.241 OA
ATOM     24  O   LIG d   1      -4.410  76.653 112.965  0.00  0.00    -0.241 OA
ENDBRANCH   3  22
TORSDOF 7
ENDMDL
MODEL 4
REMARK VINA RESULT:      -5.0      1.760      4.893
REMARK  7 active torsions:
REMARK  status: ('A' for Active; 'I' for Inactive)
REMARK    1  A    between atoms: C_2  and  C_3 
REMARK    2  A    between atoms: C_3  and  O_6 
REMARK    3  A    between atoms: C_3  and  C_4 
REMARK    4  A    between atoms: C_7  and  O_6 
REMARK    5  A    between atoms: C_9  and  C_10 
REMARK    6  A    between atoms: N_15  and  C_14 
REMARK    7  A    between atoms: N_20  and  C_19 
REMARK       I    between atoms: C_22  and  N_20 
ROOT
ATOM      1  C   LIG d   1       0.930  81.626 113.742  0.00  0.00     0.161 C 
ATOM      2  C   LIG d   1      -0.151  80.895 114.262  0.00  0.00     0.016 C 
ATOM      3  C   LIG d   1      -1.110  80.242 113.453  0.00  0.00     0.038 C 
ATOM      4  C   LIG d   1      -0.966  80.150 112.061  0.00  0.00     0.028 C 
ATOM      5  C   LIG d   1      -0.166  81.299 111.457  0.00  0.00    -0.047 C 
ATOM      6  C   LIG d   1       1.166  81.443 112.228  0.00  0.00     0.091 C 
ENDROOT
BRANCH   1   7
ATOM      7  O   LIG d   1       2.130  81.314 114.478  0.00  0.00    -0.368 OA
BRANCH   7   8
ATOM      8  C   LIG d   1       1.979  81.169 115.911  0.00  0.00     0.119 C 
BRANCH   8   9
ATOM      9  C   LIG d   1       2.446  82.485 116.562  0.00  0.00     0.028 C 
ATOM     10  C   LIG d   1       1.422  83.039 117.567  0.00  0.00     0.006 C 
ENDBRANCH   8   9
BRANCH   8  11
ATOM     11  C   LIG d   1       2.914  80.089 116.464  0.00  0.00     0.028 C 
ATOM     12  C   LIG d   1       2.163  78.977 117.213  0.00  0.00     0.006 C 
ENDBRANCH   8  11
ENDBRANCH   7   8
ENDBRANCH   1   7
BRANCH   6  13
ATOM     13  N   LIG d   1       1.973  82.599 111.756  0.00  0.00    -0.311 N 
ATOM     14  C   LIG d   1       2.923  82.499 110.829  0.00  0.00     0.210 C 
ATOM     15  C   LIG d   1       3.648  83.809 110.502  0.00  0.00     0.109 C 
ATOM     16  O   LIG d   1       3.214  81.457 110.222  0.00  0.00    -0.276 OA
ATOM     17  H   LIG d   1       1.782  83.489 112.173  0.00  0.00     0.149 HD
ENDBRANCH   6  13
BRANCH   5  18
ATOM     18  N   LIG d   1       0.025  81.005 110.024  0.00  0.00     0.381 N 
ATOM     19  H   LIG d   1       0.884  80.510 109.891  0.00  0.00    -0.090 HD
ATOM     20  H   LIG d   1       0.079  81.872 109.519  0.00  0.00    -0.090 HD
ATOM     21  H   LIG d   1      -0.737  80.460 109.683  0.00  0.00    -0.090 HD
ENDBRANCH   5  18
BRANCH   3  22
ATOM     22  C   LIG d   1      -2.249  79.707 114.034  0.00  0.00     0.382 C 
ATOM     23  O   LIG d   1      -3.176  80.465 114.409  0.00  0.00    -0.241 OA
ATOM     24  O   LIG d   1      -2.343  78.480 114.228  0.00  0.00    -0.241 OA
ENDBRANCH   3  22
TORSDOF 7
ENDMDL
MODEL 5
REMARK VINA RESULT:      -4.9      3.556      5.850
REMARK  7 active torsions:
REMARK  status: ('A' for Active; 'I' for Inactive)
REMARK    1  A    between atoms: C_2  and  C_3 
REMARK    2  A    between atoms: C_3  and  O_6 
REMARK    3  A    between atoms: C_3  and  C_4 
REMARK    4  A    between atoms: C_7  and  O_6 
REMARK    5  A    between atoms: C_9  and  C_10 
REMARK    6  A    between atoms: N_15  and  C_14 
REMARK    7  A    between atoms: N_20  and  C_19 
REMARK       I    between atoms: C_22  and  N_20 
ROOT
ATOM      1  C   LIG d   1      -2.322  79.377 115.896  0.00  0.00     0.161 C 
ATOM      2  C   LIG d   1      -2.691  79.965 114.675  0.00  0.00     0.016 C 
ATOM      3  C   LIG d   1      -1.776  80.626 113.823  0.00  0.00     0.038 C 
ATOM      4  C   LIG d   1      -0.394  80.611 114.063  0.00  0.00     0.028 C 
ATOM      5  C   LIG d   1      -0.038  80.465 115.539  0.00  0.00    -0.047 C 
ATOM      6  C   LIG d   1      -0.801  79.254 116.122  0.00  0.00     0.091 C 
ENDROOT
BRANCH   1   7
ATOM      7  O   LIG d   1      -2.954  78.088 116.028  0.00  0.00    -0.368 OA
BRANCH   7   8
ATOM      8  C   LIG d   1      -2.894  77.227 114.864  0.00  0.00     0.119 C 
BRANCH   8   9
ATOM      9  C   LIG d   1      -4.303  76.642 114.648  0.00  0.00     0.028 C 
ATOM     10  C   LIG d   1      -4.345  75.119 114.855  0.00  0.00     0.006 C 
ENDBRANCH   8   9
BRANCH   8  11
ATOM     11  C   LIG d   1      -1.987  76.018 115.112  0.00  0.00     0.028 C 
ATOM     12  C   LIG d   1      -0.628  76.137 114.403  0.00  0.00     0.006 C 
ENDBRANCH   8  11
ENDBRANCH   7   8
ENDBRANCH   1   7
BRANCH   6  13
ATOM     13  N   LIG d   1      -0.575  79.090 117.582  0.00  0.00    -0.311 N 
ATOM     14  C   LIG d   1       0.342  78.271 118.094  0.00  0.00     0.210 C 
ATOM     15  C   LIG d   1       0.396  78.238 119.625  0.00  0.00     0.109 C 
ATOM     16  O   LIG d   1       1.136  77.592 117.427  0.00  0.00    -0.276 OA
ATOM     17  H   LIG d   1      -1.155  79.627 118.196  0.00  0.00     0.149 HD
ENDBRANCH   6  13
BRANCH   5  18
ATOM     18  N   LIG d   1       1.427  80.325 115.632  0.00  0.00     0.381 N 
ATOM     19  H   LIG d   1       1.864  80.830 114.887  0.00  0.00    -0.090 HD
ATOM     20  H   LIG d   1       1.668  79.354 115.539  0.00  0.00    -0.090 HD
ATOM     21  H   LIG d   1       1.748  80.672 116.510  0.00  0.00    -0.090 HD
ENDBRANCH   5  18
BRANCH   3  22
ATOM     22  C   LIG d   1      -2.248  81.346 112.735  0.00  0.00     0.382 C 
ATOM     23  O   LIG d   1      -1.466  82.076 112.080  0.00  0.00    -0.241 OA
ATOM     24  O   LIG d   1      -3.454  81.308 112.427  0.00  0.00    -0.241 OA
ENDBRANCH   3  22
TORSDOF 7
ENDMDL
MODEL 6
REMARK VINA RESULT:      -4.8      3.043      5.131
REMARK  7 active torsions:
REMARK  status: ('A' for Active; 'I' for Inactive)
REMARK    1  A    between atoms: C_2  and  C_3 
REMARK    2  A    between atoms: C_3  and  O_6 
REMARK    3  A    between atoms: C_3  and  C_4 
REMARK    4  A    between atoms: C_7  and  O_6 
REMARK    5  A    between atoms: C_9  and  C_10 
REMARK    6  A    between atoms: N_15  and  C_14 
REMARK    7  A    between atoms: N_20  and  C_19 
REMARK       I    between atoms: C_22  and  N_20 
ROOT
ATOM      1  C   LIG d   1      -2.402  80.310 114.715  0.00  0.00     0.161 C 
ATOM      2  C   LIG d   1      -2.149  80.974 113.503  0.00  0.00     0.016 C 
ATOM      3  C   LIG d   1      -0.856  81.363 113.084  0.00  0.00     0.038 C 
ATOM      4  C   LIG d   1       0.297  80.977 113.784  0.00  0.00     0.028 C 
ATOM      5  C   LIG d   1       0.054  80.743 115.271  0.00  0.00    -0.047 C 
ATOM      6  C   LIG d   1      -1.145  79.783 115.438  0.00  0.00     0.091 C 
ENDROOT
BRANCH   1   7
ATOM      7  O   LIG d   1      -3.342  79.240 114.498  0.00  0.00    -0.368 OA
BRANCH   7   8
ATOM      8  C   LIG d   1      -2.773  77.947 114.177  0.00  0.00     0.119 C 
BRANCH   8   9
ATOM      9  C   LIG d   1      -3.168  77.615 112.725  0.00  0.00     0.028 C 
ATOM     10  C   LIG d   1      -2.068  77.990 111.717  0.00  0.00     0.006 C 
ENDBRANCH   8   9
BRANCH   8  11
ATOM     11  C   LIG d   1      -3.394  76.837 115.030  0.00  0.00     0.028 C 
ATOM     12  C   LIG d   1      -2.433  75.661 115.270  0.00  0.00     0.006 C 
ENDBRANCH   8  11
ENDBRANCH   7   8
ENDBRANCH   1   7
BRANCH   6  13
ATOM     13  N   LIG d   1      -1.504  79.567 116.864  0.00  0.00    -0.311 N 
ATOM     14  C   LIG d   1      -1.051  78.545 117.588  0.00  0.00     0.210 C 
ATOM     15  C   LIG d   1      -1.560  78.499 119.032  0.00  0.00     0.109 C 
ATOM     16  O   LIG d   1      -0.250  77.690 117.180  0.00  0.00    -0.276 OA
ATOM     17  H   LIG d   1      -2.125  80.231 117.284  0.00  0.00     0.149 HD
ENDBRANCH   6  13
BRANCH   5  18
ATOM     18  N   LIG d   1       1.304  80.214 115.849  0.00  0.00     0.381 N 
ATOM     19  H   LIG d   1       1.629  80.827 116.570  0.00  0.00    -0.090 HD
ATOM     20  H   LIG d   1       2.003  80.174 115.129  0.00  0.00    -0.090 HD
ATOM     21  H   LIG d   1       1.148  79.304 116.223  0.00  0.00    -0.090 HD
ENDBRANCH   5  18
BRANCH   3  22
ATOM     22  C   LIG d   1      -0.710  82.181 111.974  0.00  0.00     0.382 C 
ATOM     23  O   LIG d   1      -0.455  81.678 110.854  0.00  0.00    -0.241 OA
ATOM     24  O   LIG d   1      -0.786  83.419 112.087  0.00  0.00    -0.241 OA
ENDBRANCH   3  22
TORSDOF 7
ENDMDL
MODEL 7
REMARK VINA RESULT:      -4.6      2.760      3.792
REMARK  7 active torsions:
REMARK  status: ('A' for Active; 'I' for Inactive)
REMARK    1  A    between atoms: C_2  and  C_3 
REMARK    2  A    between atoms: C_3  and  O_6 
REMARK    3  A    between atoms: C_3  and  C_4 
REMARK    4  A    between atoms: C_7  and  O_6 
REMARK    5  A    between atoms: C_9  and  C_10 
REMARK    6  A    between atoms: N_15  and  C_14 
REMARK    7  A    between atoms: N_20  and  C_19 
REMARK       I    between atoms: C_22  and  N_20 
ROOT
ATOM      1  C   LIG d   1      -1.507  79.789 114.656  0.00  0.00     0.161 C 
ATOM      2  C   LIG d   1      -1.025  80.947 114.023  0.00  0.00     0.016 C 
ATOM      3  C   LIG d   1      -1.025  81.125 112.621  0.00  0.00     0.038 C 
ATOM      4  C   LIG d   1      -1.650  80.213 111.758  0.00  0.00     0.028 C 
ATOM      5  C   LIG d   1      -1.700  78.792 112.311  0.00  0.00    -0.047 C 
ATOM      6  C   LIG d   1      -2.294  78.830 113.738  0.00  0.00     0.091 C 
ENDROOT
BRANCH   1   7
ATOM      7  O   LIG d   1      -2.303  80.152 115.801  0.00  0.00    -0.368 OA
BRANCH   7   8
ATOM      8  C   LIG d   1      -1.814  79.699 117.087  0.00  0.00     0.119 C 
BRANCH   8   9
ATOM      9  C   LIG d   1      -2.923  78.840 117.727  0.00  0.00     0.028 C 
ATOM     10  C   LIG d   1      -2.400  77.482 118.225  0.00  0.00     0.006 C 
ENDBRANCH   8   9
BRANCH   8  11
ATOM     11  C   LIG d   1      -1.604  80.872 118.049  0.00  0.00     0.028 C 
ATOM     12  C   LIG d   1      -2.814  81.116 118.965  0.00  0.00     0.006 C 
ENDBRANCH   8  11
ENDBRANCH   7   8
ENDBRANCH   1   7
BRANCH   6  13
ATOM     13  N   LIG d   1      -2.301  77.492 114.385  0.00  0.00    -0.311 N 
ATOM     14  C   LIG d   1      -3.361  76.686 114.390  0.00  0.00     0.210 C 
ATOM     15  C   LIG d   1      -3.161  75.360 115.131  0.00  0.00     0.109 C 
ATOM     16  O   LIG d   1      -4.438  76.930 113.825  0.00  0.00    -0.276 OA
ATOM     17  H   LIG d   1      -1.458  77.201 114.840  0.00  0.00     0.149 HD
ENDBRANCH   6  13
BRANCH   5  18
ATOM     18  N   LIG d   1      -2.498  77.977 111.375  0.00  0.00     0.381 N 
ATOM     19  H   LIG d   1      -2.003  77.872 110.511  0.00  0.00    -0.090 HD
ATOM     20  H   LIG d   1      -3.363  78.452 111.187  0.00  0.00    -0.090 HD
ATOM     21  H   LIG d   1      -2.680  77.082 111.772  0.00  0.00    -0.090 HD
ENDBRANCH   5  18
BRANCH   3  22
ATOM     22  C   LIG d   1      -0.359  82.207 112.065  0.00  0.00     0.382 C 
ATOM     23  O   LIG d   1       0.715  82.610 112.573  0.00  0.00    -0.241 OA
ATOM     24  O   LIG d   1      -0.842  82.812 111.090  0.00  0.00    -0.241 OA
ENDBRANCH   3  22
TORSDOF 7
ENDMDL
MODEL 8
REMARK VINA RESULT:      -4.5      1.700      2.449
REMARK  7 active torsions:
REMARK  status: ('A' for Active; 'I' for Inactive)
REMARK    1  A    between atoms: C_2  and  C_3 
REMARK    2  A    between atoms: C_3  and  O_6 
REMARK    3  A    between atoms: C_3  and  C_4 
REMARK    4  A    between atoms: C_7  and  O_6 
REMARK    5  A    between atoms: C_9  and  C_10 
REMARK    6  A    between atoms: N_15  and  C_14 
REMARK    7  A    between atoms: N_20  and  C_19 
REMARK       I    between atoms: C_22  and  N_20 
ROOT
ATOM      1  C   LIG d   1       0.837  81.108 114.169  0.00  0.00     0.161 C 
ATOM      2  C   LIG d   1       1.644  81.635 113.147  0.00  0.00     0.016 C 
ATOM      3  C   LIG d   1       1.249  81.683 111.790  0.00  0.00     0.038 C 
ATOM      4  C   LIG d   1      -0.050  81.342 111.383  0.00  0.00     0.028 C 
ATOM      5  C   LIG d   1      -0.727  80.331 112.303  0.00  0.00    -0.047 C 
ATOM      6  C   LIG d   1      -0.626  80.833 113.761  0.00  0.00     0.091 C 
ENDROOT
BRANCH   1   7
ATOM      7  O   LIG d   1       0.882  81.971 115.322  0.00  0.00    -0.368 OA
BRANCH   7   8
ATOM      8  C   LIG d   1       1.995  81.767 116.227  0.00  0.00     0.119 C 
BRANCH   8   9
ATOM      9  C   LIG d   1       1.871  80.341 116.799  0.00  0.00     0.028 C 
ATOM     10  C   LIG d   1       3.238  79.654 116.962  0.00  0.00     0.006 C 
ENDBRANCH   8   9
BRANCH   8  11
ATOM     11  C   LIG d   1       1.905  82.699 117.440  0.00  0.00     0.028 C 
ATOM     12  C   LIG d   1       0.497  82.741 118.056  0.00  0.00     0.006 C 
ENDBRANCH   8  11
ENDBRANCH   7   8
ENDBRANCH   1   7
BRANCH   6  13
ATOM     13  N   LIG d   1      -1.190  79.863 114.735  0.00  0.00    -0.311 N 
ATOM     14  C   LIG d   1      -2.455  79.890 115.149  0.00  0.00     0.210 C 
ATOM     15  C   LIG d   1      -2.825  78.810 116.171  0.00  0.00     0.109 C 
ATOM     16  O   LIG d   1      -3.315  80.686 114.742  0.00  0.00    -0.276 OA
ATOM     17  H   LIG d   1      -0.569  79.163 115.093  0.00  0.00     0.149 HD
ENDBRANCH   6  13
BRANCH   5  18
ATOM     18  N   LIG d   1      -2.119  80.171 111.841  0.00  0.00     0.381 N 
ATOM     19  H   LIG d   1      -2.663  79.728 112.554  0.00  0.00    -0.090 HD
ATOM     20  H   LIG d   1      -2.125  79.582 111.027  0.00  0.00    -0.090 HD
ATOM     21  H   LIG d   1      -2.509  81.061 111.620  0.00  0.00    -0.090 HD
ENDBRANCH   5  18
BRANCH   3  22
ATOM     22  C   LIG d   1       2.172  82.038 110.818  0.00  0.00     0.382 C 
ATOM     23  O   LIG d   1       3.400  81.974 111.066  0.00  0.00    -0.241 OA
ATOM     24  O   LIG d   1       1.791  82.464 109.711  0.00  0.00    -0.241 OA
ENDBRANCH   3  22
TORSDOF 7
ENDMDL
MODEL 9
REMARK VINA RESULT:      -4.4      3.301      5.812
REMARK  7 active torsions:
REMARK  status: ('A' for Active; 'I' for Inactive)
REMARK    1  A    between atoms: C_2  and  C_3 
REMARK    2  A    between atoms: C_3  and  O_6 
REMARK    3  A    between atoms: C_3  and  C_4 
REMARK    4  A    between atoms: C_7  and  O_6 
REMARK    5  A    between atoms: C_9  and  C_10 
REMARK    6  A    between atoms: N_15  and  C_14 
REMARK    7  A    between atoms: N_20  and  C_19 
REMARK       I    between atoms: C_22  and  N_20 
ROOT
ATOM      1  C   LIG d   1      -0.777  79.581 115.941  0.00  0.00     0.161 C 
ATOM      2  C   LIG d   1      -1.738  79.489 114.920  0.00  0.00     0.016 C 
ATOM      3  C   LIG d   1      -1.610  80.136 113.670  0.00  0.00     0.038 C 
ATOM      4  C   LIG d   1      -0.433  80.801 113.297  0.00  0.00     0.028 C 
ATOM      5  C   LIG d   1       0.357  81.346 114.482  0.00  0.00    -0.047 C 
ATOM      6  C   LIG d   1       0.565  80.211 115.511  0.00  0.00     0.091 C 
ENDROOT
BRANCH   1   7
ATOM      7  O   LIG d   1      -0.556  78.281 116.523  0.00  0.00    -0.368 OA
BRANCH   7   8
ATOM      8  C   LIG d   1      -1.644  77.333 116.397  0.00  0.00     0.119 C 
BRANCH   8   9
ATOM      9  C   LIG d   1      -2.124  76.988 117.820  0.00  0.00     0.028 C 
ATOM     10  C   LIG d   1      -3.202  77.961 118.327  0.00  0.00     0.006 C 
ENDBRANCH   8   9
BRANCH   8  11
ATOM     11  C   LIG d   1      -1.162  76.008 115.799  0.00  0.00     0.028 C 
ATOM     12  C   LIG d   1      -2.278  74.956 115.704  0.00  0.00     0.006 C 
ENDBRANCH   8  11
ENDBRANCH   7   8
ENDBRANCH   1   7
BRANCH   6  13
ATOM     13  N   LIG d   1       1.256  80.680 116.740  0.00  0.00    -0.311 N 
ATOM     14  C   LIG d   1       2.576  80.618 116.907  0.00  0.00     0.210 C 
ATOM     15  C   LIG d   1       3.081  81.136 118.258  0.00  0.00     0.109 C 
ATOM     16  O   LIG d   1       3.379  80.213 116.054  0.00  0.00    -0.276 OA
ATOM     17  H   LIG d   1       0.683  81.052 117.472  0.00  0.00     0.149 HD
ENDBRANCH   6  13
BRANCH   5  18
ATOM     18  N   LIG d   1       1.624  81.892 113.960  0.00  0.00     0.381 N 
ATOM     19  H   LIG d   1       1.434  82.637 113.321  0.00  0.00    -0.090 HD
ATOM     20  H   LIG d   1       2.111  81.166 113.463  0.00  0.00    -0.090 HD
ATOM     21  H   LIG d   1       2.188  82.225 114.712  0.00  0.00    -0.090 HD
ENDBRANCH   5  18
BRANCH   3  22
ATOM     22  C   LIG d   1      -2.684  80.155 112.793  0.00  0.00     0.382 C 
ATOM     23  O   LIG d   1      -3.235  81.243 112.501  0.00  0.00    -0.241 OA
ATOM     24  O   LIG d   1      -3.135  79.093 112.324  0.00  0.00    -0.241 OA
ENDBRANCH   3  22
TORSDOF 7
ENDMDL
