MODEL 1
REMARK VINA RESULT:      -5.3      0.000      0.000
REMARK  7 active torsions:
REMARK  status: ('A' for Active; 'I' for Inactive)
REMARK    1  A    between atoms: C_2  and  C_3 
REMARK    2  A    between atoms: C_3  and  O_6 
REMARK    3  A    between atoms: C_3  and  C_4 
REMARK    4  A    between atoms: C_7  and  O_6 
REMARK    5  A    between atoms: C_9  and  C_10 
REMARK    6  A    between atoms: N_15  and  C_14 
REMARK    7  A    between atoms: N_20  and  C_19 
REMARK       I    between atoms: C_22  and  N_20 
ROOT
ATOM      1  C   LIG d   1      -2.142  81.482 111.998  0.00  0.00     0.161 C 
ATOM      2  C   LIG d   1      -2.836  80.338 112.426  0.00  0.00     0.016 C 
ATOM      3  C   LIG d   1      -2.461  79.022 112.072  0.00  0.00     0.038 C 
ATOM      4  C   LIG d   1      -1.269  78.750 111.384  0.00  0.00     0.028 C 
ATOM      5  C   LIG d   1      -0.804  79.902 110.499  0.00  0.00    -0.047 C 
ATOM      6  C   LIG d   1      -0.775  81.200 111.339  0.00  0.00     0.091 C 
ENDROOT
BRANCH   1   7
ATOM      7  O   LIG d   1      -1.988  82.400 113.098  0.00  0.00    -0.368 OA
BRANCH   7   8
ATOM      8  C   LIG d   1      -0.898  82.123 114.012  0.00  0.00     0.119 C 
BRANCH   8   9
ATOM      9  C   LIG d   1      -1.505  81.950 115.417  0.00  0.00     0.028 C 
ATOM     10  C   LIG d   1      -2.977  82.390 115.479  0.00  0.00     0.006 C 
ENDBRANCH   8   9
BRANCH   8  11
ATOM     11  C   LIG d   1       0.052  83.320 114.125  0.00  0.00     0.028 C 
ATOM     12  C   LIG d   1      -0.467  84.564 113.388  0.00  0.00     0.006 C 
ENDBRANCH   8  11
ENDBRANCH   7   8
ENDBRANCH   1   7
BRANCH   6  13
ATOM     13  N   LIG d   1      -0.412  82.391 110.529  0.00  0.00    -0.311 N 
ATOM     14  C   LIG d   1       0.835  82.844 110.409  0.00  0.00     0.210 C 
ATOM     15  C   LIG d   1       0.986  84.099 109.543  0.00  0.00     0.109 C 
ATOM     16  O   LIG d   1       1.833  82.308 110.911  0.00  0.00    -0.276 OA
ATOM     17  H   LIG d   1      -1.158  82.869 110.061  0.00  0.00     0.149 HD
ENDBRANCH   6  13
BRANCH   5  18
ATOM     18  N   LIG d   1       0.516  79.539 109.951  0.00  0.00     0.381 N 
ATOM     19  H   LIG d   1       0.821  80.242 109.307  0.00  0.00    -0.090 HD
ATOM     20  H   LIG d   1       0.433  78.670 109.453  0.00  0.00    -0.090 HD
ATOM     21  H   LIG d   1       1.178  79.445 110.690  0.00  0.00    -0.090 HD
ENDBRANCH   5  18
BRANCH   3  22
ATOM     22  C   LIG d   1      -3.304  77.962 112.372  0.00  0.00     0.382 C 
ATOM     23  O   LIG d   1      -2.912  77.046 113.135  0.00  0.00    -0.241 OA
ATOM     24  O   LIG d   1      -4.434  77.889 111.855  0.00  0.00    -0.241 OA
ENDBRANCH   3  22
TORSDOF 7
ENDMDL
MODEL 2
REMARK VINA RESULT:      -5.3      2.610      5.421
REMARK  7 active torsions:
REMARK  status: ('A' for Active; 'I' for Inactive)
REMARK    1  A    between atoms: C_2  and  C_3 
REMARK    2  A    between atoms: C_3  and  O_6 
REMARK    3  A    between atoms: C_3  and  C_4 
REMARK    4  A    between atoms: C_7  and  O_6 
REMARK    5  A    between atoms: C_9  and  C_10 
REMARK    6  A    between atoms: N_15  and  C_14 
REMARK    7  A    between atoms: N_20  and  C_19 
REMARK       I    between atoms: C_22  and  N_20 
ROOT
ATOM      1  C   LIG d   1      -2.416  80.481 114.301  0.00  0.00     0.161 C 
ATOM      2  C   LIG d   1      -2.009  81.680 113.693  0.00  0.00     0.016 C 
ATOM      3  C   LIG d   1      -1.460  81.746 112.392  0.00  0.00     0.038 C 
ATOM      4  C   LIG d   1      -1.422  80.628 111.546  0.00  0.00     0.028 C 
ATOM      5  C   LIG d   1      -1.355  79.302 112.297  0.00  0.00    -0.047 C 
ATOM      6  C   LIG d   1      -2.485  79.266 113.352  0.00  0.00     0.091 C 
ENDROOT
BRANCH   1   7
ATOM      7  O   LIG d   1      -3.683  80.673 114.961  0.00  0.00    -0.368 OA
BRANCH   7   8
ATOM      8  C   LIG d   1      -3.640  80.769 116.406  0.00  0.00     0.119 C 
BRANCH   8   9
ATOM      9  C   LIG d   1      -4.366  79.534 116.974  0.00  0.00     0.028 C 
ATOM     10  C   LIG d   1      -3.397  78.524 117.610  0.00  0.00     0.006 C 
ENDBRANCH   8   9
BRANCH   8  11
ATOM     11  C   LIG d   1      -4.439  81.976 116.908  0.00  0.00     0.028 C 
ATOM     12  C   LIG d   1      -4.105  82.349 118.361  0.00  0.00     0.006 C 
ENDBRANCH   8  11
ENDBRANCH   7   8
ENDBRANCH   1   7
BRANCH   6  13
ATOM     13  N   LIG d   1      -2.439  78.038 114.188  0.00  0.00    -0.311 N 
ATOM     14  C   LIG d   1      -3.140  76.939 113.915  0.00  0.00     0.210 C 
ATOM     15  C   LIG d   1      -2.964  75.794 114.918  0.00  0.00     0.109 C 
ATOM     16  O   LIG d   1      -3.866  76.792 112.920  0.00  0.00    -0.276 OA
ATOM     17  H   LIG d   1      -1.852  78.060 114.998  0.00  0.00     0.149 HD
ENDBRANCH   6  13
BRANCH   5  18
ATOM     18  N   LIG d   1      -1.460  78.220 111.300  0.00  0.00     0.381 N 
ATOM     19  H   LIG d   1      -1.738  78.598 110.417  0.00  0.00    -0.090 HD
ATOM     20  H   LIG d   1      -2.164  77.569 111.600  0.00  0.00    -0.090 HD
ATOM     21  H   LIG d   1      -0.584  77.754 111.210  0.00  0.00    -0.090 HD
ENDBRANCH   5  18
BRANCH   3  22
ATOM     22  C   LIG d   1      -0.906  82.934 111.939  0.00  0.00     0.382 C 
ATOM     23  O   LIG d   1      -1.040  83.270 110.738  0.00  0.00    -0.241 OA
ATOM     24  O   LIG d   1      -0.237  83.651 112.706  0.00  0.00    -0.241 OA
ENDBRANCH   3  22
TORSDOF 7
ENDMDL
MODEL 3
REMARK VINA RESULT:      -5.2      2.553      5.393
REMARK  7 active torsions:
REMARK  status: ('A' for Active; 'I' for Inactive)
REMARK    1  A    between atoms: C_2  and  C_3 
REMARK    2  A    between atoms: C_3  and  O_6 
REMARK    3  A    between atoms: C_3  and  C_4 
REMARK    4  A    between atoms: C_7  and  O_6 
REMARK    5  A    between atoms: C_9  and  C_10 
REMARK    6  A    between atoms: N_15  and  C_14 
REMARK    7  A    between atoms: N_20  and  C_19 
REMARK       I    between atoms: C_22  and  N_20 
ROOT
ATOM      1  C   LIG d   1      -2.476  80.314 114.389  0.00  0.00     0.161 C 
ATOM      2  C   LIG d   1      -2.097  81.530 113.797  0.00  0.00     0.016 C 
ATOM      3  C   LIG d   1      -1.544  81.625 112.499  0.00  0.00     0.038 C 
ATOM      4  C   LIG d   1      -1.472  80.518 111.641  0.00  0.00     0.028 C 
ATOM      5  C   LIG d   1      -1.374  79.186 112.378  0.00  0.00    -0.047 C 
ATOM      6  C   LIG d   1      -2.507  79.108 113.426  0.00  0.00     0.091 C 
ENDROOT
BRANCH   1   7
ATOM      7  O   LIG d   1      -3.750  80.466 115.044  0.00  0.00    -0.368 OA
BRANCH   7   8
ATOM      8  C   LIG d   1      -3.723  80.496 116.493  0.00  0.00     0.119 C 
BRANCH   8   9
ATOM      9  C   LIG d   1      -3.694  81.975 116.924  0.00  0.00     0.028 C 
ATOM     10  C   LIG d   1      -2.638  82.249 118.009  0.00  0.00     0.006 C 
ENDBRANCH   8   9
BRANCH   8  11
ATOM     11  C   LIG d   1      -2.427  79.889 117.038  0.00  0.00     0.028 C 
ATOM     12  C   LIG d   1      -2.651  78.544 117.747  0.00  0.00     0.006 C 
ENDBRANCH   8  11
ENDBRANCH   7   8
ENDBRANCH   1   7
BRANCH   6  13
ATOM     13  N   LIG d   1      -2.434  77.873 114.250  0.00  0.00    -0.311 N 
ATOM     14  C   LIG d   1      -3.148  76.778 113.994  0.00  0.00     0.210 C 
ATOM     15  C   LIG d   1      -2.937  75.624 114.979  0.00  0.00     0.109 C 
ATOM     16  O   LIG d   1      -3.910  76.641 113.026  0.00  0.00    -0.276 OA
ATOM     17  H   LIG d   1      -1.816  77.886 115.038  0.00  0.00     0.149 HD
ENDBRANCH   6  13
BRANCH   5  18
ATOM     18  N   LIG d   1      -1.445  78.112 111.369  0.00  0.00     0.381 N 
ATOM     19  H   LIG d   1      -1.114  77.254 111.764  0.00  0.00    -0.090 HD
ATOM     20  H   LIG d   1      -0.851  78.353 110.595  0.00  0.00    -0.090 HD
ATOM     21  H   LIG d   1      -2.384  78.001 111.055  0.00  0.00    -0.090 HD
ENDBRANCH   5  18
BRANCH   3  22
ATOM     22  C   LIG d   1      -1.019  82.832 112.062  0.00  0.00     0.382 C 
ATOM     23  O   LIG d   1      -0.496  83.622 112.884  0.00  0.00    -0.241 OA
ATOM     24  O   LIG d   1      -1.101  83.160 110.863  0.00  0.00    -0.241 OA
ENDBRANCH   3  22
TORSDOF 7
ENDMDL
MODEL 4
REMARK VINA RESULT:      -5.1      1.992      3.954
REMARK  7 active torsions:
REMARK  status: ('A' for Active; 'I' for Inactive)
REMARK    1  A    between atoms: C_2  and  C_3 
REMARK    2  A    between atoms: C_3  and  O_6 
REMARK    3  A    between atoms: C_3  and  C_4 
REMARK    4  A    between atoms: C_7  and  O_6 
REMARK    5  A    between atoms: C_9  and  C_10 
REMARK    6  A    between atoms: N_15  and  C_14 
REMARK    7  A    between atoms: N_20  and  C_19 
REMARK       I    between atoms: C_22  and  N_20 
ROOT
ATOM      1  C   LIG d   1      -0.095  80.978 111.455  0.00  0.00     0.161 C 
ATOM      2  C   LIG d   1      -0.904  79.842 111.282  0.00  0.00     0.016 C 
ATOM      3  C   LIG d   1      -1.681  79.275 112.319  0.00  0.00     0.038 C 
ATOM      4  C   LIG d   1      -1.819  79.899 113.568  0.00  0.00     0.028 C 
ATOM      5  C   LIG d   1      -0.624  80.768 113.946  0.00  0.00    -0.047 C 
ATOM      6  C   LIG d   1      -0.319  81.736 112.780  0.00  0.00     0.091 C 
ENDROOT
BRANCH   1   7
ATOM      7  O   LIG d   1      -0.258  81.869 110.334  0.00  0.00    -0.368 OA
BRANCH   7   8
ATOM      8  C   LIG d   1       0.880  81.990 109.446  0.00  0.00     0.119 C 
BRANCH   8   9
ATOM      9  C   LIG d   1       1.987  81.061 109.981  0.00  0.00     0.028 C 
ATOM     10  C   LIG d   1       3.343  81.775 110.107  0.00  0.00     0.006 C 
ENDBRANCH   8   9
BRANCH   8  11
ATOM     11  C   LIG d   1       1.477  83.400 109.494  0.00  0.00     0.028 C 
ATOM     12  C   LIG d   1       0.412  84.491 109.694  0.00  0.00     0.006 C 
ENDBRANCH   8  11
ENDBRANCH   7   8
ENDBRANCH   1   7
BRANCH   6  13
ATOM     13  N   LIG d   1       0.888  82.566 113.033  0.00  0.00    -0.311 N 
ATOM     14  C   LIG d   1       0.841  83.877 113.264  0.00  0.00     0.210 C 
ATOM     15  C   LIG d   1       2.203  84.544 113.480  0.00  0.00     0.109 C 
ATOM     16  O   LIG d   1      -0.201  84.544 113.342  0.00  0.00    -0.276 OA
ATOM     17  H   LIG d   1       1.773  82.099 113.019  0.00  0.00     0.149 HD
ENDBRANCH   6  13
BRANCH   5  18
ATOM     18  N   LIG d   1      -0.960  81.464 115.203  0.00  0.00     0.381 N 
ATOM     19  H   LIG d   1      -1.937  81.365 115.394  0.00  0.00    -0.090 HD
ATOM     20  H   LIG d   1      -0.757  82.443 115.096  0.00  0.00    -0.090 HD
ATOM     21  H   LIG d   1      -0.426  81.087 115.954  0.00  0.00    -0.090 HD
ENDBRANCH   5  18
BRANCH   3  22
ATOM     22  C   LIG d   1      -2.298  78.049 112.123  0.00  0.00     0.382 C 
ATOM     23  O   LIG d   1      -3.113  77.901 111.181  0.00  0.00    -0.241 OA
ATOM     24  O   LIG d   1      -2.084  77.102 112.903  0.00  0.00    -0.241 OA
ENDBRANCH   3  22
TORSDOF 7
ENDMDL
MODEL 5
REMARK VINA RESULT:      -4.9      2.418      5.016
REMARK  7 active torsions:
REMARK  status: ('A' for Active; 'I' for Inactive)
REMARK    1  A    between atoms: C_2  and  C_3 
REMARK    2  A    between atoms: C_3  and  O_6 
REMARK    3  A    between atoms: C_3  and  C_4 
REMARK    4  A    between atoms: C_7  and  O_6 
REMARK    5  A    between atoms: C_9  and  C_10 
REMARK    6  A    between atoms: N_15  and  C_14 
REMARK    7  A    between atoms: N_20  and  C_19 
REMARK       I    between atoms: C_22  and  N_20 
ROOT
ATOM      1  C   LIG d   1      -0.515  80.316 114.385  0.00  0.00     0.161 C 
ATOM      2  C   LIG d   1      -0.646  81.599 113.827  0.00  0.00     0.016 C 
ATOM      3  C   LIG d   1      -1.128  81.833 112.518  0.00  0.00     0.038 C 
ATOM      4  C   LIG d   1      -1.657  80.802 111.728  0.00  0.00     0.028 C 
ATOM      5  C   LIG d   1      -1.079  79.429 112.056  0.00  0.00    -0.047 C 
ATOM      6  C   LIG d   1      -1.192  79.188 113.579  0.00  0.00     0.091 C 
ENDROOT
BRANCH   1   7
ATOM      7  O   LIG d   1      -1.000  80.322 115.742  0.00  0.00    -0.368 OA
BRANCH   7   8
ATOM      8  C   LIG d   1      -1.234  81.626 116.330  0.00  0.00     0.119 C 
BRANCH   8   9
ATOM      9  C   LIG d   1      -0.267  81.777 117.520  0.00  0.00     0.028 C 
ATOM     10  C   LIG d   1      -0.948  82.391 118.755  0.00  0.00     0.006 C 
ENDBRANCH   8   9
BRANCH   8  11
ATOM     11  C   LIG d   1      -2.638  81.721 116.933  0.00  0.00     0.028 C 
ATOM     12  C   LIG d   1      -3.678  82.265 115.940  0.00  0.00     0.006 C 
ENDBRANCH   8  11
ENDBRANCH   7   8
ENDBRANCH   1   7
BRANCH   6  13
ATOM     13  N   LIG d   1      -0.573  77.903 113.996  0.00  0.00    -0.311 N 
ATOM     14  C   LIG d   1      -1.236  76.749 114.036  0.00  0.00     0.210 C 
ATOM     15  C   LIG d   1      -0.415  75.547 114.515  0.00  0.00     0.109 C 
ATOM     16  O   LIG d   1      -2.417  76.599 113.688  0.00  0.00    -0.276 OA
ATOM     17  H   LIG d   1       0.391  77.927 114.265  0.00  0.00     0.149 HD
ENDBRANCH   6  13
BRANCH   5  18
ATOM     18  N   LIG d   1      -1.816  78.432 111.256  0.00  0.00     0.381 N 
ATOM     19  H   LIG d   1      -2.226  78.875 110.458  0.00  0.00    -0.090 HD
ATOM     20  H   LIG d   1      -2.555  78.047 111.818  0.00  0.00    -0.090 HD
ATOM     21  H   LIG d   1      -1.199  77.707 110.963  0.00  0.00    -0.090 HD
ENDBRANCH   5  18
BRANCH   3  22
ATOM     22  C   LIG d   1      -1.046  83.105 111.973  0.00  0.00     0.382 C 
ATOM     23  O   LIG d   1      -0.990  84.107 112.725  0.00  0.00    -0.241 OA
ATOM     24  O   LIG d   1      -1.071  83.265 110.738  0.00  0.00    -0.241 OA
ENDBRANCH   3  22
TORSDOF 7
ENDMDL
MODEL 6
REMARK VINA RESULT:      -4.3      3.886      5.179
REMARK  7 active torsions:
REMARK  status: ('A' for Active; 'I' for Inactive)
REMARK    1  A    between atoms: C_2  and  C_3 
REMARK    2  A    between atoms: C_3  and  O_6 
REMARK    3  A    between atoms: C_3  and  C_4 
REMARK    4  A    between atoms: C_7  and  O_6 
REMARK    5  A    between atoms: C_9  and  C_10 
REMARK    6  A    between atoms: N_15  and  C_14 
REMARK    7  A    between atoms: N_20  and  C_19 
REMARK       I    between atoms: C_22  and  N_20 
ROOT
ATOM      1  C   LIG d   1      -0.783  78.657 114.655  0.00  0.00     0.161 C 
ATOM      2  C   LIG d   1      -2.025  78.427 114.039  0.00  0.00     0.016 C 
ATOM      3  C   LIG d   1      -2.630  77.152 113.961  0.00  0.00     0.038 C 
ATOM      4  C   LIG d   1      -2.102  76.038 114.630  0.00  0.00     0.028 C 
ATOM      5  C   LIG d   1      -0.593  76.116 114.838  0.00  0.00    -0.047 C 
ATOM      6  C   LIG d   1      -0.245  77.475 115.487  0.00  0.00     0.091 C 
ENDROOT
BRANCH   1   7
ATOM      7  O   LIG d   1      -0.852  79.849 115.463  0.00  0.00    -0.368 OA
BRANCH   7   8
ATOM      8  C   LIG d   1      -0.487  81.087 114.805  0.00  0.00     0.119 C 
BRANCH   8   9
ATOM      9  C   LIG d   1       0.848  81.559 115.413  0.00  0.00     0.028 C 
ATOM     10  C   LIG d   1       1.249  82.963 114.930  0.00  0.00     0.006 C 
ENDBRANCH   8   9
BRANCH   8  11
ATOM     11  C   LIG d   1      -1.491  82.201 115.117  0.00  0.00     0.028 C 
ATOM     12  C   LIG d   1      -2.768  81.679 115.794  0.00  0.00     0.006 C 
ENDBRANCH   8  11
ENDBRANCH   7   8
ENDBRANCH   1   7
BRANCH   6  13
ATOM     13  N   LIG d   1       1.220  77.668 115.648  0.00  0.00    -0.311 N 
ATOM     14  C   LIG d   1       1.884  77.346 116.757  0.00  0.00     0.210 C 
ATOM     15  C   LIG d   1       3.386  77.646 116.720  0.00  0.00     0.109 C 
ATOM     16  O   LIG d   1       1.378  76.812 117.755  0.00  0.00    -0.276 OA
ATOM     17  H   LIG d   1       1.715  78.067 114.875  0.00  0.00     0.149 HD
ENDBRANCH   6  13
BRANCH   5  18
ATOM     18  N   LIG d   1      -0.197  74.961 115.666  0.00  0.00     0.381 N 
ATOM     19  H   LIG d   1       0.720  74.658 115.408  0.00  0.00    -0.090 HD
ATOM     20  H   LIG d   1      -0.838  74.206 115.498  0.00  0.00    -0.090 HD
ATOM     21  H   LIG d   1      -0.213  75.212 116.630  0.00  0.00    -0.090 HD
ENDBRANCH   5  18
BRANCH   3  22
ATOM     22  C   LIG d   1      -3.757  76.973 113.173  0.00  0.00     0.382 C 
ATOM     23  O   LIG d   1      -4.440  75.927 113.283  0.00  0.00    -0.241 OA
ATOM     24  O   LIG d   1      -4.075  77.826 112.322  0.00  0.00    -0.241 OA
ENDBRANCH   3  22
TORSDOF 7
ENDMDL
MODEL 7
REMARK VINA RESULT:      -4.2      2.432      4.721
REMARK  7 active torsions:
REMARK  status: ('A' for Active; 'I' for Inactive)
REMARK    1  A    between atoms: C_2  and  C_3 
REMARK    2  A    between atoms: C_3  and  O_6 
REMARK    3  A    between atoms: C_3  and  C_4 
REMARK    4  A    between atoms: C_7  and  O_6 
REMARK    5  A    between atoms: C_9  and  C_10 
REMARK    6  A    between atoms: N_15  and  C_14 
REMARK    7  A    between atoms: N_20  and  C_19 
REMARK       I    between atoms: C_22  and  N_20 
ROOT
ATOM      1  C   LIG d   1      -0.901  79.952 114.085  0.00  0.00     0.161 C 
ATOM      2  C   LIG d   1      -1.782  80.071 115.173  0.00  0.00     0.016 C 
ATOM      3  C   LIG d   1      -2.372  81.294 115.566  0.00  0.00     0.038 C 
ATOM      4  C   LIG d   1      -2.239  82.462 114.800  0.00  0.00     0.028 C 
ATOM      5  C   LIG d   1      -0.954  82.504 113.979  0.00  0.00    -0.047 C 
ATOM      6  C   LIG d   1      -0.832  81.193 113.170  0.00  0.00     0.091 C 
ENDROOT
BRANCH   1   7
ATOM      7  O   LIG d   1      -1.233  78.779 113.315  0.00  0.00    -0.368 OA
BRANCH   7   8
ATOM      8  C   LIG d   1      -2.283  77.939 113.853  0.00  0.00     0.119 C 
BRANCH   8   9
ATOM      9  C   LIG d   1      -1.657  76.570 114.184  0.00  0.00     0.028 C 
ATOM     10  C   LIG d   1      -1.814  76.197 115.667  0.00  0.00     0.006 C 
ENDBRANCH   8   9
BRANCH   8  11
ATOM     11  C   LIG d   1      -3.358  77.649 112.801  0.00  0.00     0.028 C 
ATOM     12  C   LIG d   1      -3.134  78.421 111.491  0.00  0.00     0.006 C 
ENDBRANCH   8  11
ENDBRANCH   7   8
ENDBRANCH   1   7
BRANCH   6  13
ATOM     13  N   LIG d   1       0.439  81.116 112.404  0.00  0.00    -0.311 N 
ATOM     14  C   LIG d   1       0.555  81.505 111.136  0.00  0.00     0.210 C 
ATOM     15  C   LIG d   1       1.950  81.321 110.528  0.00  0.00     0.109 C 
ATOM     16  O   LIG d   1      -0.356  82.014 110.466  0.00  0.00    -0.276 OA
ATOM     17  H   LIG d   1       1.237  80.744 112.881  0.00  0.00     0.149 HD
ENDBRANCH   6  13
BRANCH   5  18
ATOM     18  N   LIG d   1      -1.010  83.706 113.126  0.00  0.00     0.381 N 
ATOM     19  H   LIG d   1      -1.752  84.304 113.431  0.00  0.00    -0.090 HD
ATOM     20  H   LIG d   1      -1.201  83.425 112.180  0.00  0.00    -0.090 HD
ATOM     21  H   LIG d   1      -0.142  84.194 113.167  0.00  0.00    -0.090 HD
ENDBRANCH   5  18
BRANCH   3  22
ATOM     22  C   LIG d   1      -3.073  81.367 116.760  0.00  0.00     0.382 C 
ATOM     23  O   LIG d   1      -3.809  80.414 117.114  0.00  0.00    -0.241 OA
ATOM     24  O   LIG d   1      -3.014  82.391 117.466  0.00  0.00    -0.241 OA
ENDBRANCH   3  22
TORSDOF 7
ENDMDL
MODEL 8
REMARK VINA RESULT:      -4.1      2.718      5.554
REMARK  7 active torsions:
REMARK  status: ('A' for Active; 'I' for Inactive)
REMARK    1  A    between atoms: C_2  and  C_3 
REMARK    2  A    between atoms: C_3  and  O_6 
REMARK    3  A    between atoms: C_3  and  C_4 
REMARK    4  A    between atoms: C_7  and  O_6 
REMARK    5  A    between atoms: C_9  and  C_10 
REMARK    6  A    between atoms: N_15  and  C_14 
REMARK    7  A    between atoms: N_20  and  C_19 
REMARK       I    between atoms: C_22  and  N_20 
ROOT
ATOM      1  C   LIG d   1      -2.806  80.435 113.437  0.00  0.00     0.161 C 
ATOM      2  C   LIG d   1      -2.038  80.132 112.300  0.00  0.00     0.016 C 
ATOM      3  C   LIG d   1      -0.734  80.634 112.086  0.00  0.00     0.038 C 
ATOM      4  C   LIG d   1      -0.047  81.357 113.073  0.00  0.00     0.028 C 
ATOM      5  C   LIG d   1      -0.969  82.111 114.024  0.00  0.00    -0.047 C 
ATOM      6  C   LIG d   1      -2.031  81.132 114.574  0.00  0.00     0.091 C 
ENDROOT
BRANCH   1   7
ATOM      7  O   LIG d   1      -3.448  79.241 113.926  0.00  0.00    -0.368 OA
BRANCH   7   8
ATOM      8  C   LIG d   1      -2.737  77.998 113.702  0.00  0.00     0.119 C 
BRANCH   8   9
ATOM      9  C   LIG d   1      -3.789  76.908 113.417  0.00  0.00     0.028 C 
ATOM     10  C   LIG d   1      -3.759  75.778 114.459  0.00  0.00     0.006 C 
ENDBRANCH   8   9
BRANCH   8  11
ATOM     11  C   LIG d   1      -2.008  77.537 114.967  0.00  0.00     0.028 C 
ATOM     12  C   LIG d   1      -0.479  77.569 114.818  0.00  0.00     0.006 C 
ENDBRANCH   8  11
ENDBRANCH   7   8
ENDBRANCH   1   7
BRANCH   6  13
ATOM     13  N   LIG d   1      -3.026  81.807 115.449  0.00  0.00    -0.311 N 
ATOM     14  C   LIG d   1      -3.384  81.344 116.645  0.00  0.00     0.210 C 
ATOM     15  C   LIG d   1      -4.440  82.182 117.373  0.00  0.00     0.109 C 
ATOM     16  O   LIG d   1      -2.905  80.336 117.186  0.00  0.00    -0.276 OA
ATOM     17  H   LIG d   1      -3.442  82.649 115.101  0.00  0.00     0.149 HD
ENDBRANCH   6  13
BRANCH   5  18
ATOM     18  N   LIG d   1      -0.130  82.707 115.081  0.00  0.00     0.381 N 
ATOM     19  H   LIG d   1       0.188  83.611 114.792  0.00  0.00    -0.090 HD
ATOM     20  H   LIG d   1       0.674  82.122 115.225  0.00  0.00    -0.090 HD
ATOM     21  H   LIG d   1      -0.650  82.785 115.927  0.00  0.00    -0.090 HD
ENDBRANCH   5  18
BRANCH   3  22
ATOM     22  C   LIG d   1      -0.119  80.447 110.858  0.00  0.00     0.382 C 
ATOM     23  O   LIG d   1       1.033  80.902 110.658  0.00  0.00    -0.241 OA
ATOM     24  O   LIG d   1      -0.719  79.868 109.932  0.00  0.00    -0.241 OA
ENDBRANCH   3  22
TORSDOF 7
ENDMDL
MODEL 9
REMARK VINA RESULT:      -4.1      1.852      2.200
REMARK  7 active torsions:
REMARK  status: ('A' for Active; 'I' for Inactive)
REMARK    1  A    between atoms: C_2  and  C_3 
REMARK    2  A    between atoms: C_3  and  O_6 
REMARK    3  A    between atoms: C_3  and  C_4 
REMARK    4  A    between atoms: C_7  and  O_6 
REMARK    5  A    between atoms: C_9  and  C_10 
REMARK    6  A    between atoms: N_15  and  C_14 
REMARK    7  A    between atoms: N_20  and  C_19 
REMARK       I    between atoms: C_22  and  N_20 
ROOT
ATOM      1  C   LIG d   1      -1.643  81.457 113.465  0.00  0.00     0.161 C 
ATOM      2  C   LIG d   1      -2.451  80.322 113.291  0.00  0.00     0.016 C 
ATOM      3  C   LIG d   1      -2.224  79.352 112.287  0.00  0.00     0.038 C 
ATOM      4  C   LIG d   1      -1.077  79.374 111.481  0.00  0.00     0.028 C 
ATOM      5  C   LIG d   1      -0.502  80.773 111.284  0.00  0.00    -0.047 C 
ATOM      6  C   LIG d   1      -0.323  81.441 112.667  0.00  0.00     0.091 C 
ENDROOT
BRANCH   1   7
ATOM      7  O   LIG d   1      -1.378  81.658 114.868  0.00  0.00    -0.368 OA
BRANCH   7   8
ATOM      8  C   LIG d   1      -0.183  81.024 115.387  0.00  0.00     0.119 C 
BRANCH   8   9
ATOM      9  C   LIG d   1      -0.630  79.814 116.230  0.00  0.00     0.028 C 
ATOM     10  C   LIG d   1      -0.251  78.473 115.578  0.00  0.00     0.006 C 
ENDBRANCH   8   9
BRANCH   8  11
ATOM     11  C   LIG d   1       0.558  81.945 116.361  0.00  0.00     0.028 C 
ATOM     12  C   LIG d   1       2.024  82.179 115.963  0.00  0.00     0.006 C 
ENDBRANCH   8  11
ENDBRANCH   7   8
ENDBRANCH   1   7
BRANCH   6  13
ATOM     13  N   LIG d   1       0.156  82.843 112.561  0.00  0.00    -0.311 N 
ATOM     14  C   LIG d   1       1.445  83.176 112.512  0.00  0.00     0.210 C 
ATOM     15  C   LIG d   1       1.722  84.680 112.423  0.00  0.00     0.109 C 
ATOM     16  O   LIG d   1       2.385  82.366 112.500  0.00  0.00    -0.276 OA
ATOM     17  H   LIG d   1      -0.540  83.562 112.533  0.00  0.00     0.149 HD
ENDBRANCH   6  13
BRANCH   5  18
ATOM     18  N   LIG d   1       0.765  80.633 110.541  0.00  0.00     0.381 N 
ATOM     19  H   LIG d   1       1.538  80.754 111.165  0.00  0.00    -0.090 HD
ATOM     20  H   LIG d   1       0.811  81.351 109.840  0.00  0.00    -0.090 HD
ATOM     21  H   LIG d   1       0.812  79.735 110.112  0.00  0.00    -0.090 HD
ENDBRANCH   5  18
BRANCH   3  22
ATOM     22  C   LIG d   1      -3.173  78.367 112.056  0.00  0.00     0.382 C 
ATOM     23  O   LIG d   1      -3.858  77.921 113.008  0.00  0.00    -0.241 OA
ATOM     24  O   LIG d   1      -3.321  77.887 110.917  0.00  0.00    -0.241 OA
ENDBRANCH   3  22
TORSDOF 7
ENDMDL
