MODEL 1
REMARK VINA RESULT:      -5.3      0.000      0.000
REMARK  7 active torsions:
REMARK  status: ('A' for Active; 'I' for Inactive)
REMARK    1  A    between atoms: C_2  and  C_3 
REMARK    2  A    between atoms: C_3  and  O_6 
REMARK    3  A    between atoms: C_3  and  C_4 
REMARK    4  A    between atoms: C_7  and  O_6 
REMARK    5  A    between atoms: C_9  and  C_10 
REMARK    6  A    between atoms: N_15  and  C_14 
REMARK    7  A    between atoms: N_20  and  C_19 
REMARK       I    between atoms: C_22  and  N_20 
ROOT
ATOM      1  C   LIG d   1      -1.324  82.667 112.312  0.00  0.00     0.161 C 
ATOM      2  C   LIG d   1      -2.225  81.709 112.806  0.00  0.00     0.016 C 
ATOM      3  C   LIG d   1      -2.154  80.334 112.482  0.00  0.00     0.038 C 
ATOM      4  C   LIG d   1      -1.080  79.798 111.757  0.00  0.00     0.028 C 
ATOM      5  C   LIG d   1      -0.423  80.802 110.815  0.00  0.00    -0.047 C 
ATOM      6  C   LIG d   1      -0.081  82.083 111.608  0.00  0.00     0.091 C 
ENDROOT
BRANCH   1   7
ATOM      7  O   LIG d   1      -0.928  83.558 113.372  0.00  0.00    -0.368 OA
BRANCH   7   8
ATOM      8  C   LIG d   1      -0.374  82.934 114.556  0.00  0.00     0.119 C 
BRANCH   8   9
ATOM      9  C   LIG d   1      -1.129  83.499 115.775  0.00  0.00     0.028 C 
ATOM     10  C   LIG d   1      -1.893  82.410 116.548  0.00  0.00     0.006 C 
ENDBRANCH   8   9
BRANCH   8  11
ATOM     11  C   LIG d   1       1.090  83.335 114.765  0.00  0.00     0.028 C 
ATOM     12  C   LIG d   1       1.459  84.640 114.042  0.00  0.00     0.006 C 
ENDBRANCH   8  11
ENDBRANCH   7   8
ENDBRANCH   1   7
BRANCH   6  13
ATOM     13  N   LIG d   1       0.489  83.150 110.744  0.00  0.00    -0.311 N 
ATOM     14  C   LIG d   1       1.796  83.359 110.602  0.00  0.00     0.210 C 
ATOM     15  C   LIG d   1       2.169  84.523 109.679  0.00  0.00     0.109 C 
ATOM     16  O   LIG d   1       2.684  82.670 111.128  0.00  0.00    -0.276 OA
ATOM     17  H   LIG d   1      -0.160  83.736 110.255  0.00  0.00     0.149 HD
ENDBRANCH   6  13
BRANCH   5  18
ATOM     18  N   LIG d   1       0.763  80.151 110.227  0.00  0.00     0.381 N 
ATOM     19  H   LIG d   1       0.718  79.164 110.380  0.00  0.00    -0.090 HD
ATOM     20  H   LIG d   1       1.586  80.504 110.682  0.00  0.00    -0.090 HD
ATOM     21  H   LIG d   1       0.807  80.342 109.250  0.00  0.00    -0.090 HD
ENDBRANCH   5  18
BRANCH   3  22
ATOM     22  C   LIG d   1      -3.187  79.487 112.852  0.00  0.00     0.382 C 
ATOM     23  O   LIG d   1      -3.628  79.511 114.027  0.00  0.00    -0.241 OA
ATOM     24  O   LIG d   1      -3.655  78.668 112.039  0.00  0.00    -0.241 OA
ENDBRANCH   3  22
TORSDOF 7
ENDMDL
MODEL 2
REMARK VINA RESULT:      -5.1      1.645      4.992
REMARK  7 active torsions:
REMARK  status: ('A' for Active; 'I' for Inactive)
REMARK    1  A    between atoms: C_2  and  C_3 
REMARK    2  A    between atoms: C_3  and  O_6 
REMARK    3  A    between atoms: C_3  and  C_4 
REMARK    4  A    between atoms: C_7  and  O_6 
REMARK    5  A    between atoms: C_9  and  C_10 
REMARK    6  A    between atoms: N_15  and  C_14 
REMARK    7  A    between atoms: N_20  and  C_19 
REMARK       I    between atoms: C_22  and  N_20 
ROOT
ATOM      1  C   LIG d   1       0.313  81.263 113.196  0.00  0.00     0.161 C 
ATOM      2  C   LIG d   1       1.174  82.204 112.607  0.00  0.00     0.016 C 
ATOM      3  C   LIG d   1       1.312  82.364 111.209  0.00  0.00     0.038 C 
ATOM      4  C   LIG d   1       0.480  81.693 110.300  0.00  0.00     0.028 C 
ATOM      5  C   LIG d   1      -0.051  80.366 110.831  0.00  0.00    -0.047 C 
ATOM      6  C   LIG d   1      -0.683  80.599 112.222  0.00  0.00     0.091 C 
ENDROOT
BRANCH   1   7
ATOM      7  O   LIG d   1      -0.391  81.868 114.298  0.00  0.00    -0.368 OA
BRANCH   7   8
ATOM      8  C   LIG d   1      -1.453  82.789 113.947  0.00  0.00     0.119 C 
BRANCH   8   9
ATOM      9  C   LIG d   1      -1.041  84.185 114.452  0.00  0.00     0.028 C 
ATOM     10  C   LIG d   1      -0.072  84.116 115.644  0.00  0.00     0.006 C 
ENDBRANCH   8   9
BRANCH   8  11
ATOM     11  C   LIG d   1      -2.749  82.454 114.693  0.00  0.00     0.028 C 
ATOM     12  C   LIG d   1      -2.545  81.412 115.803  0.00  0.00     0.006 C 
ENDBRANCH   8  11
ENDBRANCH   7   8
ENDBRANCH   1   7
BRANCH   6  13
ATOM     13  N   LIG d   1      -1.152  79.337 112.850  0.00  0.00    -0.311 N 
ATOM     14  C   LIG d   1      -2.439  79.036 113.018  0.00  0.00     0.210 C 
ATOM     15  C   LIG d   1      -2.704  77.693 113.706  0.00  0.00     0.109 C 
ATOM     16  O   LIG d   1      -3.386  79.738 112.634  0.00  0.00    -0.276 OA
ATOM     17  H   LIG d   1      -0.451  78.695 113.163  0.00  0.00     0.149 HD
ENDBRANCH   6  13
BRANCH   5  18
ATOM     18  N   LIG d   1      -1.010  79.842 109.841  0.00  0.00     0.381 N 
ATOM     19  H   LIG d   1      -1.748  80.502 109.701  0.00  0.00    -0.090 HD
ATOM     20  H   LIG d   1      -1.411  78.991 110.196  0.00  0.00    -0.090 HD
ATOM     21  H   LIG d   1      -0.545  79.663 108.978  0.00  0.00    -0.090 HD
ENDBRANCH   5  18
BRANCH   3  22
ATOM     22  C   LIG d   1       2.318  83.175 110.706  0.00  0.00     0.382 C 
ATOM     23  O   LIG d   1       2.066  83.991 109.786  0.00  0.00    -0.241 OA
ATOM     24  O   LIG d   1       3.485  83.070 111.130  0.00  0.00    -0.241 OA
ENDBRANCH   3  22
TORSDOF 7
ENDMDL
MODEL 3
REMARK VINA RESULT:      -4.7      1.283      1.660
REMARK  7 active torsions:
REMARK  status: ('A' for Active; 'I' for Inactive)
REMARK    1  A    between atoms: C_2  and  C_3 
REMARK    2  A    between atoms: C_3  and  O_6 
REMARK    3  A    between atoms: C_3  and  C_4 
REMARK    4  A    between atoms: C_7  and  O_6 
REMARK    5  A    between atoms: C_9  and  C_10 
REMARK    6  A    between atoms: N_15  and  C_14 
REMARK    7  A    between atoms: N_20  and  C_19 
REMARK       I    between atoms: C_22  and  N_20 
ROOT
ATOM      1  C   LIG d   1      -1.854  81.847 112.839  0.00  0.00     0.161 C 
ATOM      2  C   LIG d   1      -2.556  80.814 113.483  0.00  0.00     0.016 C 
ATOM      3  C   LIG d   1      -2.504  79.463 113.070  0.00  0.00     0.038 C 
ATOM      4  C   LIG d   1      -1.621  79.026 112.070  0.00  0.00     0.028 C 
ATOM      5  C   LIG d   1      -1.269  80.111 111.058  0.00  0.00    -0.047 C 
ATOM      6  C   LIG d   1      -0.800  81.373 111.817  0.00  0.00     0.091 C 
ENDROOT
BRANCH   1   7
ATOM      7  O   LIG d   1      -1.247  82.711 113.820  0.00  0.00    -0.368 OA
BRANCH   7   8
ATOM      8  C   LIG d   1      -0.928  82.102 115.096  0.00  0.00     0.119 C 
BRANCH   8   9
ATOM      9  C   LIG d   1      -1.378  83.078 116.200  0.00  0.00     0.028 C 
ATOM     10  C   LIG d   1      -2.037  82.357 117.388  0.00  0.00     0.006 C 
ENDBRANCH   8   9
BRANCH   8  11
ATOM     11  C   LIG d   1       0.585  81.951 115.279  0.00  0.00     0.028 C 
ATOM     12  C   LIG d   1       0.992  80.543 115.741  0.00  0.00     0.006 C 
ENDBRANCH   8  11
ENDBRANCH   7   8
ENDBRANCH   1   7
BRANCH   6  13
ATOM     13  N   LIG d   1      -0.516  82.510 110.903  0.00  0.00    -0.311 N 
ATOM     14  C   LIG d   1       0.699  82.787 110.433  0.00  0.00     0.210 C 
ATOM     15  C   LIG d   1       0.775  84.017 109.522  0.00  0.00     0.109 C 
ATOM     16  O   LIG d   1       1.715  82.113 110.658  0.00  0.00    -0.276 OA
ATOM     17  H   LIG d   1      -1.289  83.091 110.644  0.00  0.00     0.149 HD
ENDBRANCH   6  13
BRANCH   5  18
ATOM     18  N   LIG d   1      -0.239  79.561 110.156  0.00  0.00     0.381 N 
ATOM     19  H   LIG d   1      -0.199  80.104 109.317  0.00  0.00    -0.090 HD
ATOM     20  H   LIG d   1      -0.490  78.619 109.912  0.00  0.00    -0.090 HD
ATOM     21  H   LIG d   1       0.649  79.569 110.609  0.00  0.00    -0.090 HD
ENDBRANCH   5  18
BRANCH   3  22
ATOM     22  C   LIG d   1      -3.371  78.539 113.633  0.00  0.00     0.382 C 
ATOM     23  O   LIG d   1      -3.774  77.563 112.954  0.00  0.00    -0.241 OA
ATOM     24  O   LIG d   1      -3.789  78.692 114.796  0.00  0.00    -0.241 OA
ENDBRANCH   3  22
TORSDOF 7
ENDMDL
MODEL 4
REMARK VINA RESULT:      -4.7      2.347      5.178
REMARK  7 active torsions:
REMARK  status: ('A' for Active; 'I' for Inactive)
REMARK    1  A    between atoms: C_2  and  C_3 
REMARK    2  A    between atoms: C_3  and  O_6 
REMARK    3  A    between atoms: C_3  and  C_4 
REMARK    4  A    between atoms: C_7  and  O_6 
REMARK    5  A    between atoms: C_9  and  C_10 
REMARK    6  A    between atoms: N_15  and  C_14 
REMARK    7  A    between atoms: N_20  and  C_19 
REMARK       I    between atoms: C_22  and  N_20 
ROOT
ATOM      1  C   LIG d   1      -1.948  80.596 113.918  0.00  0.00     0.161 C 
ATOM      2  C   LIG d   1      -1.823  81.969 113.649  0.00  0.00     0.016 C 
ATOM      3  C   LIG d   1      -1.314  82.481 112.434  0.00  0.00     0.038 C 
ATOM      4  C   LIG d   1      -1.034  81.650 111.339  0.00  0.00     0.028 C 
ATOM      5  C   LIG d   1      -0.667  80.224 111.739  0.00  0.00    -0.047 C 
ATOM      6  C   LIG d   1      -1.752  79.677 112.694  0.00  0.00     0.091 C 
ENDROOT
BRANCH   1   7
ATOM      7  O   LIG d   1      -3.221  80.334 114.542  0.00  0.00    -0.368 OA
BRANCH   7   8
ATOM      8  C   LIG d   1      -3.176  79.644 115.815  0.00  0.00     0.119 C 
BRANCH   8   9
ATOM      9  C   LIG d   1      -4.200  80.323 116.746  0.00  0.00     0.028 C 
ATOM     10  C   LIG d   1      -4.203  81.853 116.597  0.00  0.00     0.006 C 
ENDBRANCH   8   9
BRANCH   8  11
ATOM     11  C   LIG d   1      -1.819  79.828 116.502  0.00  0.00     0.028 C 
ATOM     12  C   LIG d   1      -1.166  78.494 116.898  0.00  0.00     0.006 C 
ENDBRANCH   8  11
ENDBRANCH   7   8
ENDBRANCH   1   7
BRANCH   6  13
ATOM     13  N   LIG d   1      -1.428  78.317 113.200  0.00  0.00    -0.311 N 
ATOM     14  C   LIG d   1      -2.332  77.349 113.330  0.00  0.00     0.210 C 
ATOM     15  C   LIG d   1      -1.791  76.029 113.889  0.00  0.00     0.109 C 
ATOM     16  O   LIG d   1      -3.525  77.446 113.006  0.00  0.00    -0.276 OA
ATOM     17  H   LIG d   1      -0.476  78.141 113.458  0.00  0.00     0.149 HD
ENDBRANCH   6  13
BRANCH   5  18
ATOM     18  N   LIG d   1      -0.536  79.434 110.500  0.00  0.00     0.381 N 
ATOM     19  H   LIG d   1      -1.183  79.768 109.814  0.00  0.00    -0.090 HD
ATOM     20  H   LIG d   1      -0.757  78.475 110.702  0.00  0.00    -0.090 HD
ATOM     21  H   LIG d   1       0.395  79.501 110.150  0.00  0.00    -0.090 HD
ENDBRANCH   5  18
BRANCH   3  22
ATOM     22  C   LIG d   1      -1.042  83.836 112.318  0.00  0.00     0.382 C 
ATOM     23  O   LIG d   1      -1.018  84.559 113.343  0.00  0.00    -0.241 OA
ATOM     24  O   LIG d   1      -0.864  84.351 111.199  0.00  0.00    -0.241 OA
ENDBRANCH   3  22
TORSDOF 7
ENDMDL
MODEL 5
REMARK VINA RESULT:      -4.4      3.946      6.351
REMARK  7 active torsions:
REMARK  status: ('A' for Active; 'I' for Inactive)
REMARK    1  A    between atoms: C_2  and  C_3 
REMARK    2  A    between atoms: C_3  and  O_6 
REMARK    3  A    between atoms: C_3  and  C_4 
REMARK    4  A    between atoms: C_7  and  O_6 
REMARK    5  A    between atoms: C_9  and  C_10 
REMARK    6  A    between atoms: N_15  and  C_14 
REMARK    7  A    between atoms: N_20  and  C_19 
REMARK       I    between atoms: C_22  and  N_20 
ROOT
ATOM      1  C   LIG d   1      -1.554  79.394 115.621  0.00  0.00     0.161 C 
ATOM      2  C   LIG d   1      -1.847  80.444 114.735  0.00  0.00     0.016 C 
ATOM      3  C   LIG d   1      -2.547  80.264 113.520  0.00  0.00     0.038 C 
ATOM      4  C   LIG d   1      -3.137  79.037 113.179  0.00  0.00     0.028 C 
ATOM      5  C   LIG d   1      -2.435  77.834 113.800  0.00  0.00    -0.047 C 
ATOM      6  C   LIG d   1      -2.286  78.070 115.320  0.00  0.00     0.091 C 
ENDROOT
BRANCH   1   7
ATOM      7  O   LIG d   1      -1.812  79.812 116.976  0.00  0.00    -0.368 OA
BRANCH   7   8
ATOM      8  C   LIG d   1      -3.174  80.208 117.273  0.00  0.00     0.119 C 
BRANCH   8   9
ATOM      9  C   LIG d   1      -3.109  81.521 118.076  0.00  0.00     0.028 C 
ATOM     10  C   LIG d   1      -1.702  82.141 118.077  0.00  0.00     0.006 C 
ENDBRANCH   8   9
BRANCH   8  11
ATOM     11  C   LIG d   1      -3.858  79.199 118.199  0.00  0.00     0.028 C 
ATOM     12  C   LIG d   1      -2.871  78.481 119.132  0.00  0.00     0.006 C 
ENDBRANCH   8  11
ENDBRANCH   7   8
ENDBRANCH   1   7
BRANCH   6  13
ATOM     13  N   LIG d   1      -1.534  76.978 115.992  0.00  0.00    -0.311 N 
ATOM     14  C   LIG d   1      -2.119  75.916 116.543  0.00  0.00     0.210 C 
ATOM     15  C   LIG d   1      -1.161  74.918 117.201  0.00  0.00     0.109 C 
ATOM     16  O   LIG d   1      -3.339  75.689 116.521  0.00  0.00    -0.276 OA
ATOM     17  H   LIG d   1      -0.537  77.065 116.027  0.00  0.00     0.149 HD
ENDBRANCH   6  13
BRANCH   5  18
ATOM     18  N   LIG d   1      -3.233  76.637 113.476  0.00  0.00     0.381 N 
ATOM     19  H   LIG d   1      -3.192  76.458 112.492  0.00  0.00    -0.090 HD
ATOM     20  H   LIG d   1      -4.191  76.807 113.725  0.00  0.00    -0.090 HD
ATOM     21  H   LIG d   1      -2.886  75.850 113.978  0.00  0.00    -0.090 HD
ENDBRANCH   5  18
BRANCH   3  22
ATOM     22  C   LIG d   1      -2.628  81.308 112.612  0.00  0.00     0.382 C 
ATOM     23  O   LIG d   1      -3.679  81.989 112.532  0.00  0.00    -0.241 OA
ATOM     24  O   LIG d   1      -1.680  81.551 111.841  0.00  0.00    -0.241 OA
ENDBRANCH   3  22
TORSDOF 7
ENDMDL
MODEL 6
REMARK VINA RESULT:      -4.4      2.082      5.212
REMARK  7 active torsions:
REMARK  status: ('A' for Active; 'I' for Inactive)
REMARK    1  A    between atoms: C_2  and  C_3 
REMARK    2  A    between atoms: C_3  and  O_6 
REMARK    3  A    between atoms: C_3  and  C_4 
REMARK    4  A    between atoms: C_7  and  O_6 
REMARK    5  A    between atoms: C_9  and  C_10 
REMARK    6  A    between atoms: N_15  and  C_14 
REMARK    7  A    between atoms: N_20  and  C_19 
REMARK       I    between atoms: C_22  and  N_20 
ROOT
ATOM      1  C   LIG d   1       0.028  80.668 114.365  0.00  0.00     0.161 C 
ATOM      2  C   LIG d   1       0.708  81.850 114.029  0.00  0.00     0.016 C 
ATOM      3  C   LIG d   1       0.716  82.399 112.726  0.00  0.00     0.038 C 
ATOM      4  C   LIG d   1      -0.085  81.880 111.698  0.00  0.00     0.028 C 
ATOM      5  C   LIG d   1      -0.392  80.395 111.860  0.00  0.00    -0.047 C 
ATOM      6  C   LIG d   1      -0.942  80.149 113.283  0.00  0.00     0.091 C 
ENDROOT
BRANCH   1   7
ATOM      7  O   LIG d   1      -0.665  80.842 115.617  0.00  0.00    -0.368 OA
BRANCH   7   8
ATOM      8  C   LIG d   1      -1.992  81.419 115.536  0.00  0.00     0.119 C 
BRANCH   8   9
ATOM      9  C   LIG d   1      -1.941  82.794 116.231  0.00  0.00     0.028 C 
ATOM     10  C   LIG d   1      -2.004  83.960 115.230  0.00  0.00     0.006 C 
ENDBRANCH   8   9
BRANCH   8  11
ATOM     11  C   LIG d   1      -3.007  80.598 116.336  0.00  0.00     0.028 C 
ATOM     12  C   LIG d   1      -3.580  81.365 117.538  0.00  0.00     0.006 C 
ENDBRANCH   8  11
ENDBRANCH   7   8
ENDBRANCH   1   7
BRANCH   6  13
ATOM     13  N   LIG d   1      -1.189  78.709 113.554  0.00  0.00    -0.311 N 
ATOM     14  C   LIG d   1      -2.392  78.143 113.471  0.00  0.00     0.210 C 
ATOM     15  C   LIG d   1      -2.429  76.649 113.811  0.00  0.00     0.109 C 
ATOM     16  O   LIG d   1      -3.426  78.729 113.118  0.00  0.00    -0.276 OA
ATOM     17  H   LIG d   1      -0.399  78.152 113.817  0.00  0.00     0.149 HD
ENDBRANCH   6  13
BRANCH   5  18
ATOM     18  N   LIG d   1      -1.344  80.018 110.798  0.00  0.00     0.381 N 
ATOM     19  H   LIG d   1      -0.847  79.656 110.010  0.00  0.00    -0.090 HD
ATOM     20  H   LIG d   1      -1.845  80.839 110.505  0.00  0.00    -0.090 HD
ATOM     21  H   LIG d   1      -1.983  79.335 111.140  0.00  0.00    -0.090 HD
ENDBRANCH   5  18
BRANCH   3  22
ATOM     22  C   LIG d   1       1.564  83.456 112.431  0.00  0.00     0.382 C 
ATOM     23  O   LIG d   1       2.752  83.437 112.831  0.00  0.00    -0.241 OA
ATOM     24  O   LIG d   1       1.142  84.449 111.807  0.00  0.00    -0.241 OA
ENDBRANCH   3  22
TORSDOF 7
ENDMDL
MODEL 7
REMARK VINA RESULT:      -4.3      3.129      6.167
REMARK  7 active torsions:
REMARK  status: ('A' for Active; 'I' for Inactive)
REMARK    1  A    between atoms: C_2  and  C_3 
REMARK    2  A    between atoms: C_3  and  O_6 
REMARK    3  A    between atoms: C_3  and  C_4 
REMARK    4  A    between atoms: C_7  and  O_6 
REMARK    5  A    between atoms: C_9  and  C_10 
REMARK    6  A    between atoms: N_15  and  C_14 
REMARK    7  A    between atoms: N_20  and  C_19 
REMARK       I    between atoms: C_22  and  N_20 
ROOT
ATOM      1  C   LIG d   1      -2.971  80.015 113.402  0.00  0.00     0.161 C 
ATOM      2  C   LIG d   1      -2.226  79.902 112.217  0.00  0.00     0.016 C 
ATOM      3  C   LIG d   1      -0.877  80.310 112.104  0.00  0.00     0.038 C 
ATOM      4  C   LIG d   1      -0.131  80.722 113.218  0.00  0.00     0.028 C 
ATOM      5  C   LIG d   1      -0.984  81.328 114.327  0.00  0.00    -0.047 C 
ATOM      6  C   LIG d   1      -2.141  80.358 114.657  0.00  0.00     0.091 C 
ENDROOT
BRANCH   1   7
ATOM      7  O   LIG d   1      -3.731  78.809 113.618  0.00  0.00    -0.368 OA
BRANCH   7   8
ATOM      8  C   LIG d   1      -3.133  77.829 114.503  0.00  0.00     0.119 C 
BRANCH   8   9
ATOM      9  C   LIG d   1      -2.874  76.555 113.675  0.00  0.00     0.028 C 
ATOM     10  C   LIG d   1      -1.411  76.089 113.758  0.00  0.00     0.006 C 
ENDBRANCH   8   9
BRANCH   8  11
ATOM     11  C   LIG d   1      -4.109  77.405 115.605  0.00  0.00     0.028 C 
ATOM     12  C   LIG d   1      -3.398  76.852 116.850  0.00  0.00     0.006 C 
ENDBRANCH   8  11
ENDBRANCH   7   8
ENDBRANCH   1   7
BRANCH   6  13
ATOM     13  N   LIG d   1      -3.073  80.912 115.674  0.00  0.00    -0.311 N 
ATOM     14  C   LIG d   1      -2.945  80.692 116.982  0.00  0.00     0.210 C 
ATOM     15  C   LIG d   1      -4.025  81.340 117.855  0.00  0.00     0.109 C 
ATOM     16  O   LIG d   1      -2.022  80.049 117.504  0.00  0.00    -0.276 OA
ATOM     17  H   LIG d   1      -3.833  81.471 115.340  0.00  0.00     0.149 HD
ENDBRANCH   6  13
BRANCH   5  18
ATOM     18  N   LIG d   1      -0.099  81.586 115.479  0.00  0.00     0.381 N 
ATOM     19  H   LIG d   1      -0.586  81.388 116.331  0.00  0.00    -0.090 HD
ATOM     20  H   LIG d   1       0.158  82.557 115.481  0.00  0.00    -0.090 HD
ATOM     21  H   LIG d   1       0.717  81.018 115.416  0.00  0.00    -0.090 HD
ENDBRANCH   5  18
BRANCH   3  22
ATOM     22  C   LIG d   1      -0.272  80.347 110.856  0.00  0.00     0.382 C 
ATOM     23  O   LIG d   1       0.955  80.588 110.761  0.00  0.00    -0.241 OA
ATOM     24  O   LIG d   1      -0.947  80.185 109.822  0.00  0.00    -0.241 OA
ENDBRANCH   3  22
TORSDOF 7
ENDMDL
MODEL 8
REMARK VINA RESULT:      -4.2      2.204      3.480
REMARK  7 active torsions:
REMARK  status: ('A' for Active; 'I' for Inactive)
REMARK    1  A    between atoms: C_2  and  C_3 
REMARK    2  A    between atoms: C_3  and  O_6 
REMARK    3  A    between atoms: C_3  and  C_4 
REMARK    4  A    between atoms: C_7  and  O_6 
REMARK    5  A    between atoms: C_9  and  C_10 
REMARK    6  A    between atoms: N_15  and  C_14 
REMARK    7  A    between atoms: N_20  and  C_19 
REMARK       I    between atoms: C_22  and  N_20 
ROOT
ATOM      1  C   LIG d   1      -0.819  81.938 114.776  0.00  0.00     0.161 C 
ATOM      2  C   LIG d   1      -1.720  81.083 114.119  0.00  0.00     0.016 C 
ATOM      3  C   LIG d   1      -1.468  80.515 112.849  0.00  0.00     0.038 C 
ATOM      4  C   LIG d   1      -0.224  80.643 112.213  0.00  0.00     0.028 C 
ATOM      5  C   LIG d   1       0.530  81.910 112.607  0.00  0.00    -0.047 C 
ATOM      6  C   LIG d   1       0.589  82.000 114.149  0.00  0.00     0.091 C 
ENDROOT
BRANCH   1   7
ATOM      7  O   LIG d   1      -0.732  81.577 116.169  0.00  0.00    -0.368 OA
BRANCH   7   8
ATOM      8  C   LIG d   1      -1.198  82.570 117.115  0.00  0.00     0.119 C 
BRANCH   8   9
ATOM      9  C   LIG d   1       0.008  82.992 117.976  0.00  0.00     0.028 C 
ATOM     10  C   LIG d   1      -0.281  82.887 119.483  0.00  0.00     0.006 C 
ENDBRANCH   8   9
BRANCH   8  11
ATOM     11  C   LIG d   1      -2.208  81.971 118.099  0.00  0.00     0.028 C 
ATOM     12  C   LIG d   1      -3.295  81.136 117.402  0.00  0.00     0.006 C 
ENDBRANCH   8  11
ENDBRANCH   7   8
ENDBRANCH   1   7
BRANCH   6  13
ATOM     13  N   LIG d   1       1.236  83.253 114.619  0.00  0.00    -0.311 N 
ATOM     14  C   LIG d   1       2.443  83.288 115.181  0.00  0.00     0.210 C 
ATOM     15  C   LIG d   1       2.915  84.680 115.612  0.00  0.00     0.109 C 
ATOM     16  O   LIG d   1       3.180  82.303 115.335  0.00  0.00    -0.276 OA
ATOM     17  H   LIG d   1       0.720  84.103 114.504  0.00  0.00     0.149 HD
ENDBRANCH   6  13
BRANCH   5  18
ATOM     18  N   LIG d   1       1.864  81.847 111.980  0.00  0.00     0.381 N 
ATOM     19  H   LIG d   1       2.442  82.579 112.341  0.00  0.00    -0.090 HD
ATOM     20  H   LIG d   1       1.764  81.984 110.989  0.00  0.00    -0.090 HD
ATOM     21  H   LIG d   1       2.284  80.962 112.160  0.00  0.00    -0.090 HD
ENDBRANCH   5  18
BRANCH   3  22
ATOM     22  C   LIG d   1      -2.481  79.842 112.184  0.00  0.00     0.382 C 
ATOM     23  O   LIG d   1      -2.266  79.346 111.052  0.00  0.00    -0.241 OA
ATOM     24  O   LIG d   1      -3.620  79.763 112.682  0.00  0.00    -0.241 OA
ENDBRANCH   3  22
TORSDOF 7
ENDMDL
MODEL 9
REMARK VINA RESULT:      -4.1      3.752      6.864
REMARK  7 active torsions:
REMARK  status: ('A' for Active; 'I' for Inactive)
REMARK    1  A    between atoms: C_2  and  C_3 
REMARK    2  A    between atoms: C_3  and  O_6 
REMARK    3  A    between atoms: C_3  and  C_4 
REMARK    4  A    between atoms: C_7  and  O_6 
REMARK    5  A    between atoms: C_9  and  C_10 
REMARK    6  A    between atoms: N_15  and  C_14 
REMARK    7  A    between atoms: N_20  and  C_19 
REMARK       I    between atoms: C_22  and  N_20 
ROOT
ATOM      1  C   LIG d   1      -2.340  79.427 114.477  0.00  0.00     0.161 C 
ATOM      2  C   LIG d   1      -1.949  80.255 113.413  0.00  0.00     0.016 C 
ATOM      3  C   LIG d   1      -1.685  81.636 113.558  0.00  0.00     0.038 C 
ATOM      4  C   LIG d   1      -1.649  82.256 114.816  0.00  0.00     0.028 C 
ATOM      5  C   LIG d   1      -2.530  81.571 115.854  0.00  0.00    -0.047 C 
ATOM      6  C   LIG d   1      -2.198  80.061 115.877  0.00  0.00     0.091 C 
ENDROOT
BRANCH   1   7
ATOM      7  O   LIG d   1      -1.619  78.180 114.417  0.00  0.00    -0.368 OA
BRANCH   7   8
ATOM      8  C   LIG d   1      -2.245  77.118 113.655  0.00  0.00     0.119 C 
BRANCH   8   9
ATOM      9  C   LIG d   1      -3.591  76.794 114.331  0.00  0.00     0.028 C 
ATOM     10  C   LIG d   1      -4.439  75.810 113.508  0.00  0.00     0.006 C 
ENDBRANCH   8   9
BRANCH   8  11
ATOM     11  C   LIG d   1      -1.430  75.824 113.730  0.00  0.00     0.028 C 
ATOM     12  C   LIG d   1      -0.881  75.547 115.139  0.00  0.00     0.006 C 
ENDBRANCH   8  11
ENDBRANCH   7   8
ENDBRANCH   1   7
BRANCH   6  13
ATOM     13  N   LIG d   1      -3.074  79.302 116.806  0.00  0.00    -0.311 N 
ATOM     14  C   LIG d   1      -2.619  78.384 117.657  0.00  0.00     0.210 C 
ATOM     15  C   LIG d   1      -3.694  77.705 118.512  0.00  0.00     0.109 C 
ATOM     16  O   LIG d   1      -1.423  78.091 117.809  0.00  0.00    -0.276 OA
ATOM     17  H   LIG d   1      -4.055  79.499 116.772  0.00  0.00     0.149 HD
ENDBRANCH   6  13
BRANCH   5  18
ATOM     18  N   LIG d   1      -2.291  82.235 117.150  0.00  0.00     0.381 N 
ATOM     19  H   LIG d   1      -3.164  82.497 117.562  0.00  0.00    -0.090 HD
ATOM     20  H   LIG d   1      -1.753  83.069 116.993  0.00  0.00    -0.090 HD
ATOM     21  H   LIG d   1      -1.797  81.622 117.761  0.00  0.00    -0.090 HD
ENDBRANCH   5  18
BRANCH   3  22
ATOM     22  C   LIG d   1      -1.494  82.422 112.431  0.00  0.00     0.382 C 
ATOM     23  O   LIG d   1      -1.531  83.672 112.524  0.00  0.00    -0.241 OA
ATOM     24  O   LIG d   1      -1.327  81.895 111.314  0.00  0.00    -0.241 OA
ENDBRANCH   3  22
TORSDOF 7
ENDMDL
