MODEL 1
REMARK VINA RESULT:      -5.4      0.000      0.000
REMARK  7 active torsions:
REMARK  status: ('A' for Active; 'I' for Inactive)
REMARK    1  A    between atoms: C_2  and  C_3 
REMARK    2  A    between atoms: C_3  and  O_6 
REMARK    3  A    between atoms: C_3  and  C_4 
REMARK    4  A    between atoms: C_7  and  O_6 
REMARK    5  A    between atoms: C_9  and  C_10 
REMARK    6  A    between atoms: N_15  and  C_14 
REMARK    7  A    between atoms: N_20  and  C_19 
REMARK       I    between atoms: C_22  and  N_20 
ROOT
ATOM      1  C   LIG d   1       1.551  81.668 112.600  0.00  0.00     0.161 C 
ATOM      2  C   LIG d   1       2.569  82.338 111.900  0.00  0.00     0.016 C 
ATOM      3  C   LIG d   1       2.645  82.379 110.489  0.00  0.00     0.038 C 
ATOM      4  C   LIG d   1       1.619  81.877 109.676  0.00  0.00     0.028 C 
ATOM      5  C   LIG d   1       0.825  80.750 110.329  0.00  0.00    -0.047 C 
ATOM      6  C   LIG d   1       0.362  81.209 111.730  0.00  0.00     0.091 C 
ENDROOT
BRANCH   1   7
ATOM      7  O   LIG d   1       1.087  82.488 113.691  0.00  0.00    -0.368 OA
BRANCH   7   8
ATOM      8  C   LIG d   1       2.109  83.191 114.439  0.00  0.00     0.119 C 
BRANCH   8   9
ATOM      9  C   LIG d   1       2.308  82.439 115.769  0.00  0.00     0.028 C 
ATOM     10  C   LIG d   1       3.392  81.353 115.673  0.00  0.00     0.006 C 
ENDBRANCH   8   9
BRANCH   8  11
ATOM     11  C   LIG d   1       1.644  84.596 114.833  0.00  0.00     0.028 C 
ATOM     12  C   LIG d   1       1.165  84.678 116.292  0.00  0.00     0.006 C 
ENDBRANCH   8  11
ENDBRANCH   7   8
ENDBRANCH   1   7
BRANCH   6  13
ATOM     13  N   LIG d   1      -0.350  80.136 112.472  0.00  0.00    -0.311 N 
ATOM     14  C   LIG d   1      -1.649  80.183 112.761  0.00  0.00     0.210 C 
ATOM     15  C   LIG d   1      -2.179  78.981 113.550  0.00  0.00     0.109 C 
ATOM     16  O   LIG d   1      -2.419  81.089 112.412  0.00  0.00    -0.276 OA
ATOM     17  H   LIG d   1       0.193  79.348 112.766  0.00  0.00     0.149 HD
ENDBRANCH   6  13
BRANCH   5  18
ATOM     18  N   LIG d   1      -0.296  80.416 109.430  0.00  0.00     0.381 N 
ATOM     19  H   LIG d   1      -1.060  80.049 109.963  0.00  0.00    -0.090 HD
ATOM     20  H   LIG d   1       0.005  79.709 108.783  0.00  0.00    -0.090 HD
ATOM     21  H   LIG d   1      -0.589  81.228 108.933  0.00  0.00    -0.090 HD
ENDBRANCH   5  18
BRANCH   3  22
ATOM     22  C   LIG d   1       3.779  82.892 109.877  0.00  0.00     0.382 C 
ATOM     23  O   LIG d   1       4.659  82.115 109.434  0.00  0.00    -0.241 OA
ATOM     24  O   LIG d   1       3.954  84.123 109.802  0.00  0.00    -0.241 OA
ENDBRANCH   3  22
TORSDOF 7
ENDMDL
MODEL 2
REMARK VINA RESULT:      -5.2      5.141      7.078
REMARK  7 active torsions:
REMARK  status: ('A' for Active; 'I' for Inactive)
REMARK    1  A    between atoms: C_2  and  C_3 
REMARK    2  A    between atoms: C_3  and  O_6 
REMARK    3  A    between atoms: C_3  and  C_4 
REMARK    4  A    between atoms: C_7  and  O_6 
REMARK    5  A    between atoms: C_9  and  C_10 
REMARK    6  A    between atoms: N_15  and  C_14 
REMARK    7  A    between atoms: N_20  and  C_19 
REMARK       I    between atoms: C_22  and  N_20 
ROOT
ATOM      1  C   LIG d   1      -2.699  78.308 115.653  0.00  0.00     0.161 C 
ATOM      2  C   LIG d   1      -2.931  79.440 114.855  0.00  0.00     0.016 C 
ATOM      3  C   LIG d   1      -2.490  79.552 113.516  0.00  0.00     0.038 C 
ATOM      4  C   LIG d   1      -1.915  78.470 112.832  0.00  0.00     0.028 C 
ATOM      5  C   LIG d   1      -1.207  77.480 113.750  0.00  0.00    -0.047 C 
ATOM      6  C   LIG d   1      -2.171  77.075 114.889  0.00  0.00     0.091 C 
ENDROOT
BRANCH   1   7
ATOM      7  O   LIG d   1      -3.895  77.971 116.382  0.00  0.00    -0.368 OA
BRANCH   7   8
ATOM      8  C   LIG d   1      -3.891  78.289 117.796  0.00  0.00     0.119 C 
BRANCH   8   9
ATOM      9  C   LIG d   1      -2.435  78.593 118.197  0.00  0.00     0.028 C 
ATOM     10  C   LIG d   1      -2.290  79.961 118.885  0.00  0.00     0.006 C 
ENDBRANCH   8   9
BRANCH   8  11
ATOM     11  C   LIG d   1      -4.301  77.079 118.640  0.00  0.00     0.028 C 
ATOM     12  C   LIG d   1      -3.182  76.601 119.579  0.00  0.00     0.006 C 
ENDBRANCH   8  11
ENDBRANCH   7   8
ENDBRANCH   1   7
BRANCH   6  13
ATOM     13  N   LIG d   1      -1.529  76.173 115.880  0.00  0.00    -0.311 N 
ATOM     14  C   LIG d   1      -2.107  75.067 116.347  0.00  0.00     0.210 C 
ATOM     15  C   LIG d   1      -1.280  74.291 117.377  0.00  0.00     0.109 C 
ATOM     16  O   LIG d   1      -3.211  74.638 115.981  0.00  0.00    -0.276 OA
ATOM     17  H   LIG d   1      -0.618  76.429 116.208  0.00  0.00     0.149 HD
ENDBRANCH   6  13
BRANCH   5  18
ATOM     18  N   LIG d   1      -0.775  76.337 112.924  0.00  0.00     0.381 N 
ATOM     19  H   LIG d   1      -1.265  75.511 113.206  0.00  0.00    -0.090 HD
ATOM     20  H   LIG d   1       0.207  76.185 113.068  0.00  0.00    -0.090 HD
ATOM     21  H   LIG d   1      -0.953  76.525 111.962  0.00  0.00    -0.090 HD
ENDBRANCH   5  18
BRANCH   3  22
ATOM     22  C   LIG d   1      -2.587  80.770 112.860  0.00  0.00     0.382 C 
ATOM     23  O   LIG d   1      -1.632  81.183 112.159  0.00  0.00    -0.241 OA
ATOM     24  O   LIG d   1      -3.601  81.481 112.995  0.00  0.00    -0.241 OA
ENDBRANCH   3  22
TORSDOF 7
ENDMDL
MODEL 3
REMARK VINA RESULT:      -5.0      2.492      5.750
REMARK  7 active torsions:
REMARK  status: ('A' for Active; 'I' for Inactive)
REMARK    1  A    between atoms: C_2  and  C_3 
REMARK    2  A    between atoms: C_3  and  O_6 
REMARK    3  A    between atoms: C_3  and  C_4 
REMARK    4  A    between atoms: C_7  and  O_6 
REMARK    5  A    between atoms: C_9  and  C_10 
REMARK    6  A    between atoms: N_15  and  C_14 
REMARK    7  A    between atoms: N_20  and  C_19 
REMARK       I    between atoms: C_22  and  N_20 
ROOT
ATOM      1  C   LIG d   1      -0.100  80.328 111.428  0.00  0.00     0.161 C 
ATOM      2  C   LIG d   1      -1.012  79.343 111.013  0.00  0.00     0.016 C 
ATOM      3  C   LIG d   1      -1.785  78.571 111.911  0.00  0.00     0.038 C 
ATOM      4  C   LIG d   1      -1.809  78.838 113.288  0.00  0.00     0.028 C 
ATOM      5  C   LIG d   1      -0.528  79.485 113.802  0.00  0.00    -0.047 C 
ATOM      6  C   LIG d   1      -0.195  80.710 112.920  0.00  0.00     0.091 C 
ENDROOT
BRANCH   1   7
ATOM      7  O   LIG d   1      -0.238  81.500 110.601  0.00  0.00    -0.368 OA
BRANCH   7   8
ATOM      8  C   LIG d   1       0.808  81.715 109.621  0.00  0.00     0.119 C 
BRANCH   8   9
ATOM      9  C   LIG d   1       1.999  80.818 110.011  0.00  0.00     0.028 C 
ATOM     10  C   LIG d   1       3.262  81.631 110.342  0.00  0.00     0.006 C 
ENDBRANCH   8   9
BRANCH   8  11
ATOM     11  C   LIG d   1       1.343  83.149 109.683  0.00  0.00     0.028 C 
ATOM     12  C   LIG d   1       0.231  84.192 109.880  0.00  0.00     0.006 C 
ENDBRANCH   8  11
ENDBRANCH   7   8
ENDBRANCH   1   7
BRANCH   6  13
ATOM     13  N   LIG d   1       1.089  81.352 113.302  0.00  0.00    -0.311 N 
ATOM     14  C   LIG d   1       1.252  82.671 113.390  0.00  0.00     0.210 C 
ATOM     15  C   LIG d   1       2.663  83.124 113.781  0.00  0.00     0.109 C 
ATOM     16  O   LIG d   1       0.354  83.508 113.213  0.00  0.00    -0.276 OA
ATOM     17  H   LIG d   1       1.863  80.746 113.494  0.00  0.00     0.149 HD
ENDBRANCH   6  13
BRANCH   5  18
ATOM     18  N   LIG d   1      -0.743  79.834 115.219  0.00  0.00     0.381 N 
ATOM     19  H   LIG d   1      -0.543  80.804 115.363  0.00  0.00    -0.090 HD
ATOM     20  H   LIG d   1      -0.112  79.295 115.786  0.00  0.00    -0.090 HD
ATOM     21  H   LIG d   1      -1.684  79.639 115.480  0.00  0.00    -0.090 HD
ENDBRANCH   5  18
BRANCH   3  22
ATOM     22  C   LIG d   1      -2.514  77.491 111.436  0.00  0.00     0.382 C 
ATOM     23  O   LIG d   1      -3.768  77.545 111.408  0.00  0.00    -0.241 OA
ATOM     24  O   LIG d   1      -1.937  76.447 111.078  0.00  0.00    -0.241 OA
ENDBRANCH   3  22
TORSDOF 7
ENDMDL
MODEL 4
REMARK VINA RESULT:      -4.9      5.212      7.667
REMARK  7 active torsions:
REMARK  status: ('A' for Active; 'I' for Inactive)
REMARK    1  A    between atoms: C_2  and  C_3 
REMARK    2  A    between atoms: C_3  and  O_6 
REMARK    3  A    between atoms: C_3  and  C_4 
REMARK    4  A    between atoms: C_7  and  O_6 
REMARK    5  A    between atoms: C_9  and  C_10 
REMARK    6  A    between atoms: N_15  and  C_14 
REMARK    7  A    between atoms: N_20  and  C_19 
REMARK       I    between atoms: C_22  and  N_20 
ROOT
ATOM      1  C   LIG d   1      -2.418  76.852 114.732  0.00  0.00     0.161 C 
ATOM      2  C   LIG d   1      -2.652  76.872 113.347  0.00  0.00     0.016 C 
ATOM      3  C   LIG d   1      -2.088  77.832 112.476  0.00  0.00     0.038 C 
ATOM      4  C   LIG d   1      -1.124  78.753 112.912  0.00  0.00     0.028 C 
ATOM      5  C   LIG d   1      -1.238  79.093 114.394  0.00  0.00    -0.047 C 
ATOM      6  C   LIG d   1      -1.281  77.780 115.208  0.00  0.00     0.091 C 
ENDROOT
BRANCH   1   7
ATOM      7  O   LIG d   1      -2.175  75.499 115.166  0.00  0.00    -0.368 OA
BRANCH   7   8
ATOM      8  C   LIG d   1      -3.164  74.930 116.059  0.00  0.00     0.119 C 
BRANCH   8   9
ATOM      9  C   LIG d   1      -4.292  75.967 116.222  0.00  0.00     0.028 C 
ATOM     10  C   LIG d   1      -4.440  76.451 117.675  0.00  0.00     0.006 C 
ENDBRANCH   8   9
BRANCH   8  11
ATOM     11  C   LIG d   1      -2.594  74.727 117.466  0.00  0.00     0.028 C 
ATOM     12  C   LIG d   1      -1.083  74.445 117.461  0.00  0.00     0.006 C 
ENDBRANCH   8  11
ENDBRANCH   7   8
ENDBRANCH   1   7
BRANCH   6  13
ATOM     13  N   LIG d   1      -1.477  78.021 116.662  0.00  0.00    -0.311 N 
ATOM     14  C   LIG d   1      -0.474  78.079 117.537  0.00  0.00     0.210 C 
ATOM     15  C   LIG d   1      -0.897  78.317 118.990  0.00  0.00     0.109 C 
ATOM     16  O   LIG d   1       0.727  77.989 117.243  0.00  0.00    -0.276 OA
ATOM     17  H   LIG d   1      -2.418  78.136 116.982  0.00  0.00     0.149 HD
ENDBRANCH   6  13
BRANCH   5  18
ATOM     18  N   LIG d   1      -0.092  79.953 114.743  0.00  0.00     0.381 N 
ATOM     19  H   LIG d   1      -0.257  80.886 114.421  0.00  0.00    -0.090 HD
ATOM     20  H   LIG d   1       0.730  79.602 114.285  0.00  0.00    -0.090 HD
ATOM     21  H   LIG d   1       0.045  79.955 115.730  0.00  0.00    -0.090 HD
ENDBRANCH   5  18
BRANCH   3  22
ATOM     22  C   LIG d   1      -2.519  77.903 111.159  0.00  0.00     0.382 C 
ATOM     23  O   LIG d   1      -3.569  77.313 110.811  0.00  0.00    -0.241 OA
ATOM     24  O   LIG d   1      -1.846  78.513 110.307  0.00  0.00    -0.241 OA
ENDBRANCH   3  22
TORSDOF 7
ENDMDL
MODEL 5
REMARK VINA RESULT:      -4.9      3.437      6.596
REMARK  7 active torsions:
REMARK  status: ('A' for Active; 'I' for Inactive)
REMARK    1  A    between atoms: C_2  and  C_3 
REMARK    2  A    between atoms: C_3  and  O_6 
REMARK    3  A    between atoms: C_3  and  C_4 
REMARK    4  A    between atoms: C_7  and  O_6 
REMARK    5  A    between atoms: C_9  and  C_10 
REMARK    6  A    between atoms: N_15  and  C_14 
REMARK    7  A    between atoms: N_20  and  C_19 
REMARK       I    between atoms: C_22  and  N_20 
ROOT
ATOM      1  C   LIG d   1      -1.822  79.415 114.478  0.00  0.00     0.161 C 
ATOM      2  C   LIG d   1      -2.349  78.165 114.841  0.00  0.00     0.016 C 
ATOM      3  C   LIG d   1      -2.574  77.118 113.918  0.00  0.00     0.038 C 
ATOM      4  C   LIG d   1      -2.142  77.199 112.585  0.00  0.00     0.028 C 
ATOM      5  C   LIG d   1      -2.065  78.628 112.060  0.00  0.00    -0.047 C 
ATOM      6  C   LIG d   1      -1.242  79.483 113.050  0.00  0.00     0.091 C 
ENDROOT
BRANCH   1   7
ATOM      7  O   LIG d   1      -0.831  79.826 115.442  0.00  0.00    -0.368 OA
BRANCH   7   8
ATOM      8  C   LIG d   1      -0.739  79.022 116.643  0.00  0.00     0.119 C 
BRANCH   8   9
ATOM      9  C   LIG d   1      -1.080  79.934 117.838  0.00  0.00     0.028 C 
ATOM     10  C   LIG d   1      -2.430  79.576 118.482  0.00  0.00     0.006 C 
ENDBRANCH   8   9
BRANCH   8  11
ATOM     11  C   LIG d   1       0.698  78.551 116.890  0.00  0.00     0.028 C 
ATOM     12  C   LIG d   1       0.766  77.148 117.515  0.00  0.00     0.006 C 
ENDBRANCH   8  11
ENDBRANCH   7   8
ENDBRANCH   1   7
BRANCH   6  13
ATOM     13  N   LIG d   1      -1.188  80.915 112.654  0.00  0.00    -0.311 N 
ATOM     14  C   LIG d   1      -0.205  81.437 111.923  0.00  0.00     0.210 C 
ATOM     15  C   LIG d   1      -0.333  82.938 111.645  0.00  0.00     0.109 C 
ATOM     16  O   LIG d   1       0.745  80.793 111.452  0.00  0.00    -0.276 OA
ATOM     17  H   LIG d   1      -1.935  81.503 112.968  0.00  0.00     0.149 HD
ENDBRANCH   6  13
BRANCH   5  18
ATOM     18  N   LIG d   1      -1.472  78.575 110.710  0.00  0.00     0.381 N 
ATOM     19  H   LIG d   1      -0.474  78.550 110.780  0.00  0.00    -0.090 HD
ATOM     20  H   LIG d   1      -1.732  79.405 110.208  0.00  0.00    -0.090 HD
ATOM     21  H   LIG d   1      -1.799  77.768 110.225  0.00  0.00    -0.090 HD
ENDBRANCH   5  18
BRANCH   3  22
ATOM     22  C   LIG d   1      -3.273  75.988 114.316  0.00  0.00     0.382 C 
ATOM     23  O   LIG d   1      -2.733  75.155 115.083  0.00  0.00    -0.241 OA
ATOM     24  O   LIG d   1      -4.420  75.770 113.883  0.00  0.00    -0.241 OA
ENDBRANCH   3  22
TORSDOF 7
ENDMDL
MODEL 6
REMARK VINA RESULT:      -4.8      1.513      2.078
REMARK  7 active torsions:
REMARK  status: ('A' for Active; 'I' for Inactive)
REMARK    1  A    between atoms: C_2  and  C_3 
REMARK    2  A    between atoms: C_3  and  O_6 
REMARK    3  A    between atoms: C_3  and  C_4 
REMARK    4  A    between atoms: C_7  and  O_6 
REMARK    5  A    between atoms: C_9  and  C_10 
REMARK    6  A    between atoms: N_15  and  C_14 
REMARK    7  A    between atoms: N_20  and  C_19 
REMARK       I    between atoms: C_22  and  N_20 
ROOT
ATOM      1  C   LIG d   1       1.629  81.538 113.385  0.00  0.00     0.161 C 
ATOM      2  C   LIG d   1       2.529  82.541 112.988  0.00  0.00     0.016 C 
ATOM      3  C   LIG d   1       2.494  83.159 111.716  0.00  0.00     0.038 C 
ATOM      4  C   LIG d   1       1.454  82.921 110.805  0.00  0.00     0.028 C 
ATOM      5  C   LIG d   1       0.811  81.547 110.964  0.00  0.00    -0.047 C 
ATOM      6  C   LIG d   1       0.420  81.345 112.446  0.00  0.00     0.091 C 
ENDROOT
BRANCH   1   7
ATOM      7  O   LIG d   1       1.182  81.789 114.732  0.00  0.00    -0.368 OA
BRANCH   7   8
ATOM      8  C   LIG d   1       1.899  81.094 115.782  0.00  0.00     0.119 C 
BRANCH   8   9
ATOM      9  C   LIG d   1       0.855  80.581 116.794  0.00  0.00     0.028 C 
ATOM     10  C   LIG d   1       0.017  79.420 116.235  0.00  0.00     0.006 C 
ENDBRANCH   8   9
BRANCH   8  11
ATOM     11  C   LIG d   1       2.795  82.051 116.573  0.00  0.00     0.028 C 
ATOM     12  C   LIG d   1       4.290  81.844 116.283  0.00  0.00     0.006 C 
ENDBRANCH   8  11
ENDBRANCH   7   8
ENDBRANCH   1   7
BRANCH   6  13
ATOM     13  N   LIG d   1      -0.139  79.992 112.705  0.00  0.00    -0.311 N 
ATOM     14  C   LIG d   1      -1.436  79.706 112.615  0.00  0.00     0.210 C 
ATOM     15  C   LIG d   1      -1.802  78.255 112.943  0.00  0.00     0.109 C 
ATOM     16  O   LIG d   1      -2.315  80.507 112.264  0.00  0.00    -0.276 OA
ATOM     17  H   LIG d   1       0.508  79.274 112.966  0.00  0.00     0.149 HD
ENDBRANCH   6  13
BRANCH   5  18
ATOM     18  N   LIG d   1      -0.343  81.486 110.048  0.00  0.00     0.381 N 
ATOM     19  H   LIG d   1      -0.606  80.532 109.898  0.00  0.00    -0.090 HD
ATOM     20  H   LIG d   1      -0.077  81.882 109.164  0.00  0.00    -0.090 HD
ATOM     21  H   LIG d   1      -1.110  81.994 110.431  0.00  0.00    -0.090 HD
ENDBRANCH   5  18
BRANCH   3  22
ATOM     22  C   LIG d   1       3.529  83.996 111.330  0.00  0.00     0.382 C 
ATOM     23  O   LIG d   1       4.361  84.397 112.179  0.00  0.00    -0.241 OA
ATOM     24  O   LIG d   1       3.616  84.392 110.152  0.00  0.00    -0.241 OA
ENDBRANCH   3  22
TORSDOF 7
ENDMDL
MODEL 7
REMARK VINA RESULT:      -4.5      3.289      6.674
REMARK  7 active torsions:
REMARK  status: ('A' for Active; 'I' for Inactive)
REMARK    1  A    between atoms: C_2  and  C_3 
REMARK    2  A    between atoms: C_3  and  O_6 
REMARK    3  A    between atoms: C_3  and  C_4 
REMARK    4  A    between atoms: C_7  and  O_6 
REMARK    5  A    between atoms: C_9  and  C_10 
REMARK    6  A    between atoms: N_15  and  C_14 
REMARK    7  A    between atoms: N_20  and  C_19 
REMARK       I    between atoms: C_22  and  N_20 
ROOT
ATOM      1  C   LIG d   1      -0.845  79.333 113.600  0.00  0.00     0.161 C 
ATOM      2  C   LIG d   1      -1.932  78.605 113.089  0.00  0.00     0.016 C 
ATOM      3  C   LIG d   1      -2.809  77.845 113.897  0.00  0.00     0.038 C 
ATOM      4  C   LIG d   1      -2.747  77.884 115.298  0.00  0.00     0.028 C 
ATOM      5  C   LIG d   1      -1.355  78.202 115.834  0.00  0.00    -0.047 C 
ATOM      6  C   LIG d   1      -0.828  79.477 115.136  0.00  0.00     0.091 C 
ENDROOT
BRANCH   1   7
ATOM      7  O   LIG d   1      -0.788  80.631 112.975  0.00  0.00    -0.368 OA
BRANCH   7   8
ATOM      8  C   LIG d   1       0.378  80.893 112.156  0.00  0.00     0.119 C 
BRANCH   8   9
ATOM      9  C   LIG d   1       1.006  82.209 112.653  0.00  0.00     0.028 C 
ATOM     10  C   LIG d   1       2.392  81.996 113.284  0.00  0.00     0.006 C 
ENDBRANCH   8   9
BRANCH   8  11
ATOM     11  C   LIG d   1      -0.012  81.155 110.698  0.00  0.00     0.028 C 
ATOM     12  C   LIG d   1      -0.020  79.877 109.844  0.00  0.00     0.006 C 
ENDBRANCH   8  11
ENDBRANCH   7   8
ENDBRANCH   1   7
BRANCH   6  13
ATOM     13  N   LIG d   1       0.562  79.811 115.541  0.00  0.00    -0.311 N 
ATOM     14  C   LIG d   1       0.856  80.598 116.575  0.00  0.00     0.210 C 
ATOM     15  C   LIG d   1       2.352  80.829 116.808  0.00  0.00     0.109 C 
ATOM     16  O   LIG d   1       0.020  81.099 117.342  0.00  0.00    -0.276 OA
ATOM     17  H   LIG d   1       1.304  79.421 114.993  0.00  0.00     0.149 HD
ENDBRANCH   6  13
BRANCH   5  18
ATOM     18  N   LIG d   1      -1.464  78.347 117.298  0.00  0.00     0.381 N 
ATOM     19  H   LIG d   1      -1.457  79.317 117.544  0.00  0.00    -0.090 HD
ATOM     20  H   LIG d   1      -0.669  77.908 117.728  0.00  0.00    -0.090 HD
ATOM     21  H   LIG d   1      -2.304  77.920 117.621  0.00  0.00    -0.090 HD
ENDBRANCH   5  18
BRANCH   3  22
ATOM     22  C   LIG d   1      -3.736  77.004 113.302  0.00  0.00     0.382 C 
ATOM     23  O   LIG d   1      -4.027  75.909 113.843  0.00  0.00    -0.241 OA
ATOM     24  O   LIG d   1      -4.252  77.304 112.209  0.00  0.00    -0.241 OA
ENDBRANCH   3  22
TORSDOF 7
ENDMDL
MODEL 8
REMARK VINA RESULT:      -4.3      4.837      6.418
REMARK  7 active torsions:
REMARK  status: ('A' for Active; 'I' for Inactive)
REMARK    1  A    between atoms: C_2  and  C_3 
REMARK    2  A    between atoms: C_3  and  O_6 
REMARK    3  A    between atoms: C_3  and  C_4 
REMARK    4  A    between atoms: C_7  and  O_6 
REMARK    5  A    between atoms: C_9  and  C_10 
REMARK    6  A    between atoms: N_15  and  C_14 
REMARK    7  A    between atoms: N_20  and  C_19 
REMARK       I    between atoms: C_22  and  N_20 
ROOT
ATOM      1  C   LIG d   1      -1.019  78.046 115.437  0.00  0.00     0.161 C 
ATOM      2  C   LIG d   1      -1.118  79.047 114.457  0.00  0.00     0.016 C 
ATOM      3  C   LIG d   1      -2.165  79.106 113.508  0.00  0.00     0.038 C 
ATOM      4  C   LIG d   1      -3.274  78.249 113.573  0.00  0.00     0.028 C 
ATOM      5  C   LIG d   1      -2.965  76.909 114.233  0.00  0.00    -0.047 C 
ATOM      6  C   LIG d   1      -2.278  77.167 115.593  0.00  0.00     0.091 C 
ENDROOT
BRANCH   1   7
ATOM      7  O   LIG d   1      -0.660  78.635 116.703  0.00  0.00    -0.368 OA
BRANCH   7   8
ATOM      8  C   LIG d   1       0.667  78.325 117.196  0.00  0.00     0.119 C 
BRANCH   8   9
ATOM      9  C   LIG d   1       0.501  77.587 118.538  0.00  0.00     0.028 C 
ATOM     10  C   LIG d   1       1.276  76.259 118.578  0.00  0.00     0.006 C 
ENDBRANCH   8   9
BRANCH   8  11
ATOM     11  C   LIG d   1       1.449  79.599 117.528  0.00  0.00     0.028 C 
ATOM     12  C   LIG d   1       0.547  80.740 118.025  0.00  0.00     0.006 C 
ENDBRANCH   8  11
ENDBRANCH   7   8
ENDBRANCH   1   7
BRANCH   6  13
ATOM     13  N   LIG d   1      -1.866  75.908 116.268  0.00  0.00    -0.311 N 
ATOM     14  C   LIG d   1      -2.378  75.496 117.426  0.00  0.00     0.210 C 
ATOM     15  C   LIG d   1      -1.800  74.180 117.957  0.00  0.00     0.109 C 
ATOM     16  O   LIG d   1      -3.279  76.078 118.049  0.00  0.00    -0.276 OA
ATOM     17  H   LIG d   1      -1.162  75.357 115.816  0.00  0.00     0.149 HD
ENDBRANCH   6  13
BRANCH   5  18
ATOM     18  N   LIG d   1      -4.236  76.171 114.358  0.00  0.00     0.381 N 
ATOM     19  H   LIG d   1      -4.830  76.628 115.021  0.00  0.00    -0.090 HD
ATOM     20  H   LIG d   1      -4.043  75.244 114.695  0.00  0.00    -0.090 HD
ATOM     21  H   LIG d   1      -4.691  76.122 113.473  0.00  0.00    -0.090 HD
ENDBRANCH   5  18
BRANCH   3  22
ATOM     22  C   LIG d   1      -2.089  80.007 112.457  0.00  0.00     0.382 C 
ATOM     23  O   LIG d   1      -2.686  81.108 112.530  0.00  0.00    -0.241 OA
ATOM     24  O   LIG d   1      -1.468  79.714 111.418  0.00  0.00    -0.241 OA
ENDBRANCH   3  22
TORSDOF 7
ENDMDL
MODEL 9
REMARK VINA RESULT:      -4.2      5.006      7.790
REMARK  7 active torsions:
REMARK  status: ('A' for Active; 'I' for Inactive)
REMARK    1  A    between atoms: C_2  and  C_3 
REMARK    2  A    between atoms: C_3  and  O_6 
REMARK    3  A    between atoms: C_3  and  C_4 
REMARK    4  A    between atoms: C_7  and  O_6 
REMARK    5  A    between atoms: C_9  and  C_10 
REMARK    6  A    between atoms: N_15  and  C_14 
REMARK    7  A    between atoms: N_20  and  C_19 
REMARK       I    between atoms: C_22  and  N_20 
ROOT
ATOM      1  C   LIG d   1      -2.192  77.763 115.862  0.00  0.00     0.161 C 
ATOM      2  C   LIG d   1      -2.633  78.286 114.635  0.00  0.00     0.016 C 
ATOM      3  C   LIG d   1      -1.925  79.272 113.909  0.00  0.00     0.038 C 
ATOM      4  C   LIG d   1      -0.643  79.695 114.290  0.00  0.00     0.028 C 
ATOM      5  C   LIG d   1      -0.382  79.566 115.787  0.00  0.00    -0.047 C 
ATOM      6  C   LIG d   1      -0.741  78.131 116.237  0.00  0.00     0.091 C 
ENDROOT
BRANCH   1   7
ATOM      7  O   LIG d   1      -2.365  76.332 115.873  0.00  0.00    -0.368 OA
BRANCH   7   8
ATOM      8  C   LIG d   1      -3.281  75.809 116.867  0.00  0.00     0.119 C 
BRANCH   8   9
ATOM      9  C   LIG d   1      -2.479  74.866 117.785  0.00  0.00     0.028 C 
ATOM     10  C   LIG d   1      -1.216  74.315 117.101  0.00  0.00     0.006 C 
ENDBRANCH   8   9
BRANCH   8  11
ATOM     11  C   LIG d   1      -4.358  74.930 116.224  0.00  0.00     0.028 C 
ATOM     12  C   LIG d   1      -4.440  75.108 114.699  0.00  0.00     0.006 C 
ENDBRANCH   8  11
ENDBRANCH   7   8
ENDBRANCH   1   7
BRANCH   6  13
ATOM     13  N   LIG d   1      -0.595  77.944 117.704  0.00  0.00    -0.311 N 
ATOM     14  C   LIG d   1       0.501  77.446 118.274  0.00  0.00     0.210 C 
ATOM     15  C   LIG d   1       0.436  77.318 119.799  0.00  0.00     0.109 C 
ATOM     16  O   LIG d   1       1.533  77.127 117.664  0.00  0.00    -0.276 OA
ATOM     17  H   LIG d   1      -1.373  78.206 118.277  0.00  0.00     0.149 HD
ENDBRANCH   6  13
BRANCH   5  18
ATOM     18  N   LIG d   1       1.033  79.909 116.024  0.00  0.00     0.381 N 
ATOM     19  H   LIG d   1       1.172  80.889 115.878  0.00  0.00    -0.090 HD
ATOM     20  H   LIG d   1       1.604  79.408 115.366  0.00  0.00    -0.090 HD
ATOM     21  H   LIG d   1       1.292  79.664 116.954  0.00  0.00    -0.090 HD
ENDBRANCH   5  18
BRANCH   3  22
ATOM     22  C   LIG d   1      -2.518  79.875 112.811  0.00  0.00     0.382 C 
ATOM     23  O   LIG d   1      -2.978  81.038 112.906  0.00  0.00    -0.241 OA
ATOM     24  O   LIG d   1      -2.639  79.253 111.738  0.00  0.00    -0.241 OA
ENDBRANCH   3  22
TORSDOF 7
ENDMDL
