MODEL 1
REMARK VINA RESULT:      -4.7      0.000      0.000
REMARK  7 active torsions:
REMARK  status: ('A' for Active; 'I' for Inactive)
REMARK    1  A    between atoms: C_2  and  C_3 
REMARK    2  A    between atoms: C_3  and  O_6 
REMARK    3  A    between atoms: C_3  and  C_4 
REMARK    4  A    between atoms: C_7  and  O_6 
REMARK    5  A    between atoms: C_9  and  C_10 
REMARK    6  A    between atoms: N_15  and  C_14 
REMARK    7  A    between atoms: N_20  and  C_19 
REMARK       I    between atoms: C_22  and  N_20 
ROOT
ATOM      1  C   LIG d   1       1.660  81.052 112.466  0.00  0.00     0.161 C 
ATOM      2  C   LIG d   1       2.733  81.826 111.995  0.00  0.00     0.016 C 
ATOM      3  C   LIG d   1       2.587  82.856 111.037  0.00  0.00     0.038 C 
ATOM      4  C   LIG d   1       1.326  83.285 110.596  0.00  0.00     0.028 C 
ATOM      5  C   LIG d   1       0.259  82.198 110.663  0.00  0.00    -0.047 C 
ATOM      6  C   LIG d   1       0.262  81.579 112.079  0.00  0.00     0.091 C 
ENDROOT
BRANCH   1   7
ATOM      7  O   LIG d   1       1.759  80.898 113.896  0.00  0.00    -0.368 OA
BRANCH   7   8
ATOM      8  C   LIG d   1       2.997  81.349 114.501  0.00  0.00     0.119 C 
BRANCH   8   9
ATOM      9  C   LIG d   1       3.629  80.140 115.217  0.00  0.00     0.028 C 
ATOM     10  C   LIG d   1       4.460  80.553 116.444  0.00  0.00     0.006 C 
ENDBRANCH   8   9
BRANCH   8  11
ATOM     11  C   LIG d   1       2.735  82.381 115.602  0.00  0.00     0.028 C 
ATOM     12  C   LIG d   1       2.617  83.814 115.059  0.00  0.00     0.006 C 
ENDBRANCH   8  11
ENDBRANCH   7   8
ENDBRANCH   1   7
BRANCH   6  13
ATOM     13  N   LIG d   1      -0.695  80.449 112.206  0.00  0.00    -0.311 N 
ATOM     14  C   LIG d   1      -1.991  80.612 112.468  0.00  0.00     0.210 C 
ATOM     15  C   LIG d   1      -2.797  79.314 112.577  0.00  0.00     0.109 C 
ATOM     16  O   LIG d   1      -2.555  81.710 112.588  0.00  0.00    -0.276 OA
ATOM     17  H   LIG d   1      -0.328  79.525 112.092  0.00  0.00     0.149 HD
ENDBRANCH   6  13
BRANCH   5  18
ATOM     18  N   LIG d   1      -1.031  82.818 110.306  0.00  0.00     0.381 N 
ATOM     19  H   LIG d   1      -0.966  83.240 109.402  0.00  0.00    -0.090 HD
ATOM     20  H   LIG d   1      -1.243  83.537 110.975  0.00  0.00    -0.090 HD
ATOM     21  H   LIG d   1      -1.752  82.130 110.308  0.00  0.00    -0.090 HD
ENDBRANCH   5  18
BRANCH   3  22
ATOM     22  C   LIG d   1       3.714  83.443 110.481  0.00  0.00     0.382 C 
ATOM     23  O   LIG d   1       3.739  84.680 110.274  0.00  0.00    -0.241 OA
ATOM     24  O   LIG d   1       4.688  82.744 110.144  0.00  0.00    -0.241 OA
ENDBRANCH   3  22
TORSDOF 7
ENDMDL
MODEL 2
REMARK VINA RESULT:      -4.4      3.188      6.649
REMARK  7 active torsions:
REMARK  status: ('A' for Active; 'I' for Inactive)
REMARK    1  A    between atoms: C_2  and  C_3 
REMARK    2  A    between atoms: C_3  and  O_6 
REMARK    3  A    between atoms: C_3  and  C_4 
REMARK    4  A    between atoms: C_7  and  O_6 
REMARK    5  A    between atoms: C_9  and  C_10 
REMARK    6  A    between atoms: N_15  and  C_14 
REMARK    7  A    between atoms: N_20  and  C_19 
REMARK       I    between atoms: C_22  and  N_20 
ROOT
ATOM      1  C   LIG d   1      -0.729  79.435 113.035  0.00  0.00     0.161 C 
ATOM      2  C   LIG d   1      -1.883  78.818 112.524  0.00  0.00     0.016 C 
ATOM      3  C   LIG d   1      -2.587  77.798 113.205  0.00  0.00     0.038 C 
ATOM      4  C   LIG d   1      -2.268  77.429 114.520  0.00  0.00     0.028 C 
ATOM      5  C   LIG d   1      -0.806  77.668 114.879  0.00  0.00    -0.047 C 
ATOM      6  C   LIG d   1      -0.431  79.123 114.517  0.00  0.00     0.091 C 
ENDROOT
BRANCH   1   7
ATOM      7  O   LIG d   1      -0.804  80.859 112.828  0.00  0.00    -0.368 OA
BRANCH   7   8
ATOM      8  C   LIG d   1      -0.211  81.357 111.603  0.00  0.00     0.119 C 
BRANCH   8   9
ATOM      9  C   LIG d   1       1.136  80.633 111.413  0.00  0.00     0.028 C 
ATOM     10  C   LIG d   1       1.426  80.312 109.937  0.00  0.00     0.006 C 
ENDBRANCH   8   9
BRANCH   8  11
ATOM     11  C   LIG d   1       0.140  82.844 111.718  0.00  0.00     0.028 C 
ATOM     12  C   LIG d   1      -0.385  83.673 110.535  0.00  0.00     0.006 C 
ENDBRANCH   8  11
ENDBRANCH   7   8
ENDBRANCH   1   7
BRANCH   6  13
ATOM     13  N   LIG d   1       1.005  79.416 114.758  0.00  0.00    -0.311 N 
ATOM     14  C   LIG d   1       1.475  79.881 115.915  0.00  0.00     0.210 C 
ATOM     15  C   LIG d   1       2.985  80.134 115.945  0.00  0.00     0.109 C 
ATOM     16  O   LIG d   1       0.788  80.077 116.929  0.00  0.00    -0.276 OA
ATOM     17  H   LIG d   1       1.637  79.256 113.998  0.00  0.00     0.149 HD
ENDBRANCH   6  13
BRANCH   5  18
ATOM     18  N   LIG d   1      -0.645  77.371 116.315  0.00  0.00     0.381 N 
ATOM     19  H   LIG d   1      -0.804  78.199 116.853  0.00  0.00    -0.090 HD
ATOM     20  H   LIG d   1       0.298  77.064 116.480  0.00  0.00    -0.090 HD
ATOM     21  H   LIG d   1      -1.286  76.659 116.590  0.00  0.00    -0.090 HD
ENDBRANCH   5  18
BRANCH   3  22
ATOM     22  C   LIG d   1      -3.597  77.108 112.553  0.00  0.00     0.382 C 
ATOM     23  O   LIG d   1      -4.439  76.455 113.216  0.00  0.00    -0.241 OA
ATOM     24  O   LIG d   1      -3.651  77.092 111.309  0.00  0.00    -0.241 OA
ENDBRANCH   3  22
TORSDOF 7
ENDMDL
MODEL 3
REMARK VINA RESULT:      -4.4      3.202      6.069
REMARK  7 active torsions:
REMARK  status: ('A' for Active; 'I' for Inactive)
REMARK    1  A    between atoms: C_2  and  C_3 
REMARK    2  A    between atoms: C_3  and  O_6 
REMARK    3  A    between atoms: C_3  and  C_4 
REMARK    4  A    between atoms: C_7  and  O_6 
REMARK    5  A    between atoms: C_9  and  C_10 
REMARK    6  A    between atoms: N_15  and  C_14 
REMARK    7  A    between atoms: N_20  and  C_19 
REMARK       I    between atoms: C_22  and  N_20 
ROOT
ATOM      1  C   LIG d   1      -0.885  79.717 113.543  0.00  0.00     0.161 C 
ATOM      2  C   LIG d   1      -1.780  78.708 113.151  0.00  0.00     0.016 C 
ATOM      3  C   LIG d   1      -1.924  78.273 111.813  0.00  0.00     0.038 C 
ATOM      4  C   LIG d   1      -1.068  78.715 110.793  0.00  0.00     0.028 C 
ATOM      5  C   LIG d   1      -0.488  80.102 111.048  0.00  0.00    -0.047 C 
ATOM      6  C   LIG d   1       0.135  80.133 112.463  0.00  0.00     0.091 C 
ENDROOT
BRANCH   1   7
ATOM      7  O   LIG d   1      -0.204  79.323 114.750  0.00  0.00    -0.368 OA
BRANCH   7   8
ATOM      8  C   LIG d   1      -0.869  78.323 115.561  0.00  0.00     0.119 C 
BRANCH   8   9
ATOM      9  C   LIG d   1      -1.444  79.038 116.799  0.00  0.00     0.028 C 
ATOM     10  C   LIG d   1      -2.955  78.804 116.963  0.00  0.00     0.006 C 
ENDBRANCH   8   9
BRANCH   8  11
ATOM     11  C   LIG d   1       0.127  77.298 116.111  0.00  0.00     0.028 C 
ATOM     12  C   LIG d   1      -0.444  75.872 116.147  0.00  0.00     0.006 C 
ENDBRANCH   8  11
ENDBRANCH   7   8
ENDBRANCH   1   7
BRANCH   6  13
ATOM     13  N   LIG d   1       0.651  81.479 112.825  0.00  0.00    -0.311 N 
ATOM     14  C   LIG d   1       1.927  81.836 112.690  0.00  0.00     0.210 C 
ATOM     15  C   LIG d   1       2.251  83.263 113.142  0.00  0.00     0.109 C 
ATOM     16  O   LIG d   1       2.815  81.116 112.208  0.00  0.00    -0.276 OA
ATOM     17  H   LIG d   1      -0.008  82.136 113.195  0.00  0.00     0.149 HD
ENDBRANCH   6  13
BRANCH   5  18
ATOM     18  N   LIG d   1       0.490  80.379 109.979  0.00  0.00     0.381 N 
ATOM     19  H   LIG d   1       0.901  79.523 109.666  0.00  0.00    -0.090 HD
ATOM     20  H   LIG d   1       1.219  80.963 110.350  0.00  0.00    -0.090 HD
ATOM     21  H   LIG d   1       0.041  80.839 109.218  0.00  0.00    -0.090 HD
ENDBRANCH   5  18
BRANCH   3  22
ATOM     22  C   LIG d   1      -2.960  77.414 111.478  0.00  0.00     0.382 C 
ATOM     23  O   LIG d   1      -3.845  77.139 112.323  0.00  0.00    -0.241 OA
ATOM     24  O   LIG d   1      -2.996  76.875 110.355  0.00  0.00    -0.241 OA
ENDBRANCH   3  22
TORSDOF 7
ENDMDL
MODEL 4
REMARK VINA RESULT:      -3.9      5.416      7.335
REMARK  7 active torsions:
REMARK  status: ('A' for Active; 'I' for Inactive)
REMARK    1  A    between atoms: C_2  and  C_3 
REMARK    2  A    between atoms: C_3  and  O_6 
REMARK    3  A    between atoms: C_3  and  C_4 
REMARK    4  A    between atoms: C_7  and  O_6 
REMARK    5  A    between atoms: C_9  and  C_10 
REMARK    6  A    between atoms: N_15  and  C_14 
REMARK    7  A    between atoms: N_20  and  C_19 
REMARK       I    between atoms: C_22  and  N_20 
ROOT
ATOM      1  C   LIG d   1      -2.667  78.372 115.707  0.00  0.00     0.161 C 
ATOM      2  C   LIG d   1      -2.908  79.344 114.722  0.00  0.00     0.016 C 
ATOM      3  C   LIG d   1      -2.476  79.218 113.382  0.00  0.00     0.038 C 
ATOM      4  C   LIG d   1      -1.901  78.034 112.897  0.00  0.00     0.028 C 
ATOM      5  C   LIG d   1      -1.184  77.224 113.971  0.00  0.00    -0.047 C 
ATOM      6  C   LIG d   1      -2.139  77.025 115.170  0.00  0.00     0.091 C 
ENDROOT
BRANCH   1   7
ATOM      7  O   LIG d   1      -3.858  78.166 116.492  0.00  0.00    -0.368 OA
BRANCH   7   8
ATOM      8  C   LIG d   1      -3.919  78.874 117.755  0.00  0.00     0.119 C 
BRANCH   8   9
ATOM      9  C   LIG d   1      -2.474  79.231 118.156  0.00  0.00     0.028 C 
ATOM     10  C   LIG d   1      -2.407  80.466 119.070  0.00  0.00     0.006 C 
ENDBRANCH   8   9
BRANCH   8  11
ATOM     11  C   LIG d   1      -4.440  77.970 118.876  0.00  0.00     0.028 C 
ATOM     12  C   LIG d   1      -3.441  76.869 119.267  0.00  0.00     0.006 C 
ENDBRANCH   8  11
ENDBRANCH   7   8
ENDBRANCH   1   7
BRANCH   6  13
ATOM     13  N   LIG d   1      -1.488  76.314 116.302  0.00  0.00    -0.311 N 
ATOM     14  C   LIG d   1      -1.564  74.996 116.481  0.00  0.00     0.210 C 
ATOM     15  C   LIG d   1      -0.837  74.469 117.722  0.00  0.00     0.109 C 
ATOM     16  O   LIG d   1      -2.138  74.210 115.712  0.00  0.00    -0.276 OA
ATOM     17  H   LIG d   1      -0.975  76.872 116.956  0.00  0.00     0.149 HD
ENDBRANCH   6  13
BRANCH   5  18
ATOM     18  N   LIG d   1      -0.753  75.953 113.358  0.00  0.00     0.381 N 
ATOM     19  H   LIG d   1       0.224  75.813 113.522  0.00  0.00    -0.090 HD
ATOM     20  H   LIG d   1      -0.902  76.004 112.366  0.00  0.00    -0.090 HD
ATOM     21  H   LIG d   1      -1.273  75.196 113.742  0.00  0.00    -0.090 HD
ENDBRANCH   5  18
BRANCH   3  22
ATOM     22  C   LIG d   1      -2.581  80.300 112.521  0.00  0.00     0.382 C 
ATOM     23  O   LIG d   1      -1.596  80.648 111.827  0.00  0.00    -0.241 OA
ATOM     24  O   LIG d   1      -3.636  80.960 112.463  0.00  0.00    -0.241 OA
ENDBRANCH   3  22
TORSDOF 7
ENDMDL
MODEL 5
REMARK VINA RESULT:      -3.9      5.822      7.573
REMARK  7 active torsions:
REMARK  status: ('A' for Active; 'I' for Inactive)
REMARK    1  A    between atoms: C_2  and  C_3 
REMARK    2  A    between atoms: C_3  and  O_6 
REMARK    3  A    between atoms: C_3  and  C_4 
REMARK    4  A    between atoms: C_7  and  O_6 
REMARK    5  A    between atoms: C_9  and  C_10 
REMARK    6  A    between atoms: N_15  and  C_14 
REMARK    7  A    between atoms: N_20  and  C_19 
REMARK       I    between atoms: C_22  and  N_20 
ROOT
ATOM      1  C   LIG d   1      -0.368  78.450 115.427  0.00  0.00     0.161 C 
ATOM      2  C   LIG d   1      -1.457  78.505 114.541  0.00  0.00     0.016 C 
ATOM      3  C   LIG d   1      -2.108  77.357 114.035  0.00  0.00     0.038 C 
ATOM      4  C   LIG d   1      -1.809  76.068 114.503  0.00  0.00     0.028 C 
ATOM      5  C   LIG d   1      -0.380  75.928 115.018  0.00  0.00    -0.047 C 
ATOM      6  C   LIG d   1      -0.100  77.057 116.035  0.00  0.00     0.091 C 
ENDROOT
BRANCH   1   7
ATOM      7  O   LIG d   1      -0.539  79.428 116.471  0.00  0.00    -0.368 OA
BRANCH   7   8
ATOM      8  C   LIG d   1      -1.070  78.936 117.726  0.00  0.00     0.119 C 
BRANCH   8   9
ATOM      9  C   LIG d   1      -2.551  79.357 117.798  0.00  0.00     0.028 C 
ATOM     10  C   LIG d   1      -3.509  78.162 117.654  0.00  0.00     0.006 C 
ENDBRANCH   8   9
BRANCH   8  11
ATOM     11  C   LIG d   1      -0.397  79.615 118.922  0.00  0.00     0.028 C 
ATOM     12  C   LIG d   1       1.073  79.975 118.653  0.00  0.00     0.006 C 
ENDBRANCH   8  11
ENDBRANCH   7   8
ENDBRANCH   1   7
BRANCH   6  13
ATOM     13  N   LIG d   1       1.303  77.043 116.525  0.00  0.00    -0.311 N 
ATOM     14  C   LIG d   1       1.686  76.414 117.634  0.00  0.00     0.210 C 
ATOM     15  C   LIG d   1       3.175  76.542 117.969  0.00  0.00     0.109 C 
ATOM     16  O   LIG d   1       0.940  75.734 118.355  0.00  0.00    -0.276 OA
ATOM     17  H   LIG d   1       1.980  77.544 115.983  0.00  0.00     0.149 HD
ENDBRANCH   6  13
BRANCH   5  18
ATOM     18  N   LIG d   1      -0.248  74.579 115.601  0.00  0.00     0.381 N 
ATOM     19  H   LIG d   1      -0.360  73.888 114.885  0.00  0.00    -0.090 HD
ATOM     20  H   LIG d   1      -0.973  74.447 116.283  0.00  0.00    -0.090 HD
ATOM     21  H   LIG d   1       0.645  74.480 116.031  0.00  0.00    -0.090 HD
ENDBRANCH   5  18
BRANCH   3  22
ATOM     22  C   LIG d   1      -3.044  77.488 113.020  0.00  0.00     0.382 C 
ATOM     23  O   LIG d   1      -2.921  78.401 112.169  0.00  0.00    -0.241 OA
ATOM     24  O   LIG d   1      -4.032  76.732 112.971  0.00  0.00    -0.241 OA
ENDBRANCH   3  22
TORSDOF 7
ENDMDL
MODEL 6
REMARK VINA RESULT:      -3.8      4.546      6.484
REMARK  7 active torsions:
REMARK  status: ('A' for Active; 'I' for Inactive)
REMARK    1  A    between atoms: C_2  and  C_3 
REMARK    2  A    between atoms: C_3  and  O_6 
REMARK    3  A    between atoms: C_3  and  C_4 
REMARK    4  A    between atoms: C_7  and  O_6 
REMARK    5  A    between atoms: C_9  and  C_10 
REMARK    6  A    between atoms: N_15  and  C_14 
REMARK    7  A    between atoms: N_20  and  C_19 
REMARK       I    between atoms: C_22  and  N_20 
ROOT
ATOM      1  C   LIG d   1      -0.219  78.138 115.367  0.00  0.00     0.161 C 
ATOM      2  C   LIG d   1      -0.838  79.007 114.452  0.00  0.00     0.016 C 
ATOM      3  C   LIG d   1      -2.087  78.738 113.847  0.00  0.00     0.038 C 
ATOM      4  C   LIG d   1      -2.878  77.645 114.232  0.00  0.00     0.028 C 
ATOM      5  C   LIG d   1      -2.068  76.475 114.781  0.00  0.00    -0.047 C 
ATOM      6  C   LIG d   1      -1.117  76.995 115.883  0.00  0.00     0.091 C 
ENDROOT
BRANCH   1   7
ATOM      7  O   LIG d   1       0.317  78.893 116.472  0.00  0.00    -0.368 OA
BRANCH   7   8
ATOM      8  C   LIG d   1       1.752  78.821 116.656  0.00  0.00     0.119 C 
BRANCH   8   9
ATOM      9  C   LIG d   1       2.011  78.422 118.122  0.00  0.00     0.028 C 
ATOM     10  C   LIG d   1       2.879  77.158 118.242  0.00  0.00     0.006 C 
ENDBRANCH   8   9
BRANCH   8  11
ATOM     11  C   LIG d   1       2.405  80.196 116.489  0.00  0.00     0.028 C 
ATOM     12  C   LIG d   1       2.808  80.491 115.035  0.00  0.00     0.006 C 
ENDBRANCH   8  11
ENDBRANCH   7   8
ENDBRANCH   1   7
BRANCH   6  13
ATOM     13  N   LIG d   1      -0.229  75.929 116.415  0.00  0.00    -0.311 N 
ATOM     14  C   LIG d   1      -0.509  75.216 117.504  0.00  0.00     0.210 C 
ATOM     15  C   LIG d   1       0.552  74.181 117.891  0.00  0.00     0.109 C 
ATOM     16  O   LIG d   1      -1.552  75.321 118.169  0.00  0.00    -0.276 OA
ATOM     17  H   LIG d   1       0.624  75.757 115.919  0.00  0.00     0.149 HD
ENDBRANCH   6  13
BRANCH   5  18
ATOM     18  N   LIG d   1      -3.023  75.463 115.271  0.00  0.00     0.381 N 
ATOM     19  H   LIG d   1      -3.659  75.215 114.540  0.00  0.00    -0.090 HD
ATOM     20  H   LIG d   1      -3.552  75.856 116.030  0.00  0.00    -0.090 HD
ATOM     21  H   LIG d   1      -2.532  74.654 115.582  0.00  0.00    -0.090 HD
ENDBRANCH   5  18
BRANCH   3  22
ATOM     22  C   LIG d   1      -2.538  79.546 112.815  0.00  0.00     0.382 C 
ATOM     23  O   LIG d   1      -2.034  79.442 111.671  0.00  0.00    -0.241 OA
ATOM     24  O   LIG d   1      -3.413  80.408 113.024  0.00  0.00    -0.241 OA
ENDBRANCH   3  22
TORSDOF 7
ENDMDL
MODEL 7
REMARK VINA RESULT:      -3.7      5.305      7.963
REMARK  7 active torsions:
REMARK  status: ('A' for Active; 'I' for Inactive)
REMARK    1  A    between atoms: C_2  and  C_3 
REMARK    2  A    between atoms: C_3  and  O_6 
REMARK    3  A    between atoms: C_3  and  C_4 
REMARK    4  A    between atoms: C_7  and  O_6 
REMARK    5  A    between atoms: C_9  and  C_10 
REMARK    6  A    between atoms: N_15  and  C_14 
REMARK    7  A    between atoms: N_20  and  C_19 
REMARK       I    between atoms: C_22  and  N_20 
ROOT
ATOM      1  C   LIG d   1      -2.012  77.388 116.324  0.00  0.00     0.161 C 
ATOM      2  C   LIG d   1      -2.736  77.697 115.160  0.00  0.00     0.016 C 
ATOM      3  C   LIG d   1      -2.214  78.479 114.104  0.00  0.00     0.038 C 
ATOM      4  C   LIG d   1      -0.871  78.882 114.073  0.00  0.00     0.028 C 
ATOM      5  C   LIG d   1      -0.249  79.023 115.458  0.00  0.00    -0.047 C 
ATOM      6  C   LIG d   1      -0.507  77.726 116.258  0.00  0.00     0.091 C 
ENDROOT
BRANCH   1   7
ATOM      7  O   LIG d   1      -2.199  76.000 116.662  0.00  0.00    -0.368 OA
BRANCH   7   8
ATOM      8  C   LIG d   1      -2.490  75.108 115.557  0.00  0.00     0.119 C 
BRANCH   8   9
ATOM      9  C   LIG d   1      -3.637  74.180 116.001  0.00  0.00     0.028 C 
ATOM     10  C   LIG d   1      -3.836  74.180 117.526  0.00  0.00     0.006 C 
ENDBRANCH   8   9
BRANCH   8  11
ATOM     11  C   LIG d   1      -1.307  74.180 115.265  0.00  0.00     0.028 C 
ATOM     12  C   LIG d   1      -0.297  74.794 114.283  0.00  0.00     0.006 C 
ENDBRANCH   8  11
ENDBRANCH   7   8
ENDBRANCH   1   7
BRANCH   6  13
ATOM     13  N   LIG d   1      -0.004  77.811 117.654  0.00  0.00    -0.311 N 
ATOM     14  C   LIG d   1       0.722  76.855 118.231  0.00  0.00     0.210 C 
ATOM     15  C   LIG d   1       1.121  77.135 119.684  0.00  0.00     0.109 C 
ATOM     16  O   LIG d   1       1.101  75.817 117.668  0.00  0.00    -0.276 OA
ATOM     17  H   LIG d   1      -0.239  78.634 118.174  0.00  0.00     0.149 HD
ENDBRANCH   6  13
BRANCH   5  18
ATOM     18  N   LIG d   1       1.186  79.312 115.275  0.00  0.00     0.381 N 
ATOM     19  H   LIG d   1       1.598  78.620 114.681  0.00  0.00    -0.090 HD
ATOM     20  H   LIG d   1       1.642  79.273 116.169  0.00  0.00    -0.090 HD
ATOM     21  H   LIG d   1       1.303  80.217 114.873  0.00  0.00    -0.090 HD
ENDBRANCH   5  18
BRANCH   3  22
ATOM     22  C   LIG d   1      -3.052  78.900 113.082  0.00  0.00     0.382 C 
ATOM     23  O   LIG d   1      -3.325  80.118 112.957  0.00  0.00    -0.241 OA
ATOM     24  O   LIG d   1      -3.574  78.072 112.312  0.00  0.00    -0.241 OA
ENDBRANCH   3  22
TORSDOF 7
ENDMDL
MODEL 8
REMARK VINA RESULT:      -3.7      3.677      6.496
REMARK  7 active torsions:
REMARK  status: ('A' for Active; 'I' for Inactive)
REMARK    1  A    between atoms: C_2  and  C_3 
REMARK    2  A    between atoms: C_3  and  O_6 
REMARK    3  A    between atoms: C_3  and  C_4 
REMARK    4  A    between atoms: C_7  and  O_6 
REMARK    5  A    between atoms: C_9  and  C_10 
REMARK    6  A    between atoms: N_15  and  C_14 
REMARK    7  A    between atoms: N_20  and  C_19 
REMARK       I    between atoms: C_22  and  N_20 
ROOT
ATOM      1  C   LIG d   1      -1.587  78.875 115.044  0.00  0.00     0.161 C 
ATOM      2  C   LIG d   1      -1.910  77.611 115.566  0.00  0.00     0.016 C 
ATOM      3  C   LIG d   1      -2.065  76.456 114.767  0.00  0.00     0.038 C 
ATOM      4  C   LIG d   1      -1.758  76.454 113.398  0.00  0.00     0.028 C 
ATOM      5  C   LIG d   1      -1.917  77.821 112.740  0.00  0.00    -0.047 C 
ATOM      6  C   LIG d   1      -1.139  78.870 113.568  0.00  0.00     0.091 C 
ENDROOT
BRANCH   1   7
ATOM      7  O   LIG d   1      -0.586  79.503 115.869  0.00  0.00    -0.368 OA
BRANCH   7   8
ATOM      8  C   LIG d   1       0.727  78.891 115.855  0.00  0.00     0.119 C 
BRANCH   8   9
ATOM      9  C   LIG d   1       1.041  78.436 117.293  0.00  0.00     0.028 C 
ATOM     10  C   LIG d   1       1.284  76.920 117.389  0.00  0.00     0.006 C 
ENDBRANCH   8   9
BRANCH   8  11
ATOM     11  C   LIG d   1       1.814  79.912 115.507  0.00  0.00     0.028 C 
ATOM     12  C   LIG d   1       2.277  80.729 116.724  0.00  0.00     0.006 C 
ENDBRANCH   8  11
ENDBRANCH   7   8
ENDBRANCH   1   7
BRANCH   6  13
ATOM     13  N   LIG d   1      -1.311  80.249 113.040  0.00  0.00    -0.311 N 
ATOM     14  C   LIG d   1      -0.496  80.796 112.141  0.00  0.00     0.210 C 
ATOM     15  C   LIG d   1      -0.842  82.236 111.747  0.00  0.00     0.109 C 
ATOM     16  O   LIG d   1       0.460  80.215 111.607  0.00  0.00    -0.276 OA
ATOM     17  H   LIG d   1      -2.081  80.780 113.397  0.00  0.00     0.149 HD
ENDBRANCH   6  13
BRANCH   5  18
ATOM     18  N   LIG d   1      -1.434  77.706 111.351  0.00  0.00     0.381 N 
ATOM     19  H   LIG d   1      -1.328  76.741 111.108  0.00  0.00    -0.090 HD
ATOM     20  H   LIG d   1      -0.534  78.149 111.282  0.00  0.00    -0.090 HD
ATOM     21  H   LIG d   1      -2.076  78.144 110.729  0.00  0.00    -0.090 HD
ENDBRANCH   5  18
BRANCH   3  22
ATOM     22  C   LIG d   1      -2.571  75.294 115.329  0.00  0.00     0.382 C 
ATOM     23  O   LIG d   1      -1.943  74.718 116.250  0.00  0.00    -0.241 OA
ATOM     24  O   LIG d   1      -3.625  74.790 114.898  0.00  0.00    -0.241 OA
ENDBRANCH   3  22
TORSDOF 7
ENDMDL
MODEL 9
REMARK VINA RESULT:      -3.7      5.618      7.977
REMARK  7 active torsions:
REMARK  status: ('A' for Active; 'I' for Inactive)
REMARK    1  A    between atoms: C_2  and  C_3 
REMARK    2  A    between atoms: C_3  and  O_6 
REMARK    3  A    between atoms: C_3  and  C_4 
REMARK    4  A    between atoms: C_7  and  O_6 
REMARK    5  A    between atoms: C_9  and  C_10 
REMARK    6  A    between atoms: N_15  and  C_14 
REMARK    7  A    between atoms: N_20  and  C_19 
REMARK       I    between atoms: C_22  and  N_20 
ROOT
ATOM      1  C   LIG d   1      -1.730  77.601 116.031  0.00  0.00     0.161 C 
ATOM      2  C   LIG d   1      -1.847  76.830 117.199  0.00  0.00     0.016 C 
ATOM      3  C   LIG d   1      -1.294  75.536 117.336  0.00  0.00     0.038 C 
ATOM      4  C   LIG d   1      -0.451  74.982 116.361  0.00  0.00     0.028 C 
ATOM      5  C   LIG d   1      -0.719  75.514 114.957  0.00  0.00    -0.047 C 
ATOM      6  C   LIG d   1      -0.720  77.059 114.997  0.00  0.00     0.091 C 
ENDROOT
BRANCH   1   7
ATOM      7  O   LIG d   1      -1.412  78.964 116.375  0.00  0.00    -0.368 OA
BRANCH   7   8
ATOM      8  C   LIG d   1      -0.708  79.158 117.627  0.00  0.00     0.119 C 
BRANCH   8   9
ATOM      9  C   LIG d   1      -1.376  80.341 118.354  0.00  0.00     0.028 C 
ATOM     10  C   LIG d   1      -0.374  81.451 118.713  0.00  0.00     0.006 C 
ENDBRANCH   8   9
BRANCH   8  11
ATOM     11  C   LIG d   1       0.741  79.594 117.390  0.00  0.00     0.028 C 
ATOM     12  C   LIG d   1       1.727  78.415 117.407  0.00  0.00     0.006 C 
ENDBRANCH   8  11
ENDBRANCH   7   8
ENDBRANCH   1   7
BRANCH   6  13
ATOM     13  N   LIG d   1      -1.058  77.661 113.681  0.00  0.00    -0.311 N 
ATOM     14  C   LIG d   1      -2.189  77.403 113.026  0.00  0.00     0.210 C 
ATOM     15  C   LIG d   1      -2.330  78.112 111.675  0.00  0.00     0.109 C 
ATOM     16  O   LIG d   1      -3.103  76.679 113.449  0.00  0.00    -0.276 OA
ATOM     17  H   LIG d   1      -0.387  78.285 113.278  0.00  0.00     0.149 HD
ENDBRANCH   6  13
BRANCH   5  18
ATOM     18  N   LIG d   1       0.317  74.960 114.065  0.00  0.00     0.381 N 
ATOM     19  H   LIG d   1       0.151  75.260 113.125  0.00  0.00    -0.090 HD
ATOM     20  H   LIG d   1       0.263  73.957 114.089  0.00  0.00    -0.090 HD
ATOM     21  H   LIG d   1       1.219  75.259 114.363  0.00  0.00    -0.090 HD
ENDBRANCH   5  18
BRANCH   3  22
ATOM     22  C   LIG d   1      -1.615  74.765 118.443  0.00  0.00     0.382 C 
ATOM     23  O   LIG d   1      -2.811  74.660 118.808  0.00  0.00    -0.241 OA
ATOM     24  O   LIG d   1      -0.720  74.209 119.107  0.00  0.00    -0.241 OA
ENDBRANCH   3  22
TORSDOF 7
ENDMDL
