MODEL 1
REMARK VINA RESULT:      -5.3      0.000      0.000
REMARK  7 active torsions:
REMARK  status: ('A' for Active; 'I' for Inactive)
REMARK    1  A    between atoms: C_2  and  C_3 
REMARK    2  A    between atoms: C_3  and  O_6 
REMARK    3  A    between atoms: C_3  and  C_4 
REMARK    4  A    between atoms: C_7  and  O_6 
REMARK    5  A    between atoms: C_9  and  C_10 
REMARK    6  A    between atoms: N_15  and  C_14 
REMARK    7  A    between atoms: N_20  and  C_19 
REMARK       I    between atoms: C_22  and  N_20 
ROOT
ATOM      1  C   LIG d   1      -2.649  78.396 115.751  0.00  0.00     0.161 C 
ATOM      2  C   LIG d   1      -2.909  79.471 114.884  0.00  0.00     0.016 C 
ATOM      3  C   LIG d   1      -2.402  79.549 113.567  0.00  0.00     0.038 C 
ATOM      4  C   LIG d   1      -1.721  78.477 112.970  0.00  0.00     0.028 C 
ATOM      5  C   LIG d   1      -1.003  77.581 113.974  0.00  0.00    -0.047 C 
ATOM      6  C   LIG d   1      -2.001  77.167 115.080  0.00  0.00     0.091 C 
ENDROOT
BRANCH   1   7
ATOM      7  O   LIG d   1      -3.861  78.014 116.432  0.00  0.00    -0.368 OA
BRANCH   7   8
ATOM      8  C   LIG d   1      -3.983  78.449 117.808  0.00  0.00     0.119 C 
BRANCH   8   9
ATOM      9  C   LIG d   1      -2.650  79.114 118.203  0.00  0.00     0.028 C 
ATOM     10  C   LIG d   1      -2.845  80.535 118.759  0.00  0.00     0.006 C 
ENDBRANCH   8   9
BRANCH   8  11
ATOM     11  C   LIG d   1      -4.138  77.258 118.758  0.00  0.00     0.028 C 
ATOM     12  C   LIG d   1      -2.807  76.823 119.391  0.00  0.00     0.006 C 
ENDBRANCH   8  11
ENDBRANCH   7   8
ENDBRANCH   1   7
BRANCH   6  13
ATOM     13  N   LIG d   1      -1.359  76.358 116.148  0.00  0.00    -0.311 N 
ATOM     14  C   LIG d   1      -1.359  75.026 116.159  0.00  0.00     0.210 C 
ATOM     15  C   LIG d   1      -0.658  74.389 117.363  0.00  0.00     0.109 C 
ATOM     16  O   LIG d   1      -1.844  74.311 115.269  0.00  0.00    -0.276 OA
ATOM     17  H   LIG d   1      -0.914  76.857 116.894  0.00  0.00     0.149 HD
ENDBRANCH   6  13
BRANCH   5  18
ATOM     18  N   LIG d   1      -0.452  76.432 113.232  0.00  0.00     0.381 N 
ATOM     19  H   LIG d   1      -0.395  75.635 113.834  0.00  0.00    -0.090 HD
ATOM     20  H   LIG d   1       0.476  76.660 112.921  0.00  0.00    -0.090 HD
ATOM     21  H   LIG d   1      -1.031  76.224 112.448  0.00  0.00    -0.090 HD
ENDBRANCH   5  18
BRANCH   3  22
ATOM     22  C   LIG d   1      -2.541  80.725 112.845  0.00  0.00     0.382 C 
ATOM     23  O   LIG d   1      -1.535  81.261 112.321  0.00  0.00    -0.241 OA
ATOM     24  O   LIG d   1      -3.652  81.280 112.749  0.00  0.00    -0.241 OA
ENDBRANCH   3  22
TORSDOF 7
ENDMDL
MODEL 2
REMARK VINA RESULT:      -5.1      4.377      7.642
REMARK  7 active torsions:
REMARK  status: ('A' for Active; 'I' for Inactive)
REMARK    1  A    between atoms: C_2  and  C_3 
REMARK    2  A    between atoms: C_3  and  O_6 
REMARK    3  A    between atoms: C_3  and  C_4 
REMARK    4  A    between atoms: C_7  and  O_6 
REMARK    5  A    between atoms: C_9  and  C_10 
REMARK    6  A    between atoms: N_15  and  C_14 
REMARK    7  A    between atoms: N_20  and  C_19 
REMARK       I    between atoms: C_22  and  N_20 
ROOT
ATOM      1  C   LIG d   1       0.505  80.012 111.341  0.00  0.00     0.161 C 
ATOM      2  C   LIG d   1      -0.669  79.317 111.005  0.00  0.00     0.016 C 
ATOM      3  C   LIG d   1      -1.543  78.755 111.965  0.00  0.00     0.038 C 
ATOM      4  C   LIG d   1      -1.379  78.982 113.339  0.00  0.00     0.028 C 
ATOM      5  C   LIG d   1       0.068  79.250 113.741  0.00  0.00    -0.047 C 
ATOM      6  C   LIG d   1       0.641  80.365 112.837  0.00  0.00     0.091 C 
ENDROOT
BRANCH   1   7
ATOM      7  O   LIG d   1       0.617  81.200 110.534  0.00  0.00    -0.368 OA
BRANCH   7   8
ATOM      8  C   LIG d   1       1.586  81.150 109.457  0.00  0.00     0.119 C 
BRANCH   8   9
ATOM      9  C   LIG d   1       2.556  79.992 109.762  0.00  0.00     0.028 C 
ATOM     10  C   LIG d   1       4.022  80.455 109.822  0.00  0.00     0.006 C 
ENDBRANCH   8   9
BRANCH   8  11
ATOM     11  C   LIG d   1       2.455  82.410 109.430  0.00  0.00     0.028 C 
ATOM     12  C   LIG d   1       1.627  83.705 109.456  0.00  0.00     0.006 C 
ENDBRANCH   8  11
ENDBRANCH   7   8
ENDBRANCH   1   7
BRANCH   6  13
ATOM     13  N   LIG d   1       2.079  80.630 113.107  0.00  0.00    -0.311 N 
ATOM     14  C   LIG d   1       2.620  81.846 113.065  0.00  0.00     0.210 C 
ATOM     15  C   LIG d   1       4.123  81.895 113.356  0.00  0.00     0.109 C 
ATOM     16  O   LIG d   1       1.992  82.893 112.847  0.00  0.00    -0.276 OA
ATOM     17  H   LIG d   1       2.655  79.841 113.324  0.00  0.00     0.149 HD
ENDBRANCH   6  13
BRANCH   5  18
ATOM     18  N   LIG d   1       0.074  79.605 115.173  0.00  0.00     0.381 N 
ATOM     19  H   LIG d   1      -0.822  79.961 115.437  0.00  0.00    -0.090 HD
ATOM     20  H   LIG d   1       0.758  80.325 115.326  0.00  0.00    -0.090 HD
ATOM     21  H   LIG d   1       0.297  78.804 115.722  0.00  0.00    -0.090 HD
ENDBRANCH   5  18
BRANCH   3  22
ATOM     22  C   LIG d   1      -2.572  77.923 111.553  0.00  0.00     0.382 C 
ATOM     23  O   LIG d   1      -3.761  78.212 111.830  0.00  0.00    -0.241 OA
ATOM     24  O   LIG d   1      -2.324  76.864 110.946  0.00  0.00    -0.241 OA
ENDBRANCH   3  22
TORSDOF 7
ENDMDL
MODEL 3
REMARK VINA RESULT:      -5.0      3.271      5.257
REMARK  7 active torsions:
REMARK  status: ('A' for Active; 'I' for Inactive)
REMARK    1  A    between atoms: C_2  and  C_3 
REMARK    2  A    between atoms: C_3  and  O_6 
REMARK    3  A    between atoms: C_3  and  C_4 
REMARK    4  A    between atoms: C_7  and  O_6 
REMARK    5  A    between atoms: C_9  and  C_10 
REMARK    6  A    between atoms: N_15  and  C_14 
REMARK    7  A    between atoms: N_20  and  C_19 
REMARK       I    between atoms: C_22  and  N_20 
ROOT
ATOM      1  C   LIG d   1      -1.141  79.979 113.039  0.00  0.00     0.161 C 
ATOM      2  C   LIG d   1      -2.168  79.041 112.839  0.00  0.00     0.016 C 
ATOM      3  C   LIG d   1      -2.337  78.316 111.637  0.00  0.00     0.038 C 
ATOM      4  C   LIG d   1      -1.394  78.369 110.600  0.00  0.00     0.028 C 
ATOM      5  C   LIG d   1      -0.615  79.680 110.556  0.00  0.00    -0.047 C 
ATOM      6  C   LIG d   1      -0.037  79.968 111.961  0.00  0.00     0.091 C 
ENDROOT
BRANCH   1   7
ATOM      7  O   LIG d   1      -0.564  79.800 114.348  0.00  0.00    -0.368 OA
BRANCH   7   8
ATOM      8  C   LIG d   1      -1.104  78.714 115.139  0.00  0.00     0.119 C 
BRANCH   8   9
ATOM      9  C   LIG d   1      -1.513  79.296 116.506  0.00  0.00     0.028 C 
ATOM     10  C   LIG d   1      -3.036  79.274 116.721  0.00  0.00     0.006 C 
ENDBRANCH   8   9
BRANCH   8  11
ATOM     11  C   LIG d   1      -0.033  77.664 115.450  0.00  0.00     0.028 C 
ATOM     12  C   LIG d   1      -0.353  76.289 114.843  0.00  0.00     0.006 C 
ENDBRANCH   8  11
ENDBRANCH   7   8
ENDBRANCH   1   7
BRANCH   6  13
ATOM     13  N   LIG d   1       0.668  81.275 112.026  0.00  0.00    -0.311 N 
ATOM     14  C   LIG d   1       1.946  81.436 111.686  0.00  0.00     0.210 C 
ATOM     15  C   LIG d   1       2.483  82.862 111.848  0.00  0.00     0.109 C 
ATOM     16  O   LIG d   1       2.676  80.541 111.236  0.00  0.00    -0.276 OA
ATOM     17  H   LIG d   1       0.141  82.062 112.351  0.00  0.00     0.149 HD
ENDBRANCH   6  13
BRANCH   5  18
ATOM     18  N   LIG d   1       0.425  79.546 109.519  0.00  0.00     0.381 N 
ATOM     19  H   LIG d   1       1.284  79.938 109.849  0.00  0.00    -0.090 HD
ATOM     20  H   LIG d   1       0.138  80.057 108.703  0.00  0.00    -0.090 HD
ATOM     21  H   LIG d   1       0.556  78.585 109.290  0.00  0.00    -0.090 HD
ENDBRANCH   5  18
BRANCH   3  22
ATOM     22  C   LIG d   1      -3.482  77.557 111.448  0.00  0.00     0.382 C 
ATOM     23  O   LIG d   1      -4.190  77.234 112.432  0.00  0.00    -0.241 OA
ATOM     24  O   LIG d   1      -3.791  77.154 110.311  0.00  0.00    -0.241 OA
ENDBRANCH   3  22
TORSDOF 7
ENDMDL
MODEL 4
REMARK VINA RESULT:      -4.9      5.602      7.418
REMARK  7 active torsions:
REMARK  status: ('A' for Active; 'I' for Inactive)
REMARK    1  A    between atoms: C_2  and  C_3 
REMARK    2  A    between atoms: C_3  and  O_6 
REMARK    3  A    between atoms: C_3  and  C_4 
REMARK    4  A    between atoms: C_7  and  O_6 
REMARK    5  A    between atoms: C_9  and  C_10 
REMARK    6  A    between atoms: N_15  and  C_14 
REMARK    7  A    between atoms: N_20  and  C_19 
REMARK       I    between atoms: C_22  and  N_20 
ROOT
ATOM      1  C   LIG d   1       2.523  81.001 112.713  0.00  0.00     0.161 C 
ATOM      2  C   LIG d   1       3.557  81.687 112.057  0.00  0.00     0.016 C 
ATOM      3  C   LIG d   1       3.438  82.206 110.747  0.00  0.00     0.038 C 
ATOM      4  C   LIG d   1       2.217  82.205 110.057  0.00  0.00     0.028 C 
ATOM      5  C   LIG d   1       1.284  81.075 110.480  0.00  0.00    -0.047 C 
ATOM      6  C   LIG d   1       1.147  81.087 112.020  0.00  0.00     0.091 C 
ENDROOT
BRANCH   1   7
ATOM      7  O   LIG d   1       2.425  81.453 114.078  0.00  0.00    -0.368 OA
BRANCH   7   8
ATOM      8  C   LIG d   1       3.628  82.026 114.648  0.00  0.00     0.119 C 
BRANCH   8   9
ATOM      9  C   LIG d   1       4.129  81.060 115.738  0.00  0.00     0.028 C 
ATOM     10  C   LIG d   1       2.999  80.588 116.669  0.00  0.00     0.006 C 
ENDBRANCH   8   9
BRANCH   8  11
ATOM     11  C   LIG d   1       3.329  83.340 115.376  0.00  0.00     0.028 C 
ATOM     12  C   LIG d   1       3.265  84.547 114.426  0.00  0.00     0.006 C 
ENDBRANCH   8  11
ENDBRANCH   7   8
ENDBRANCH   1   7
BRANCH   6  13
ATOM     13  N   LIG d   1       0.317  79.962 112.524  0.00  0.00    -0.311 N 
ATOM     14  C   LIG d   1      -0.999  80.046 112.708  0.00  0.00     0.210 C 
ATOM     15  C   LIG d   1      -1.659  78.776 113.254  0.00  0.00     0.109 C 
ATOM     16  O   LIG d   1      -1.688  81.042 112.440  0.00  0.00    -0.276 OA
ATOM     17  H   LIG d   1       0.791  79.106 112.737  0.00  0.00     0.149 HD
ENDBRANCH   6  13
BRANCH   5  18
ATOM     18  N   LIG d   1      -0.002  81.275 109.784  0.00  0.00     0.381 N 
ATOM     19  H   LIG d   1      -0.355  80.395 109.467  0.00  0.00    -0.090 HD
ATOM     20  H   LIG d   1       0.151  81.862 108.982  0.00  0.00    -0.090 HD
ATOM     21  H   LIG d   1      -0.659  81.704 110.398  0.00  0.00    -0.090 HD
ENDBRANCH   5  18
BRANCH   3  22
ATOM     22  C   LIG d   1       4.561  82.698 110.098  0.00  0.00     0.382 C 
ATOM     23  O   LIG d   1       5.629  82.041 110.109  0.00  0.00    -0.241 OA
ATOM     24  O   LIG d   1       4.531  83.811 109.540  0.00  0.00    -0.241 OA
ENDBRANCH   3  22
TORSDOF 7
ENDMDL
MODEL 5
REMARK VINA RESULT:      -4.8      3.427      6.117
REMARK  7 active torsions:
REMARK  status: ('A' for Active; 'I' for Inactive)
REMARK    1  A    between atoms: C_2  and  C_3 
REMARK    2  A    between atoms: C_3  and  O_6 
REMARK    3  A    between atoms: C_3  and  C_4 
REMARK    4  A    between atoms: C_7  and  O_6 
REMARK    5  A    between atoms: C_9  and  C_10 
REMARK    6  A    between atoms: N_15  and  C_14 
REMARK    7  A    between atoms: N_20  and  C_19 
REMARK       I    between atoms: C_22  and  N_20 
ROOT
ATOM      1  C   LIG d   1      -0.388  79.575 112.737  0.00  0.00     0.161 C 
ATOM      2  C   LIG d   1      -1.439  79.067 111.955  0.00  0.00     0.016 C 
ATOM      3  C   LIG d   1      -2.433  78.198 112.458  0.00  0.00     0.038 C 
ATOM      4  C   LIG d   1      -2.532  77.895 113.824  0.00  0.00     0.028 C 
ATOM      5  C   LIG d   1      -1.199  77.980 114.561  0.00  0.00    -0.047 C 
ATOM      6  C   LIG d   1      -0.542  79.345 114.255  0.00  0.00     0.091 C 
ENDROOT
BRANCH   1   7
ATOM      7  O   LIG d   1      -0.205  80.977 112.458  0.00  0.00    -0.368 OA
BRANCH   7   8
ATOM      8  C   LIG d   1       0.524  81.297 111.247  0.00  0.00     0.119 C 
BRANCH   8   9
ATOM      9  C   LIG d   1       1.868  80.545 111.304  0.00  0.00     0.028 C 
ATOM     10  C   LIG d   1       2.184  79.807 109.992  0.00  0.00     0.006 C 
ENDBRANCH   8   9
BRANCH   8  11
ATOM     11  C   LIG d   1       0.892  82.783 111.195  0.00  0.00     0.028 C 
ATOM     12  C   LIG d   1      -0.335  83.696 111.050  0.00  0.00     0.006 C 
ENDBRANCH   8  11
ENDBRANCH   7   8
ENDBRANCH   1   7
BRANCH   6  13
ATOM     13  N   LIG d   1       0.805  79.477 114.868  0.00  0.00    -0.311 N 
ATOM     14  C   LIG d   1       1.008  79.949 116.097  0.00  0.00     0.210 C 
ATOM     15  C   LIG d   1       2.476  80.019 116.529  0.00  0.00     0.109 C 
ATOM     16  O   LIG d   1       0.109  80.285 116.883  0.00  0.00    -0.276 OA
ATOM     17  H   LIG d   1       1.589  79.197 114.312  0.00  0.00     0.149 HD
ENDBRANCH   6  13
BRANCH   5  18
ATOM     18  N   LIG d   1      -1.469  77.777 115.997  0.00  0.00     0.381 N 
ATOM     19  H   LIG d   1      -2.262  78.322 116.272  0.00  0.00    -0.090 HD
ATOM     20  H   LIG d   1      -0.673  78.089 116.524  0.00  0.00    -0.090 HD
ATOM     21  H   LIG d   1      -1.641  76.813 116.179  0.00  0.00    -0.090 HD
ENDBRANCH   5  18
BRANCH   3  22
ATOM     22  C   LIG d   1      -3.320  77.588 111.583  0.00  0.00     0.382 C 
ATOM     23  O   LIG d   1      -3.015  77.453 110.374  0.00  0.00    -0.241 OA
ATOM     24  O   LIG d   1      -4.440  77.213 111.979  0.00  0.00    -0.241 OA
ENDBRANCH   3  22
TORSDOF 7
ENDMDL
MODEL 6
REMARK VINA RESULT:      -4.8      2.754      4.019
REMARK  7 active torsions:
REMARK  status: ('A' for Active; 'I' for Inactive)
REMARK    1  A    between atoms: C_2  and  C_3 
REMARK    2  A    between atoms: C_3  and  O_6 
REMARK    3  A    between atoms: C_3  and  C_4 
REMARK    4  A    between atoms: C_7  and  O_6 
REMARK    5  A    between atoms: C_9  and  C_10 
REMARK    6  A    between atoms: N_15  and  C_14 
REMARK    7  A    between atoms: N_20  and  C_19 
REMARK       I    between atoms: C_22  and  N_20 
ROOT
ATOM      1  C   LIG d   1      -1.999  78.257 115.284  0.00  0.00     0.161 C 
ATOM      2  C   LIG d   1      -2.719  77.724 114.201  0.00  0.00     0.016 C 
ATOM      3  C   LIG d   1      -2.354  77.925 112.850  0.00  0.00     0.038 C 
ATOM      4  C   LIG d   1      -1.150  78.550 112.492  0.00  0.00     0.028 C 
ATOM      5  C   LIG d   1      -0.649  79.543 113.536  0.00  0.00    -0.047 C 
ATOM      6  C   LIG d   1      -0.622  78.848 114.917  0.00  0.00     0.091 C 
ENDROOT
BRANCH   1   7
ATOM      7  O   LIG d   1      -1.858  77.259 116.314  0.00  0.00    -0.368 OA
BRANCH   7   8
ATOM      8  C   LIG d   1      -1.816  75.882 115.867  0.00  0.00     0.119 C 
BRANCH   8   9
ATOM      9  C   LIG d   1      -2.784  75.077 116.755  0.00  0.00     0.028 C 
ATOM     10  C   LIG d   1      -4.125  74.795 116.056  0.00  0.00     0.006 C 
ENDBRANCH   8   9
BRANCH   8  11
ATOM     11  C   LIG d   1      -0.436  75.261 116.104  0.00  0.00     0.028 C 
ATOM     12  C   LIG d   1      -0.083  74.181 115.070  0.00  0.00     0.006 C 
ENDBRANCH   8  11
ENDBRANCH   7   8
ENDBRANCH   1   7
BRANCH   6  13
ATOM     13  N   LIG d   1      -0.224  79.773 116.009  0.00  0.00    -0.311 N 
ATOM     14  C   LIG d   1       0.641  79.447 116.968  0.00  0.00     0.210 C 
ATOM     15  C   LIG d   1       0.896  80.541 118.009  0.00  0.00     0.109 C 
ATOM     16  O   LIG d   1       1.246  78.366 117.037  0.00  0.00    -0.276 OA
ATOM     17  H   LIG d   1      -0.643  80.682 116.012  0.00  0.00     0.149 HD
ENDBRANCH   6  13
BRANCH   5  18
ATOM     18  N   LIG d   1       0.678  80.016 113.101  0.00  0.00     0.381 N 
ATOM     19  H   LIG d   1       0.965  79.515 112.284  0.00  0.00    -0.090 HD
ATOM     20  H   LIG d   1       1.343  79.835 113.832  0.00  0.00    -0.090 HD
ATOM     21  H   LIG d   1       0.645  80.992 112.905  0.00  0.00    -0.090 HD
ENDBRANCH   5  18
BRANCH   3  22
ATOM     22  C   LIG d   1      -3.218  77.532 111.839  0.00  0.00     0.382 C 
ATOM     23  O   LIG d   1      -2.778  77.330 110.681  0.00  0.00    -0.241 OA
ATOM     24  O   LIG d   1      -4.439  77.421 112.059  0.00  0.00    -0.241 OA
ENDBRANCH   3  22
TORSDOF 7
ENDMDL
MODEL 7
REMARK VINA RESULT:      -4.6      2.613      3.783
REMARK  7 active torsions:
REMARK  status: ('A' for Active; 'I' for Inactive)
REMARK    1  A    between atoms: C_2  and  C_3 
REMARK    2  A    between atoms: C_3  and  O_6 
REMARK    3  A    between atoms: C_3  and  C_4 
REMARK    4  A    between atoms: C_7  and  O_6 
REMARK    5  A    between atoms: C_9  and  C_10 
REMARK    6  A    between atoms: N_15  and  C_14 
REMARK    7  A    between atoms: N_20  and  C_19 
REMARK       I    between atoms: C_22  and  N_20 
ROOT
ATOM      1  C   LIG d   1      -0.688  79.009 113.540  0.00  0.00     0.161 C 
ATOM      2  C   LIG d   1       0.134  79.826 112.746  0.00  0.00     0.016 C 
ATOM      3  C   LIG d   1       0.158  79.768 111.334  0.00  0.00     0.038 C 
ATOM      4  C   LIG d   1      -0.755  78.988 110.609  0.00  0.00     0.028 C 
ATOM      5  C   LIG d   1      -1.260  77.772 111.379  0.00  0.00    -0.047 C 
ATOM      6  C   LIG d   1      -1.771  78.232 112.763  0.00  0.00     0.091 C 
ENDROOT
BRANCH   1   7
ATOM      7  O   LIG d   1      -1.290  79.794 114.589  0.00  0.00    -0.368 OA
BRANCH   7   8
ATOM      8  C   LIG d   1      -0.869  79.483 115.940  0.00  0.00     0.119 C 
BRANCH   8   9
ATOM      9  C   LIG d   1       0.065  78.259 115.863  0.00  0.00     0.028 C 
ATOM     10  C   LIG d   1      -0.378  77.123 116.801  0.00  0.00     0.006 C 
ENDBRANCH   8   9
BRANCH   8  11
ATOM     11  C   LIG d   1      -2.053  79.036 116.803  0.00  0.00     0.028 C 
ATOM     12  C   LIG d   1      -3.412  79.344 116.156  0.00  0.00     0.006 C 
ENDBRANCH   8  11
ENDBRANCH   7   8
ENDBRANCH   1   7
BRANCH   6  13
ATOM     13  N   LIG d   1      -2.205  77.093 113.614  0.00  0.00    -0.311 N 
ATOM     14  C   LIG d   1      -3.463  76.660 113.673  0.00  0.00     0.210 C 
ATOM     15  C   LIG d   1      -3.698  75.486 114.629  0.00  0.00     0.109 C 
ATOM     16  O   LIG d   1      -4.400  77.115 113.001  0.00  0.00    -0.276 OA
ATOM     17  H   LIG d   1      -1.502  76.645 114.169  0.00  0.00     0.149 HD
ENDBRANCH   6  13
BRANCH   5  18
ATOM     18  N   LIG d   1      -2.305  77.128 110.561  0.00  0.00     0.381 N 
ATOM     19  H   LIG d   1      -2.203  77.403 109.604  0.00  0.00    -0.090 HD
ATOM     20  H   LIG d   1      -3.205  77.436 110.883  0.00  0.00    -0.090 HD
ATOM     21  H   LIG d   1      -2.237  76.138 110.639  0.00  0.00    -0.090 HD
ENDBRANCH   5  18
BRANCH   3  22
ATOM     22  C   LIG d   1       1.130  80.465 110.633  0.00  0.00     0.382 C 
ATOM     23  O   LIG d   1       0.880  81.608 110.182  0.00  0.00    -0.241 OA
ATOM     24  O   LIG d   1       2.241  79.947 110.409  0.00  0.00    -0.241 OA
ENDBRANCH   3  22
TORSDOF 7
ENDMDL
MODEL 8
REMARK VINA RESULT:      -4.4      3.509      5.168
REMARK  7 active torsions:
REMARK  status: ('A' for Active; 'I' for Inactive)
REMARK    1  A    between atoms: C_2  and  C_3 
REMARK    2  A    between atoms: C_3  and  O_6 
REMARK    3  A    between atoms: C_3  and  C_4 
REMARK    4  A    between atoms: C_7  and  O_6 
REMARK    5  A    between atoms: C_9  and  C_10 
REMARK    6  A    between atoms: N_15  and  C_14 
REMARK    7  A    between atoms: N_20  and  C_19 
REMARK       I    between atoms: C_22  and  N_20 
ROOT
ATOM      1  C   LIG d   1      -0.721  79.418 113.499  0.00  0.00     0.161 C 
ATOM      2  C   LIG d   1      -1.808  78.565 113.245  0.00  0.00     0.016 C 
ATOM      3  C   LIG d   1      -2.238  78.217 111.944  0.00  0.00     0.038 C 
ATOM      4  C   LIG d   1      -1.510  78.581 110.801  0.00  0.00     0.028 C 
ATOM      5  C   LIG d   1      -0.697  79.859 110.982  0.00  0.00    -0.047 C 
ATOM      6  C   LIG d   1       0.153  79.735 112.267  0.00  0.00     0.091 C 
ENDROOT
BRANCH   1   7
ATOM      7  O   LIG d   1       0.088  78.876 114.561  0.00  0.00    -0.368 OA
BRANCH   7   8
ATOM      8  C   LIG d   1      -0.176  79.389 115.889  0.00  0.00     0.119 C 
BRANCH   8   9
ATOM      9  C   LIG d   1       1.115  79.224 116.715  0.00  0.00     0.028 C 
ATOM     10  C   LIG d   1       2.036  80.452 116.616  0.00  0.00     0.006 C 
ENDBRANCH   8   9
BRANCH   8  11
ATOM     11  C   LIG d   1      -1.231  78.546 116.613  0.00  0.00     0.028 C 
ATOM     12  C   LIG d   1      -2.335  79.399 117.257  0.00  0.00     0.006 C 
ENDBRANCH   8  11
ENDBRANCH   7   8
ENDBRANCH   1   7
BRANCH   6  13
ATOM     13  N   LIG d   1       0.915  80.976 112.564  0.00  0.00    -0.311 N 
ATOM     14  C   LIG d   1       2.105  81.251 112.032  0.00  0.00     0.210 C 
ATOM     15  C   LIG d   1       2.727  82.574 112.487  0.00  0.00     0.109 C 
ATOM     16  O   LIG d   1       2.690  80.539 111.201  0.00  0.00    -0.276 OA
ATOM     17  H   LIG d   1       0.500  81.625 113.204  0.00  0.00     0.149 HD
ENDBRANCH   6  13
BRANCH   5  18
ATOM     18  N   LIG d   1       0.117  80.045 109.766  0.00  0.00     0.381 N 
ATOM     19  H   LIG d   1       0.442  79.158 109.437  0.00  0.00    -0.090 HD
ATOM     20  H   LIG d   1       0.917  80.609 109.993  0.00  0.00    -0.090 HD
ATOM     21  H   LIG d   1      -0.424  80.492 109.058  0.00  0.00    -0.090 HD
ENDBRANCH   5  18
BRANCH   3  22
ATOM     22  C   LIG d   1      -3.430  77.531 111.774  0.00  0.00     0.382 C 
ATOM     23  O   LIG d   1      -4.080  77.146 112.776  0.00  0.00    -0.241 OA
ATOM     24  O   LIG d   1      -3.841  77.251 110.632  0.00  0.00    -0.241 OA
ENDBRANCH   3  22
TORSDOF 7
ENDMDL
MODEL 9
REMARK VINA RESULT:      -4.3      3.129      4.945
REMARK  7 active torsions:
REMARK  status: ('A' for Active; 'I' for Inactive)
REMARK    1  A    between atoms: C_2  and  C_3 
REMARK    2  A    between atoms: C_3  and  O_6 
REMARK    3  A    between atoms: C_3  and  C_4 
REMARK    4  A    between atoms: C_7  and  O_6 
REMARK    5  A    between atoms: C_9  and  C_10 
REMARK    6  A    between atoms: N_15  and  C_14 
REMARK    7  A    between atoms: N_20  and  C_19 
REMARK       I    between atoms: C_22  and  N_20 
ROOT
ATOM      1  C   LIG d   1      -1.162  79.468 114.297  0.00  0.00     0.161 C 
ATOM      2  C   LIG d   1      -2.032  78.473 114.773  0.00  0.00     0.016 C 
ATOM      3  C   LIG d   1      -2.733  77.583 113.927  0.00  0.00     0.038 C 
ATOM      4  C   LIG d   1      -2.493  77.529 112.546  0.00  0.00     0.028 C 
ATOM      5  C   LIG d   1      -2.002  78.850 111.964  0.00  0.00    -0.047 C 
ATOM      6  C   LIG d   1      -0.803  79.352 112.801  0.00  0.00     0.091 C 
ENDROOT
BRANCH   1   7
ATOM      7  O   LIG d   1       0.035  79.494 115.099  0.00  0.00    -0.368 OA
BRANCH   7   8
ATOM      8  C   LIG d   1      -0.099  79.018 116.461  0.00  0.00     0.119 C 
BRANCH   8   9
ATOM      9  C   LIG d   1       0.384  80.145 117.395  0.00  0.00     0.028 C 
ATOM     10  C   LIG d   1      -0.759  80.741 118.234  0.00  0.00     0.006 C 
ENDBRANCH   8   9
BRANCH   8  11
ATOM     11  C   LIG d   1       0.836  77.837 116.733  0.00  0.00     0.028 C 
ATOM     12  C   LIG d   1       1.415  77.851 118.157  0.00  0.00     0.006 C 
ENDBRANCH   8  11
ENDBRANCH   7   8
ENDBRANCH   1   7
BRANCH   6  13
ATOM     13  N   LIG d   1      -0.314  80.681 112.351  0.00  0.00    -0.311 N 
ATOM     14  C   LIG d   1       0.647  80.840 111.442  0.00  0.00     0.210 C 
ATOM     15  C   LIG d   1       1.014  82.296 111.137  0.00  0.00     0.109 C 
ATOM     16  O   LIG d   1       1.207  79.915 110.837  0.00  0.00    -0.276 OA
ATOM     17  H   LIG d   1      -0.736  81.487 112.769  0.00  0.00     0.149 HD
ENDBRANCH   6  13
BRANCH   5  18
ATOM     18  N   LIG d   1      -1.661  78.615 110.548  0.00  0.00     0.381 N 
ATOM     19  H   LIG d   1      -1.402  77.658 110.417  0.00  0.00    -0.090 HD
ATOM     20  H   LIG d   1      -0.875  79.191 110.303  0.00  0.00    -0.090 HD
ATOM     21  H   LIG d   1      -2.440  78.839 109.968  0.00  0.00    -0.090 HD
ENDBRANCH   5  18
BRANCH   3  22
ATOM     22  C   LIG d   1      -3.716  76.761 114.457  0.00  0.00     0.382 C 
ATOM     23  O   LIG d   1      -3.911  75.621 113.969  0.00  0.00    -0.241 OA
ATOM     24  O   LIG d   1      -4.439  77.161 115.389  0.00  0.00    -0.241 OA
ENDBRANCH   3  22
TORSDOF 7
ENDMDL
