MODEL 1
REMARK VINA RESULT:      -4.1      0.000      0.000
REMARK  7 active torsions:
REMARK  status: ('A' for Active; 'I' for Inactive)
REMARK    1  A    between atoms: C_2  and  C_3 
REMARK    2  A    between atoms: C_3  and  O_6 
REMARK    3  A    between atoms: C_3  and  C_4 
REMARK    4  A    between atoms: C_7  and  O_6 
REMARK    5  A    between atoms: C_9  and  C_10 
REMARK    6  A    between atoms: N_15  and  C_14 
REMARK    7  A    between atoms: N_20  and  C_19 
REMARK       I    between atoms: C_22  and  N_20 
ROOT
ATOM      1  C   LIG d   1      -1.267  78.391 115.296  0.00  0.00     0.161 C 
ATOM      2  C   LIG d   1      -2.400  78.037 114.544  0.00  0.00     0.016 C 
ATOM      3  C   LIG d   1      -2.813  76.701 114.343  0.00  0.00     0.038 C 
ATOM      4  C   LIG d   1      -2.204  75.627 115.009  0.00  0.00     0.028 C 
ATOM      5  C   LIG d   1      -0.747  75.891 115.376  0.00  0.00    -0.047 C 
ATOM      6  C   LIG d   1      -0.654  77.241 116.122  0.00  0.00     0.091 C 
ENDROOT
BRANCH   1   7
ATOM      7  O   LIG d   1      -1.577  79.511 116.149  0.00  0.00    -0.368 OA
BRANCH   7   8
ATOM      8  C   LIG d   1      -1.904  79.194 117.524  0.00  0.00     0.119 C 
BRANCH   8   9
ATOM      9  C   LIG d   1      -3.432  79.328 117.679  0.00  0.00     0.028 C 
ATOM     10  C   LIG d   1      -4.127  77.967 117.842  0.00  0.00     0.006 C 
ENDBRANCH   8   9
BRANCH   8  11
ATOM     11  C   LIG d   1      -1.306  80.220 118.490  0.00  0.00     0.028 C 
ATOM     12  C   LIG d   1      -0.037  80.889 117.939  0.00  0.00     0.006 C 
ENDBRANCH   8  11
ENDBRANCH   7   8
ENDBRANCH   1   7
BRANCH   6  13
ATOM     13  N   LIG d   1       0.748  77.616 116.443  0.00  0.00    -0.311 N 
ATOM     14  C   LIG d   1       1.324  77.363 117.618  0.00  0.00     0.210 C 
ATOM     15  C   LIG d   1       2.770  77.852 117.747  0.00  0.00     0.109 C 
ATOM     16  O   LIG d   1       0.784  76.753 118.553  0.00  0.00    -0.276 OA
ATOM     17  H   LIG d   1       1.269  78.088 115.730  0.00  0.00     0.149 HD
ENDBRANCH   6  13
BRANCH   5  18
ATOM     18  N   LIG d   1      -0.278  74.750 116.184  0.00  0.00     0.381 N 
ATOM     19  H   LIG d   1      -1.060  74.284 116.599  0.00  0.00    -0.090 HD
ATOM     20  H   LIG d   1       0.311  75.095 116.922  0.00  0.00    -0.090 HD
ATOM     21  H   LIG d   1       0.233  74.114 115.612  0.00  0.00    -0.090 HD
ENDBRANCH   5  18
BRANCH   3  22
ATOM     22  C   LIG d   1      -3.823  76.423 113.434  0.00  0.00     0.382 C 
ATOM     23  O   LIG d   1      -4.439  75.332 113.495  0.00  0.00    -0.241 OA
ATOM     24  O   LIG d   1      -4.096  77.232 112.526  0.00  0.00    -0.241 OA
ENDBRANCH   3  22
TORSDOF 7
ENDMDL
MODEL 2
REMARK VINA RESULT:      -4.1      2.508      3.264
REMARK  7 active torsions:
REMARK  status: ('A' for Active; 'I' for Inactive)
REMARK    1  A    between atoms: C_2  and  C_3 
REMARK    2  A    between atoms: C_3  and  O_6 
REMARK    3  A    between atoms: C_3  and  C_4 
REMARK    4  A    between atoms: C_7  and  O_6 
REMARK    5  A    between atoms: C_9  and  C_10 
REMARK    6  A    between atoms: N_15  and  C_14 
REMARK    7  A    between atoms: N_20  and  C_19 
REMARK       I    between atoms: C_22  and  N_20 
ROOT
ATOM      1  C   LIG d   1      -2.622  78.355 116.225  0.00  0.00     0.161 C 
ATOM      2  C   LIG d   1      -2.953  79.170 115.130  0.00  0.00     0.016 C 
ATOM      3  C   LIG d   1      -2.453  78.960 113.824  0.00  0.00     0.038 C 
ATOM      4  C   LIG d   1      -1.702  77.823 113.492  0.00  0.00     0.028 C 
ATOM      5  C   LIG d   1      -0.926  77.244 114.670  0.00  0.00    -0.047 C 
ATOM      6  C   LIG d   1      -1.893  77.045 115.859  0.00  0.00     0.091 C 
ENDROOT
BRANCH   1   7
ATOM      7  O   LIG d   1      -3.805  78.071 116.998  0.00  0.00    -0.368 OA
BRANCH   7   8
ATOM      8  C   LIG d   1      -3.866  78.674 118.314  0.00  0.00     0.119 C 
BRANCH   8   9
ATOM      9  C   LIG d   1      -2.588  79.516 118.497  0.00  0.00     0.028 C 
ATOM     10  C   LIG d   1      -2.766  80.632 119.540  0.00  0.00     0.006 C 
ENDBRANCH   8   9
BRANCH   8  11
ATOM     11  C   LIG d   1      -3.814  77.612 119.416  0.00  0.00     0.028 C 
ATOM     12  C   LIG d   1      -4.335  76.243 118.950  0.00  0.00     0.006 C 
ENDBRANCH   8  11
ENDBRANCH   7   8
ENDBRANCH   1   7
BRANCH   6  13
ATOM     13  N   LIG d   1      -1.198  76.562 117.080  0.00  0.00    -0.311 N 
ATOM     14  C   LIG d   1      -1.067  75.272 117.387  0.00  0.00     0.210 C 
ATOM     15  C   LIG d   1      -0.333  74.992 118.702  0.00  0.00     0.109 C 
ATOM     16  O   LIG d   1      -1.461  74.333 116.680  0.00  0.00    -0.276 OA
ATOM     17  H   LIG d   1      -0.820  77.256 117.695  0.00  0.00     0.149 HD
ENDBRANCH   6  13
BRANCH   5  18
ATOM     18  N   LIG d   1      -0.300  75.988 114.217  0.00  0.00     0.381 N 
ATOM     19  H   LIG d   1       0.222  76.152 113.380  0.00  0.00    -0.090 HD
ATOM     20  H   LIG d   1      -1.022  75.320 114.013  0.00  0.00    -0.090 HD
ATOM     21  H   LIG d   1       0.301  75.631 114.927  0.00  0.00    -0.090 HD
ENDBRANCH   5  18
BRANCH   3  22
ATOM     22  C   LIG d   1      -2.671  79.915 112.843  0.00  0.00     0.382 C 
ATOM     23  O   LIG d   1      -2.107  79.808 111.727  0.00  0.00    -0.241 OA
ATOM     24  O   LIG d   1      -3.389  80.906 113.074  0.00  0.00    -0.241 OA
ENDBRANCH   3  22
TORSDOF 7
ENDMDL
MODEL 3
REMARK VINA RESULT:      -4.1      2.392      3.909
REMARK  7 active torsions:
REMARK  status: ('A' for Active; 'I' for Inactive)
REMARK    1  A    between atoms: C_2  and  C_3 
REMARK    2  A    between atoms: C_3  and  O_6 
REMARK    3  A    between atoms: C_3  and  C_4 
REMARK    4  A    between atoms: C_7  and  O_6 
REMARK    5  A    between atoms: C_9  and  C_10 
REMARK    6  A    between atoms: N_15  and  C_14 
REMARK    7  A    between atoms: N_20  and  C_19 
REMARK       I    between atoms: C_22  and  N_20 
ROOT
ATOM      1  C   LIG d   1      -1.014  78.200 114.883  0.00  0.00     0.161 C 
ATOM      2  C   LIG d   1      -2.040  77.292 114.570  0.00  0.00     0.016 C 
ATOM      3  C   LIG d   1      -2.687  76.486 115.535  0.00  0.00     0.038 C 
ATOM      4  C   LIG d   1      -2.454  76.643 116.909  0.00  0.00     0.028 C 
ATOM      5  C   LIG d   1      -1.067  77.190 117.230  0.00  0.00    -0.047 C 
ATOM      6  C   LIG d   1      -0.824  78.466 116.391  0.00  0.00     0.091 C 
ENDROOT
BRANCH   1   7
ATOM      7  O   LIG d   1      -1.227  79.439 114.179  0.00  0.00    -0.368 OA
BRANCH   7   8
ATOM      8  C   LIG d   1      -1.318  79.344 112.736  0.00  0.00     0.119 C 
BRANCH   8   9
ATOM      9  C   LIG d   1      -0.442  80.465 112.142  0.00  0.00     0.028 C 
ATOM     10  C   LIG d   1       0.026  80.148 110.712  0.00  0.00     0.006 C 
ENDBRANCH   8   9
BRANCH   8  11
ATOM     11  C   LIG d   1      -2.739  79.638 112.246  0.00  0.00     0.028 C 
ATOM     12  C   LIG d   1      -3.191  81.074 112.556  0.00  0.00     0.006 C 
ENDBRANCH   8  11
ENDBRANCH   7   8
ENDBRANCH   1   7
BRANCH   6  13
ATOM     13  N   LIG d   1       0.543  79.017 116.582  0.00  0.00    -0.311 N 
ATOM     14  C   LIG d   1       0.780  80.241 117.052  0.00  0.00     0.210 C 
ATOM     15  C   LIG d   1       2.261  80.619 117.151  0.00  0.00     0.109 C 
ATOM     16  O   LIG d   1      -0.094  81.037 117.427  0.00  0.00    -0.276 OA
ATOM     17  H   LIG d   1       1.312  78.427 116.332  0.00  0.00     0.149 HD
ENDBRANCH   6  13
BRANCH   5  18
ATOM     18  N   LIG d   1      -1.010  77.434 118.683  0.00  0.00     0.381 N 
ATOM     19  H   LIG d   1      -1.934  77.569 119.041  0.00  0.00    -0.090 HD
ATOM     20  H   LIG d   1      -0.482  78.272 118.852  0.00  0.00    -0.090 HD
ATOM     21  H   LIG d   1      -0.578  76.663 119.142  0.00  0.00    -0.090 HD
ENDBRANCH   5  18
BRANCH   3  22
ATOM     22  C   LIG d   1      -3.549  75.481 115.123  0.00  0.00     0.382 C 
ATOM     23  O   LIG d   1      -4.242  74.865 115.969  0.00  0.00    -0.241 OA
ATOM     24  O   LIG d   1      -3.610  75.152 113.923  0.00  0.00    -0.241 OA
ENDBRANCH   3  22
TORSDOF 7
ENDMDL
MODEL 4
REMARK VINA RESULT:      -4.1      2.090      3.190
REMARK  7 active torsions:
REMARK  status: ('A' for Active; 'I' for Inactive)
REMARK    1  A    between atoms: C_2  and  C_3 
REMARK    2  A    between atoms: C_3  and  O_6 
REMARK    3  A    between atoms: C_3  and  C_4 
REMARK    4  A    between atoms: C_7  and  O_6 
REMARK    5  A    between atoms: C_9  and  C_10 
REMARK    6  A    between atoms: N_15  and  C_14 
REMARK    7  A    between atoms: N_20  and  C_19 
REMARK       I    between atoms: C_22  and  N_20 
ROOT
ATOM      1  C   LIG d   1      -2.222  77.798 116.487  0.00  0.00     0.161 C 
ATOM      2  C   LIG d   1      -2.994  76.983 115.643  0.00  0.00     0.016 C 
ATOM      3  C   LIG d   1      -2.995  77.102 114.234  0.00  0.00     0.038 C 
ATOM      4  C   LIG d   1      -2.102  77.949 113.561  0.00  0.00     0.028 C 
ATOM      5  C   LIG d   1      -1.664  79.150 114.392  0.00  0.00    -0.047 C 
ATOM      6  C   LIG d   1      -1.159  78.653 115.766  0.00  0.00     0.091 C 
ENDROOT
BRANCH   1   7
ATOM      7  O   LIG d   1      -1.606  76.995 117.513  0.00  0.00    -0.368 OA
BRANCH   7   8
ATOM      8  C   LIG d   1      -0.511  76.147 117.087  0.00  0.00     0.119 C 
BRANCH   8   9
ATOM      9  C   LIG d   1      -1.060  74.713 116.956  0.00  0.00     0.028 C 
ATOM     10  C   LIG d   1      -2.097  74.379 118.042  0.00  0.00     0.006 C 
ENDBRANCH   8   9
BRANCH   8  11
ATOM     11  C   LIG d   1       0.581  76.066 118.158  0.00  0.00     0.028 C 
ATOM     12  C   LIG d   1       0.216  76.833 119.439  0.00  0.00     0.006 C 
ENDBRANCH   8  11
ENDBRANCH   7   8
ENDBRANCH   1   7
BRANCH   6  13
ATOM     13  N   LIG d   1      -0.789  79.771 116.672  0.00  0.00    -0.311 N 
ATOM     14  C   LIG d   1       0.417  79.903 117.220  0.00  0.00     0.210 C 
ATOM     15  C   LIG d   1       0.581  81.116 118.140  0.00  0.00     0.109 C 
ATOM     16  O   LIG d   1       1.377  79.147 117.006  0.00  0.00    -0.276 OA
ATOM     17  H   LIG d   1      -1.499  80.447 116.876  0.00  0.00     0.149 HD
ENDBRANCH   6  13
BRANCH   5  18
ATOM     18  N   LIG d   1      -0.633  79.872 113.623  0.00  0.00     0.381 N 
ATOM     19  H   LIG d   1      -0.042  80.384 114.247  0.00  0.00    -0.090 HD
ATOM     20  H   LIG d   1      -1.084  80.526 113.008  0.00  0.00    -0.090 HD
ATOM     21  H   LIG d   1      -0.089  79.227 113.093  0.00  0.00    -0.090 HD
ENDBRANCH   5  18
BRANCH   3  22
ATOM     22  C   LIG d   1      -3.924  76.395 113.486  0.00  0.00     0.382 C 
ATOM     23  O   LIG d   1      -4.218  75.217 113.801  0.00  0.00    -0.241 OA
ATOM     24  O   LIG d   1      -4.440  76.906 112.474  0.00  0.00    -0.241 OA
ENDBRANCH   3  22
TORSDOF 7
ENDMDL
MODEL 5
REMARK VINA RESULT:      -4.0      2.231      3.466
REMARK  7 active torsions:
REMARK  status: ('A' for Active; 'I' for Inactive)
REMARK    1  A    between atoms: C_2  and  C_3 
REMARK    2  A    between atoms: C_3  and  O_6 
REMARK    3  A    between atoms: C_3  and  C_4 
REMARK    4  A    between atoms: C_7  and  O_6 
REMARK    5  A    between atoms: C_9  and  C_10 
REMARK    6  A    between atoms: N_15  and  C_14 
REMARK    7  A    between atoms: N_20  and  C_19 
REMARK       I    between atoms: C_22  and  N_20 
ROOT
ATOM      1  C   LIG d   1      -1.755  76.617 116.016  0.00  0.00     0.161 C 
ATOM      2  C   LIG d   1      -2.381  76.762 114.768  0.00  0.00     0.016 C 
ATOM      3  C   LIG d   1      -2.198  77.886 113.931  0.00  0.00     0.038 C 
ATOM      4  C   LIG d   1      -1.251  78.880 114.221  0.00  0.00     0.028 C 
ATOM      5  C   LIG d   1      -0.965  79.028 115.711  0.00  0.00    -0.047 C 
ATOM      6  C   LIG d   1      -0.632  77.637 116.299  0.00  0.00     0.091 C 
ENDROOT
BRANCH   1   7
ATOM      7  O   LIG d   1      -1.256  75.272 116.160  0.00  0.00    -0.368 OA
BRANCH   7   8
ATOM      8  C   LIG d   1      -1.885  74.465 117.186  0.00  0.00     0.119 C 
BRANCH   8   9
ATOM      9  C   LIG d   1      -3.118  75.239 117.692  0.00  0.00     0.028 C 
ATOM     10  C   LIG d   1      -4.436  74.667 117.142  0.00  0.00     0.006 C 
ENDBRANCH   8   9
BRANCH   8  11
ATOM     11  C   LIG d   1      -0.975  74.309 118.408  0.00  0.00     0.028 C 
ATOM     12  C   LIG d   1      -1.569  74.939 119.678  0.00  0.00     0.006 C 
ENDBRANCH   8  11
ENDBRANCH   7   8
ENDBRANCH   1   7
BRANCH   6  13
ATOM     13  N   LIG d   1      -0.422  77.679 117.770  0.00  0.00    -0.311 N 
ATOM     14  C   LIG d   1       0.778  77.798 118.336  0.00  0.00     0.210 C 
ATOM     15  C   LIG d   1       0.772  77.800 119.868  0.00  0.00     0.109 C 
ATOM     16  O   LIG d   1       1.842  77.934 117.715  0.00  0.00    -0.276 OA
ATOM     17  H   LIG d   1      -1.236  77.606 118.349  0.00  0.00     0.149 HD
ENDBRANCH   6  13
BRANCH   5  18
ATOM     18  N   LIG d   1       0.137  79.997 115.860  0.00  0.00     0.381 N 
ATOM     19  H   LIG d   1      -0.146  80.741 116.466  0.00  0.00    -0.090 HD
ATOM     20  H   LIG d   1       0.350  80.387 114.959  0.00  0.00    -0.090 HD
ATOM     21  H   LIG d   1       0.942  79.544 116.233  0.00  0.00    -0.090 HD
ENDBRANCH   5  18
BRANCH   3  22
ATOM     22  C   LIG d   1      -2.996  78.046 112.808  0.00  0.00     0.382 C 
ATOM     23  O   LIG d   1      -2.929  79.102 112.136  0.00  0.00    -0.241 OA
ATOM     24  O   LIG d   1      -3.815  77.164 112.486  0.00  0.00    -0.241 OA
ENDBRANCH   3  22
TORSDOF 7
ENDMDL
MODEL 6
REMARK VINA RESULT:      -3.8      2.325      3.117
REMARK  7 active torsions:
REMARK  status: ('A' for Active; 'I' for Inactive)
REMARK    1  A    between atoms: C_2  and  C_3 
REMARK    2  A    between atoms: C_3  and  O_6 
REMARK    3  A    between atoms: C_3  and  C_4 
REMARK    4  A    between atoms: C_7  and  O_6 
REMARK    5  A    between atoms: C_9  and  C_10 
REMARK    6  A    between atoms: N_15  and  C_14 
REMARK    7  A    between atoms: N_20  and  C_19 
REMARK       I    between atoms: C_22  and  N_20 
ROOT
ATOM      1  C   LIG d   1      -1.296  77.465 117.120  0.00  0.00     0.161 C 
ATOM      2  C   LIG d   1      -1.934  78.212 116.117  0.00  0.00     0.016 C 
ATOM      3  C   LIG d   1      -1.922  77.850 114.750  0.00  0.00     0.038 C 
ATOM      4  C   LIG d   1      -1.395  76.626 114.312  0.00  0.00     0.028 C 
ATOM      5  C   LIG d   1      -0.298  76.080 115.219  0.00  0.00    -0.047 C 
ATOM      6  C   LIG d   1      -0.811  76.068 116.677  0.00  0.00     0.091 C 
ENDROOT
BRANCH   1   7
ATOM      7  O   LIG d   1      -2.159  77.354 118.270  0.00  0.00    -0.368 OA
BRANCH   7   8
ATOM      8  C   LIG d   1      -3.582  77.352 118.001  0.00  0.00     0.119 C 
BRANCH   8   9
ATOM      9  C   LIG d   1      -4.254  78.253 119.055  0.00  0.00     0.028 C 
ATOM     10  C   LIG d   1      -4.000  79.748 118.798  0.00  0.00     0.006 C 
ENDBRANCH   8   9
BRANCH   8  11
ATOM     11  C   LIG d   1      -4.188  75.961 118.211  0.00  0.00     0.028 C 
ATOM     12  C   LIG d   1      -4.375  75.188 116.896  0.00  0.00     0.006 C 
ENDBRANCH   8  11
ENDBRANCH   7   8
ENDBRANCH   1   7
BRANCH   6  13
ATOM     13  N   LIG d   1       0.230  75.627 117.642  0.00  0.00    -0.311 N 
ATOM     14  C   LIG d   1      -0.001  74.756 118.622  0.00  0.00     0.210 C 
ATOM     15  C   LIG d   1       1.206  74.453 119.516  0.00  0.00     0.109 C 
ATOM     16  O   LIG d   1      -1.082  74.180 118.817  0.00  0.00    -0.276 OA
ATOM     17  H   LIG d   1       1.145  76.021 117.537  0.00  0.00     0.149 HD
ENDBRANCH   6  13
BRANCH   5  18
ATOM     18  N   LIG d   1       0.064  74.738 114.723  0.00  0.00     0.381 N 
ATOM     19  H   LIG d   1      -0.464  74.043 115.212  0.00  0.00    -0.090 HD
ATOM     20  H   LIG d   1       1.040  74.577 114.903  0.00  0.00    -0.090 HD
ATOM     21  H   LIG d   1      -0.116  74.676 113.745  0.00  0.00    -0.090 HD
ENDBRANCH   5  18
BRANCH   3  22
ATOM     22  C   LIG d   1      -2.406  78.736 113.800  0.00  0.00     0.382 C 
ATOM     23  O   LIG d   1      -2.289  78.472 112.579  0.00  0.00    -0.241 OA
ATOM     24  O   LIG d   1      -2.919  79.817 114.147  0.00  0.00    -0.241 OA
ENDBRANCH   3  22
TORSDOF 7
ENDMDL
MODEL 7
REMARK VINA RESULT:      -3.7      1.323      2.249
REMARK  7 active torsions:
REMARK  status: ('A' for Active; 'I' for Inactive)
REMARK    1  A    between atoms: C_2  and  C_3 
REMARK    2  A    between atoms: C_3  and  O_6 
REMARK    3  A    between atoms: C_3  and  C_4 
REMARK    4  A    between atoms: C_7  and  O_6 
REMARK    5  A    between atoms: C_9  and  C_10 
REMARK    6  A    between atoms: N_15  and  C_14 
REMARK    7  A    between atoms: N_20  and  C_19 
REMARK       I    between atoms: C_22  and  N_20 
ROOT
ATOM      1  C   LIG d   1      -0.225  78.113 116.266  0.00  0.00     0.161 C 
ATOM      2  C   LIG d   1      -1.304  78.486 115.448  0.00  0.00     0.016 C 
ATOM      3  C   LIG d   1      -1.932  77.605 114.538  0.00  0.00     0.038 C 
ATOM      4  C   LIG d   1      -1.618  76.239 114.492  0.00  0.00     0.028 C 
ATOM      5  C   LIG d   1      -0.193  75.929 114.939  0.00  0.00    -0.047 C 
ATOM      6  C   LIG d   1       0.059  76.597 116.311  0.00  0.00     0.091 C 
ENDROOT
BRANCH   1   7
ATOM      7  O   LIG d   1      -0.421  78.625 117.599  0.00  0.00    -0.368 OA
BRANCH   7   8
ATOM      8  C   LIG d   1      -1.055  79.924 117.695  0.00  0.00     0.119 C 
BRANCH   8   9
ATOM      9  C   LIG d   1       0.050  80.956 117.995  0.00  0.00     0.028 C 
ATOM     10  C   LIG d   1      -0.480  82.175 118.770  0.00  0.00     0.006 C 
ENDBRANCH   8   9
BRANCH   8  11
ATOM     11  C   LIG d   1      -2.008  79.992 118.892  0.00  0.00     0.028 C 
ATOM     12  C   LIG d   1      -3.430  79.521 118.548  0.00  0.00     0.006 C 
ENDBRANCH   8  11
ENDBRANCH   7   8
ENDBRANCH   1   7
BRANCH   6  13
ATOM     13  N   LIG d   1       1.457  76.414 116.782  0.00  0.00    -0.311 N 
ATOM     14  C   LIG d   1       1.772  76.096 118.036  0.00  0.00     0.210 C 
ATOM     15  C   LIG d   1       3.273  75.975 118.315  0.00  0.00     0.109 C 
ATOM     16  O   LIG d   1       0.949  75.870 118.936  0.00  0.00    -0.276 OA
ATOM     17  H   LIG d   1       2.186  76.548 116.109  0.00  0.00     0.149 HD
ENDBRANCH   6  13
BRANCH   5  18
ATOM     18  N   LIG d   1      -0.046  74.462 114.974  0.00  0.00     0.381 N 
ATOM     19  H   LIG d   1      -0.942  74.034 115.099  0.00  0.00    -0.090 HD
ATOM     20  H   LIG d   1       0.535  74.212 115.756  0.00  0.00    -0.090 HD
ATOM     21  H   LIG d   1       0.369  74.140 114.127  0.00  0.00    -0.090 HD
ENDBRANCH   5  18
BRANCH   3  22
ATOM     22  C   LIG d   1      -2.858  78.099 113.632  0.00  0.00     0.382 C 
ATOM     23  O   LIG d   1      -3.514  77.307 112.912  0.00  0.00    -0.241 OA
ATOM     24  O   LIG d   1      -3.015  79.327 113.494  0.00  0.00    -0.241 OA
ENDBRANCH   3  22
TORSDOF 7
ENDMDL
MODEL 8
REMARK VINA RESULT:      -3.7      2.190      3.294
REMARK  7 active torsions:
REMARK  status: ('A' for Active; 'I' for Inactive)
REMARK    1  A    between atoms: C_2  and  C_3 
REMARK    2  A    between atoms: C_3  and  O_6 
REMARK    3  A    between atoms: C_3  and  C_4 
REMARK    4  A    between atoms: C_7  and  O_6 
REMARK    5  A    between atoms: C_9  and  C_10 
REMARK    6  A    between atoms: N_15  and  C_14 
REMARK    7  A    between atoms: N_20  and  C_19 
REMARK       I    between atoms: C_22  and  N_20 
ROOT
ATOM      1  C   LIG d   1      -1.244  78.370 115.770  0.00  0.00     0.161 C 
ATOM      2  C   LIG d   1      -1.607  79.265 114.750  0.00  0.00     0.016 C 
ATOM      3  C   LIG d   1      -2.454  78.916 113.673  0.00  0.00     0.038 C 
ATOM      4  C   LIG d   1      -3.121  77.682 113.624  0.00  0.00     0.028 C 
ATOM      5  C   LIG d   1      -2.389  76.568 114.365  0.00  0.00    -0.047 C 
ATOM      6  C   LIG d   1      -2.050  77.054 115.793  0.00  0.00     0.091 C 
ENDROOT
BRANCH   1   7
ATOM      7  O   LIG d   1      -1.323  79.028 117.049  0.00  0.00    -0.368 OA
BRANCH   7   8
ATOM      8  C   LIG d   1      -0.115  79.689 117.502  0.00  0.00     0.119 C 
BRANCH   8   9
ATOM      9  C   LIG d   1       0.648  78.696 118.399  0.00  0.00     0.028 C 
ATOM     10  C   LIG d   1       1.924  78.161 117.730  0.00  0.00     0.006 C 
ENDBRANCH   8   9
BRANCH   8  11
ATOM     11  C   LIG d   1      -0.439  80.885 118.403  0.00  0.00     0.028 C 
ATOM     12  C   LIG d   1       0.376  82.138 118.046  0.00  0.00     0.006 C 
ENDBRANCH   8  11
ENDBRANCH   7   8
ENDBRANCH   1   7
BRANCH   6  13
ATOM     13  N   LIG d   1      -1.259  76.055 116.558  0.00  0.00    -0.311 N 
ATOM     14  C   LIG d   1      -1.808  75.143 117.359  0.00  0.00     0.210 C 
ATOM     15  C   LIG d   1      -0.810  74.223 118.069  0.00  0.00     0.109 C 
ATOM     16  O   LIG d   1      -3.027  74.988 117.522  0.00  0.00    -0.276 OA
ATOM     17  H   LIG d   1      -0.263  76.090 116.459  0.00  0.00     0.149 HD
ENDBRANCH   6  13
BRANCH   5  18
ATOM     18  N   LIG d   1      -3.259  75.377 114.351  0.00  0.00     0.381 N 
ATOM     19  H   LIG d   1      -2.731  74.569 114.612  0.00  0.00    -0.090 HD
ATOM     20  H   LIG d   1      -3.606  75.240 113.418  0.00  0.00    -0.090 HD
ATOM     21  H   LIG d   1      -4.020  75.504 114.981  0.00  0.00    -0.090 HD
ENDBRANCH   5  18
BRANCH   3  22
ATOM     22  C   LIG d   1      -2.609  79.791 112.609  0.00  0.00     0.382 C 
ATOM     23  O   LIG d   1      -1.790  79.775 111.659  0.00  0.00    -0.241 OA
ATOM     24  O   LIG d   1      -3.533  80.627 112.608  0.00  0.00    -0.241 OA
ENDBRANCH   3  22
TORSDOF 7
ENDMDL
MODEL 9
REMARK VINA RESULT:      -3.4      3.072      5.300
REMARK  7 active torsions:
REMARK  status: ('A' for Active; 'I' for Inactive)
REMARK    1  A    between atoms: C_2  and  C_3 
REMARK    2  A    between atoms: C_3  and  O_6 
REMARK    3  A    between atoms: C_3  and  C_4 
REMARK    4  A    between atoms: C_7  and  O_6 
REMARK    5  A    between atoms: C_9  and  C_10 
REMARK    6  A    between atoms: N_15  and  C_14 
REMARK    7  A    between atoms: N_20  and  C_19 
REMARK       I    between atoms: C_22  and  N_20 
ROOT
ATOM      1  C   LIG d   1       1.065  77.121 118.751  0.00  0.00     0.161 C 
ATOM      2  C   LIG d   1       0.507  76.016 118.087  0.00  0.00     0.016 C 
ATOM      3  C   LIG d   1      -0.177  76.113 116.854  0.00  0.00     0.038 C 
ATOM      4  C   LIG d   1      -0.219  77.309 116.122  0.00  0.00     0.028 C 
ATOM      5  C   LIG d   1      -0.107  78.556 116.992  0.00  0.00    -0.047 C 
ATOM      6  C   LIG d   1       1.126  78.415 117.914  0.00  0.00     0.091 C 
ENDROOT
BRANCH   1   7
ATOM      7  O   LIG d   1       2.375  76.783 119.247  0.00  0.00    -0.368 OA
BRANCH   7   8
ATOM      8  C   LIG d   1       3.211  76.000 118.359  0.00  0.00     0.119 C 
BRANCH   8   9
ATOM      9  C   LIG d   1       3.708  74.775 119.151  0.00  0.00     0.028 C 
ATOM     10  C   LIG d   1       5.238  74.629 119.106  0.00  0.00     0.006 C 
ENDBRANCH   8   9
BRANCH   8  11
ATOM     11  C   LIG d   1       4.476  76.768 117.964  0.00  0.00     0.028 C 
ATOM     12  C   LIG d   1       4.348  77.464 116.600  0.00  0.00     0.006 C 
ENDBRANCH   8  11
ENDBRANCH   7   8
ENDBRANCH   1   7
BRANCH   6  13
ATOM     13  N   LIG d   1       1.261  79.556 118.858  0.00  0.00    -0.311 N 
ATOM     14  C   LIG d   1       2.291  80.400 118.845  0.00  0.00     0.210 C 
ATOM     15  C   LIG d   1       2.244  81.493 119.917  0.00  0.00     0.109 C 
ATOM     16  O   LIG d   1       3.223  80.366 118.028  0.00  0.00    -0.276 OA
ATOM     17  H   LIG d   1       0.533  79.676 119.535  0.00  0.00     0.149 HD
ENDBRANCH   6  13
BRANCH   5  18
ATOM     18  N   LIG d   1      -0.025  79.722 116.091  0.00  0.00     0.381 N 
ATOM     19  H   LIG d   1      -0.536  79.537 115.251  0.00  0.00    -0.090 HD
ATOM     20  H   LIG d   1       0.937  79.877 115.847  0.00  0.00    -0.090 HD
ATOM     21  H   LIG d   1      -0.395  80.528 116.543  0.00  0.00    -0.090 HD
ENDBRANCH   5  18
BRANCH   3  22
ATOM     22  C   LIG d   1      -0.863  75.014 116.360  0.00  0.00     0.382 C 
ATOM     23  O   LIG d   1      -1.021  74.877 115.123  0.00  0.00    -0.241 OA
ATOM     24  O   LIG d   1      -1.364  74.180 117.138  0.00  0.00    -0.241 OA
ENDBRANCH   3  22
TORSDOF 7
ENDMDL
