MODEL 1
REMARK VINA RESULT:      -5.2      0.000      0.000
REMARK  7 active torsions:
REMARK  status: ('A' for Active; 'I' for Inactive)
REMARK    1  A    between atoms: C_2  and  C_3 
REMARK    2  A    between atoms: C_3  and  O_6 
REMARK    3  A    between atoms: C_3  and  C_4 
REMARK    4  A    between atoms: C_7  and  O_6 
REMARK    5  A    between atoms: C_9  and  C_10 
REMARK    6  A    between atoms: N_15  and  C_14 
REMARK    7  A    between atoms: N_20  and  C_19 
REMARK       I    between atoms: C_22  and  N_20 
ROOT
ATOM      1  C   LIG d   1      -0.046  80.072 111.475  0.00  0.00     0.161 C 
ATOM      2  C   LIG d   1      -1.229  79.330 111.323  0.00  0.00     0.016 C 
ATOM      3  C   LIG d   1      -2.019  78.893 112.411  0.00  0.00     0.038 C 
ATOM      4  C   LIG d   1      -1.759  79.302 113.727  0.00  0.00     0.028 C 
ATOM      5  C   LIG d   1      -0.292  79.633 113.981  0.00  0.00    -0.047 C 
ATOM      6  C   LIG d   1       0.194  80.622 112.897  0.00  0.00     0.091 C 
ENDROOT
BRANCH   1   7
ATOM      7  O   LIG d   1      -0.014  81.143 110.512  0.00  0.00    -0.368 OA
BRANCH   7   8
ATOM      8  C   LIG d   1       0.950  81.007 109.439  0.00  0.00     0.119 C 
BRANCH   8   9
ATOM      9  C   LIG d   1       1.796  79.752 109.733  0.00  0.00     0.028 C 
ATOM     10  C   LIG d   1       3.306  80.038 109.686  0.00  0.00     0.006 C 
ENDBRANCH   8   9
BRANCH   8  11
ATOM     11  C   LIG d   1       1.944  82.173 109.431  0.00  0.00     0.028 C 
ATOM     12  C   LIG d   1       1.264  83.536 109.630  0.00  0.00     0.006 C 
ENDBRANCH   8  11
ENDBRANCH   7   8
ENDBRANCH   1   7
BRANCH   6  13
ATOM     13  N   LIG d   1       1.642  80.933 113.021  0.00  0.00    -0.311 N 
ATOM     14  C   LIG d   1       2.121  82.172 113.112  0.00  0.00     0.210 C 
ATOM     15  C   LIG d   1       3.646  82.270 113.212  0.00  0.00     0.109 C 
ATOM     16  O   LIG d   1       1.425  83.198 113.151  0.00  0.00    -0.276 OA
ATOM     17  H   LIG d   1       2.275  80.158 113.029  0.00  0.00     0.149 HD
ENDBRANCH   6  13
BRANCH   5  18
ATOM     18  N   LIG d   1      -0.187  80.175 115.348  0.00  0.00     0.381 N 
ATOM     19  H   LIG d   1       0.689  80.645 115.460  0.00  0.00    -0.090 HD
ATOM     20  H   LIG d   1      -0.223  79.414 116.003  0.00  0.00    -0.090 HD
ATOM     21  H   LIG d   1      -0.936  80.808 115.522  0.00  0.00    -0.090 HD
ENDBRANCH   5  18
BRANCH   3  22
ATOM     22  C   LIG d   1      -3.061  78.005 112.191  0.00  0.00     0.382 C 
ATOM     23  O   LIG d   1      -3.672  77.502 113.164  0.00  0.00    -0.241 OA
ATOM     24  O   LIG d   1      -3.368  77.666 111.032  0.00  0.00    -0.241 OA
ENDBRANCH   3  22
TORSDOF 7
ENDMDL
MODEL 2
REMARK VINA RESULT:      -5.1      2.594      5.864
REMARK  7 active torsions:
REMARK  status: ('A' for Active; 'I' for Inactive)
REMARK    1  A    between atoms: C_2  and  C_3 
REMARK    2  A    between atoms: C_3  and  O_6 
REMARK    3  A    between atoms: C_3  and  C_4 
REMARK    4  A    between atoms: C_7  and  O_6 
REMARK    5  A    between atoms: C_9  and  C_10 
REMARK    6  A    between atoms: N_15  and  C_14 
REMARK    7  A    between atoms: N_20  and  C_19 
REMARK       I    between atoms: C_22  and  N_20 
ROOT
ATOM      1  C   LIG d   1       1.799  81.320 112.525  0.00  0.00     0.161 C 
ATOM      2  C   LIG d   1       2.954  81.631 111.788  0.00  0.00     0.016 C 
ATOM      3  C   LIG d   1       3.044  81.484 110.384  0.00  0.00     0.038 C 
ATOM      4  C   LIG d   1       1.928  81.155 109.600  0.00  0.00     0.028 C 
ATOM      5  C   LIG d   1       0.878  80.343 110.351  0.00  0.00    -0.047 C 
ATOM      6  C   LIG d   1       0.537  81.066 111.674  0.00  0.00     0.091 C 
ENDROOT
BRANCH   1   7
ATOM      7  O   LIG d   1       1.548  82.352 113.499  0.00  0.00    -0.368 OA
BRANCH   7   8
ATOM      8  C   LIG d   1       2.714  82.905 114.157  0.00  0.00     0.119 C 
BRANCH   8   9
ATOM      9  C   LIG d   1       2.822  82.238 115.543  0.00  0.00     0.028 C 
ATOM     10  C   LIG d   1       4.091  81.381 115.683  0.00  0.00     0.006 C 
ENDBRANCH   8   9
BRANCH   8  11
ATOM     11  C   LIG d   1       2.538  84.400 114.440  0.00  0.00     0.028 C 
ATOM     12  C   LIG d   1       1.983  84.680 115.845  0.00  0.00     0.006 C 
ENDBRANCH   8  11
ENDBRANCH   7   8
ENDBRANCH   1   7
BRANCH   6  13
ATOM     13  N   LIG d   1      -0.421  80.296 112.510  0.00  0.00    -0.311 N 
ATOM     14  C   LIG d   1      -1.645  80.728 112.809  0.00  0.00     0.210 C 
ATOM     15  C   LIG d   1      -2.463  79.788 113.700  0.00  0.00     0.109 C 
ATOM     16  O   LIG d   1      -2.142  81.786 112.394  0.00  0.00    -0.276 OA
ATOM     17  H   LIG d   1      -0.111  79.412 112.862  0.00  0.00     0.149 HD
ENDBRANCH   6  13
BRANCH   5  18
ATOM     18  N   LIG d   1      -0.287  80.189 109.459  0.00  0.00     0.381 N 
ATOM     19  H   LIG d   1      -1.119  80.473 109.937  0.00  0.00    -0.090 HD
ATOM     20  H   LIG d   1      -0.381  79.220 109.211  0.00  0.00    -0.090 HD
ATOM     21  H   LIG d   1      -0.163  80.740 108.638  0.00  0.00    -0.090 HD
ENDBRANCH   5  18
BRANCH   3  22
ATOM     22  C   LIG d   1       4.272  81.627 109.756  0.00  0.00     0.382 C 
ATOM     23  O   LIG d   1       4.946  80.612 109.459  0.00  0.00    -0.241 OA
ATOM     24  O   LIG d   1       4.733  82.760 109.522  0.00  0.00    -0.241 OA
ENDBRANCH   3  22
TORSDOF 7
ENDMDL
MODEL 3
REMARK VINA RESULT:      -4.7      4.024      7.490
REMARK  7 active torsions:
REMARK  status: ('A' for Active; 'I' for Inactive)
REMARK    1  A    between atoms: C_2  and  C_3 
REMARK    2  A    between atoms: C_3  and  O_6 
REMARK    3  A    between atoms: C_3  and  C_4 
REMARK    4  A    between atoms: C_7  and  O_6 
REMARK    5  A    between atoms: C_9  and  C_10 
REMARK    6  A    between atoms: N_15  and  C_14 
REMARK    7  A    between atoms: N_20  and  C_19 
REMARK       I    between atoms: C_22  and  N_20 
ROOT
ATOM      1  C   LIG d   1      -2.891  78.470 115.390  0.00  0.00     0.161 C 
ATOM      2  C   LIG d   1      -3.083  79.666 114.679  0.00  0.00     0.016 C 
ATOM      3  C   LIG d   1      -2.556  79.896 113.387  0.00  0.00     0.038 C 
ATOM      4  C   LIG d   1      -1.926  78.881 112.652  0.00  0.00     0.028 C 
ATOM      5  C   LIG d   1      -1.269  77.819 113.526  0.00  0.00    -0.047 C 
ATOM      6  C   LIG d   1      -2.301  77.311 114.559  0.00  0.00     0.091 C 
ENDROOT
BRANCH   1   7
ATOM      7  O   LIG d   1      -4.130  78.065 116.006  0.00  0.00    -0.368 OA
BRANCH   7   8
ATOM      8  C   LIG d   1      -4.209  78.226 117.444  0.00  0.00     0.119 C 
BRANCH   8   9
ATOM      9  C   LIG d   1      -2.845  78.757 117.926  0.00  0.00     0.028 C 
ATOM     10  C   LIG d   1      -2.941  80.178 118.507  0.00  0.00     0.006 C 
ENDBRANCH   8   9
BRANCH   8  11
ATOM     11  C   LIG d   1      -4.390  76.878 118.147  0.00  0.00     0.028 C 
ATOM     12  C   LIG d   1      -3.244  76.553 119.118  0.00  0.00     0.006 C 
ENDBRANCH   8  11
ENDBRANCH   7   8
ENDBRANCH   1   7
BRANCH   6  13
ATOM     13  N   LIG d   1      -1.716  76.330 115.510  0.00  0.00    -0.311 N 
ATOM     14  C   LIG d   1      -2.254  75.136 115.754  0.00  0.00     0.210 C 
ATOM     15  C   LIG d   1      -1.502  74.286 116.783  0.00  0.00     0.109 C 
ATOM     16  O   LIG d   1      -3.264  74.687 115.192  0.00  0.00    -0.276 OA
ATOM     17  H   LIG d   1      -0.878  76.600 115.986  0.00  0.00     0.149 HD
ENDBRANCH   6  13
BRANCH   5  18
ATOM     18  N   LIG d   1      -0.771  76.754 112.635  0.00  0.00     0.381 N 
ATOM     19  H   LIG d   1      -0.726  77.092 111.695  0.00  0.00    -0.090 HD
ATOM     20  H   LIG d   1      -1.413  75.981 112.662  0.00  0.00    -0.090 HD
ATOM     21  H   LIG d   1       0.132  76.455 112.933  0.00  0.00    -0.090 HD
ENDBRANCH   5  18
BRANCH   3  22
ATOM     22  C   LIG d   1      -2.623  81.166 112.833  0.00  0.00     0.382 C 
ATOM     23  O   LIG d   1      -1.574  81.745 112.463  0.00  0.00    -0.241 OA
ATOM     24  O   LIG d   1      -3.716  81.757 112.740  0.00  0.00    -0.241 OA
ENDBRANCH   3  22
TORSDOF 7
ENDMDL
MODEL 4
REMARK VINA RESULT:      -4.6      2.686      6.463
REMARK  7 active torsions:
REMARK  status: ('A' for Active; 'I' for Inactive)
REMARK    1  A    between atoms: C_2  and  C_3 
REMARK    2  A    between atoms: C_3  and  O_6 
REMARK    3  A    between atoms: C_3  and  C_4 
REMARK    4  A    between atoms: C_7  and  O_6 
REMARK    5  A    between atoms: C_9  and  C_10 
REMARK    6  A    between atoms: N_15  and  C_14 
REMARK    7  A    between atoms: N_20  and  C_19 
REMARK       I    between atoms: C_22  and  N_20 
ROOT
ATOM      1  C   LIG d   1       2.337  81.923 112.982  0.00  0.00     0.161 C 
ATOM      2  C   LIG d   1       3.230  82.668 112.194  0.00  0.00     0.016 C 
ATOM      3  C   LIG d   1       3.080  82.838 110.798  0.00  0.00     0.038 C 
ATOM      4  C   LIG d   1       1.937  82.396 110.116  0.00  0.00     0.028 C 
ATOM      5  C   LIG d   1       1.258  81.203 110.781  0.00  0.00    -0.047 C 
ATOM      6  C   LIG d   1       1.025  81.526 112.274  0.00  0.00     0.091 C 
ENDROOT
BRANCH   1   7
ATOM      7  O   LIG d   1       2.053  82.634 114.203  0.00  0.00    -0.368 OA
BRANCH   7   8
ATOM      8  C   LIG d   1       2.521  82.013 115.426  0.00  0.00     0.119 C 
BRANCH   8   9
ATOM      9  C   LIG d   1       2.586  83.110 116.506  0.00  0.00     0.028 C 
ATOM     10  C   LIG d   1       1.461  82.977 117.547  0.00  0.00     0.006 C 
ENDBRANCH   8   9
BRANCH   8  11
ATOM     11  C   LIG d   1       3.958  81.504 115.278  0.00  0.00     0.028 C 
ATOM     12  C   LIG d   1       4.458  80.761 116.526  0.00  0.00     0.006 C 
ENDBRANCH   8  11
ENDBRANCH   7   8
ENDBRANCH   1   7
BRANCH   6  13
ATOM     13  N   LIG d   1       0.441  80.380 113.018  0.00  0.00    -0.311 N 
ATOM     14  C   LIG d   1      -0.869  80.187 113.158  0.00  0.00     0.210 C 
ATOM     15  C   LIG d   1      -1.258  78.954 113.979  0.00  0.00     0.109 C 
ATOM     16  O   LIG d   1      -1.747  80.903 112.652  0.00  0.00    -0.276 OA
ATOM     17  H   LIG d   1       1.082  79.733 113.435  0.00  0.00     0.149 HD
ENDBRANCH   6  13
BRANCH   5  18
ATOM     18  N   LIG d   1       0.008  80.934 110.045  0.00  0.00     0.381 N 
ATOM     19  H   LIG d   1       0.138  80.158 109.428  0.00  0.00    -0.090 HD
ATOM     20  H   LIG d   1      -0.224  81.741 109.493  0.00  0.00    -0.090 HD
ATOM     21  H   LIG d   1      -0.729  80.738 110.686  0.00  0.00    -0.090 HD
ENDBRANCH   5  18
BRANCH   3  22
ATOM     22  C   LIG d   1       4.101  83.421 110.063  0.00  0.00     0.382 C 
ATOM     23  O   LIG d   1       4.188  84.671 109.993  0.00  0.00    -0.241 OA
ATOM     24  O   LIG d   1       4.909  82.714 109.433  0.00  0.00    -0.241 OA
ENDBRANCH   3  22
TORSDOF 7
ENDMDL
MODEL 5
REMARK VINA RESULT:      -4.3      2.815      5.241
REMARK  7 active torsions:
REMARK  status: ('A' for Active; 'I' for Inactive)
REMARK    1  A    between atoms: C_2  and  C_3 
REMARK    2  A    between atoms: C_3  and  O_6 
REMARK    3  A    between atoms: C_3  and  C_4 
REMARK    4  A    between atoms: C_7  and  O_6 
REMARK    5  A    between atoms: C_9  and  C_10 
REMARK    6  A    between atoms: N_15  and  C_14 
REMARK    7  A    between atoms: N_20  and  C_19 
REMARK       I    between atoms: C_22  and  N_20 
ROOT
ATOM      1  C   LIG d   1      -1.743  79.838 114.472  0.00  0.00     0.161 C 
ATOM      2  C   LIG d   1      -2.436  78.724 114.976  0.00  0.00     0.016 C 
ATOM      3  C   LIG d   1      -2.861  77.643 114.171  0.00  0.00     0.038 C 
ATOM      4  C   LIG d   1      -2.487  77.530 112.824  0.00  0.00     0.028 C 
ATOM      5  C   LIG d   1      -2.219  78.873 112.155  0.00  0.00    -0.047 C 
ATOM      6  C   LIG d   1      -1.229  79.679 113.026  0.00  0.00     0.091 C 
ENDROOT
BRANCH   1   7
ATOM      7  O   LIG d   1      -0.655  80.177 115.356  0.00  0.00    -0.368 OA
BRANCH   7   8
ATOM      8  C   LIG d   1      -0.660  79.529 116.651  0.00  0.00     0.119 C 
BRANCH   8   9
ATOM      9  C   LIG d   1      -1.008  80.599 117.704  0.00  0.00     0.028 C 
ATOM     10  C   LIG d   1      -2.337  80.308 118.421  0.00  0.00     0.006 C 
ENDBRANCH   8   9
BRANCH   8  11
ATOM     11  C   LIG d   1       0.737  79.027 117.029  0.00  0.00     0.028 C 
ATOM     12  C   LIG d   1       1.653  80.148 117.544  0.00  0.00     0.006 C 
ENDBRANCH   8  11
ENDBRANCH   7   8
ENDBRANCH   1   7
BRANCH   6  13
ATOM     13  N   LIG d   1      -0.977  81.041 112.487  0.00  0.00    -0.311 N 
ATOM     14  C   LIG d   1       0.055  81.339 111.700  0.00  0.00     0.210 C 
ATOM     15  C   LIG d   1       0.139  82.807 111.271  0.00  0.00     0.109 C 
ATOM     16  O   LIG d   1       0.891  80.519 111.290  0.00  0.00    -0.276 OA
ATOM     17  H   LIG d   1      -1.625  81.760 112.744  0.00  0.00     0.149 HD
ENDBRANCH   6  13
BRANCH   5  18
ATOM     18  N   LIG d   1      -1.707  78.602 110.798  0.00  0.00     0.381 N 
ATOM     19  H   LIG d   1      -2.331  78.985 110.117  0.00  0.00    -0.090 HD
ATOM     20  H   LIG d   1      -1.663  77.607 110.661  0.00  0.00    -0.090 HD
ATOM     21  H   LIG d   1      -0.800  79.000 110.690  0.00  0.00    -0.090 HD
ENDBRANCH   5  18
BRANCH   3  22
ATOM     22  C   LIG d   1      -3.704  76.679 114.704  0.00  0.00     0.382 C 
ATOM     23  O   LIG d   1      -3.696  76.453 115.938  0.00  0.00    -0.241 OA
ATOM     24  O   LIG d   1      -4.440  76.003 113.961  0.00  0.00    -0.241 OA
ENDBRANCH   3  22
TORSDOF 7
ENDMDL
MODEL 6
REMARK VINA RESULT:      -4.1      4.424      7.485
REMARK  7 active torsions:
REMARK  status: ('A' for Active; 'I' for Inactive)
REMARK    1  A    between atoms: C_2  and  C_3 
REMARK    2  A    between atoms: C_3  and  O_6 
REMARK    3  A    between atoms: C_3  and  C_4 
REMARK    4  A    between atoms: C_7  and  O_6 
REMARK    5  A    between atoms: C_9  and  C_10 
REMARK    6  A    between atoms: N_15  and  C_14 
REMARK    7  A    between atoms: N_20  and  C_19 
REMARK       I    between atoms: C_22  and  N_20 
ROOT
ATOM      1  C   LIG d   1      -1.725  78.400 116.525  0.00  0.00     0.161 C 
ATOM      2  C   LIG d   1      -2.259  79.135 115.454  0.00  0.00     0.016 C 
ATOM      3  C   LIG d   1      -2.077  78.778 114.098  0.00  0.00     0.038 C 
ATOM      4  C   LIG d   1      -1.470  77.570 113.724  0.00  0.00     0.028 C 
ATOM      5  C   LIG d   1      -0.473  77.049 114.754  0.00  0.00    -0.047 C 
ATOM      6  C   LIG d   1      -1.154  77.019 116.142  0.00  0.00     0.091 C 
ENDROOT
BRANCH   1   7
ATOM      7  O   LIG d   1      -2.713  78.263 117.565  0.00  0.00    -0.368 OA
BRANCH   7   8
ATOM      8  C   LIG d   1      -2.360  78.815 118.857  0.00  0.00     0.119 C 
BRANCH   8   9
ATOM      9  C   LIG d   1      -2.788  77.794 119.929  0.00  0.00     0.028 C 
ATOM     10  C   LIG d   1      -3.328  76.491 119.316  0.00  0.00     0.006 C 
ENDBRANCH   8   9
BRANCH   8  11
ATOM     11  C   LIG d   1      -3.165  80.083 119.160  0.00  0.00     0.028 C 
ATOM     12  C   LIG d   1      -4.439  80.197 118.310  0.00  0.00     0.006 C 
ENDBRANCH   8  11
ENDBRANCH   7   8
ENDBRANCH   1   7
BRANCH   6  13
ATOM     13  N   LIG d   1      -0.223  76.601 117.222  0.00  0.00    -0.311 N 
ATOM     14  C   LIG d   1      -0.110  75.344 117.647  0.00  0.00     0.210 C 
ATOM     15  C   LIG d   1       0.895  75.134 118.783  0.00  0.00     0.109 C 
ATOM     16  O   LIG d   1      -0.723  74.378 117.169  0.00  0.00    -0.276 OA
ATOM     17  H   LIG d   1       0.336  77.317 117.644  0.00  0.00     0.149 HD
ENDBRANCH   6  13
BRANCH   5  18
ATOM     18  N   LIG d   1      -0.021  75.719 114.304  0.00  0.00     0.381 N 
ATOM     19  H   LIG d   1       0.795  75.815 113.732  0.00  0.00    -0.090 HD
ATOM     20  H   LIG d   1      -0.746  75.299 113.750  0.00  0.00    -0.090 HD
ATOM     21  H   LIG d   1       0.183  75.143 115.091  0.00  0.00    -0.090 HD
ENDBRANCH   5  18
BRANCH   3  22
ATOM     22  C   LIG d   1      -2.469  79.655 113.098  0.00  0.00     0.382 C 
ATOM     23  O   LIG d   1      -3.340  80.526 113.334  0.00  0.00    -0.241 OA
ATOM     24  O   LIG d   1      -1.996  79.556 111.950  0.00  0.00    -0.241 OA
ENDBRANCH   3  22
TORSDOF 7
ENDMDL
MODEL 7
REMARK VINA RESULT:      -3.9      4.156      6.788
REMARK  7 active torsions:
REMARK  status: ('A' for Active; 'I' for Inactive)
REMARK    1  A    between atoms: C_2  and  C_3 
REMARK    2  A    between atoms: C_3  and  O_6 
REMARK    3  A    between atoms: C_3  and  C_4 
REMARK    4  A    between atoms: C_7  and  O_6 
REMARK    5  A    between atoms: C_9  and  C_10 
REMARK    6  A    between atoms: N_15  and  C_14 
REMARK    7  A    between atoms: N_20  and  C_19 
REMARK       I    between atoms: C_22  and  N_20 
ROOT
ATOM      1  C   LIG d   1      -2.032  78.731 116.790  0.00  0.00     0.161 C 
ATOM      2  C   LIG d   1      -2.802  77.884 115.976  0.00  0.00     0.016 C 
ATOM      3  C   LIG d   1      -2.604  77.753 114.582  0.00  0.00     0.038 C 
ATOM      4  C   LIG d   1      -1.516  78.350 113.928  0.00  0.00     0.028 C 
ATOM      5  C   LIG d   1      -1.014  79.614 114.618  0.00  0.00    -0.047 C 
ATOM      6  C   LIG d   1      -0.769  79.306 116.113  0.00  0.00     0.091 C 
ENDROOT
BRANCH   1   7
ATOM      7  O   LIG d   1      -1.680  78.050 118.010  0.00  0.00    -0.368 OA
BRANCH   7   8
ATOM      8  C   LIG d   1      -2.109  76.670 118.116  0.00  0.00     0.119 C 
BRANCH   8   9
ATOM      9  C   LIG d   1      -2.871  76.523 119.448  0.00  0.00     0.028 C 
ATOM     10  C   LIG d   1      -4.273  77.153 119.394  0.00  0.00     0.006 C 
ENDBRANCH   8   9
BRANCH   8  11
ATOM     11  C   LIG d   1      -0.913  75.721 118.227  0.00  0.00     0.028 C 
ATOM     12  C   LIG d   1      -0.682  74.901 116.947  0.00  0.00     0.006 C 
ENDBRANCH   8  11
ENDBRANCH   7   8
ENDBRANCH   1   7
BRANCH   6  13
ATOM     13  N   LIG d   1      -0.357  80.511 116.880  0.00  0.00    -0.311 N 
ATOM     14  C   LIG d   1       0.844  80.648 117.440  0.00  0.00     0.210 C 
ATOM     15  C   LIG d   1       1.056  81.960 118.202  0.00  0.00     0.109 C 
ATOM     16  O   LIG d   1       1.765  79.822 117.350  0.00  0.00    -0.276 OA
ATOM     17  H   LIG d   1      -1.032  81.244 116.976  0.00  0.00     0.149 HD
ENDBRANCH   6  13
BRANCH   5  18
ATOM     18  N   LIG d   1       0.204  80.054 113.912  0.00  0.00     0.381 N 
ATOM     19  H   LIG d   1      -0.047  80.616 113.123  0.00  0.00    -0.090 HD
ATOM     20  H   LIG d   1       0.696  79.244 113.578  0.00  0.00    -0.090 HD
ATOM     21  H   LIG d   1       0.787  80.575 114.529  0.00  0.00    -0.090 HD
ENDBRANCH   5  18
BRANCH   3  22
ATOM     22  C   LIG d   1      -3.524  77.048 113.821  0.00  0.00     0.382 C 
ATOM     23  O   LIG d   1      -3.899  77.502 112.713  0.00  0.00    -0.241 OA
ATOM     24  O   LIG d   1      -4.017  75.987 114.248  0.00  0.00    -0.241 OA
ENDBRANCH   3  22
TORSDOF 7
ENDMDL
MODEL 8
REMARK VINA RESULT:      -3.8      4.066      6.490
REMARK  7 active torsions:
REMARK  status: ('A' for Active; 'I' for Inactive)
REMARK    1  A    between atoms: C_2  and  C_3 
REMARK    2  A    between atoms: C_3  and  O_6 
REMARK    3  A    between atoms: C_3  and  C_4 
REMARK    4  A    between atoms: C_7  and  O_6 
REMARK    5  A    between atoms: C_9  and  C_10 
REMARK    6  A    between atoms: N_15  and  C_14 
REMARK    7  A    between atoms: N_20  and  C_19 
REMARK       I    between atoms: C_22  and  N_20 
ROOT
ATOM      1  C   LIG d   1      -0.704  78.344 115.500  0.00  0.00     0.161 C 
ATOM      2  C   LIG d   1      -1.042  79.463 114.721  0.00  0.00     0.016 C 
ATOM      3  C   LIG d   1      -2.257  79.575 114.006  0.00  0.00     0.038 C 
ATOM      4  C   LIG d   1      -3.288  78.634 114.144  0.00  0.00     0.028 C 
ATOM      5  C   LIG d   1      -2.792  77.242 114.522  0.00  0.00    -0.047 C 
ATOM      6  C   LIG d   1      -1.864  77.358 115.753  0.00  0.00     0.091 C 
ENDROOT
BRANCH   1   7
ATOM      7  O   LIG d   1      -0.132  78.776 116.751  0.00  0.00    -0.368 OA
BRANCH   7   8
ATOM      8  C   LIG d   1       0.104  80.199 116.887  0.00  0.00     0.119 C 
BRANCH   8   9
ATOM      9  C   LIG d   1       1.596  80.391 117.220  0.00  0.00     0.028 C 
ATOM     10  C   LIG d   1       2.282  81.398 116.282  0.00  0.00     0.006 C 
ENDBRANCH   8   9
BRANCH   8  11
ATOM     11  C   LIG d   1      -0.656  80.777 118.084  0.00  0.00     0.028 C 
ATOM     12  C   LIG d   1      -1.819  79.882 118.541  0.00  0.00     0.006 C 
ENDBRANCH   8  11
ENDBRANCH   7   8
ENDBRANCH   1   7
BRANCH   6  13
ATOM     13  N   LIG d   1      -1.267  76.052 116.137  0.00  0.00    -0.311 N 
ATOM     14  C   LIG d   1      -1.374  75.528 117.357  0.00  0.00     0.210 C 
ATOM     15  C   LIG d   1      -0.667  74.182 117.547  0.00  0.00     0.109 C 
ATOM     16  O   LIG d   1      -2.013  76.035 118.291  0.00  0.00    -0.276 OA
ATOM     17  H   LIG d   1      -0.757  75.558 115.431  0.00  0.00     0.149 HD
ENDBRANCH   6  13
BRANCH   5  18
ATOM     18  N   LIG d   1      -3.976  76.398 114.769  0.00  0.00     0.381 N 
ATOM     19  H   LIG d   1      -4.741  76.968 115.070  0.00  0.00    -0.090 HD
ATOM     20  H   LIG d   1      -3.763  75.744 115.501  0.00  0.00    -0.090 HD
ATOM     21  H   LIG d   1      -4.225  75.909 113.937  0.00  0.00    -0.090 HD
ENDBRANCH   5  18
BRANCH   3  22
ATOM     22  C   LIG d   1      -2.433  80.618 113.109  0.00  0.00     0.382 C 
ATOM     23  O   LIG d   1      -1.448  81.082 112.486  0.00  0.00    -0.241 OA
ATOM     24  O   LIG d   1      -3.557  81.130 112.949  0.00  0.00    -0.241 OA
ENDBRANCH   3  22
TORSDOF 7
ENDMDL
MODEL 9
REMARK VINA RESULT:      -3.8      3.798      6.945
REMARK  7 active torsions:
REMARK  status: ('A' for Active; 'I' for Inactive)
REMARK    1  A    between atoms: C_2  and  C_3 
REMARK    2  A    between atoms: C_3  and  O_6 
REMARK    3  A    between atoms: C_3  and  C_4 
REMARK    4  A    between atoms: C_7  and  O_6 
REMARK    5  A    between atoms: C_9  and  C_10 
REMARK    6  A    between atoms: N_15  and  C_14 
REMARK    7  A    between atoms: N_20  and  C_19 
REMARK       I    between atoms: C_22  and  N_20 
ROOT
ATOM      1  C   LIG d   1      -1.849  77.417 115.688  0.00  0.00     0.161 C 
ATOM      2  C   LIG d   1      -2.344  77.349 114.375  0.00  0.00     0.016 C 
ATOM      3  C   LIG d   1      -1.895  78.190 113.330  0.00  0.00     0.038 C 
ATOM      4  C   LIG d   1      -0.806  79.059 113.493  0.00  0.00     0.028 C 
ATOM      5  C   LIG d   1      -0.611  79.521 114.934  0.00  0.00    -0.047 C 
ATOM      6  C   LIG d   1      -0.584  78.283 115.858  0.00  0.00     0.091 C 
ENDROOT
BRANCH   1   7
ATOM      7  O   LIG d   1      -1.619  76.087 116.192  0.00  0.00    -0.368 OA
BRANCH   7   8
ATOM      8  C   LIG d   1      -2.633  75.557 117.080  0.00  0.00     0.119 C 
BRANCH   8   9
ATOM      9  C   LIG d   1      -1.932  75.137 118.386  0.00  0.00     0.028 C 
ATOM     10  C   LIG d   1      -2.392  75.971 119.594  0.00  0.00     0.006 C 
ENDBRANCH   8   9
BRANCH   8  11
ATOM     11  C   LIG d   1      -3.248  74.271 116.519  0.00  0.00     0.028 C 
ATOM     12  C   LIG d   1      -4.440  74.539 115.586  0.00  0.00     0.006 C 
ENDBRANCH   8  11
ENDBRANCH   7   8
ENDBRANCH   1   7
BRANCH   6  13
ATOM     13  N   LIG d   1      -0.480  78.650 117.295  0.00  0.00    -0.311 N 
ATOM     14  C   LIG d   1      -1.419  79.334 117.946  0.00  0.00     0.210 C 
ATOM     15  C   LIG d   1      -1.105  79.625 119.417  0.00  0.00     0.109 C 
ATOM     16  O   LIG d   1      -2.497  79.700 117.453  0.00  0.00    -0.276 OA
ATOM     17  H   LIG d   1       0.348  78.366 117.780  0.00  0.00     0.149 HD
ENDBRANCH   6  13
BRANCH   5  18
ATOM     18  N   LIG d   1       0.636  80.308 114.984  0.00  0.00     0.381 N 
ATOM     19  H   LIG d   1       1.374  79.802 114.537  0.00  0.00    -0.090 HD
ATOM     20  H   LIG d   1       0.890  80.453 115.945  0.00  0.00    -0.090 HD
ATOM     21  H   LIG d   1       0.504  81.185 114.531  0.00  0.00    -0.090 HD
ENDBRANCH   5  18
BRANCH   3  22
ATOM     22  C   LIG d   1      -2.564  78.194 112.116  0.00  0.00     0.382 C 
ATOM     23  O   LIG d   1      -1.999  78.642 111.089  0.00  0.00    -0.241 OA
ATOM     24  O   LIG d   1      -3.742  77.796 112.042  0.00  0.00    -0.241 OA
ENDBRANCH   3  22
TORSDOF 7
ENDMDL
