MODEL 1
REMARK VINA RESULT:      -5.2      0.000      0.000
REMARK  7 active torsions:
REMARK  status: ('A' for Active; 'I' for Inactive)
REMARK    1  A    between atoms: C_2  and  C_3 
REMARK    2  A    between atoms: C_3  and  O_6 
REMARK    3  A    between atoms: C_3  and  C_4 
REMARK    4  A    between atoms: C_7  and  O_6 
REMARK    5  A    between atoms: C_9  and  C_10 
REMARK    6  A    between atoms: N_15  and  C_14 
REMARK    7  A    between atoms: N_20  and  C_19 
REMARK       I    between atoms: C_22  and  N_20 
ROOT
ATOM      1  C   LIG d   1       0.427  83.131 111.993  0.00  0.00     0.161 C 
ATOM      2  C   LIG d   1      -0.780  82.673 112.547  0.00  0.00     0.016 C 
ATOM      3  C   LIG d   1      -1.210  81.328 112.471  0.00  0.00     0.038 C 
ATOM      4  C   LIG d   1      -0.385  80.314 111.963  0.00  0.00     0.028 C 
ATOM      5  C   LIG d   1       0.628  80.812 110.938  0.00  0.00    -0.047 C 
ATOM      6  C   LIG d   1       1.392  82.018 111.533  0.00  0.00     0.091 C 
ENDROOT
BRANCH   1   7
ATOM      7  O   LIG d   1       1.087  84.014 112.922  0.00  0.00    -0.368 OA
BRANCH   7   8
ATOM      8  C   LIG d   1       2.270  83.487 113.571  0.00  0.00     0.119 C 
BRANCH   8   9
ATOM      9  C   LIG d   1       1.894  83.165 115.030  0.00  0.00     0.028 C 
ATOM     10  C   LIG d   1       2.226  81.713 115.415  0.00  0.00     0.006 C 
ENDBRANCH   8   9
BRANCH   8  11
ATOM     11  C   LIG d   1       3.374  84.545 113.661  0.00  0.00     0.028 C 
ATOM     12  C   LIG d   1       4.786  83.940 113.589  0.00  0.00     0.006 C 
ENDBRANCH   8  11
ENDBRANCH   7   8
ENDBRANCH   1   7
BRANCH   6  13
ATOM     13  N   LIG d   1       2.344  82.620 110.564  0.00  0.00    -0.311 N 
ATOM     14  C   LIG d   1       3.627  82.273 110.485  0.00  0.00     0.210 C 
ATOM     15  C   LIG d   1       4.439  83.031 109.430  0.00  0.00     0.109 C 
ATOM     16  O   LIG d   1       4.163  81.386 111.167  0.00  0.00    -0.276 OA
ATOM     17  H   LIG d   1       1.986  83.326 109.951  0.00  0.00     0.149 HD
ENDBRANCH   6  13
BRANCH   5  18
ATOM     18  N   LIG d   1       1.511  79.681 110.597  0.00  0.00     0.381 N 
ATOM     19  H   LIG d   1       0.960  78.893 110.321  0.00  0.00    -0.090 HD
ATOM     20  H   LIG d   1       2.041  79.425 111.411  0.00  0.00    -0.090 HD
ATOM     21  H   LIG d   1       2.127  79.940 109.858  0.00  0.00    -0.090 HD
ENDBRANCH   5  18
BRANCH   3  22
ATOM     22  C   LIG d   1      -2.495  80.994 112.869  0.00  0.00     0.382 C 
ATOM     23  O   LIG d   1      -3.468  81.696 112.502  0.00  0.00    -0.241 OA
ATOM     24  O   LIG d   1      -2.690  80.026 113.628  0.00  0.00    -0.241 OA
ENDBRANCH   3  22
TORSDOF 7
ENDMDL
MODEL 2
REMARK VINA RESULT:      -4.9      1.766      4.930
REMARK  7 active torsions:
REMARK  status: ('A' for Active; 'I' for Inactive)
REMARK    1  A    between atoms: C_2  and  C_3 
REMARK    2  A    between atoms: C_3  and  O_6 
REMARK    3  A    between atoms: C_3  and  C_4 
REMARK    4  A    between atoms: C_7  and  O_6 
REMARK    5  A    between atoms: C_9  and  C_10 
REMARK    6  A    between atoms: N_15  and  C_14 
REMARK    7  A    between atoms: N_20  and  C_19 
REMARK       I    between atoms: C_22  and  N_20 
ROOT
ATOM      1  C   LIG d   1       1.457  81.607 112.866  0.00  0.00     0.161 C 
ATOM      2  C   LIG d   1       2.509  82.375 112.339  0.00  0.00     0.016 C 
ATOM      3  C   LIG d   1       2.682  82.614 110.957  0.00  0.00     0.038 C 
ATOM      4  C   LIG d   1       1.722  82.225 110.011  0.00  0.00     0.028 C 
ATOM      5  C   LIG d   1       0.903  81.013 110.443  0.00  0.00    -0.047 C 
ATOM      6  C   LIG d   1       0.338  81.268 111.859  0.00  0.00     0.091 C 
ENDROOT
BRANCH   1   7
ATOM      7  O   LIG d   1       0.905  82.263 114.025  0.00  0.00    -0.368 OA
BRANCH   7   8
ATOM      8  C   LIG d   1       1.566  83.484 114.440  0.00  0.00     0.119 C 
BRANCH   8   9
ATOM      9  C   LIG d   1       1.940  83.325 115.927  0.00  0.00     0.028 C 
ATOM     10  C   LIG d   1       1.913  84.663 116.685  0.00  0.00     0.006 C 
ENDBRANCH   8   9
BRANCH   8  11
ATOM     11  C   LIG d   1       0.610  84.680 114.388  0.00  0.00     0.028 C 
ATOM     12  C   LIG d   1      -0.626  84.417 113.513  0.00  0.00     0.006 C 
ENDBRANCH   8  11
ENDBRANCH   7   8
ENDBRANCH   1   7
BRANCH   6  13
ATOM     13  N   LIG d   1      -0.406  80.096 112.392  0.00  0.00    -0.311 N 
ATOM     14  C   LIG d   1      -1.716  80.108 112.634  0.00  0.00     0.210 C 
ATOM     15  C   LIG d   1      -2.280  78.802 113.201  0.00  0.00     0.109 C 
ATOM     16  O   LIG d   1      -2.469  81.066 112.404  0.00  0.00    -0.276 OA
ATOM     17  H   LIG d   1       0.122  79.267 112.577  0.00  0.00     0.149 HD
ENDBRANCH   6  13
BRANCH   5  18
ATOM     18  N   LIG d   1      -0.148  80.801 109.430  0.00  0.00     0.381 N 
ATOM     19  H   LIG d   1       0.051  79.974 108.903  0.00  0.00    -0.090 HD
ATOM     20  H   LIG d   1      -0.154  81.583 108.799  0.00  0.00    -0.090 HD
ATOM     21  H   LIG d   1      -1.036  80.715 109.873  0.00  0.00    -0.090 HD
ENDBRANCH   5  18
BRANCH   3  22
ATOM     22  C   LIG d   1       3.846  83.216 110.504  0.00  0.00     0.382 C 
ATOM     23  O   LIG d   1       4.935  82.594 110.559  0.00  0.00    -0.241 OA
ATOM     24  O   LIG d   1       3.829  84.387 110.082  0.00  0.00    -0.241 OA
ENDBRANCH   3  22
TORSDOF 7
ENDMDL
MODEL 3
REMARK VINA RESULT:      -4.8      4.749      7.097
REMARK  7 active torsions:
REMARK  status: ('A' for Active; 'I' for Inactive)
REMARK    1  A    between atoms: C_2  and  C_3 
REMARK    2  A    between atoms: C_3  and  O_6 
REMARK    3  A    between atoms: C_3  and  C_4 
REMARK    4  A    between atoms: C_7  and  O_6 
REMARK    5  A    between atoms: C_9  and  C_10 
REMARK    6  A    between atoms: N_15  and  C_14 
REMARK    7  A    between atoms: N_20  and  C_19 
REMARK       I    between atoms: C_22  and  N_20 
ROOT
ATOM      1  C   LIG d   1      -1.008  77.895 114.973  0.00  0.00     0.161 C 
ATOM      2  C   LIG d   1      -2.077  77.066 114.593  0.00  0.00     0.016 C 
ATOM      3  C   LIG d   1      -2.850  76.322 115.513  0.00  0.00     0.038 C 
ATOM      4  C   LIG d   1      -2.703  76.475 116.900  0.00  0.00     0.028 C 
ATOM      5  C   LIG d   1      -1.304  76.916 117.315  0.00  0.00    -0.047 C 
ATOM      6  C   LIG d   1      -0.904  78.161 116.490  0.00  0.00     0.091 C 
ENDROOT
BRANCH   1   7
ATOM      7  O   LIG d   1      -1.074  79.140 114.250  0.00  0.00    -0.368 OA
BRANCH   7   8
ATOM      8  C   LIG d   1      -2.005  79.184 113.140  0.00  0.00     0.119 C 
BRANCH   8   9
ATOM      9  C   LIG d   1      -1.183  79.064 111.842  0.00  0.00     0.028 C 
ATOM     10  C   LIG d   1      -1.934  78.298 110.740  0.00  0.00     0.006 C 
ENDBRANCH   8   9
BRANCH   8  11
ATOM     11  C   LIG d   1      -2.704  80.543 113.053  0.00  0.00     0.028 C 
ATOM     12  C   LIG d   1      -1.753  81.678 112.643  0.00  0.00     0.006 C 
ENDBRANCH   8  11
ENDBRANCH   7   8
ENDBRANCH   1   7
BRANCH   6  13
ATOM     13  N   LIG d   1       0.484  78.608 116.774  0.00  0.00    -0.311 N 
ATOM     14  C   LIG d   1       0.786  79.526 117.690  0.00  0.00     0.210 C 
ATOM     15  C   LIG d   1       2.278  79.855 117.809  0.00  0.00     0.109 C 
ATOM     16  O   LIG d   1      -0.036  80.075 118.439  0.00  0.00    -0.276 OA
ATOM     17  H   LIG d   1       1.217  78.191 116.233  0.00  0.00     0.149 HD
ENDBRANCH   6  13
BRANCH   5  18
ATOM     18  N   LIG d   1      -1.329  77.170 118.768  0.00  0.00     0.381 N 
ATOM     19  H   LIG d   1      -2.276  77.249 119.082  0.00  0.00    -0.090 HD
ATOM     20  H   LIG d   1      -0.862  78.040 118.954  0.00  0.00    -0.090 HD
ATOM     21  H   LIG d   1      -0.872  76.429 119.252  0.00  0.00    -0.090 HD
ENDBRANCH   5  18
BRANCH   3  22
ATOM     22  C   LIG d   1      -3.757  75.383 115.047  0.00  0.00     0.382 C 
ATOM     23  O   LIG d   1      -3.884  74.285 115.641  0.00  0.00    -0.241 OA
ATOM     24  O   LIG d   1      -4.419  75.601 114.015  0.00  0.00    -0.241 OA
ENDBRANCH   3  22
TORSDOF 7
ENDMDL
MODEL 4
REMARK VINA RESULT:      -4.4      5.999      7.938
REMARK  7 active torsions:
REMARK  status: ('A' for Active; 'I' for Inactive)
REMARK    1  A    between atoms: C_2  and  C_3 
REMARK    2  A    between atoms: C_3  and  O_6 
REMARK    3  A    between atoms: C_3  and  C_4 
REMARK    4  A    between atoms: C_7  and  O_6 
REMARK    5  A    between atoms: C_9  and  C_10 
REMARK    6  A    between atoms: N_15  and  C_14 
REMARK    7  A    between atoms: N_20  and  C_19 
REMARK       I    between atoms: C_22  and  N_20 
ROOT
ATOM      1  C   LIG d   1      -2.080  77.659 116.545  0.00  0.00     0.161 C 
ATOM      2  C   LIG d   1      -2.726  78.335 115.496  0.00  0.00     0.016 C 
ATOM      3  C   LIG d   1      -2.356  78.198 114.138  0.00  0.00     0.038 C 
ATOM      4  C   LIG d   1      -1.407  77.254 113.719  0.00  0.00     0.028 C 
ATOM      5  C   LIG d   1      -0.377  76.914 114.792  0.00  0.00    -0.047 C 
ATOM      6  C   LIG d   1      -1.116  76.541 116.097  0.00  0.00     0.091 C 
ENDROOT
BRANCH   1   7
ATOM      7  O   LIG d   1      -3.059  77.138 117.466  0.00  0.00    -0.368 OA
BRANCH   7   8
ATOM      8  C   LIG d   1      -3.082  77.744 118.781  0.00  0.00     0.119 C 
BRANCH   8   9
ATOM      9  C   LIG d   1      -4.440  78.455 118.940  0.00  0.00     0.028 C 
ATOM     10  C   LIG d   1      -4.326  79.767 119.735  0.00  0.00     0.006 C 
ENDBRANCH   8   9
BRANCH   8  11
ATOM     11  C   LIG d   1      -2.029  78.849 118.905  0.00  0.00     0.028 C 
ATOM     12  C   LIG d   1      -0.933  78.516 119.930  0.00  0.00     0.006 C 
ENDBRANCH   8  11
ENDBRANCH   7   8
ENDBRANCH   1   7
BRANCH   6  13
ATOM     13  N   LIG d   1      -0.181  76.276 117.222  0.00  0.00    -0.311 N 
ATOM     14  C   LIG d   1      -0.295  75.230 118.039  0.00  0.00     0.210 C 
ATOM     15  C   LIG d   1       0.762  75.156 119.145  0.00  0.00     0.109 C 
ATOM     16  O   LIG d   1      -1.153  74.340 117.933  0.00  0.00    -0.276 OA
ATOM     17  H   LIG d   1       0.563  76.931 117.361  0.00  0.00     0.149 HD
ENDBRANCH   6  13
BRANCH   5  18
ATOM     18  N   LIG d   1       0.465  75.821 114.271  0.00  0.00     0.381 N 
ATOM     19  H   LIG d   1       0.133  75.537 113.371  0.00  0.00    -0.090 HD
ATOM     20  H   LIG d   1       0.399  75.035 114.894  0.00  0.00    -0.090 HD
ATOM     21  H   LIG d   1       1.412  76.122 114.203  0.00  0.00    -0.090 HD
ENDBRANCH   5  18
BRANCH   3  22
ATOM     22  C   LIG d   1      -2.910  79.041 113.186  0.00  0.00     0.382 C 
ATOM     23  O   LIG d   1      -3.073  80.258 113.445  0.00  0.00    -0.241 OA
ATOM     24  O   LIG d   1      -3.291  78.591 112.089  0.00  0.00    -0.241 OA
ENDBRANCH   3  22
TORSDOF 7
ENDMDL
MODEL 5
REMARK VINA RESULT:      -4.3      1.689      2.363
REMARK  7 active torsions:
REMARK  status: ('A' for Active; 'I' for Inactive)
REMARK    1  A    between atoms: C_2  and  C_3 
REMARK    2  A    between atoms: C_3  and  O_6 
REMARK    3  A    between atoms: C_3  and  C_4 
REMARK    4  A    between atoms: C_7  and  O_6 
REMARK    5  A    between atoms: C_9  and  C_10 
REMARK    6  A    between atoms: N_15  and  C_14 
REMARK    7  A    between atoms: N_20  and  C_19 
REMARK       I    between atoms: C_22  and  N_20 
ROOT
ATOM      1  C   LIG d   1      -0.067  81.120 112.472  0.00  0.00     0.161 C 
ATOM      2  C   LIG d   1      -1.065  80.349 113.090  0.00  0.00     0.016 C 
ATOM      3  C   LIG d   1      -1.559  79.139 112.550  0.00  0.00     0.038 C 
ATOM      4  C   LIG d   1      -0.976  78.537 111.425  0.00  0.00     0.028 C 
ATOM      5  C   LIG d   1      -0.305  79.532 110.485  0.00  0.00    -0.047 C 
ATOM      6  C   LIG d   1       0.658  80.423 111.302  0.00  0.00     0.091 C 
ENDROOT
BRANCH   1   7
ATOM      7  O   LIG d   1       0.886  81.566 113.458  0.00  0.00    -0.368 OA
BRANCH   7   8
ATOM      8  C   LIG d   1       0.739  82.933 113.914  0.00  0.00     0.119 C 
BRANCH   8   9
ATOM      9  C   LIG d   1       0.018  83.717 112.801  0.00  0.00     0.028 C 
ATOM     10  C   LIG d   1       0.959  84.680 112.057  0.00  0.00     0.006 C 
ENDBRANCH   8   9
BRANCH   8  11
ATOM     11  C   LIG d   1       2.100  83.616 114.075  0.00  0.00     0.028 C 
ATOM     12  C   LIG d   1       2.201  84.446 115.365  0.00  0.00     0.006 C 
ENDBRANCH   8  11
ENDBRANCH   7   8
ENDBRANCH   1   7
BRANCH   6  13
ATOM     13  N   LIG d   1       1.294  81.480 110.473  0.00  0.00    -0.311 N 
ATOM     14  C   LIG d   1       2.610  81.679 110.422  0.00  0.00     0.210 C 
ATOM     15  C   LIG d   1       3.055  82.835 109.520  0.00  0.00     0.109 C 
ATOM     16  O   LIG d   1       3.454  80.988 111.013  0.00  0.00    -0.276 OA
ATOM     17  H   LIG d   1       0.686  82.067 109.937  0.00  0.00     0.149 HD
ENDBRANCH   6  13
BRANCH   5  18
ATOM     18  N   LIG d   1       0.378  78.758 109.430  0.00  0.00     0.381 N 
ATOM     19  H   LIG d   1      -0.122  77.910 109.255  0.00  0.00    -0.090 HD
ATOM     20  H   LIG d   1       1.301  78.520 109.748  0.00  0.00    -0.090 HD
ATOM     21  H   LIG d   1       0.435  79.297 108.595  0.00  0.00    -0.090 HD
ENDBRANCH   5  18
BRANCH   3  22
ATOM     22  C   LIG d   1      -2.674  78.539 113.115  0.00  0.00     0.382 C 
ATOM     23  O   LIG d   1      -3.065  78.890 114.254  0.00  0.00    -0.241 OA
ATOM     24  O   LIG d   1      -3.267  77.620 112.519  0.00  0.00    -0.241 OA
ENDBRANCH   3  22
TORSDOF 7
ENDMDL
MODEL 6
REMARK VINA RESULT:      -4.2      6.259      7.988
REMARK  7 active torsions:
REMARK  status: ('A' for Active; 'I' for Inactive)
REMARK    1  A    between atoms: C_2  and  C_3 
REMARK    2  A    between atoms: C_3  and  O_6 
REMARK    3  A    between atoms: C_3  and  C_4 
REMARK    4  A    between atoms: C_7  and  O_6 
REMARK    5  A    between atoms: C_9  and  C_10 
REMARK    6  A    between atoms: N_15  and  C_14 
REMARK    7  A    between atoms: N_20  and  C_19 
REMARK       I    between atoms: C_22  and  N_20 
ROOT
ATOM      1  C   LIG d   1      -1.074  77.257 116.229  0.00  0.00     0.161 C 
ATOM      2  C   LIG d   1      -1.451  77.969 115.078  0.00  0.00     0.016 C 
ATOM      3  C   LIG d   1      -2.504  77.566 114.224  0.00  0.00     0.038 C 
ATOM      4  C   LIG d   1      -3.354  76.498 114.548  0.00  0.00     0.028 C 
ATOM      5  C   LIG d   1      -2.696  75.448 115.438  0.00  0.00    -0.047 C 
ATOM      6  C   LIG d   1      -2.062  76.152 116.659  0.00  0.00     0.091 C 
ENDROOT
BRANCH   1   7
ATOM      7  O   LIG d   1      -0.844  78.174 117.317  0.00  0.00    -0.368 OA
BRANCH   7   8
ATOM      8  C   LIG d   1       0.507  78.683 117.447  0.00  0.00     0.119 C 
BRANCH   8   9
ATOM      9  C   LIG d   1       1.373  77.551 118.033  0.00  0.00     0.028 C 
ATOM     10  C   LIG d   1       2.517  78.083 118.912  0.00  0.00     0.006 C 
ENDBRANCH   8   9
BRANCH   8  11
ATOM     11  C   LIG d   1       0.578  79.819 118.471  0.00  0.00     0.028 C 
ATOM     12  C   LIG d   1      -0.756  80.051 119.198  0.00  0.00     0.006 C 
ENDBRANCH   8  11
ENDBRANCH   7   8
ENDBRANCH   1   7
BRANCH   6  13
ATOM     13  N   LIG d   1      -1.325  75.207 117.538  0.00  0.00    -0.311 N 
ATOM     14  C   LIG d   1      -1.403  75.230 118.868  0.00  0.00     0.210 C 
ATOM     15  C   LIG d   1      -0.546  74.180 119.583  0.00  0.00     0.109 C 
ATOM     16  O   LIG d   1      -2.125  75.998 119.521  0.00  0.00    -0.276 OA
ATOM     17  H   LIG d   1      -0.739  74.530 117.090  0.00  0.00     0.149 HD
ENDBRANCH   6  13
BRANCH   5  18
ATOM     18  N   LIG d   1      -3.733  74.467 115.810  0.00  0.00     0.381 N 
ATOM     19  H   LIG d   1      -3.334  73.756 116.390  0.00  0.00    -0.090 HD
ATOM     20  H   LIG d   1      -4.084  74.033 114.975  0.00  0.00    -0.090 HD
ATOM     21  H   LIG d   1      -4.475  74.922 116.294  0.00  0.00    -0.090 HD
ENDBRANCH   5  18
BRANCH   3  22
ATOM     22  C   LIG d   1      -2.688  78.210 113.010  0.00  0.00     0.382 C 
ATOM     23  O   LIG d   1      -2.494  77.591 111.936  0.00  0.00    -0.241 OA
ATOM     24  O   LIG d   1      -3.004  79.414 112.976  0.00  0.00    -0.241 OA
ENDBRANCH   3  22
TORSDOF 7
ENDMDL
MODEL 7
REMARK VINA RESULT:      -4.2      2.611      5.338
REMARK  7 active torsions:
REMARK  status: ('A' for Active; 'I' for Inactive)
REMARK    1  A    between atoms: C_2  and  C_3 
REMARK    2  A    between atoms: C_3  and  O_6 
REMARK    3  A    between atoms: C_3  and  C_4 
REMARK    4  A    between atoms: C_7  and  O_6 
REMARK    5  A    between atoms: C_9  and  C_10 
REMARK    6  A    between atoms: N_15  and  C_14 
REMARK    7  A    between atoms: N_20  and  C_19 
REMARK       I    between atoms: C_22  and  N_20 
ROOT
ATOM      1  C   LIG d   1       2.666  82.292 112.411  0.00  0.00     0.161 C 
ATOM      2  C   LIG d   1       3.455  81.800 113.463  0.00  0.00     0.016 C 
ATOM      3  C   LIG d   1       3.292  82.198 114.810  0.00  0.00     0.038 C 
ATOM      4  C   LIG d   1       2.222  83.008 115.219  0.00  0.00     0.028 C 
ATOM      5  C   LIG d   1       1.704  83.929 114.120  0.00  0.00    -0.047 C 
ATOM      6  C   LIG d   1       1.422  83.090 112.853  0.00  0.00     0.091 C 
ENDROOT
BRANCH   1   7
ATOM      7  O   LIG d   1       2.283  81.208 111.540  0.00  0.00    -0.368 OA
BRANCH   7   8
ATOM      8  C   LIG d   1       2.561  81.394 110.131  0.00  0.00     0.119 C 
BRANCH   8   9
ATOM      9  C   LIG d   1       2.539  80.004 109.467  0.00  0.00     0.028 C 
ATOM     10  C   LIG d   1       1.341  79.155 109.923  0.00  0.00     0.006 C 
ENDBRANCH   8   9
BRANCH   8  11
ATOM     11  C   LIG d   1       3.980  81.927 109.909  0.00  0.00     0.028 C 
ATOM     12  C   LIG d   1       4.957  80.841 109.431  0.00  0.00     0.006 C 
ENDBRANCH   8  11
ENDBRANCH   7   8
ENDBRANCH   1   7
BRANCH   6  13
ATOM     13  N   LIG d   1       0.992  83.927 111.703  0.00  0.00    -0.311 N 
ATOM     14  C   LIG d   1      -0.129  83.711 111.018  0.00  0.00     0.210 C 
ATOM     15  C   LIG d   1      -0.374  84.679 109.856  0.00  0.00     0.109 C 
ATOM     16  O   LIG d   1      -0.961  82.830 111.282  0.00  0.00    -0.276 OA
ATOM     17  H   LIG d   1       1.593  84.684 111.440  0.00  0.00     0.149 HD
ENDBRANCH   6  13
BRANCH   5  18
ATOM     18  N   LIG d   1       0.505  84.613 114.640  0.00  0.00     0.381 N 
ATOM     19  H   LIG d   1      -0.259  84.485 114.007  0.00  0.00    -0.090 HD
ATOM     20  H   LIG d   1       0.696  85.598 114.708  0.00  0.00    -0.090 HD
ATOM     21  H   LIG d   1       0.268  84.251 115.537  0.00  0.00    -0.090 HD
ENDBRANCH   5  18
BRANCH   3  22
ATOM     22  C   LIG d   1       4.230  81.818 115.758  0.00  0.00     0.382 C 
ATOM     23  O   LIG d   1       5.407  82.245 115.681  0.00  0.00    -0.241 OA
ATOM     24  O   LIG d   1       3.925  81.019 116.663  0.00  0.00    -0.241 OA
ENDBRANCH   3  22
TORSDOF 7
ENDMDL
MODEL 8
REMARK VINA RESULT:      -4.2      1.961      4.814
REMARK  7 active torsions:
REMARK  status: ('A' for Active; 'I' for Inactive)
REMARK    1  A    between atoms: C_2  and  C_3 
REMARK    2  A    between atoms: C_3  and  O_6 
REMARK    3  A    between atoms: C_3  and  C_4 
REMARK    4  A    between atoms: C_7  and  O_6 
REMARK    5  A    between atoms: C_9  and  C_10 
REMARK    6  A    between atoms: N_15  and  C_14 
REMARK    7  A    between atoms: N_20  and  C_19 
REMARK       I    between atoms: C_22  and  N_20 
ROOT
ATOM      1  C   LIG d   1       1.502  81.636 112.592  0.00  0.00     0.161 C 
ATOM      2  C   LIG d   1       2.695  81.594 111.851  0.00  0.00     0.016 C 
ATOM      3  C   LIG d   1       2.884  82.298 110.640  0.00  0.00     0.038 C 
ATOM      4  C   LIG d   1       1.939  83.218 110.162  0.00  0.00     0.028 C 
ATOM      5  C   LIG d   1       0.514  82.911 110.610  0.00  0.00    -0.047 C 
ATOM      6  C   LIG d   1       0.500  82.721 112.144  0.00  0.00     0.091 C 
ENDROOT
BRANCH   1   7
ATOM      7  O   LIG d   1       1.802  81.779 113.994  0.00  0.00    -0.368 OA
BRANCH   7   8
ATOM      8  C   LIG d   1       3.077  82.388 114.314  0.00  0.00     0.119 C 
BRANCH   8   9
ATOM      9  C   LIG d   1       3.711  81.564 115.452  0.00  0.00     0.028 C 
ATOM     10  C   LIG d   1       5.201  81.272 115.205  0.00  0.00     0.006 C 
ENDBRANCH   8   9
BRANCH   8  11
ATOM     11  C   LIG d   1       2.895  83.796 114.887  0.00  0.00     0.028 C 
ATOM     12  C   LIG d   1       2.196  83.797 116.255  0.00  0.00     0.006 C 
ENDBRANCH   8  11
ENDBRANCH   7   8
ENDBRANCH   1   7
BRANCH   6  13
ATOM     13  N   LIG d   1      -0.840  82.334 112.655  0.00  0.00    -0.311 N 
ATOM     14  C   LIG d   1      -1.468  81.217 112.294  0.00  0.00     0.210 C 
ATOM     15  C   LIG d   1      -2.851  81.020 112.924  0.00  0.00     0.109 C 
ATOM     16  O   LIG d   1      -0.998  80.354 111.537  0.00  0.00    -0.276 OA
ATOM     17  H   LIG d   1      -1.281  82.962 113.299  0.00  0.00     0.149 HD
ENDBRANCH   6  13
BRANCH   5  18
ATOM     18  N   LIG d   1      -0.345  84.021 110.157  0.00  0.00     0.381 N 
ATOM     19  H   LIG d   1      -0.912  83.720 109.390  0.00  0.00    -0.090 HD
ATOM     20  H   LIG d   1       0.239  84.776 109.840  0.00  0.00    -0.090 HD
ATOM     21  H   LIG d   1      -0.924  84.332 110.906  0.00  0.00    -0.090 HD
ENDBRANCH   5  18
BRANCH   3  22
ATOM     22  C   LIG d   1       4.013  82.054 109.872  0.00  0.00     0.382 C 
ATOM     23  O   LIG d   1       4.689  83.014 109.430  0.00  0.00    -0.241 OA
ATOM     24  O   LIG d   1       4.338  80.888 109.579  0.00  0.00    -0.241 OA
ENDBRANCH   3  22
TORSDOF 7
ENDMDL
MODEL 9
REMARK VINA RESULT:      -4.1      6.522      7.819
REMARK  7 active torsions:
REMARK  status: ('A' for Active; 'I' for Inactive)
REMARK    1  A    between atoms: C_2  and  C_3 
REMARK    2  A    between atoms: C_3  and  O_6 
REMARK    3  A    between atoms: C_3  and  C_4 
REMARK    4  A    between atoms: C_7  and  O_6 
REMARK    5  A    between atoms: C_9  and  C_10 
REMARK    6  A    between atoms: N_15  and  C_14 
REMARK    7  A    between atoms: N_20  and  C_19 
REMARK       I    between atoms: C_22  and  N_20 
ROOT
ATOM      1  C   LIG d   1      -0.285  77.853 116.332  0.00  0.00     0.161 C 
ATOM      2  C   LIG d   1      -1.286  78.125 115.384  0.00  0.00     0.016 C 
ATOM      3  C   LIG d   1      -2.248  77.174 114.974  0.00  0.00     0.038 C 
ATOM      4  C   LIG d   1      -2.369  75.924 115.600  0.00  0.00     0.028 C 
ATOM      5  C   LIG d   1      -1.064  75.423 116.208  0.00  0.00    -0.047 C 
ATOM      6  C   LIG d   1      -0.470  76.532 117.107  0.00  0.00     0.091 C 
ENDROOT
BRANCH   1   7
ATOM      7  O   LIG d   1      -0.168  78.959 117.249  0.00  0.00    -0.368 OA
BRANCH   7   8
ATOM      8  C   LIG d   1      -0.708  78.747 118.576  0.00  0.00     0.119 C 
BRANCH   8   9
ATOM      9  C   LIG d   1      -2.151  79.288 118.581  0.00  0.00     0.028 C 
ATOM     10  C   LIG d   1      -3.167  78.246 119.078  0.00  0.00     0.006 C 
ENDBRANCH   8   9
BRANCH   8  11
ATOM     11  C   LIG d   1       0.041  79.579 119.622  0.00  0.00     0.028 C 
ATOM     12  C   LIG d   1      -0.356  81.063 119.597  0.00  0.00     0.006 C 
ENDBRANCH   8  11
ENDBRANCH   7   8
ENDBRANCH   1   7
BRANCH   6  13
ATOM     13  N   LIG d   1       0.850  76.155 117.675  0.00  0.00    -0.311 N 
ATOM     14  C   LIG d   1       1.004  75.642 118.894  0.00  0.00     0.210 C 
ATOM     15  C   LIG d   1       2.453  75.342 119.292  0.00  0.00     0.109 C 
ATOM     16  O   LIG d   1       0.076  75.376 119.672  0.00  0.00    -0.276 OA
ATOM     17  H   LIG d   1       1.655  76.307 117.099  0.00  0.00     0.149 HD
ENDBRANCH   6  13
BRANCH   5  18
ATOM     18  N   LIG d   1      -1.364  74.180 116.945  0.00  0.00     0.381 N 
ATOM     19  H   LIG d   1      -2.352  74.097 117.080  0.00  0.00    -0.090 HD
ATOM     20  H   LIG d   1      -0.925  74.224 117.848  0.00  0.00    -0.090 HD
ATOM     21  H   LIG d   1      -1.023  73.393 116.439  0.00  0.00    -0.090 HD
ENDBRANCH   5  18
BRANCH   3  22
ATOM     22  C   LIG d   1      -3.077  77.455 113.898  0.00  0.00     0.382 C 
ATOM     23  O   LIG d   1      -2.961  78.543 113.285  0.00  0.00    -0.241 OA
ATOM     24  O   LIG d   1      -3.969  76.653 113.562  0.00  0.00    -0.241 OA
ENDBRANCH   3  22
TORSDOF 7
ENDMDL
