MODEL 1
REMARK VINA RESULT:      -5.8      0.000      0.000
REMARK  7 active torsions:
REMARK  status: ('A' for Active; 'I' for Inactive)
REMARK    1  A    between atoms: C_2  and  C_3 
REMARK    2  A    between atoms: C_3  and  O_6 
REMARK    3  A    between atoms: C_3  and  C_4 
REMARK    4  A    between atoms: C_7  and  O_6 
REMARK    5  A    between atoms: C_9  and  C_10 
REMARK    6  A    between atoms: N_15  and  C_14 
REMARK    7  A    between atoms: N_20  and  C_19 
REMARK       I    between atoms: C_22  and  N_20 
ROOT
ATOM      1  C   LIG d   1       1.340  80.651 110.679  0.00  0.00     0.161 C 
ATOM      2  C   LIG d   1       1.083  79.335 110.259  0.00  0.00     0.016 C 
ATOM      3  C   LIG d   1      -0.050  78.595 110.669  0.00  0.00     0.038 C 
ATOM      4  C   LIG d   1      -1.088  79.178 111.411  0.00  0.00     0.028 C 
ATOM      5  C   LIG d   1      -0.631  80.347 112.277  0.00  0.00    -0.047 C 
ATOM      6  C   LIG d   1       0.163  81.342 111.399  0.00  0.00     0.091 C 
ENDROOT
BRANCH   1   7
ATOM      7  O   LIG d   1       1.776  81.444 109.557  0.00  0.00    -0.368 OA
BRANCH   7   8
ATOM      8  C   LIG d   1       3.189  81.765 109.515  0.00  0.00     0.119 C 
BRANCH   8   9
ATOM      9  C   LIG d   1       3.802  81.335 110.862  0.00  0.00     0.028 C 
ATOM     10  C   LIG d   1       4.903  82.297 111.339  0.00  0.00     0.006 C 
ENDBRANCH   8   9
BRANCH   8  11
ATOM     11  C   LIG d   1       3.414  83.278 109.431  0.00  0.00     0.028 C 
ATOM     12  C   LIG d   1       2.101  84.077 109.430  0.00  0.00     0.006 C 
ENDBRANCH   8  11
ENDBRANCH   7   8
ENDBRANCH   1   7
BRANCH   6  13
ATOM     13  N   LIG d   1       0.719  82.474 112.185  0.00  0.00    -0.311 N 
ATOM     14  C   LIG d   1       0.078  83.627 112.363  0.00  0.00     0.210 C 
ATOM     15  C   LIG d   1       0.839  84.669 113.190  0.00  0.00     0.109 C 
ATOM     16  O   LIG d   1      -1.062  83.875 111.942  0.00  0.00    -0.276 OA
ATOM     17  H   LIG d   1       1.627  82.346 112.589  0.00  0.00     0.149 HD
ENDBRANCH   6  13
BRANCH   5  18
ATOM     18  N   LIG d   1      -1.832  80.947 112.888  0.00  0.00     0.381 N 
ATOM     19  H   LIG d   1      -2.203  80.330 113.582  0.00  0.00    -0.090 HD
ATOM     20  H   LIG d   1      -2.529  81.075 112.175  0.00  0.00    -0.090 HD
ATOM     21  H   LIG d   1      -1.603  81.824 113.300  0.00  0.00    -0.090 HD
ENDBRANCH   5  18
BRANCH   3  22
ATOM     22  C   LIG d   1      -0.134  77.244 110.369  0.00  0.00     0.382 C 
ATOM     23  O   LIG d   1       0.912  76.579 110.173  0.00  0.00    -0.241 OA
ATOM     24  O   LIG d   1      -1.244  76.691 110.250  0.00  0.00    -0.241 OA
ENDBRANCH   3  22
TORSDOF 7
ENDMDL
MODEL 2
REMARK VINA RESULT:      -5.6      2.465      4.093
REMARK  7 active torsions:
REMARK  status: ('A' for Active; 'I' for Inactive)
REMARK    1  A    between atoms: C_2  and  C_3 
REMARK    2  A    between atoms: C_3  and  O_6 
REMARK    3  A    between atoms: C_3  and  C_4 
REMARK    4  A    between atoms: C_7  and  O_6 
REMARK    5  A    between atoms: C_9  and  C_10 
REMARK    6  A    between atoms: N_15  and  C_14 
REMARK    7  A    between atoms: N_20  and  C_19 
REMARK       I    between atoms: C_22  and  N_20 
ROOT
ATOM      1  C   LIG d   1       1.448  81.137 112.434  0.00  0.00     0.161 C 
ATOM      2  C   LIG d   1       2.655  81.334 111.742  0.00  0.00     0.016 C 
ATOM      3  C   LIG d   1       2.859  80.929 110.403  0.00  0.00     0.038 C 
ATOM      4  C   LIG d   1       1.812  80.432 109.611  0.00  0.00     0.028 C 
ATOM      5  C   LIG d   1       0.713  79.750 110.418  0.00  0.00    -0.047 C 
ATOM      6  C   LIG d   1       0.261  80.698 111.552  0.00  0.00     0.091 C 
ENDROOT
BRANCH   1   7
ATOM      7  O   LIG d   1       1.109  82.327 113.174  0.00  0.00    -0.368 OA
BRANCH   7   8
ATOM      8  C   LIG d   1       1.520  83.584 112.582  0.00  0.00     0.119 C 
BRANCH   8   9
ATOM      9  C   LIG d   1       2.172  84.428 113.694  0.00  0.00     0.028 C 
ATOM     10  C   LIG d   1       3.444  83.773 114.259  0.00  0.00     0.006 C 
ENDBRANCH   8   9
BRANCH   8  11
ATOM     11  C   LIG d   1       0.313  84.399 112.109  0.00  0.00     0.028 C 
ATOM     12  C   LIG d   1      -0.072  84.103 110.651  0.00  0.00     0.006 C 
ENDBRANCH   8  11
ENDBRANCH   7   8
ENDBRANCH   1   7
BRANCH   6  13
ATOM     13  N   LIG d   1      -0.754  80.074 112.441  0.00  0.00    -0.311 N 
ATOM     14  C   LIG d   1      -1.885  80.679 112.800  0.00  0.00     0.210 C 
ATOM     15  C   LIG d   1      -2.783  79.867 113.739  0.00  0.00     0.109 C 
ATOM     16  O   LIG d   1      -2.245  81.798 112.404  0.00  0.00    -0.276 OA
ATOM     17  H   LIG d   1      -0.557  79.154 112.784  0.00  0.00     0.149 HD
ENDBRANCH   6  13
BRANCH   5  18
ATOM     18  N   LIG d   1      -0.375  79.403 109.485  0.00  0.00     0.381 N 
ATOM     19  H   LIG d   1      -1.087  80.106 109.519  0.00  0.00    -0.090 HD
ATOM     20  H   LIG d   1      -0.781  78.529 109.769  0.00  0.00    -0.090 HD
ATOM     21  H   LIG d   1      -0.018  79.327 108.558  0.00  0.00    -0.090 HD
ENDBRANCH   5  18
BRANCH   3  22
ATOM     22  C   LIG d   1       4.131  80.982 109.855  0.00  0.00     0.382 C 
ATOM     23  O   LIG d   1       4.676  79.934 109.431  0.00  0.00    -0.241 OA
ATOM     24  O   LIG d   1       4.759  82.057 109.819  0.00  0.00    -0.241 OA
ENDBRANCH   3  22
TORSDOF 7
ENDMDL
MODEL 3
REMARK VINA RESULT:      -5.6      2.092      2.521
REMARK  7 active torsions:
REMARK  status: ('A' for Active; 'I' for Inactive)
REMARK    1  A    between atoms: C_2  and  C_3 
REMARK    2  A    between atoms: C_3  and  O_6 
REMARK    3  A    between atoms: C_3  and  C_4 
REMARK    4  A    between atoms: C_7  and  O_6 
REMARK    5  A    between atoms: C_9  and  C_10 
REMARK    6  A    between atoms: N_15  and  C_14 
REMARK    7  A    between atoms: N_20  and  C_19 
REMARK       I    between atoms: C_22  and  N_20 
ROOT
ATOM      1  C   LIG d   1       0.113  79.968 111.372  0.00  0.00     0.161 C 
ATOM      2  C   LIG d   1      -0.990  79.139 111.110  0.00  0.00     0.016 C 
ATOM      3  C   LIG d   1      -1.809  78.590 112.123  0.00  0.00     0.038 C 
ATOM      4  C   LIG d   1      -1.671  78.959 113.469  0.00  0.00     0.028 C 
ATOM      5  C   LIG d   1      -0.256  79.397 113.835  0.00  0.00    -0.047 C 
ATOM      6  C   LIG d   1       0.213  80.471 112.828  0.00  0.00     0.091 C 
ENDROOT
BRANCH   1   7
ATOM      7  O   LIG d   1       0.117  81.081 110.456  0.00  0.00    -0.368 OA
BRANCH   7   8
ATOM      8  C   LIG d   1       1.164  81.080 109.455  0.00  0.00     0.119 C 
BRANCH   8   9
ATOM      9  C   LIG d   1       2.101  79.897 109.767  0.00  0.00     0.028 C 
ATOM     10  C   LIG d   1       3.581  80.313 109.798  0.00  0.00     0.006 C 
ENDBRANCH   8   9
BRANCH   8  11
ATOM     11  C   LIG d   1       2.041  82.331 109.564  0.00  0.00     0.028 C 
ATOM     12  C   LIG d   1       1.237  83.594 109.912  0.00  0.00     0.006 C 
ENDBRANCH   8  11
ENDBRANCH   7   8
ENDBRANCH   1   7
BRANCH   6  13
ATOM     13  N   LIG d   1       1.618  80.893 113.063  0.00  0.00    -0.311 N 
ATOM     14  C   LIG d   1       1.971  82.148 113.337  0.00  0.00     0.210 C 
ATOM     15  C   LIG d   1       3.474  82.371 113.525  0.00  0.00     0.109 C 
ATOM     16  O   LIG d   1       1.177  83.092 113.475  0.00  0.00    -0.276 OA
ATOM     17  H   LIG d   1       2.323  80.185 113.001  0.00  0.00     0.149 HD
ENDBRANCH   6  13
BRANCH   5  18
ATOM     18  N   LIG d   1      -0.287  79.883 115.227  0.00  0.00     0.381 N 
ATOM     19  H   LIG d   1      -0.809  79.248 115.797  0.00  0.00    -0.090 HD
ATOM     20  H   LIG d   1      -0.745  80.777 115.249  0.00  0.00    -0.090 HD
ATOM     21  H   LIG d   1       0.642  79.969 115.578  0.00  0.00    -0.090 HD
ENDBRANCH   5  18
BRANCH   3  22
ATOM     22  C   LIG d   1      -2.755  77.631 111.797  0.00  0.00     0.382 C 
ATOM     23  O   LIG d   1      -3.243  76.901 112.693  0.00  0.00    -0.241 OA
ATOM     24  O   LIG d   1      -3.095  77.456 110.611  0.00  0.00    -0.241 OA
ENDBRANCH   3  22
TORSDOF 7
ENDMDL
MODEL 4
REMARK VINA RESULT:      -5.2      4.736      7.916
REMARK  7 active torsions:
REMARK  status: ('A' for Active; 'I' for Inactive)
REMARK    1  A    between atoms: C_2  and  C_3 
REMARK    2  A    between atoms: C_3  and  O_6 
REMARK    3  A    between atoms: C_3  and  C_4 
REMARK    4  A    between atoms: C_7  and  O_6 
REMARK    5  A    between atoms: C_9  and  C_10 
REMARK    6  A    between atoms: N_15  and  C_14 
REMARK    7  A    between atoms: N_20  and  C_19 
REMARK       I    between atoms: C_22  and  N_20 
ROOT
ATOM      1  C   LIG d   1      -2.051  78.371 114.912  0.00  0.00     0.161 C 
ATOM      2  C   LIG d   1      -2.546  79.567 114.365  0.00  0.00     0.016 C 
ATOM      3  C   LIG d   1      -2.363  79.939 113.013  0.00  0.00     0.038 C 
ATOM      4  C   LIG d   1      -1.797  79.064 112.073  0.00  0.00     0.028 C 
ATOM      5  C   LIG d   1      -0.832  78.057 112.688  0.00  0.00    -0.047 C 
ATOM      6  C   LIG d   1      -1.528  77.354 113.876  0.00  0.00     0.091 C 
ENDROOT
BRANCH   1   7
ATOM      7  O   LIG d   1      -3.055  77.763 115.748  0.00  0.00    -0.368 OA
BRANCH   7   8
ATOM      8  C   LIG d   1      -3.008  78.111 117.154  0.00  0.00     0.119 C 
BRANCH   8   9
ATOM      9  C   LIG d   1      -1.525  78.221 117.555  0.00  0.00     0.028 C 
ATOM     10  C   LIG d   1      -1.208  79.541 118.278  0.00  0.00     0.006 C 
ENDBRANCH   8   9
BRANCH   8  11
ATOM     11  C   LIG d   1      -3.582  76.988 118.024  0.00  0.00     0.028 C 
ATOM     12  C   LIG d   1      -2.516  75.970 118.461  0.00  0.00     0.006 C 
ENDBRANCH   8  11
ENDBRANCH   7   8
ENDBRANCH   1   7
BRANCH   6  13
ATOM     13  N   LIG d   1      -0.624  76.412 114.586  0.00  0.00    -0.311 N 
ATOM     14  C   LIG d   1      -1.021  75.231 115.058  0.00  0.00     0.210 C 
ATOM     15  C   LIG d   1       0.066  74.425 115.776  0.00  0.00     0.109 C 
ATOM     16  O   LIG d   1      -2.160  74.762 114.923  0.00  0.00    -0.276 OA
ATOM     17  H   LIG d   1       0.326  76.700 114.713  0.00  0.00     0.149 HD
ENDBRANCH   6  13
BRANCH   5  18
ATOM     18  N   LIG d   1      -0.424  77.122 111.622  0.00  0.00     0.381 N 
ATOM     19  H   LIG d   1      -0.767  77.446 110.739  0.00  0.00    -0.090 HD
ATOM     20  H   LIG d   1      -0.829  76.222 111.806  0.00  0.00    -0.090 HD
ATOM     21  H   LIG d   1       0.569  77.049 111.594  0.00  0.00    -0.090 HD
ENDBRANCH   5  18
BRANCH   3  22
ATOM     22  C   LIG d   1      -2.711  81.215 112.599  0.00  0.00     0.382 C 
ATOM     23  O   LIG d   1      -1.817  82.059 112.348  0.00  0.00    -0.241 OA
ATOM     24  O   LIG d   1      -3.909  81.547 112.515  0.00  0.00    -0.241 OA
ENDBRANCH   3  22
TORSDOF 7
ENDMDL
MODEL 5
REMARK VINA RESULT:      -5.0      3.858      7.518
REMARK  7 active torsions:
REMARK  status: ('A' for Active; 'I' for Inactive)
REMARK    1  A    between atoms: C_2  and  C_3 
REMARK    2  A    between atoms: C_3  and  O_6 
REMARK    3  A    between atoms: C_3  and  C_4 
REMARK    4  A    between atoms: C_7  and  O_6 
REMARK    5  A    between atoms: C_9  and  C_10 
REMARK    6  A    between atoms: N_15  and  C_14 
REMARK    7  A    between atoms: N_20  and  C_19 
REMARK       I    between atoms: C_22  and  N_20 
ROOT
ATOM      1  C   LIG d   1      -1.381  77.525 113.373  0.00  0.00     0.161 C 
ATOM      2  C   LIG d   1      -2.041  78.765 113.406  0.00  0.00     0.016 C 
ATOM      3  C   LIG d   1      -1.906  79.746 112.396  0.00  0.00     0.038 C 
ATOM      4  C   LIG d   1      -1.215  79.490 111.203  0.00  0.00     0.028 C 
ATOM      5  C   LIG d   1      -0.117  78.442 111.350  0.00  0.00    -0.047 C 
ATOM      6  C   LIG d   1      -0.712  77.185 112.025  0.00  0.00     0.091 C 
ENDROOT
BRANCH   1   7
ATOM      7  O   LIG d   1      -2.292  76.477 113.759  0.00  0.00    -0.368 OA
BRANCH   7   8
ATOM      8  C   LIG d   1      -2.250  76.077 115.151  0.00  0.00     0.119 C 
BRANCH   8   9
ATOM      9  C   LIG d   1      -1.331  74.844 115.251  0.00  0.00     0.028 C 
ATOM     10  C   LIG d   1       0.052  75.189 115.831  0.00  0.00     0.006 C 
ENDBRANCH   8   9
BRANCH   8  11
ATOM     11  C   LIG d   1      -3.623  75.599 115.635  0.00  0.00     0.028 C 
ATOM     12  C   LIG d   1      -4.402  76.690 116.386  0.00  0.00     0.006 C 
ENDBRANCH   8  11
ENDBRANCH   7   8
ENDBRANCH   1   7
BRANCH   6  13
ATOM     13  N   LIG d   1       0.315  76.141 112.284  0.00  0.00    -0.311 N 
ATOM     14  C   LIG d   1       0.750  75.295 111.352  0.00  0.00     0.210 C 
ATOM     15  C   LIG d   1       1.796  74.285 111.835  0.00  0.00     0.109 C 
ATOM     16  O   LIG d   1       0.394  75.305 110.165  0.00  0.00    -0.276 OA
ATOM     17  H   LIG d   1       0.681  76.083 113.214  0.00  0.00     0.149 HD
ENDBRANCH   6  13
BRANCH   5  18
ATOM     18  N   LIG d   1       0.427  78.174 110.006  0.00  0.00     0.381 N 
ATOM     19  H   LIG d   1       1.346  77.785 110.084  0.00  0.00    -0.090 HD
ATOM     20  H   LIG d   1       0.494  79.041 109.503  0.00  0.00    -0.090 HD
ATOM     21  H   LIG d   1      -0.168  77.543 109.516  0.00  0.00    -0.090 HD
ENDBRANCH   5  18
BRANCH   3  22
ATOM     22  C   LIG d   1      -2.432  81.013 112.594  0.00  0.00     0.382 C 
ATOM     23  O   LIG d   1      -3.589  81.145 113.062  0.00  0.00    -0.241 OA
ATOM     24  O   LIG d   1      -1.783  82.025 112.270  0.00  0.00    -0.241 OA
ENDBRANCH   3  22
TORSDOF 7
ENDMDL
MODEL 6
REMARK VINA RESULT:      -5.0      2.599      4.927
REMARK  7 active torsions:
REMARK  status: ('A' for Active; 'I' for Inactive)
REMARK    1  A    between atoms: C_2  and  C_3 
REMARK    2  A    between atoms: C_3  and  O_6 
REMARK    3  A    between atoms: C_3  and  C_4 
REMARK    4  A    between atoms: C_7  and  O_6 
REMARK    5  A    between atoms: C_9  and  C_10 
REMARK    6  A    between atoms: N_15  and  C_14 
REMARK    7  A    between atoms: N_20  and  C_19 
REMARK       I    between atoms: C_22  and  N_20 
ROOT
ATOM      1  C   LIG d   1      -0.656  80.226 112.985  0.00  0.00     0.161 C 
ATOM      2  C   LIG d   1      -1.130  79.012 112.460  0.00  0.00     0.016 C 
ATOM      3  C   LIG d   1      -0.762  78.518 111.188  0.00  0.00     0.038 C 
ATOM      4  C   LIG d   1       0.230  79.134 110.412  0.00  0.00     0.028 C 
ATOM      5  C   LIG d   1       0.365  80.630 110.677  0.00  0.00    -0.047 C 
ATOM      6  C   LIG d   1       0.513  80.857 112.199  0.00  0.00     0.091 C 
ENDROOT
BRANCH   1   7
ATOM      7  O   LIG d   1      -0.293  80.052 114.369  0.00  0.00    -0.368 OA
BRANCH   7   8
ATOM      8  C   LIG d   1      -0.782  78.848 115.009  0.00  0.00     0.119 C 
BRANCH   8   9
ATOM      9  C   LIG d   1      -1.798  79.277 116.086  0.00  0.00     0.028 C 
ATOM     10  C   LIG d   1      -3.070  78.412 116.069  0.00  0.00     0.006 C 
ENDBRANCH   8   9
BRANCH   8  11
ATOM     11  C   LIG d   1       0.335  78.128 115.770  0.00  0.00     0.028 C 
ATOM     12  C   LIG d   1       0.380  76.620 115.477  0.00  0.00     0.006 C 
ENDBRANCH   8  11
ENDBRANCH   7   8
ENDBRANCH   1   7
BRANCH   6  13
ATOM     13  N   LIG d   1       0.566  82.300 112.554  0.00  0.00    -0.311 N 
ATOM     14  C   LIG d   1      -0.333  83.190 112.140  0.00  0.00     0.210 C 
ATOM     15  C   LIG d   1      -0.081  84.628 112.604  0.00  0.00     0.109 C 
ATOM     16  O   LIG d   1      -1.334  82.920 111.460  0.00  0.00    -0.276 OA
ATOM     17  H   LIG d   1       1.329  82.600 113.129  0.00  0.00     0.149 HD
ENDBRANCH   6  13
BRANCH   5  18
ATOM     18  N   LIG d   1       1.524  81.117 109.905  0.00  0.00     0.381 N 
ATOM     19  H   LIG d   1       2.168  80.367 109.751  0.00  0.00    -0.090 HD
ATOM     20  H   LIG d   1       1.991  81.830 110.436  0.00  0.00    -0.090 HD
ATOM     21  H   LIG d   1       1.220  81.487 109.032  0.00  0.00    -0.090 HD
ENDBRANCH   5  18
BRANCH   3  22
ATOM     22  C   LIG d   1      -1.419  77.415 110.663  0.00  0.00     0.382 C 
ATOM     23  O   LIG d   1      -2.665  77.438 110.518  0.00  0.00    -0.241 OA
ATOM     24  O   LIG d   1      -0.787  76.381 110.375  0.00  0.00    -0.241 OA
ENDBRANCH   3  22
TORSDOF 7
ENDMDL
MODEL 7
REMARK VINA RESULT:      -4.9      1.572      2.221
REMARK  7 active torsions:
REMARK  status: ('A' for Active; 'I' for Inactive)
REMARK    1  A    between atoms: C_2  and  C_3 
REMARK    2  A    between atoms: C_3  and  O_6 
REMARK    3  A    between atoms: C_3  and  C_4 
REMARK    4  A    between atoms: C_7  and  O_6 
REMARK    5  A    between atoms: C_9  and  C_10 
REMARK    6  A    between atoms: N_15  and  C_14 
REMARK    7  A    between atoms: N_20  and  C_19 
REMARK       I    between atoms: C_22  and  N_20 
ROOT
ATOM      1  C   LIG d   1       0.864  80.395 111.076  0.00  0.00     0.161 C 
ATOM      2  C   LIG d   1       0.032  79.400 110.536  0.00  0.00     0.016 C 
ATOM      3  C   LIG d   1      -0.866  78.631 111.312  0.00  0.00     0.038 C 
ATOM      4  C   LIG d   1      -1.105  78.912 112.665  0.00  0.00     0.028 C 
ATOM      5  C   LIG d   1       0.079  79.572 113.365  0.00  0.00    -0.047 C 
ATOM      6  C   LIG d   1       0.537  80.791 112.532  0.00  0.00     0.091 C 
ENDROOT
BRANCH   1   7
ATOM      7  O   LIG d   1       0.850  81.558 110.226  0.00  0.00    -0.368 OA
BRANCH   7   8
ATOM      8  C   LIG d   1       2.055  82.362 110.225  0.00  0.00     0.119 C 
BRANCH   8   9
ATOM      9  C   LIG d   1       1.743  83.664 109.463  0.00  0.00     0.028 C 
ATOM     10  C   LIG d   1       0.566  84.438 110.080  0.00  0.00     0.006 C 
ENDBRANCH   8   9
BRANCH   8  11
ATOM     11  C   LIG d   1       3.176  81.685 109.430  0.00  0.00     0.028 C 
ATOM     12  C   LIG d   1       4.576  82.032 109.961  0.00  0.00     0.006 C 
ENDBRANCH   8  11
ENDBRANCH   7   8
ENDBRANCH   1   7
BRANCH   6  13
ATOM     13  N   LIG d   1       1.744  81.445 113.101  0.00  0.00    -0.311 N 
ATOM     14  C   LIG d   1       1.769  82.715 113.503  0.00  0.00     0.210 C 
ATOM     15  C   LIG d   1       3.121  83.196 114.040  0.00  0.00     0.109 C 
ATOM     16  O   LIG d   1       0.792  83.479 113.494  0.00  0.00    -0.276 OA
ATOM     17  H   LIG d   1       2.573  80.888 113.174  0.00  0.00     0.149 HD
ENDBRANCH   6  13
BRANCH   5  18
ATOM     18  N   LIG d   1      -0.354  79.933 114.728  0.00  0.00     0.381 N 
ATOM     19  H   LIG d   1      -0.113  80.885 114.919  0.00  0.00    -0.090 HD
ATOM     20  H   LIG d   1       0.127  79.348 115.387  0.00  0.00    -0.090 HD
ATOM     21  H   LIG d   1      -1.338  79.807 114.818  0.00  0.00    -0.090 HD
ENDBRANCH   5  18
BRANCH   3  22
ATOM     22  C   LIG d   1      -1.508  77.542 110.741  0.00  0.00     0.382 C 
ATOM     23  O   LIG d   1      -0.866  76.492 110.499  0.00  0.00    -0.241 OA
ATOM     24  O   LIG d   1      -2.711  77.612 110.426  0.00  0.00    -0.241 OA
ENDBRANCH   3  22
TORSDOF 7
ENDMDL
MODEL 8
REMARK VINA RESULT:      -4.8      3.027      3.866
REMARK  7 active torsions:
REMARK  status: ('A' for Active; 'I' for Inactive)
REMARK    1  A    between atoms: C_2  and  C_3 
REMARK    2  A    between atoms: C_3  and  O_6 
REMARK    3  A    between atoms: C_3  and  C_4 
REMARK    4  A    between atoms: C_7  and  O_6 
REMARK    5  A    between atoms: C_9  and  C_10 
REMARK    6  A    between atoms: N_15  and  C_14 
REMARK    7  A    between atoms: N_20  and  C_19 
REMARK       I    between atoms: C_22  and  N_20 
ROOT
ATOM      1  C   LIG d   1      -0.495  80.070 112.812  0.00  0.00     0.161 C 
ATOM      2  C   LIG d   1      -1.568  79.479 112.124  0.00  0.00     0.016 C 
ATOM      3  C   LIG d   1      -2.334  78.412 112.647  0.00  0.00     0.038 C 
ATOM      4  C   LIG d   1      -2.174  77.962 113.966  0.00  0.00     0.028 C 
ATOM      5  C   LIG d   1      -0.771  78.188 114.518  0.00  0.00    -0.047 C 
ATOM      6  C   LIG d   1      -0.377  79.666 114.296  0.00  0.00     0.091 C 
ENDROOT
BRANCH   1   7
ATOM      7  O   LIG d   1      -0.565  81.504 112.687  0.00  0.00    -0.368 OA
BRANCH   7   8
ATOM      8  C   LIG d   1       0.251  82.094 111.645  0.00  0.00     0.119 C 
BRANCH   8   9
ATOM      9  C   LIG d   1       1.622  82.429 112.266  0.00  0.00     0.028 C 
ATOM     10  C   LIG d   1       2.753  81.558 111.694  0.00  0.00     0.006 C 
ENDBRANCH   8   9
BRANCH   8  11
ATOM     11  C   LIG d   1      -0.322  83.437 111.181  0.00  0.00     0.028 C 
ATOM     12  C   LIG d   1      -0.512  84.434 112.334  0.00  0.00     0.006 C 
ENDBRANCH   8  11
ENDBRANCH   7   8
ENDBRANCH   1   7
BRANCH   6  13
ATOM     13  N   LIG d   1       1.015  79.954 114.731  0.00  0.00    -0.311 N 
ATOM     14  C   LIG d   1       1.324  80.415 115.942  0.00  0.00     0.210 C 
ATOM     15  C   LIG d   1       2.817  80.662 116.178  0.00  0.00     0.109 C 
ATOM     16  O   LIG d   1       0.507  80.612 116.854  0.00  0.00    -0.276 OA
ATOM     17  H   LIG d   1       1.744  79.792 114.064  0.00  0.00     0.149 HD
ENDBRANCH   6  13
BRANCH   5  18
ATOM     18  N   LIG d   1      -0.783  77.800 115.941  0.00  0.00     0.381 N 
ATOM     19  H   LIG d   1       0.153  77.644 116.258  0.00  0.00    -0.090 HD
ATOM     20  H   LIG d   1      -1.296  76.942 116.039  0.00  0.00    -0.090 HD
ATOM     21  H   LIG d   1      -1.211  78.516 116.486  0.00  0.00    -0.090 HD
ENDBRANCH   5  18
BRANCH   3  22
ATOM     22  C   LIG d   1      -3.246  77.758 111.834  0.00  0.00     0.382 C 
ATOM     23  O   LIG d   1      -2.928  77.443 110.662  0.00  0.00    -0.241 OA
ATOM     24  O   LIG d   1      -4.398  77.518 112.242  0.00  0.00    -0.241 OA
ENDBRANCH   3  22
TORSDOF 7
ENDMDL
MODEL 9
REMARK VINA RESULT:      -4.8      2.536      3.905
REMARK  7 active torsions:
REMARK  status: ('A' for Active; 'I' for Inactive)
REMARK    1  A    between atoms: C_2  and  C_3 
REMARK    2  A    between atoms: C_3  and  O_6 
REMARK    3  A    between atoms: C_3  and  C_4 
REMARK    4  A    between atoms: C_7  and  O_6 
REMARK    5  A    between atoms: C_9  and  C_10 
REMARK    6  A    between atoms: N_15  and  C_14 
REMARK    7  A    between atoms: N_20  and  C_19 
REMARK       I    between atoms: C_22  and  N_20 
ROOT
ATOM      1  C   LIG d   1      -0.065  81.266 112.091  0.00  0.00     0.161 C 
ATOM      2  C   LIG d   1      -1.089  80.408 112.525  0.00  0.00     0.016 C 
ATOM      3  C   LIG d   1      -1.303  79.118 111.985  0.00  0.00     0.038 C 
ATOM      4  C   LIG d   1      -0.408  78.537 111.075  0.00  0.00     0.028 C 
ATOM      5  C   LIG d   1       0.351  79.559 110.236  0.00  0.00    -0.047 C 
ATOM      6  C   LIG d   1       0.989  80.606 111.177  0.00  0.00     0.091 C 
ENDROOT
BRANCH   1   7
ATOM      7  O   LIG d   1       0.573  81.880 113.229  0.00  0.00    -0.368 OA
BRANCH   7   8
ATOM      8  C   LIG d   1       1.764  81.220 113.725  0.00  0.00     0.119 C 
BRANCH   8   9
ATOM      9  C   LIG d   1       1.422  80.619 115.102  0.00  0.00     0.028 C 
ATOM     10  C   LIG d   1       2.438  81.017 116.185  0.00  0.00     0.006 C 
ENDBRANCH   8   9
BRANCH   8  11
ATOM     11  C   LIG d   1       2.888  82.226 113.990  0.00  0.00     0.028 C 
ATOM     12  C   LIG d   1       2.536  83.649 113.528  0.00  0.00     0.006 C 
ENDBRANCH   8  11
ENDBRANCH   7   8
ENDBRANCH   1   7
BRANCH   6  13
ATOM     13  N   LIG d   1       1.681  81.691 110.433  0.00  0.00    -0.311 N 
ATOM     14  C   LIG d   1       3.006  81.775 110.324  0.00  0.00     0.210 C 
ATOM     15  C   LIG d   1       3.514  82.983 109.530  0.00  0.00     0.109 C 
ATOM     16  O   LIG d   1       3.807  80.947 110.781  0.00  0.00    -0.276 OA
ATOM     17  H   LIG d   1       1.106  82.389 110.004  0.00  0.00     0.149 HD
ENDBRANCH   6  13
BRANCH   5  18
ATOM     18  N   LIG d   1       1.345  78.825 109.431  0.00  0.00     0.381 N 
ATOM     19  H   LIG d   1       0.955  77.958 109.119  0.00  0.00    -0.090 HD
ATOM     20  H   LIG d   1       2.144  78.622 110.006  0.00  0.00    -0.090 HD
ATOM     21  H   LIG d   1       1.622  79.373 108.646  0.00  0.00    -0.090 HD
ENDBRANCH   5  18
BRANCH   3  22
ATOM     22  C   LIG d   1      -2.446  78.412 112.328  0.00  0.00     0.382 C 
ATOM     23  O   LIG d   1      -2.701  77.320 111.764  0.00  0.00    -0.241 OA
ATOM     24  O   LIG d   1      -3.249  78.874 113.160  0.00  0.00    -0.241 OA
ENDBRANCH   3  22
TORSDOF 7
ENDMDL
