MODEL 1
REMARK VINA RESULT:      -5.6      0.000      0.000
REMARK  7 active torsions:
REMARK  status: ('A' for Active; 'I' for Inactive)
REMARK    1  A    between atoms: C_2  and  C_3 
REMARK    2  A    between atoms: C_3  and  O_6 
REMARK    3  A    between atoms: C_3  and  C_4 
REMARK    4  A    between atoms: C_7  and  O_6 
REMARK    5  A    between atoms: C_9  and  C_10 
REMARK    6  A    between atoms: N_15  and  C_14 
REMARK    7  A    between atoms: N_20  and  C_19 
REMARK       I    between atoms: C_22  and  N_20 
ROOT
ATOM      1  C   LIG d   1       0.239  82.655 112.077  0.00  0.00     0.161 C 
ATOM      2  C   LIG d   1      -0.980  82.197 112.604  0.00  0.00     0.016 C 
ATOM      3  C   LIG d   1      -1.494  80.902 112.363  0.00  0.00     0.038 C 
ATOM      4  C   LIG d   1      -0.746  79.919 111.698  0.00  0.00     0.028 C 
ATOM      5  C   LIG d   1       0.270  80.492 110.717  0.00  0.00    -0.047 C 
ATOM      6  C   LIG d   1       1.121  81.560 111.442  0.00  0.00     0.091 C 
ENDROOT
BRANCH   1   7
ATOM      7  O   LIG d   1       0.975  83.364 113.094  0.00  0.00    -0.368 OA
BRANCH   7   8
ATOM      8  C   LIG d   1       0.643  83.037 114.466  0.00  0.00     0.119 C 
BRANCH   8   9
ATOM      9  C   LIG d   1       0.595  84.358 115.258  0.00  0.00     0.028 C 
ATOM     10  C   LIG d   1       1.864  84.586 116.096  0.00  0.00     0.006 C 
ENDBRANCH   8   9
BRANCH   8  11
ATOM     11  C   LIG d   1       1.750  82.209 115.125  0.00  0.00     0.028 C 
ATOM     12  C   LIG d   1       1.356  80.737 115.323  0.00  0.00     0.006 C 
ENDBRANCH   8  11
ENDBRANCH   7   8
ENDBRANCH   1   7
BRANCH   6  13
ATOM     13  N   LIG d   1       2.085  82.231 110.531  0.00  0.00    -0.311 N 
ATOM     14  C   LIG d   1       3.358  81.861 110.410  0.00  0.00     0.210 C 
ATOM     15  C   LIG d   1       4.185  82.700 109.430  0.00  0.00     0.109 C 
ATOM     16  O   LIG d   1       3.874  80.898 110.997  0.00  0.00    -0.276 OA
ATOM     17  H   LIG d   1       1.742  83.003 109.993  0.00  0.00     0.149 HD
ENDBRANCH   6  13
BRANCH   5  18
ATOM     18  N   LIG d   1       1.072  79.368 110.198  0.00  0.00     0.381 N 
ATOM     19  H   LIG d   1       0.920  78.555 110.761  0.00  0.00    -0.090 HD
ATOM     20  H   LIG d   1       2.046  79.611 110.253  0.00  0.00    -0.090 HD
ATOM     21  H   LIG d   1       0.822  79.178 109.253  0.00  0.00    -0.090 HD
ENDBRANCH   5  18
BRANCH   3  22
ATOM     22  C   LIG d   1      -2.788  80.592 112.756  0.00  0.00     0.382 C 
ATOM     23  O   LIG d   1      -3.758  81.225 112.274  0.00  0.00    -0.241 OA
ATOM     24  O   LIG d   1      -2.994  79.718 113.619  0.00  0.00    -0.241 OA
ENDBRANCH   3  22
TORSDOF 7
ENDMDL
MODEL 2
REMARK VINA RESULT:      -5.3      2.045      4.826
REMARK  7 active torsions:
REMARK  status: ('A' for Active; 'I' for Inactive)
REMARK    1  A    between atoms: C_2  and  C_3 
REMARK    2  A    between atoms: C_3  and  O_6 
REMARK    3  A    between atoms: C_3  and  C_4 
REMARK    4  A    between atoms: C_7  and  O_6 
REMARK    5  A    between atoms: C_9  and  C_10 
REMARK    6  A    between atoms: N_15  and  C_14 
REMARK    7  A    between atoms: N_20  and  C_19 
REMARK       I    between atoms: C_22  and  N_20 
ROOT
ATOM      1  C   LIG d   1       0.060  82.309 112.972  0.00  0.00     0.161 C 
ATOM      2  C   LIG d   1       1.093  83.063 112.391  0.00  0.00     0.016 C 
ATOM      3  C   LIG d   1       1.762  82.683 111.204  0.00  0.00     0.038 C 
ATOM      4  C   LIG d   1       1.337  81.593 110.431  0.00  0.00     0.028 C 
ATOM      5  C   LIG d   1       0.625  80.516 111.242  0.00  0.00    -0.047 C 
ATOM      6  C   LIG d   1      -0.492  81.176 112.082  0.00  0.00     0.091 C 
ENDROOT
BRANCH   1   7
ATOM      7  O   LIG d   1      -1.007  83.183 113.389  0.00  0.00    -0.368 OA
BRANCH   7   8
ATOM      8  C   LIG d   1      -1.118  83.418 114.815  0.00  0.00     0.119 C 
BRANCH   8   9
ATOM      9  C   LIG d   1      -0.110  82.488 115.517  0.00  0.00     0.028 C 
ATOM     10  C   LIG d   1       0.956  83.267 116.307  0.00  0.00     0.006 C 
ENDBRANCH   8   9
BRANCH   8  11
ATOM     11  C   LIG d   1      -2.493  82.999 115.344  0.00  0.00     0.028 C 
ATOM     12  C   LIG d   1      -2.410  81.894 116.409  0.00  0.00     0.006 C 
ENDBRANCH   8  11
ENDBRANCH   7   8
ENDBRANCH   1   7
BRANCH   6  13
ATOM     13  N   LIG d   1      -1.183  80.204 112.969  0.00  0.00    -0.311 N 
ATOM     14  C   LIG d   1      -2.509  80.116 113.067  0.00  0.00     0.210 C 
ATOM     15  C   LIG d   1      -3.015  79.060 114.055  0.00  0.00     0.109 C 
ATOM     16  O   LIG d   1      -3.313  80.790 112.407  0.00  0.00    -0.276 OA
ATOM     17  H   LIG d   1      -0.607  79.597 113.518  0.00  0.00     0.149 HD
ENDBRANCH   6  13
BRANCH   5  18
ATOM     18  N   LIG d   1       0.116  79.508 110.293  0.00  0.00     0.381 N 
ATOM     19  H   LIG d   1      -0.884  79.484 110.328  0.00  0.00    -0.090 HD
ATOM     20  H   LIG d   1       0.462  78.604 110.562  0.00  0.00    -0.090 HD
ATOM     21  H   LIG d   1       0.418  79.725 109.369  0.00  0.00    -0.090 HD
ENDBRANCH   5  18
BRANCH   3  22
ATOM     22  C   LIG d   1       2.895  83.375 110.802  0.00  0.00     0.382 C 
ATOM     23  O   LIG d   1       3.982  83.199 111.402  0.00  0.00    -0.241 OA
ATOM     24  O   LIG d   1       2.832  84.205 109.875  0.00  0.00    -0.241 OA
ENDBRANCH   3  22
TORSDOF 7
ENDMDL
MODEL 3
REMARK VINA RESULT:      -5.1      1.523      2.074
REMARK  7 active torsions:
REMARK  status: ('A' for Active; 'I' for Inactive)
REMARK    1  A    between atoms: C_2  and  C_3 
REMARK    2  A    between atoms: C_3  and  O_6 
REMARK    3  A    between atoms: C_3  and  C_4 
REMARK    4  A    between atoms: C_7  and  O_6 
REMARK    5  A    between atoms: C_9  and  C_10 
REMARK    6  A    between atoms: N_15  and  C_14 
REMARK    7  A    between atoms: N_20  and  C_19 
REMARK       I    between atoms: C_22  and  N_20 
ROOT
ATOM      1  C   LIG d   1      -1.133  82.051 112.302  0.00  0.00     0.161 C 
ATOM      2  C   LIG d   1      -2.013  81.078 112.803  0.00  0.00     0.016 C 
ATOM      3  C   LIG d   1      -1.864  79.694 112.557  0.00  0.00     0.038 C 
ATOM      4  C   LIG d   1      -0.732  79.172 111.914  0.00  0.00     0.028 C 
ATOM      5  C   LIG d   1      -0.074  80.157 110.953  0.00  0.00    -0.047 C 
ATOM      6  C   LIG d   1       0.170  81.493 111.692  0.00  0.00     0.091 C 
ENDROOT
BRANCH   1   7
ATOM      7  O   LIG d   1      -0.831  83.014 113.332  0.00  0.00    -0.368 OA
BRANCH   7   8
ATOM      8  C   LIG d   1      -0.004  82.542 114.423  0.00  0.00     0.119 C 
BRANCH   8   9
ATOM      9  C   LIG d   1      -0.749  82.852 115.736  0.00  0.00     0.028 C 
ATOM     10  C   LIG d   1      -1.321  81.588 116.400  0.00  0.00     0.006 C 
ENDBRANCH   8   9
BRANCH   8  11
ATOM     11  C   LIG d   1       1.309  83.325 114.507  0.00  0.00     0.028 C 
ATOM     12  C   LIG d   1       1.241  84.680 113.784  0.00  0.00     0.006 C 
ENDBRANCH   8  11
ENDBRANCH   7   8
ENDBRANCH   1   7
BRANCH   6  13
ATOM     13  N   LIG d   1       0.734  82.539 110.800  0.00  0.00    -0.311 N 
ATOM     14  C   LIG d   1       2.032  82.828 110.738  0.00  0.00     0.210 C 
ATOM     15  C   LIG d   1       2.399  83.955 109.767  0.00  0.00     0.109 C 
ATOM     16  O   LIG d   1       2.919  82.235 111.371  0.00  0.00    -0.276 OA
ATOM     17  H   LIG d   1       0.088  83.048 110.229  0.00  0.00     0.149 HD
ENDBRANCH   6  13
BRANCH   5  18
ATOM     18  N   LIG d   1       1.168  79.535 110.459  0.00  0.00     0.381 N 
ATOM     19  H   LIG d   1       1.960  80.044 110.797  0.00  0.00    -0.090 HD
ATOM     20  H   LIG d   1       1.174  79.573 109.454  0.00  0.00    -0.090 HD
ATOM     21  H   LIG d   1       1.220  78.587 110.762  0.00  0.00    -0.090 HD
ENDBRANCH   5  18
BRANCH   3  22
ATOM     22  C   LIG d   1      -2.876  78.818 112.922  0.00  0.00     0.382 C 
ATOM     23  O   LIG d   1      -3.316  78.823 114.096  0.00  0.00    -0.241 OA
ATOM     24  O   LIG d   1      -3.323  77.993 112.102  0.00  0.00    -0.241 OA
ENDBRANCH   3  22
TORSDOF 7
ENDMDL
MODEL 4
REMARK VINA RESULT:      -4.9      2.295      3.329
REMARK  7 active torsions:
REMARK  status: ('A' for Active; 'I' for Inactive)
REMARK    1  A    between atoms: C_2  and  C_3 
REMARK    2  A    between atoms: C_3  and  O_6 
REMARK    3  A    between atoms: C_3  and  C_4 
REMARK    4  A    between atoms: C_7  and  O_6 
REMARK    5  A    between atoms: C_9  and  C_10 
REMARK    6  A    between atoms: N_15  and  C_14 
REMARK    7  A    between atoms: N_20  and  C_19 
REMARK       I    between atoms: C_22  and  N_20 
ROOT
ATOM      1  C   LIG d   1      -2.309  81.087 113.581  0.00  0.00     0.161 C 
ATOM      2  C   LIG d   1      -2.759  79.876 114.134  0.00  0.00     0.016 C 
ATOM      3  C   LIG d   1      -2.375  78.606 113.644  0.00  0.00     0.038 C 
ATOM      4  C   LIG d   1      -1.390  78.460 112.657  0.00  0.00     0.028 C 
ATOM      5  C   LIG d   1      -1.282  79.662 111.724  0.00  0.00    -0.047 C 
ATOM      6  C   LIG d   1      -1.148  80.946 112.575  0.00  0.00     0.091 C 
ENDROOT
BRANCH   1   7
ATOM      7  O   LIG d   1      -1.951  82.002 114.635  0.00  0.00    -0.368 OA
BRANCH   7   8
ATOM      8  C   LIG d   1      -0.616  81.859 115.177  0.00  0.00     0.119 C 
BRANCH   8   9
ATOM      9  C   LIG d   1      -0.758  81.486 116.666  0.00  0.00     0.028 C 
ATOM     10  C   LIG d   1      -2.169  81.768 117.209  0.00  0.00     0.006 C 
ENDBRANCH   8   9
BRANCH   8  11
ATOM     11  C   LIG d   1       0.138  83.192 115.163  0.00  0.00     0.028 C 
ATOM     12  C   LIG d   1      -0.742  84.369 114.711  0.00  0.00     0.006 C 
ENDBRANCH   8  11
ENDBRANCH   7   8
ENDBRANCH   1   7
BRANCH   6  13
ATOM     13  N   LIG d   1      -1.122  82.177 111.742  0.00  0.00    -0.311 N 
ATOM     14  C   LIG d   1       0.001  82.804 111.395  0.00  0.00     0.210 C 
ATOM     15  C   LIG d   1      -0.198  84.066 110.551  0.00  0.00     0.109 C 
ATOM     16  O   LIG d   1       1.144  82.416 111.679  0.00  0.00    -0.276 OA
ATOM     17  H   LIG d   1      -2.004  82.543 111.442  0.00  0.00     0.149 HD
ENDBRANCH   6  13
BRANCH   5  18
ATOM     18  N   LIG d   1      -0.129  79.434 110.834  0.00  0.00     0.381 N 
ATOM     19  H   LIG d   1      -0.378  79.660 109.892  0.00  0.00    -0.090 HD
ATOM     20  H   LIG d   1       0.122  78.462 110.869  0.00  0.00    -0.090 HD
ATOM     21  H   LIG d   1       0.642  79.994 111.125  0.00  0.00    -0.090 HD
ENDBRANCH   5  18
BRANCH   3  22
ATOM     22  C   LIG d   1      -3.009  77.467 114.116  0.00  0.00     0.382 C 
ATOM     23  O   LIG d   1      -4.121  77.561 114.691  0.00  0.00    -0.241 OA
ATOM     24  O   LIG d   1      -2.463  76.352 114.015  0.00  0.00    -0.241 OA
ENDBRANCH   3  22
TORSDOF 7
ENDMDL
MODEL 5
REMARK VINA RESULT:      -4.8      2.303      5.013
REMARK  7 active torsions:
REMARK  status: ('A' for Active; 'I' for Inactive)
REMARK    1  A    between atoms: C_2  and  C_3 
REMARK    2  A    between atoms: C_3  and  O_6 
REMARK    3  A    between atoms: C_3  and  C_4 
REMARK    4  A    between atoms: C_7  and  O_6 
REMARK    5  A    between atoms: C_9  and  C_10 
REMARK    6  A    between atoms: N_15  and  C_14 
REMARK    7  A    between atoms: N_20  and  C_19 
REMARK       I    between atoms: C_22  and  N_20 
ROOT
ATOM      1  C   LIG d   1       0.737  80.550 114.110  0.00  0.00     0.161 C 
ATOM      2  C   LIG d   1       1.619  81.185 113.220  0.00  0.00     0.016 C 
ATOM      3  C   LIG d   1       1.470  81.144 111.815  0.00  0.00     0.038 C 
ATOM      4  C   LIG d   1       0.335  80.588 111.206  0.00  0.00     0.028 C 
ATOM      5  C   LIG d   1      -0.326  79.496 112.040  0.00  0.00    -0.047 C 
ATOM      6  C   LIG d   1      -0.568  80.033 113.469  0.00  0.00     0.091 C 
ENDROOT
BRANCH   1   7
ATOM      7  O   LIG d   1       0.438  81.430 115.213  0.00  0.00    -0.368 OA
BRANCH   7   8
ATOM      8  C   LIG d   1      -0.632  82.382 114.997  0.00  0.00     0.119 C 
BRANCH   8   9
ATOM      9  C   LIG d   1      -0.027  83.794 115.120  0.00  0.00     0.028 C 
ATOM     10  C   LIG d   1      -0.169  84.608 113.823  0.00  0.00     0.006 C 
ENDBRANCH   8   9
BRANCH   8  11
ATOM     11  C   LIG d   1      -1.687  82.295 116.104  0.00  0.00     0.028 C 
ATOM     12  C   LIG d   1      -3.093  82.682 115.619  0.00  0.00     0.006 C 
ENDBRANCH   8  11
ENDBRANCH   7   8
ENDBRANCH   1   7
BRANCH   6  13
ATOM     13  N   LIG d   1      -1.136  79.000 114.374  0.00  0.00    -0.311 N 
ATOM     14  C   LIG d   1      -2.442  78.850 114.587  0.00  0.00     0.210 C 
ATOM     15  C   LIG d   1      -2.812  77.737 115.573  0.00  0.00     0.109 C 
ATOM     16  O   LIG d   1      -3.330  79.511 114.028  0.00  0.00    -0.276 OA
ATOM     17  H   LIG d   1      -0.487  78.400 114.845  0.00  0.00     0.149 HD
ENDBRANCH   6  13
BRANCH   5  18
ATOM     18  N   LIG d   1      -1.571  79.102 111.352  0.00  0.00     0.381 N 
ATOM     19  H   LIG d   1      -1.374  78.882 110.396  0.00  0.00    -0.090 HD
ATOM     20  H   LIG d   1      -2.212  79.875 111.373  0.00  0.00    -0.090 HD
ATOM     21  H   LIG d   1      -1.975  78.312 111.805  0.00  0.00    -0.090 HD
ENDBRANCH   5  18
BRANCH   3  22
ATOM     22  C   LIG d   1       2.483  81.628 111.002  0.00  0.00     0.382 C 
ATOM     23  O   LIG d   1       2.251  82.565 110.201  0.00  0.00    -0.241 OA
ATOM     24  O   LIG d   1       3.616  81.110 111.027  0.00  0.00    -0.241 OA
ENDBRANCH   3  22
TORSDOF 7
ENDMDL
MODEL 6
REMARK VINA RESULT:      -4.8      4.606      6.617
REMARK  7 active torsions:
REMARK  status: ('A' for Active; 'I' for Inactive)
REMARK    1  A    between atoms: C_2  and  C_3 
REMARK    2  A    between atoms: C_3  and  O_6 
REMARK    3  A    between atoms: C_3  and  C_4 
REMARK    4  A    between atoms: C_7  and  O_6 
REMARK    5  A    between atoms: C_9  and  C_10 
REMARK    6  A    between atoms: N_15  and  C_14 
REMARK    7  A    between atoms: N_20  and  C_19 
REMARK       I    between atoms: C_22  and  N_20 
ROOT
ATOM      1  C   LIG d   1      -1.666  78.293 115.553  0.00  0.00     0.161 C 
ATOM      2  C   LIG d   1      -2.184  79.596 115.641  0.00  0.00     0.016 C 
ATOM      3  C   LIG d   1      -2.249  80.483 114.542  0.00  0.00     0.038 C 
ATOM      4  C   LIG d   1      -1.938  80.072 113.238  0.00  0.00     0.028 C 
ATOM      5  C   LIG d   1      -0.935  78.924 113.187  0.00  0.00    -0.047 C 
ATOM      6  C   LIG d   1      -1.425  77.789 114.115  0.00  0.00     0.091 C 
ENDROOT
BRANCH   1   7
ATOM      7  O   LIG d   1      -2.520  77.378 116.268  0.00  0.00    -0.368 OA
BRANCH   7   8
ATOM      8  C   LIG d   1      -1.930  76.722 117.418  0.00  0.00     0.119 C 
BRANCH   8   9
ATOM      9  C   LIG d   1      -2.548  75.314 117.514  0.00  0.00     0.028 C 
ATOM     10  C   LIG d   1      -1.487  74.222 117.734  0.00  0.00     0.006 C 
ENDBRANCH   8   9
BRANCH   8  11
ATOM     11  C   LIG d   1      -2.320  77.426 118.721  0.00  0.00     0.028 C 
ATOM     12  C   LIG d   1      -3.827  77.349 119.012  0.00  0.00     0.006 C 
ENDBRANCH   8  11
ENDBRANCH   7   8
ENDBRANCH   1   7
BRANCH   6  13
ATOM     13  N   LIG d   1      -0.459  76.662 114.189  0.00  0.00    -0.311 N 
ATOM     14  C   LIG d   1      -0.821  75.381 114.136  0.00  0.00     0.210 C 
ATOM     15  C   LIG d   1       0.331  74.378 114.250  0.00  0.00     0.109 C 
ATOM     16  O   LIG d   1      -1.983  74.981 113.972  0.00  0.00    -0.276 OA
ATOM     17  H   LIG d   1       0.509  76.897 114.291  0.00  0.00     0.149 HD
ENDBRANCH   6  13
BRANCH   5  18
ATOM     18  N   LIG d   1      -0.807  78.506 111.779  0.00  0.00     0.381 N 
ATOM     19  H   LIG d   1      -0.262  77.669 111.722  0.00  0.00    -0.090 HD
ATOM     20  H   LIG d   1      -0.332  79.228 111.267  0.00  0.00    -0.090 HD
ATOM     21  H   LIG d   1      -1.710  78.350 111.386  0.00  0.00    -0.090 HD
ENDBRANCH   5  18
BRANCH   3  22
ATOM     22  C   LIG d   1      -2.592  81.810 114.750  0.00  0.00     0.382 C 
ATOM     23  O   LIG d   1      -1.999  82.718 114.119  0.00  0.00    -0.241 OA
ATOM     24  O   LIG d   1      -3.457  82.115 115.594  0.00  0.00    -0.241 OA
ENDBRANCH   3  22
TORSDOF 7
ENDMDL
MODEL 7
REMARK VINA RESULT:      -4.7      2.910      5.042
REMARK  7 active torsions:
REMARK  status: ('A' for Active; 'I' for Inactive)
REMARK    1  A    between atoms: C_2  and  C_3 
REMARK    2  A    between atoms: C_3  and  O_6 
REMARK    3  A    between atoms: C_3  and  C_4 
REMARK    4  A    between atoms: C_7  and  O_6 
REMARK    5  A    between atoms: C_9  and  C_10 
REMARK    6  A    between atoms: N_15  and  C_14 
REMARK    7  A    between atoms: N_20  and  C_19 
REMARK       I    between atoms: C_22  and  N_20 
ROOT
ATOM      1  C   LIG d   1      -0.021  80.554 114.658  0.00  0.00     0.161 C 
ATOM      2  C   LIG d   1       0.132  81.880 114.221  0.00  0.00     0.016 C 
ATOM      3  C   LIG d   1      -0.133  82.298 112.896  0.00  0.00     0.038 C 
ATOM      4  C   LIG d   1      -0.719  81.441 111.952  0.00  0.00     0.028 C 
ATOM      5  C   LIG d   1      -0.419  79.967 112.204  0.00  0.00    -0.047 C 
ATOM      6  C   LIG d   1      -0.764  79.629 113.672  0.00  0.00     0.091 C 
ENDROOT
BRANCH   1   7
ATOM      7  O   LIG d   1      -0.668  80.536 115.946  0.00  0.00    -0.368 OA
BRANCH   7   8
ATOM      8  C   LIG d   1      -2.116  80.545 115.932  0.00  0.00     0.119 C 
BRANCH   8   9
ATOM      9  C   LIG d   1      -2.577  81.874 116.563  0.00  0.00     0.028 C 
ATOM     10  C   LIG d   1      -3.135  82.856 115.520  0.00  0.00     0.006 C 
ENDBRANCH   8   9
BRANCH   8  11
ATOM     11  C   LIG d   1      -2.690  79.448 116.833  0.00  0.00     0.028 C 
ATOM     12  C   LIG d   1      -3.975  78.823 116.268  0.00  0.00     0.006 C 
ENDBRANCH   8  11
ENDBRANCH   7   8
ENDBRANCH   1   7
BRANCH   6  13
ATOM     13  N   LIG d   1      -0.422  78.227 114.026  0.00  0.00    -0.311 N 
ATOM     14  C   LIG d   1      -1.283  77.215 113.930  0.00  0.00     0.210 C 
ATOM     15  C   LIG d   1      -0.732  75.853 114.364  0.00  0.00     0.109 C 
ATOM     16  O   LIG d   1      -2.441  77.311 113.496  0.00  0.00    -0.276 OA
ATOM     17  H   LIG d   1       0.507  78.053 114.357  0.00  0.00     0.149 HD
ENDBRANCH   6  13
BRANCH   5  18
ATOM     18  N   LIG d   1      -1.201  79.182 111.230  0.00  0.00     0.381 N 
ATOM     19  H   LIG d   1      -1.033  79.524 110.306  0.00  0.00    -0.090 HD
ATOM     20  H   LIG d   1      -2.179  79.291 111.435  0.00  0.00    -0.090 HD
ATOM     21  H   LIG d   1      -0.948  78.220 111.287  0.00  0.00    -0.090 HD
ENDBRANCH   5  18
BRANCH   3  22
ATOM     22  C   LIG d   1       0.225  83.576 112.494  0.00  0.00     0.382 C 
ATOM     23  O   LIG d   1      -0.645  84.477 112.423  0.00  0.00    -0.241 OA
ATOM     24  O   LIG d   1       1.398  83.827 112.159  0.00  0.00    -0.241 OA
ENDBRANCH   3  22
TORSDOF 7
ENDMDL
MODEL 8
REMARK VINA RESULT:      -4.6      2.326      4.287
REMARK  7 active torsions:
REMARK  status: ('A' for Active; 'I' for Inactive)
REMARK    1  A    between atoms: C_2  and  C_3 
REMARK    2  A    between atoms: C_3  and  O_6 
REMARK    3  A    between atoms: C_3  and  C_4 
REMARK    4  A    between atoms: C_7  and  O_6 
REMARK    5  A    between atoms: C_9  and  C_10 
REMARK    6  A    between atoms: N_15  and  C_14 
REMARK    7  A    between atoms: N_20  and  C_19 
REMARK       I    between atoms: C_22  and  N_20 
ROOT
ATOM      1  C   LIG d   1       0.053  81.337 111.645  0.00  0.00     0.161 C 
ATOM      2  C   LIG d   1      -0.623  80.105 111.661  0.00  0.00     0.016 C 
ATOM      3  C   LIG d   1      -1.598  79.765 112.626  0.00  0.00     0.038 C 
ATOM      4  C   LIG d   1      -2.077  80.698 113.558  0.00  0.00     0.028 C 
ATOM      5  C   LIG d   1      -1.064  81.786 113.899  0.00  0.00    -0.047 C 
ATOM      6  C   LIG d   1      -0.535  82.409 112.586  0.00  0.00     0.091 C 
ENDROOT
BRANCH   1   7
ATOM      7  O   LIG d   1       0.123  81.839 110.296  0.00  0.00    -0.368 OA
BRANCH   7   8
ATOM      8  C   LIG d   1       1.433  81.826 109.678  0.00  0.00     0.119 C 
BRANCH   8   9
ATOM      9  C   LIG d   1       2.356  80.971 110.568  0.00  0.00     0.028 C 
ATOM     10  C   LIG d   1       3.787  80.878 110.011  0.00  0.00     0.006 C 
ENDBRANCH   8   9
BRANCH   8  11
ATOM     11  C   LIG d   1       2.059  83.224 109.671  0.00  0.00     0.028 C 
ATOM     12  C   LIG d   1       1.027  84.338 109.431  0.00  0.00     0.006 C 
ENDBRANCH   8  11
ENDBRANCH   7   8
ENDBRANCH   1   7
BRANCH   6  13
ATOM     13  N   LIG d   1       0.522  83.425 112.827  0.00  0.00    -0.311 N 
ATOM     14  C   LIG d   1       1.653  83.165 113.482  0.00  0.00     0.210 C 
ATOM     15  C   LIG d   1       2.599  84.360 113.636  0.00  0.00     0.109 C 
ATOM     16  O   LIG d   1       1.976  82.052 113.921  0.00  0.00    -0.276 OA
ATOM     17  H   LIG d   1       0.356  84.348 112.477  0.00  0.00     0.149 HD
ENDBRANCH   6  13
BRANCH   5  18
ATOM     18  N   LIG d   1      -1.740  82.765 114.772  0.00  0.00     0.381 N 
ATOM     19  H   LIG d   1      -2.258  83.415 114.214  0.00  0.00    -0.090 HD
ATOM     20  H   LIG d   1      -1.044  83.276 115.286  0.00  0.00    -0.090 HD
ATOM     21  H   LIG d   1      -2.352  82.295 115.402  0.00  0.00    -0.090 HD
ENDBRANCH   5  18
BRANCH   3  22
ATOM     22  C   LIG d   1      -2.077  78.465 112.690  0.00  0.00     0.382 C 
ATOM     23  O   LIG d   1      -1.306  77.528 113.006  0.00  0.00    -0.241 OA
ATOM     24  O   LIG d   1      -3.260  78.213 112.393  0.00  0.00    -0.241 OA
ENDBRANCH   3  22
TORSDOF 7
ENDMDL
MODEL 9
REMARK VINA RESULT:      -4.6      2.123      2.505
REMARK  7 active torsions:
REMARK  status: ('A' for Active; 'I' for Inactive)
REMARK    1  A    between atoms: C_2  and  C_3 
REMARK    2  A    between atoms: C_3  and  O_6 
REMARK    3  A    between atoms: C_3  and  C_4 
REMARK    4  A    between atoms: C_7  and  O_6 
REMARK    5  A    between atoms: C_9  and  C_10 
REMARK    6  A    between atoms: N_15  and  C_14 
REMARK    7  A    between atoms: N_20  and  C_19 
REMARK       I    between atoms: C_22  and  N_20 
ROOT
ATOM      1  C   LIG d   1      -0.780  80.979 114.066  0.00  0.00     0.161 C 
ATOM      2  C   LIG d   1      -1.753  80.023 114.401  0.00  0.00     0.016 C 
ATOM      3  C   LIG d   1      -2.111  78.947 113.557  0.00  0.00     0.038 C 
ATOM      4  C   LIG d   1      -1.407  78.666 112.376  0.00  0.00     0.028 C 
ATOM      5  C   LIG d   1      -0.756  79.896 111.752  0.00  0.00    -0.047 C 
ATOM      6  C   LIG d   1       0.076  80.625 112.832  0.00  0.00     0.091 C 
ENDROOT
BRANCH   1   7
ATOM      7  O   LIG d   1       0.065  81.237 115.205  0.00  0.00    -0.368 OA
BRANCH   7   8
ATOM      8  C   LIG d   1      -0.354  82.314 116.078  0.00  0.00     0.119 C 
BRANCH   8   9
ATOM      9  C   LIG d   1       0.645  83.473 115.895  0.00  0.00     0.028 C 
ATOM     10  C   LIG d   1       0.135  84.537 114.909  0.00  0.00     0.006 C 
ENDBRANCH   8   9
BRANCH   8  11
ATOM     11  C   LIG d   1      -0.242  81.912 117.552  0.00  0.00     0.028 C 
ATOM     12  C   LIG d   1      -1.596  81.528 118.169  0.00  0.00     0.006 C 
ENDBRANCH   8  11
ENDBRANCH   7   8
ENDBRANCH   1   7
BRANCH   6  13
ATOM     13  N   LIG d   1       0.679  81.886 112.326  0.00  0.00    -0.311 N 
ATOM     14  C   LIG d   1       1.931  81.972 111.881  0.00  0.00     0.210 C 
ATOM     15  C   LIG d   1       2.360  83.370 111.424  0.00  0.00     0.109 C 
ATOM     16  O   LIG d   1       2.717  81.017 111.790  0.00  0.00    -0.276 OA
ATOM     17  H   LIG d   1       0.102  82.704 112.335  0.00  0.00     0.149 HD
ENDBRANCH   6  13
BRANCH   5  18
ATOM     18  N   LIG d   1       0.056  79.438 110.609  0.00  0.00     0.381 N 
ATOM     19  H   LIG d   1       0.911  79.956 110.571  0.00  0.00    -0.090 HD
ATOM     20  H   LIG d   1      -0.453  79.608 109.759  0.00  0.00    -0.090 HD
ATOM     21  H   LIG d   1       0.253  78.465 110.698  0.00  0.00    -0.090 HD
ENDBRANCH   5  18
BRANCH   3  22
ATOM     22  C   LIG d   1      -3.210  78.162 113.871  0.00  0.00     0.382 C 
ATOM     23  O   LIG d   1      -3.676  77.366 113.021  0.00  0.00    -0.241 OA
ATOM     24  O   LIG d   1      -3.768  78.272 114.979  0.00  0.00    -0.241 OA
ENDBRANCH   3  22
TORSDOF 7
ENDMDL
