MODEL 1
REMARK VINA RESULT:      -5.2      0.000      0.000
REMARK  7 active torsions:
REMARK  status: ('A' for Active; 'I' for Inactive)
REMARK    1  A    between atoms: C_2  and  C_3 
REMARK    2  A    between atoms: C_3  and  O_6 
REMARK    3  A    between atoms: C_3  and  C_4 
REMARK    4  A    between atoms: C_7  and  O_6 
REMARK    5  A    between atoms: C_9  and  C_10 
REMARK    6  A    between atoms: N_15  and  C_14 
REMARK    7  A    between atoms: N_20  and  C_19 
REMARK       I    between atoms: C_22  and  N_20 
ROOT
ATOM      1  C   LIG d   1       0.836  82.578 112.166  0.00  0.00     0.161 C 
ATOM      2  C   LIG d   1      -0.456  82.382 112.682  0.00  0.00     0.016 C 
ATOM      3  C   LIG d   1      -1.255  81.257 112.373  0.00  0.00     0.038 C 
ATOM      4  C   LIG d   1      -0.754  80.170 111.643  0.00  0.00     0.028 C 
ATOM      5  C   LIG d   1       0.368  80.550 110.683  0.00  0.00    -0.047 C 
ATOM      6  C   LIG d   1       1.442  81.349 111.457  0.00  0.00     0.091 C 
ENDROOT
BRANCH   1   7
ATOM      7  O   LIG d   1       1.715  83.037 113.212  0.00  0.00    -0.368 OA
BRANCH   7   8
ATOM      8  C   LIG d   1       2.248  82.016 114.091  0.00  0.00     0.119 C 
BRANCH   8   9
ATOM      9  C   LIG d   1       1.812  82.367 115.526  0.00  0.00     0.028 C 
ATOM     10  C   LIG d   1       1.420  83.846 115.676  0.00  0.00     0.006 C 
ENDBRANCH   8   9
BRANCH   8  11
ATOM     11  C   LIG d   1       3.779  82.044 114.113  0.00  0.00     0.028 C 
ATOM     12  C   LIG d   1       4.364  83.256 113.371  0.00  0.00     0.006 C 
ENDBRANCH   8  11
ENDBRANCH   7   8
ENDBRANCH   1   7
BRANCH   6  13
ATOM     13  N   LIG d   1       2.535  81.833 110.574  0.00  0.00    -0.311 N 
ATOM     14  C   LIG d   1       3.659  81.152 110.359  0.00  0.00     0.210 C 
ATOM     15  C   LIG d   1       4.664  81.840 109.430  0.00  0.00     0.109 C 
ATOM     16  O   LIG d   1       3.906  80.029 110.823  0.00  0.00    -0.276 OA
ATOM     17  H   LIG d   1       2.405  82.721 110.132  0.00  0.00     0.149 HD
ENDBRANCH   6  13
BRANCH   5  18
ATOM     18  N   LIG d   1       0.890  79.304 110.090  0.00  0.00     0.381 N 
ATOM     19  H   LIG d   1       1.144  79.464 109.136  0.00  0.00    -0.090 HD
ATOM     20  H   LIG d   1       0.167  78.607 110.112  0.00  0.00    -0.090 HD
ATOM     21  H   LIG d   1       1.683  78.988 110.604  0.00  0.00    -0.090 HD
ENDBRANCH   5  18
BRANCH   3  22
ATOM     22  C   LIG d   1      -2.585  81.231 112.764  0.00  0.00     0.382 C 
ATOM     23  O   LIG d   1      -3.381  82.102 112.337  0.00  0.00    -0.241 OA
ATOM     24  O   LIG d   1      -2.989  80.374 113.573  0.00  0.00    -0.241 OA
ENDBRANCH   3  22
TORSDOF 7
ENDMDL
MODEL 2
REMARK VINA RESULT:      -4.6      2.026      5.107
REMARK  7 active torsions:
REMARK  status: ('A' for Active; 'I' for Inactive)
REMARK    1  A    between atoms: C_2  and  C_3 
REMARK    2  A    between atoms: C_3  and  O_6 
REMARK    3  A    between atoms: C_3  and  C_4 
REMARK    4  A    between atoms: C_7  and  O_6 
REMARK    5  A    between atoms: C_9  and  C_10 
REMARK    6  A    between atoms: N_15  and  C_14 
REMARK    7  A    between atoms: N_20  and  C_19 
REMARK       I    between atoms: C_22  and  N_20 
ROOT
ATOM      1  C   LIG d   1       1.450  81.385 112.946  0.00  0.00     0.161 C 
ATOM      2  C   LIG d   1       2.492  82.099 112.332  0.00  0.00     0.016 C 
ATOM      3  C   LIG d   1       2.649  82.195 110.930  0.00  0.00     0.038 C 
ATOM      4  C   LIG d   1       1.681  81.706 110.040  0.00  0.00     0.028 C 
ATOM      5  C   LIG d   1       0.873  80.541 110.604  0.00  0.00    -0.047 C 
ATOM      6  C   LIG d   1       0.322  80.938 111.992  0.00  0.00     0.091 C 
ENDROOT
BRANCH   1   7
ATOM      7  O   LIG d   1       0.907  82.154 114.037  0.00  0.00    -0.368 OA
BRANCH   7   8
ATOM      8  C   LIG d   1      -0.335  82.851 113.771  0.00  0.00     0.119 C 
BRANCH   8   9
ATOM      9  C   LIG d   1       0.014  84.319 113.461  0.00  0.00     0.028 C 
ATOM     10  C   LIG d   1      -0.223  84.680 111.985  0.00  0.00     0.006 C 
ENDBRANCH   8   9
BRANCH   8  11
ATOM     11  C   LIG d   1      -1.224  82.900 115.017  0.00  0.00     0.028 C 
ATOM     12  C   LIG d   1      -2.685  82.523 114.722  0.00  0.00     0.006 C 
ENDBRANCH   8  11
ENDBRANCH   7   8
ENDBRANCH   1   7
BRANCH   6  13
ATOM     13  N   LIG d   1      -0.410  79.825 112.651  0.00  0.00    -0.311 N 
ATOM     14  C   LIG d   1      -1.728  79.659 112.558  0.00  0.00     0.210 C 
ATOM     15  C   LIG d   1      -2.284  78.458 113.331  0.00  0.00     0.109 C 
ATOM     16  O   LIG d   1      -2.486  80.372 111.884  0.00  0.00    -0.276 OA
ATOM     17  H   LIG d   1       0.132  79.181 113.193  0.00  0.00     0.149 HD
ENDBRANCH   6  13
BRANCH   5  18
ATOM     18  N   LIG d   1      -0.187  80.222 109.630  0.00  0.00     0.381 N 
ATOM     19  H   LIG d   1      -0.694  79.415 109.934  0.00  0.00    -0.090 HD
ATOM     20  H   LIG d   1       0.237  80.012 108.743  0.00  0.00    -0.090 HD
ATOM     21  H   LIG d   1      -0.807  80.996 109.534  0.00  0.00    -0.090 HD
ENDBRANCH   5  18
BRANCH   3  22
ATOM     22  C   LIG d   1       3.805  82.751 110.404  0.00  0.00     0.382 C 
ATOM     23  O   LIG d   1       4.565  82.057 109.686  0.00  0.00    -0.241 OA
ATOM     24  O   LIG d   1       4.121  83.925 110.675  0.00  0.00    -0.241 OA
ENDBRANCH   3  22
TORSDOF 7
ENDMDL
MODEL 3
REMARK VINA RESULT:      -4.4      1.539      4.724
REMARK  7 active torsions:
REMARK  status: ('A' for Active; 'I' for Inactive)
REMARK    1  A    between atoms: C_2  and  C_3 
REMARK    2  A    between atoms: C_3  and  O_6 
REMARK    3  A    between atoms: C_3  and  C_4 
REMARK    4  A    between atoms: C_7  and  O_6 
REMARK    5  A    between atoms: C_9  and  C_10 
REMARK    6  A    between atoms: N_15  and  C_14 
REMARK    7  A    between atoms: N_20  and  C_19 
REMARK       I    between atoms: C_22  and  N_20 
ROOT
ATOM      1  C   LIG d   1       1.869  81.688 112.696  0.00  0.00     0.161 C 
ATOM      2  C   LIG d   1       3.017  81.546 111.899  0.00  0.00     0.016 C 
ATOM      3  C   LIG d   1       2.995  81.004 110.593  0.00  0.00     0.038 C 
ATOM      4  C   LIG d   1       1.793  80.706 109.934  0.00  0.00     0.028 C 
ATOM      5  C   LIG d   1       0.651  80.361 110.884  0.00  0.00    -0.047 C 
ATOM      6  C   LIG d   1       0.535  81.471 111.953  0.00  0.00     0.091 C 
ENDROOT
BRANCH   1   7
ATOM      7  O   LIG d   1       1.880  82.977 113.342  0.00  0.00    -0.368 OA
BRANCH   7   8
ATOM      8  C   LIG d   1       2.178  82.977 114.759  0.00  0.00     0.119 C 
BRANCH   8   9
ATOM      9  C   LIG d   1       0.869  83.293 115.508  0.00  0.00     0.028 C 
ATOM     10  C   LIG d   1       0.019  84.350 114.782  0.00  0.00     0.006 C 
ENDBRANCH   8   9
BRANCH   8  11
ATOM     11  C   LIG d   1       3.140  84.111 115.127  0.00  0.00     0.028 C 
ATOM     12  C   LIG d   1       4.541  83.923 114.523  0.00  0.00     0.006 C 
ENDBRANCH   8  11
ENDBRANCH   7   8
ENDBRANCH   1   7
BRANCH   6  13
ATOM     13  N   LIG d   1      -0.504  81.170 112.972  0.00  0.00    -0.311 N 
ATOM     14  C   LIG d   1      -1.728  81.694 112.948  0.00  0.00     0.210 C 
ATOM     15  C   LIG d   1      -2.637  81.267 114.105  0.00  0.00     0.109 C 
ATOM     16  O   LIG d   1      -2.158  82.447 112.061  0.00  0.00    -0.276 OA
ATOM     17  H   LIG d   1      -0.250  80.544 113.711  0.00  0.00     0.149 HD
ENDBRANCH   6  13
BRANCH   5  18
ATOM     18  N   LIG d   1      -0.572  80.207 110.073  0.00  0.00     0.381 N 
ATOM     19  H   LIG d   1      -1.343  79.973 110.666  0.00  0.00    -0.090 HD
ATOM     20  H   LIG d   1      -0.436  79.456 109.420  0.00  0.00    -0.090 HD
ATOM     21  H   LIG d   1      -0.764  81.053 109.584  0.00  0.00    -0.090 HD
ENDBRANCH   5  18
BRANCH   3  22
ATOM     22  C   LIG d   1       4.189  80.719 109.947  0.00  0.00     0.382 C 
ATOM     23  O   LIG d   1       4.584  79.531 109.856  0.00  0.00    -0.241 OA
ATOM     24  O   LIG d   1       4.897  81.637 109.493  0.00  0.00    -0.241 OA
ENDBRANCH   3  22
TORSDOF 7
ENDMDL
MODEL 4
REMARK VINA RESULT:      -4.2      2.625      4.459
REMARK  7 active torsions:
REMARK  status: ('A' for Active; 'I' for Inactive)
REMARK    1  A    between atoms: C_2  and  C_3 
REMARK    2  A    between atoms: C_3  and  O_6 
REMARK    3  A    between atoms: C_3  and  C_4 
REMARK    4  A    between atoms: C_7  and  O_6 
REMARK    5  A    between atoms: C_9  and  C_10 
REMARK    6  A    between atoms: N_15  and  C_14 
REMARK    7  A    between atoms: N_20  and  C_19 
REMARK       I    between atoms: C_22  and  N_20 
ROOT
ATOM      1  C   LIG d   1       0.003  80.923 112.068  0.00  0.00     0.161 C 
ATOM      2  C   LIG d   1      -0.806  79.776 112.128  0.00  0.00     0.016 C 
ATOM      3  C   LIG d   1      -1.442  79.333 113.310  0.00  0.00     0.038 C 
ATOM      4  C   LIG d   1      -1.435  80.097 114.487  0.00  0.00     0.028 C 
ATOM      5  C   LIG d   1      -0.215  81.003 114.613  0.00  0.00    -0.047 C 
ATOM      6  C   LIG d   1      -0.068  81.830 113.315  0.00  0.00     0.091 C 
ENDROOT
BRANCH   1   7
ATOM      7  O   LIG d   1      -0.308  81.679 110.881  0.00  0.00    -0.368 OA
BRANCH   7   8
ATOM      8  C   LIG d   1       0.650  81.588 109.798  0.00  0.00     0.119 C 
BRANCH   8   9
ATOM      9  C   LIG d   1       1.812  80.699 110.282  0.00  0.00     0.028 C 
ATOM     10  C   LIG d   1       1.969  79.425 109.435  0.00  0.00     0.006 C 
ENDBRANCH   8   9
BRANCH   8  11
ATOM     11  C   LIG d   1       1.281  82.951 109.496  0.00  0.00     0.028 C 
ATOM     12  C   LIG d   1       2.787  82.991 109.802  0.00  0.00     0.006 C 
ENDBRANCH   8  11
ENDBRANCH   7   8
ENDBRANCH   1   7
BRANCH   6  13
ATOM     13  N   LIG d   1       1.149  82.682 113.321  0.00  0.00    -0.311 N 
ATOM     14  C   LIG d   1       1.131  83.988 113.059  0.00  0.00     0.210 C 
ATOM     15  C   LIG d   1       2.500  84.675 113.098  0.00  0.00     0.109 C 
ATOM     16  O   LIG d   1       0.107  84.649 112.830  0.00  0.00    -0.276 OA
ATOM     17  H   LIG d   1       2.020  82.233 113.528  0.00  0.00     0.149 HD
ENDBRANCH   6  13
BRANCH   5  18
ATOM     18  N   LIG d   1      -0.404  81.840 115.813  0.00  0.00     0.381 N 
ATOM     19  H   LIG d   1      -0.240  82.800 115.585  0.00  0.00    -0.090 HD
ATOM     20  H   LIG d   1       0.263  81.563 116.511  0.00  0.00    -0.090 HD
ATOM     21  H   LIG d   1      -1.329  81.728 116.165  0.00  0.00    -0.090 HD
ENDBRANCH   5  18
BRANCH   3  22
ATOM     22  C   LIG d   1      -2.062  78.093 113.333  0.00  0.00     0.382 C 
ATOM     23  O   LIG d   1      -1.480  77.111 113.854  0.00  0.00    -0.241 OA
ATOM     24  O   LIG d   1      -3.177  77.934 112.801  0.00  0.00    -0.241 OA
ENDBRANCH   3  22
TORSDOF 7
ENDMDL
MODEL 5
REMARK VINA RESULT:      -4.2      2.813      3.851
REMARK  7 active torsions:
REMARK  status: ('A' for Active; 'I' for Inactive)
REMARK    1  A    between atoms: C_2  and  C_3 
REMARK    2  A    between atoms: C_3  and  O_6 
REMARK    3  A    between atoms: C_3  and  C_4 
REMARK    4  A    between atoms: C_7  and  O_6 
REMARK    5  A    between atoms: C_9  and  C_10 
REMARK    6  A    between atoms: N_15  and  C_14 
REMARK    7  A    between atoms: N_20  and  C_19 
REMARK       I    between atoms: C_22  and  N_20 
ROOT
ATOM      1  C   LIG d   1      -2.193  81.656 113.886  0.00  0.00     0.161 C 
ATOM      2  C   LIG d   1      -2.559  80.475 114.554  0.00  0.00     0.016 C 
ATOM      3  C   LIG d   1      -2.133  79.189 114.149  0.00  0.00     0.038 C 
ATOM      4  C   LIG d   1      -1.185  79.007 113.131  0.00  0.00     0.028 C 
ATOM      5  C   LIG d   1      -1.177  80.133 112.103  0.00  0.00    -0.047 C 
ATOM      6  C   LIG d   1      -1.070  81.487 112.841  0.00  0.00     0.091 C 
ENDROOT
BRANCH   1   7
ATOM      7  O   LIG d   1      -1.837  82.670 114.846  0.00  0.00    -0.368 OA
BRANCH   7   8
ATOM      8  C   LIG d   1      -1.068  82.222 115.989  0.00  0.00     0.119 C 
BRANCH   8   9
ATOM      9  C   LIG d   1      -1.671  82.888 117.242  0.00  0.00     0.028 C 
ATOM     10  C   LIG d   1      -2.514  81.910 118.078  0.00  0.00     0.006 C 
ENDBRANCH   8   9
BRANCH   8  11
ATOM     11  C   LIG d   1       0.377  82.724 115.920  0.00  0.00     0.028 C 
ATOM     12  C   LIG d   1       0.520  84.019 115.105  0.00  0.00     0.006 C 
ENDBRANCH   8  11
ENDBRANCH   7   8
ENDBRANCH   1   7
BRANCH   6  13
ATOM     13  N   LIG d   1      -1.141  82.646 111.914  0.00  0.00    -0.311 N 
ATOM     14  C   LIG d   1      -0.065  83.259 111.423  0.00  0.00     0.210 C 
ATOM     15  C   LIG d   1      -0.361  84.445 110.500  0.00  0.00     0.109 C 
ATOM     16  O   LIG d   1       1.106  82.913 111.639  0.00  0.00    -0.276 OA
ATOM     17  H   LIG d   1      -2.053  82.973 111.661  0.00  0.00     0.149 HD
ENDBRANCH   6  13
BRANCH   5  18
ATOM     18  N   LIG d   1      -0.052  79.887 111.181  0.00  0.00     0.381 N 
ATOM     19  H   LIG d   1       0.287  80.756 110.820  0.00  0.00    -0.090 HD
ATOM     20  H   LIG d   1      -0.379  79.332 110.410  0.00  0.00    -0.090 HD
ATOM     21  H   LIG d   1       0.680  79.408 111.657  0.00  0.00    -0.090 HD
ENDBRANCH   5  18
BRANCH   3  22
ATOM     22  C   LIG d   1      -2.689  78.064 114.739  0.00  0.00     0.382 C 
ATOM     23  O   LIG d   1      -2.309  76.920 114.390  0.00  0.00    -0.241 OA
ATOM     24  O   LIG d   1      -3.598  78.177 115.584  0.00  0.00    -0.241 OA
ENDBRANCH   3  22
TORSDOF 7
ENDMDL
MODEL 6
REMARK VINA RESULT:      -4.1      2.200      4.197
REMARK  7 active torsions:
REMARK  status: ('A' for Active; 'I' for Inactive)
REMARK    1  A    between atoms: C_2  and  C_3 
REMARK    2  A    between atoms: C_3  and  O_6 
REMARK    3  A    between atoms: C_3  and  C_4 
REMARK    4  A    between atoms: C_7  and  O_6 
REMARK    5  A    between atoms: C_9  and  C_10 
REMARK    6  A    between atoms: N_15  and  C_14 
REMARK    7  A    between atoms: N_20  and  C_19 
REMARK       I    between atoms: C_22  and  N_20 
ROOT
ATOM      1  C   LIG d   1       1.406  81.696 112.880  0.00  0.00     0.161 C 
ATOM      2  C   LIG d   1       0.161  81.283 112.377  0.00  0.00     0.016 C 
ATOM      3  C   LIG d   1      -1.056  81.935 112.681  0.00  0.00     0.038 C 
ATOM      4  C   LIG d   1      -1.092  83.144 113.392  0.00  0.00     0.028 C 
ATOM      5  C   LIG d   1       0.086  83.322 114.343  0.00  0.00    -0.047 C 
ATOM      6  C   LIG d   1       1.400  83.078 113.566  0.00  0.00     0.091 C 
ENDROOT
BRANCH   1   7
ATOM      7  O   LIG d   1       2.392  81.663 111.829  0.00  0.00    -0.368 OA
BRANCH   7   8
ATOM      8  C   LIG d   1       1.928  82.032 110.507  0.00  0.00     0.119 C 
BRANCH   8   9
ATOM      9  C   LIG d   1       2.870  81.369 109.484  0.00  0.00     0.028 C 
ATOM     10  C   LIG d   1       4.345  81.731 109.723  0.00  0.00     0.006 C 
ENDBRANCH   8   9
BRANCH   8  11
ATOM     11  C   LIG d   1       2.066  83.539 110.269  0.00  0.00     0.028 C 
ATOM     12  C   LIG d   1       0.714  84.268 110.265  0.00  0.00     0.006 C 
ENDBRANCH   8  11
ENDBRANCH   7   8
ENDBRANCH   1   7
BRANCH   6  13
ATOM     13  N   LIG d   1       2.599  83.150 114.442  0.00  0.00    -0.311 N 
ATOM     14  C   LIG d   1       3.657  83.913 114.175  0.00  0.00     0.210 C 
ATOM     15  C   LIG d   1       4.793  83.824 115.199  0.00  0.00     0.109 C 
ATOM     16  O   LIG d   1       3.749  84.679 113.204  0.00  0.00    -0.276 OA
ATOM     17  H   LIG d   1       2.595  82.584 115.268  0.00  0.00     0.149 HD
ENDBRANCH   6  13
BRANCH   5  18
ATOM     18  N   LIG d   1      -0.003  84.679 114.914  0.00  0.00     0.381 N 
ATOM     19  H   LIG d   1      -0.507  85.277 114.290  0.00  0.00    -0.090 HD
ATOM     20  H   LIG d   1       0.925  85.048 115.024  0.00  0.00    -0.090 HD
ATOM     21  H   LIG d   1      -0.463  84.648 115.798  0.00  0.00    -0.090 HD
ENDBRANCH   5  18
BRANCH   3  22
ATOM     22  C   LIG d   1      -2.259  81.356 112.306  0.00  0.00     0.382 C 
ATOM     23  O   LIG d   1      -3.304  82.049 112.269  0.00  0.00    -0.241 OA
ATOM     24  O   LIG d   1      -2.320  80.139 112.047  0.00  0.00    -0.241 OA
ENDBRANCH   3  22
TORSDOF 7
ENDMDL
MODEL 7
REMARK VINA RESULT:      -4.0      2.597      6.039
REMARK  7 active torsions:
REMARK  status: ('A' for Active; 'I' for Inactive)
REMARK    1  A    between atoms: C_2  and  C_3 
REMARK    2  A    between atoms: C_3  and  O_6 
REMARK    3  A    between atoms: C_3  and  C_4 
REMARK    4  A    between atoms: C_7  and  O_6 
REMARK    5  A    between atoms: C_9  and  C_10 
REMARK    6  A    between atoms: N_15  and  C_14 
REMARK    7  A    between atoms: N_20  and  C_19 
REMARK       I    between atoms: C_22  and  N_20 
ROOT
ATOM      1  C   LIG d   1       0.839  83.377 111.454  0.00  0.00     0.161 C 
ATOM      2  C   LIG d   1       1.891  83.355 110.523  0.00  0.00     0.016 C 
ATOM      3  C   LIG d   1       3.256  83.376 110.891  0.00  0.00     0.038 C 
ATOM      4  C   LIG d   1       3.666  83.267 112.228  0.00  0.00     0.028 C 
ATOM      5  C   LIG d   1       2.636  83.795 113.222  0.00  0.00    -0.047 C 
ATOM      6  C   LIG d   1       1.267  83.146 112.919  0.00  0.00     0.091 C 
ENDROOT
BRANCH   1   7
ATOM      7  O   LIG d   1      -0.172  82.423 111.071  0.00  0.00    -0.368 OA
BRANCH   7   8
ATOM      8  C   LIG d   1       0.094  81.041 111.412  0.00  0.00     0.119 C 
BRANCH   8   9
ATOM      9  C   LIG d   1       0.093  80.232 110.100  0.00  0.00     0.028 C 
ATOM     10  C   LIG d   1       1.511  79.840 109.651  0.00  0.00     0.006 C 
ENDBRANCH   8   9
BRANCH   8  11
ATOM     11  C   LIG d   1      -1.038  80.447 112.255  0.00  0.00     0.028 C 
ATOM     12  C   LIG d   1      -2.214  81.419 112.442  0.00  0.00     0.006 C 
ENDBRANCH   8  11
ENDBRANCH   7   8
ENDBRANCH   1   7
BRANCH   6  13
ATOM     13  N   LIG d   1       0.185  83.671 113.791  0.00  0.00    -0.311 N 
ATOM     14  C   LIG d   1      -0.201  83.076 114.919  0.00  0.00     0.210 C 
ATOM     15  C   LIG d   1      -1.348  83.774 115.658  0.00  0.00     0.109 C 
ATOM     16  O   LIG d   1       0.319  82.056 115.394  0.00  0.00    -0.276 OA
ATOM     17  H   LIG d   1      -0.271  84.513 113.497  0.00  0.00     0.149 HD
ENDBRANCH   6  13
BRANCH   5  18
ATOM     18  N   LIG d   1       3.131  83.495 114.579  0.00  0.00     0.381 N 
ATOM     19  H   LIG d   1       3.104  82.508 114.738  0.00  0.00    -0.090 HD
ATOM     20  H   LIG d   1       2.530  83.940 115.250  0.00  0.00    -0.090 HD
ATOM     21  H   LIG d   1       4.064  83.830 114.683  0.00  0.00    -0.090 HD
ENDBRANCH   5  18
BRANCH   3  22
ATOM     22  C   LIG d   1       4.228  83.547 109.917  0.00  0.00     0.382 C 
ATOM     23  O   LIG d   1       4.928  82.573 109.551  0.00  0.00    -0.241 OA
ATOM     24  O   LIG d   1       4.443  84.674 109.430  0.00  0.00    -0.241 OA
ENDBRANCH   3  22
TORSDOF 7
ENDMDL
MODEL 8
REMARK VINA RESULT:      -4.0      2.098      4.954
REMARK  7 active torsions:
REMARK  status: ('A' for Active; 'I' for Inactive)
REMARK    1  A    between atoms: C_2  and  C_3 
REMARK    2  A    between atoms: C_3  and  O_6 
REMARK    3  A    between atoms: C_3  and  C_4 
REMARK    4  A    between atoms: C_7  and  O_6 
REMARK    5  A    between atoms: C_9  and  C_10 
REMARK    6  A    between atoms: N_15  and  C_14 
REMARK    7  A    between atoms: N_20  and  C_19 
REMARK       I    between atoms: C_22  and  N_20 
ROOT
ATOM      1  C   LIG d   1       0.808  81.320 113.719  0.00  0.00     0.161 C 
ATOM      2  C   LIG d   1       1.775  81.406 112.704  0.00  0.00     0.016 C 
ATOM      3  C   LIG d   1       1.534  81.024 111.365  0.00  0.00     0.038 C 
ATOM      4  C   LIG d   1       0.253  80.669 110.914  0.00  0.00     0.028 C 
ATOM      5  C   LIG d   1      -0.634  80.085 112.009  0.00  0.00    -0.047 C 
ATOM      6  C   LIG d   1      -0.626  81.041 113.224  0.00  0.00     0.091 C 
ENDROOT
BRANCH   1   7
ATOM      7  O   LIG d   1       0.836  82.516 114.523  0.00  0.00    -0.368 OA
BRANCH   7   8
ATOM      8  C   LIG d   1       1.223  83.734 113.841  0.00  0.00     0.119 C 
BRANCH   8   9
ATOM      9  C   LIG d   1       2.056  84.574 114.828  0.00  0.00     0.028 C 
ATOM     10  C   LIG d   1       1.393  84.680 116.212  0.00  0.00     0.006 C 
ENDBRANCH   8   9
BRANCH   8  11
ATOM     11  C   LIG d   1       0.002  84.596 113.504  0.00  0.00     0.028 C 
ATOM     12  C   LIG d   1      -0.352  84.569 112.009  0.00  0.00     0.006 C 
ENDBRANCH   8  11
ENDBRANCH   7   8
ENDBRANCH   1   7
BRANCH   6  13
ATOM     13  N   LIG d   1      -1.402  80.504 114.372  0.00  0.00    -0.311 N 
ATOM     14  C   LIG d   1      -2.542  81.042 114.802  0.00  0.00     0.210 C 
ATOM     15  C   LIG d   1      -3.170  80.345 116.013  0.00  0.00     0.109 C 
ATOM     16  O   LIG d   1      -3.109  82.012 114.276  0.00  0.00    -0.276 OA
ATOM     17  H   LIG d   1      -1.030  79.700 114.838  0.00  0.00     0.149 HD
ENDBRANCH   6  13
BRANCH   5  18
ATOM     18  N   LIG d   1      -1.978  79.889 111.435  0.00  0.00     0.381 N 
ATOM     19  H   LIG d   1      -1.913  79.800 110.441  0.00  0.00    -0.090 HD
ATOM     20  H   LIG d   1      -2.541  80.695 111.643  0.00  0.00    -0.090 HD
ATOM     21  H   LIG d   1      -2.398  79.073 111.822  0.00  0.00    -0.090 HD
ENDBRANCH   5  18
BRANCH   3  22
ATOM     22  C   LIG d   1       2.589  80.955 110.468  0.00  0.00     0.382 C 
ATOM     23  O   LIG d   1       2.768  81.880 109.639  0.00  0.00    -0.241 OA
ATOM     24  O   LIG d   1       3.339  79.961 110.449  0.00  0.00    -0.241 OA
ENDBRANCH   3  22
TORSDOF 7
ENDMDL
MODEL 9
REMARK VINA RESULT:      -3.9      2.527      4.250
REMARK  7 active torsions:
REMARK  status: ('A' for Active; 'I' for Inactive)
REMARK    1  A    between atoms: C_2  and  C_3 
REMARK    2  A    between atoms: C_3  and  O_6 
REMARK    3  A    between atoms: C_3  and  C_4 
REMARK    4  A    between atoms: C_7  and  O_6 
REMARK    5  A    between atoms: C_9  and  C_10 
REMARK    6  A    between atoms: N_15  and  C_14 
REMARK    7  A    between atoms: N_20  and  C_19 
REMARK       I    between atoms: C_22  and  N_20 
ROOT
ATOM      1  C   LIG d   1       0.133  80.964 112.516  0.00  0.00     0.161 C 
ATOM      2  C   LIG d   1      -0.471  79.695 112.500  0.00  0.00     0.016 C 
ATOM      3  C   LIG d   1      -1.719  79.420 113.103  0.00  0.00     0.038 C 
ATOM      4  C   LIG d   1      -2.525  80.437 113.637  0.00  0.00     0.028 C 
ATOM      5  C   LIG d   1      -1.732  81.645 114.123  0.00  0.00    -0.047 C 
ATOM      6  C   LIG d   1      -0.782  82.109 112.996  0.00  0.00     0.091 C 
ENDROOT
BRANCH   1   7
ATOM      7  O   LIG d   1       0.671  81.265 111.213  0.00  0.00    -0.368 OA
BRANCH   7   8
ATOM      8  C   LIG d   1       2.114  81.213 111.092  0.00  0.00     0.119 C 
BRANCH   8   9
ATOM      9  C   LIG d   1       2.599  82.628 110.722  0.00  0.00     0.028 C 
ATOM     10  C   LIG d   1       3.707  83.133 111.661  0.00  0.00     0.006 C 
ENDBRANCH   8   9
BRANCH   8  11
ATOM     11  C   LIG d   1       2.543  80.319 109.925  0.00  0.00     0.028 C 
ATOM     12  C   LIG d   1       3.886  79.615 110.176  0.00  0.00     0.006 C 
ENDBRANCH   8  11
ENDBRANCH   7   8
ENDBRANCH   1   7
BRANCH   6  13
ATOM     13  N   LIG d   1       0.091  83.236 113.418  0.00  0.00    -0.311 N 
ATOM     14  C   LIG d   1       1.011  83.131 114.375  0.00  0.00     0.210 C 
ATOM     15  C   LIG d   1       1.789  84.418 114.668  0.00  0.00     0.109 C 
ATOM     16  O   LIG d   1       1.279  82.086 114.987  0.00  0.00    -0.276 OA
ATOM     17  H   LIG d   1      -0.038  84.112 112.952  0.00  0.00     0.149 HD
ENDBRANCH   6  13
BRANCH   5  18
ATOM     18  N   LIG d   1      -2.702  82.682 114.525  0.00  0.00     0.381 N 
ATOM     19  H   LIG d   1      -2.443  83.061 115.414  0.00  0.00    -0.090 HD
ATOM     20  H   LIG d   1      -3.610  82.261 114.614  0.00  0.00    -0.090 HD
ATOM     21  H   LIG d   1      -2.729  83.407 113.842  0.00  0.00    -0.090 HD
ENDBRANCH   5  18
BRANCH   3  22
ATOM     22  C   LIG d   1      -2.156  78.108 113.213  0.00  0.00     0.382 C 
ATOM     23  O   LIG d   1      -1.381  77.225 113.652  0.00  0.00    -0.241 OA
ATOM     24  O   LIG d   1      -3.299  77.790 112.836  0.00  0.00    -0.241 OA
ENDBRANCH   3  22
TORSDOF 7
ENDMDL
