MODEL 1
REMARK VINA RESULT:      -5.1      0.000      0.000
REMARK  7 active torsions:
REMARK  status: ('A' for Active; 'I' for Inactive)
REMARK    1  A    between atoms: C_2  and  C_3 
REMARK    2  A    between atoms: C_3  and  O_6 
REMARK    3  A    between atoms: C_3  and  C_4 
REMARK    4  A    between atoms: C_7  and  O_6 
REMARK    5  A    between atoms: C_9  and  C_10 
REMARK    6  A    between atoms: N_15  and  C_14 
REMARK    7  A    between atoms: N_20  and  C_19 
REMARK       I    between atoms: C_22  and  N_20 
ROOT
ATOM      1  C   LIG d   1      -1.904  77.524 115.846  0.00  0.00     0.161 C 
ATOM      2  C   LIG d   1      -2.452  78.247 114.773  0.00  0.00     0.016 C 
ATOM      3  C   LIG d   1      -1.968  78.160 113.448  0.00  0.00     0.038 C 
ATOM      4  C   LIG d   1      -0.993  77.223 113.075  0.00  0.00     0.028 C 
ATOM      5  C   LIG d   1      -0.061  76.831 114.217  0.00  0.00    -0.047 C 
ATOM      6  C   LIG d   1      -0.912  76.414 115.438  0.00  0.00     0.091 C 
ENDROOT
BRANCH   1   7
ATOM      7  O   LIG d   1      -2.962  76.978 116.658  0.00  0.00    -0.368 OA
BRANCH   7   8
ATOM      8  C   LIG d   1      -3.123  77.564 117.973  0.00  0.00     0.119 C 
BRANCH   8   9
ATOM      9  C   LIG d   1      -4.427  78.385 117.957  0.00  0.00     0.028 C 
ATOM     10  C   LIG d   1      -4.345  79.636 118.848  0.00  0.00     0.006 C 
ENDBRANCH   8   9
BRANCH   8  11
ATOM     11  C   LIG d   1      -2.012  78.574 118.273  0.00  0.00     0.028 C 
ATOM     12  C   LIG d   1      -1.095  78.127 119.423  0.00  0.00     0.006 C 
ENDBRANCH   8  11
ENDBRANCH   7   8
ENDBRANCH   1   7
BRANCH   6  13
ATOM     13  N   LIG d   1      -0.080  76.096 116.628  0.00  0.00    -0.311 N 
ATOM     14  C   LIG d   1      -0.292  75.039 117.409  0.00  0.00     0.210 C 
ATOM     15  C   LIG d   1       0.670  74.907 118.594  0.00  0.00     0.109 C 
ATOM     16  O   LIG d   1      -1.165  74.180 117.216  0.00  0.00    -0.276 OA
ATOM     17  H   LIG d   1       0.671  76.724 116.840  0.00  0.00     0.149 HD
ENDBRANCH   6  13
BRANCH   5  18
ATOM     18  N   LIG d   1       0.815  75.750 113.727  0.00  0.00     0.381 N 
ATOM     19  H   LIG d   1       0.977  75.087 114.459  0.00  0.00    -0.090 HD
ATOM     20  H   LIG d   1       1.698  76.145 113.457  0.00  0.00    -0.090 HD
ATOM     21  H   LIG d   1       0.393  75.297 112.946  0.00  0.00    -0.090 HD
ENDBRANCH   5  18
BRANCH   3  22
ATOM     22  C   LIG d   1      -2.433  79.044 112.487  0.00  0.00     0.382 C 
ATOM     23  O   LIG d   1      -2.255  78.798 111.270  0.00  0.00    -0.241 OA
ATOM     24  O   LIG d   1      -2.989  80.107 112.823  0.00  0.00    -0.241 OA
ENDBRANCH   3  22
TORSDOF 7
ENDMDL
MODEL 2
REMARK VINA RESULT:      -5.0      1.846      2.435
REMARK  7 active torsions:
REMARK  status: ('A' for Active; 'I' for Inactive)
REMARK    1  A    between atoms: C_2  and  C_3 
REMARK    2  A    between atoms: C_3  and  O_6 
REMARK    3  A    between atoms: C_3  and  C_4 
REMARK    4  A    between atoms: C_7  and  O_6 
REMARK    5  A    between atoms: C_9  and  C_10 
REMARK    6  A    between atoms: N_15  and  C_14 
REMARK    7  A    between atoms: N_20  and  C_19 
REMARK       I    between atoms: C_22  and  N_20 
ROOT
ATOM      1  C   LIG d   1      -0.240  77.992 116.850  0.00  0.00     0.161 C 
ATOM      2  C   LIG d   1      -1.193  78.371 115.890  0.00  0.00     0.016 C 
ATOM      3  C   LIG d   1      -1.926  77.445 115.113  0.00  0.00     0.038 C 
ATOM      4  C   LIG d   1      -1.865  76.064 115.353  0.00  0.00     0.028 C 
ATOM      5  C   LIG d   1      -0.544  75.614 115.967  0.00  0.00    -0.047 C 
ATOM      6  C   LIG d   1      -0.241  76.490 117.204  0.00  0.00     0.091 C 
ENDROOT
BRANCH   1   7
ATOM      7  O   LIG d   1      -0.404  78.787 118.041  0.00  0.00    -0.368 OA
BRANCH   7   8
ATOM      8  C   LIG d   1      -1.687  79.442 118.199  0.00  0.00     0.119 C 
BRANCH   8   9
ATOM      9  C   LIG d   1      -1.421  80.852 118.761  0.00  0.00     0.028 C 
ATOM     10  C   LIG d   1      -2.575  81.359 119.642  0.00  0.00     0.006 C 
ENDBRANCH   8   9
BRANCH   8  11
ATOM     11  C   LIG d   1      -2.545  78.739 119.255  0.00  0.00     0.028 C 
ATOM     12  C   LIG d   1      -3.441  77.641 118.660  0.00  0.00     0.006 C 
ENDBRANCH   8  11
ENDBRANCH   7   8
ENDBRANCH   1   7
BRANCH   6  13
ATOM     13  N   LIG d   1       1.076  76.172 117.815  0.00  0.00    -0.311 N 
ATOM     14  C   LIG d   1       1.226  75.330 118.837  0.00  0.00     0.210 C 
ATOM     15  C   LIG d   1       2.666  75.159 119.328  0.00  0.00     0.109 C 
ATOM     16  O   LIG d   1       0.306  74.685 119.362  0.00  0.00    -0.276 OA
ATOM     17  H   LIG d   1       1.880  76.628 117.430  0.00  0.00     0.149 HD
ENDBRANCH   6  13
BRANCH   5  18
ATOM     18  N   LIG d   1      -0.668  74.180 116.291  0.00  0.00     0.381 N 
ATOM     19  H   LIG d   1      -0.022  73.939 117.016  0.00  0.00    -0.090 HD
ATOM     20  H   LIG d   1      -0.441  73.641 115.474  0.00  0.00    -0.090 HD
ATOM     21  H   LIG d   1      -1.598  73.976 116.584  0.00  0.00    -0.090 HD
ENDBRANCH   5  18
BRANCH   3  22
ATOM     22  C   LIG d   1      -2.702  77.896 114.056  0.00  0.00     0.382 C 
ATOM     23  O   LIG d   1      -3.544  77.132 113.526  0.00  0.00    -0.241 OA
ATOM     24  O   LIG d   1      -2.540  79.043 113.598  0.00  0.00    -0.241 OA
ENDBRANCH   3  22
TORSDOF 7
ENDMDL
MODEL 3
REMARK VINA RESULT:      -4.7      2.043      2.618
REMARK  7 active torsions:
REMARK  status: ('A' for Active; 'I' for Inactive)
REMARK    1  A    between atoms: C_2  and  C_3 
REMARK    2  A    between atoms: C_3  and  O_6 
REMARK    3  A    between atoms: C_3  and  C_4 
REMARK    4  A    between atoms: C_7  and  O_6 
REMARK    5  A    between atoms: C_9  and  C_10 
REMARK    6  A    between atoms: N_15  and  C_14 
REMARK    7  A    between atoms: N_20  and  C_19 
REMARK       I    between atoms: C_22  and  N_20 
ROOT
ATOM      1  C   LIG d   1      -0.732  77.917 117.216  0.00  0.00     0.161 C 
ATOM      2  C   LIG d   1      -1.623  78.289 116.195  0.00  0.00     0.016 C 
ATOM      3  C   LIG d   1      -2.135  77.381 115.240  0.00  0.00     0.038 C 
ATOM      4  C   LIG d   1      -1.907  76.000 115.332  0.00  0.00     0.028 C 
ATOM      5  C   LIG d   1      -0.607  75.648 116.047  0.00  0.00    -0.047 C 
ATOM      6  C   LIG d   1      -0.560  76.394 117.400  0.00  0.00     0.091 C 
ENDROOT
BRANCH   1   7
ATOM      7  O   LIG d   1      -1.129  78.530 118.458  0.00  0.00    -0.368 OA
BRANCH   7   8
ATOM      8  C   LIG d   1      -0.321  79.647 118.904  0.00  0.00     0.119 C 
BRANCH   8   9
ATOM      9  C   LIG d   1      -1.196  80.912 118.824  0.00  0.00     0.028 C 
ATOM     10  C   LIG d   1      -2.664  80.635 119.190  0.00  0.00     0.006 C 
ENDBRANCH   8   9
BRANCH   8  11
ATOM     11  C   LIG d   1       0.850  79.903 117.951  0.00  0.00     0.028 C 
ATOM     12  C   LIG d   1       2.202  79.467 118.538  0.00  0.00     0.006 C 
ENDBRANCH   8  11
ENDBRANCH   7   8
ENDBRANCH   1   7
BRANCH   6  13
ATOM     13  N   LIG d   1       0.718  76.171 118.126  0.00  0.00    -0.311 N 
ATOM     14  C   LIG d   1       0.889  75.207 119.029  0.00  0.00     0.210 C 
ATOM     15  C   LIG d   1       2.278  75.165 119.674  0.00  0.00     0.109 C 
ATOM     16  O   LIG d   1       0.032  74.364 119.334  0.00  0.00    -0.276 OA
ATOM     17  H   LIG d   1       1.476  76.791 117.917  0.00  0.00     0.149 HD
ENDBRANCH   6  13
BRANCH   5  18
ATOM     18  N   LIG d   1      -0.563  74.181 116.194  0.00  0.00     0.381 N 
ATOM     19  H   LIG d   1      -1.122  73.902 116.976  0.00  0.00    -0.090 HD
ATOM     20  H   LIG d   1       0.386  73.900 116.369  0.00  0.00    -0.090 HD
ATOM     21  H   LIG d   1      -0.899  73.744 115.364  0.00  0.00    -0.090 HD
ENDBRANCH   5  18
BRANCH   3  22
ATOM     22  C   LIG d   1      -2.852  77.859 114.153  0.00  0.00     0.382 C 
ATOM     23  O   LIG d   1      -3.637  77.099 113.537  0.00  0.00    -0.241 OA
ATOM     24  O   LIG d   1      -2.692  79.028 113.755  0.00  0.00    -0.241 OA
ENDBRANCH   3  22
TORSDOF 7
ENDMDL
MODEL 4
REMARK VINA RESULT:      -4.7      2.742      3.842
REMARK  7 active torsions:
REMARK  status: ('A' for Active; 'I' for Inactive)
REMARK    1  A    between atoms: C_2  and  C_3 
REMARK    2  A    between atoms: C_3  and  O_6 
REMARK    3  A    between atoms: C_3  and  C_4 
REMARK    4  A    between atoms: C_7  and  O_6 
REMARK    5  A    between atoms: C_9  and  C_10 
REMARK    6  A    between atoms: N_15  and  C_14 
REMARK    7  A    between atoms: N_20  and  C_19 
REMARK       I    between atoms: C_22  and  N_20 
ROOT
ATOM      1  C   LIG d   1       0.108  77.578 116.408  0.00  0.00     0.161 C 
ATOM      2  C   LIG d   1      -0.787  78.077 115.447  0.00  0.00     0.016 C 
ATOM      3  C   LIG d   1      -1.950  77.387 115.035  0.00  0.00     0.038 C 
ATOM      4  C   LIG d   1      -2.379  76.212 115.670  0.00  0.00     0.028 C 
ATOM      5  C   LIG d   1      -1.242  75.412 116.296  0.00  0.00    -0.047 C 
ATOM      6  C   LIG d   1      -0.401  76.351 117.191  0.00  0.00     0.091 C 
ENDROOT
BRANCH   1   7
ATOM      7  O   LIG d   1       0.487  78.631 117.317  0.00  0.00    -0.368 OA
BRANCH   7   8
ATOM      8  C   LIG d   1       1.717  79.330 117.006  0.00  0.00     0.119 C 
BRANCH   8   9
ATOM      9  C   LIG d   1       2.835  78.701 117.858  0.00  0.00     0.028 C 
ATOM     10  C   LIG d   1       3.751  77.778 117.037  0.00  0.00     0.006 C 
ENDBRANCH   8   9
BRANCH   8  11
ATOM     11  C   LIG d   1       1.650  80.796 117.443  0.00  0.00     0.028 C 
ATOM     12  C   LIG d   1       0.364  81.130 118.215  0.00  0.00     0.006 C 
ENDBRANCH   8  11
ENDBRANCH   7   8
ENDBRANCH   1   7
BRANCH   6  13
ATOM     13  N   LIG d   1       0.782  75.667 117.776  0.00  0.00    -0.311 N 
ATOM     14  C   LIG d   1       1.106  75.738 119.066  0.00  0.00     0.210 C 
ATOM     15  C   LIG d   1       2.376  74.975 119.456  0.00  0.00     0.109 C 
ATOM     16  O   LIG d   1       0.445  76.333 119.930  0.00  0.00    -0.276 OA
ATOM     17  H   LIG d   1       1.356  75.136 117.151  0.00  0.00     0.149 HD
ENDBRANCH   6  13
BRANCH   5  18
ATOM     18  N   LIG d   1      -1.844  74.289 117.040  0.00  0.00     0.381 N 
ATOM     19  H   LIG d   1      -1.480  73.422 116.698  0.00  0.00    -0.090 HD
ATOM     20  H   LIG d   1      -2.837  74.295 116.890  0.00  0.00    -0.090 HD
ATOM     21  H   LIG d   1      -1.647  74.379 118.012  0.00  0.00    -0.090 HD
ENDBRANCH   5  18
BRANCH   3  22
ATOM     22  C   LIG d   1      -2.677  77.852 113.949  0.00  0.00     0.382 C 
ATOM     23  O   LIG d   1      -2.551  79.042 113.574  0.00  0.00    -0.241 OA
ATOM     24  O   LIG d   1      -3.489  77.108 113.368  0.00  0.00    -0.241 OA
ENDBRANCH   3  22
TORSDOF 7
ENDMDL
MODEL 5
REMARK VINA RESULT:      -4.6      2.480      3.321
REMARK  7 active torsions:
REMARK  status: ('A' for Active; 'I' for Inactive)
REMARK    1  A    between atoms: C_2  and  C_3 
REMARK    2  A    between atoms: C_3  and  O_6 
REMARK    3  A    between atoms: C_3  and  C_4 
REMARK    4  A    between atoms: C_7  and  O_6 
REMARK    5  A    between atoms: C_9  and  C_10 
REMARK    6  A    between atoms: N_15  and  C_14 
REMARK    7  A    between atoms: N_20  and  C_19 
REMARK       I    between atoms: C_22  and  N_20 
ROOT
ATOM      1  C   LIG d   1      -0.364  77.460 116.520  0.00  0.00     0.161 C 
ATOM      2  C   LIG d   1      -0.925  78.059 115.380  0.00  0.00     0.016 C 
ATOM      3  C   LIG d   1      -2.029  77.519 114.681  0.00  0.00     0.038 C 
ATOM      4  C   LIG d   1      -2.747  76.415 115.167  0.00  0.00     0.028 C 
ATOM      5  C   LIG d   1      -1.909  75.483 116.035  0.00  0.00    -0.047 C 
ATOM      6  C   LIG d   1      -1.202  76.316 117.129  0.00  0.00     0.091 C 
ENDROOT
BRANCH   1   7
ATOM      7  O   LIG d   1      -0.090  78.465 117.516  0.00  0.00    -0.368 OA
BRANCH   7   8
ATOM      8  C   LIG d   1       1.309  78.738 117.778  0.00  0.00     0.119 C 
BRANCH   8   9
ATOM      9  C   LIG d   1       1.632  80.118 117.174  0.00  0.00     0.028 C 
ATOM     10  C   LIG d   1       0.875  81.258 117.876  0.00  0.00     0.006 C 
ENDBRANCH   8   9
BRANCH   8  11
ATOM     11  C   LIG d   1       2.217  77.750 117.041  0.00  0.00     0.028 C 
ATOM     12  C   LIG d   1       3.343  77.197 117.930  0.00  0.00     0.006 C 
ENDBRANCH   8  11
ENDBRANCH   7   8
ENDBRANCH   1   7
BRANCH   6  13
ATOM     13  N   LIG d   1      -0.295  75.493 117.971  0.00  0.00    -0.311 N 
ATOM     14  C   LIG d   1      -0.651  74.981 119.148  0.00  0.00     0.210 C 
ATOM     15  C   LIG d   1       0.443  74.180 119.862  0.00  0.00     0.109 C 
ATOM     16  O   LIG d   1      -1.778  75.087 119.653  0.00  0.00    -0.276 OA
ATOM     17  H   LIG d   1       0.630  75.331 117.622  0.00  0.00     0.149 HD
ENDBRANCH   6  13
BRANCH   5  18
ATOM     18  N   LIG d   1      -2.812  74.455 116.586  0.00  0.00     0.381 N 
ATOM     19  H   LIG d   1      -2.767  73.628 116.023  0.00  0.00    -0.090 HD
ATOM     20  H   LIG d   1      -3.754  74.802 116.560  0.00  0.00    -0.090 HD
ATOM     21  H   LIG d   1      -2.554  74.241 117.524  0.00  0.00    -0.090 HD
ENDBRANCH   5  18
BRANCH   3  22
ATOM     22  C   LIG d   1      -2.402  78.061 113.461  0.00  0.00     0.382 C 
ATOM     23  O   LIG d   1      -3.302  77.513 112.780  0.00  0.00    -0.241 OA
ATOM     24  O   LIG d   1      -1.819  79.065 113.011  0.00  0.00    -0.241 OA
ENDBRANCH   3  22
TORSDOF 7
ENDMDL
MODEL 6
REMARK VINA RESULT:      -4.2      1.794      2.225
REMARK  7 active torsions:
REMARK  status: ('A' for Active; 'I' for Inactive)
REMARK    1  A    between atoms: C_2  and  C_3 
REMARK    2  A    between atoms: C_3  and  O_6 
REMARK    3  A    between atoms: C_3  and  C_4 
REMARK    4  A    between atoms: C_7  and  O_6 
REMARK    5  A    between atoms: C_9  and  C_10 
REMARK    6  A    between atoms: N_15  and  C_14 
REMARK    7  A    between atoms: N_20  and  C_19 
REMARK       I    between atoms: C_22  and  N_20 
ROOT
ATOM      1  C   LIG d   1      -1.692  77.778 117.238  0.00  0.00     0.161 C 
ATOM      2  C   LIG d   1      -2.265  78.243 116.043  0.00  0.00     0.016 C 
ATOM      3  C   LIG d   1      -2.303  77.483 114.851  0.00  0.00     0.038 C 
ATOM      4  C   LIG d   1      -1.902  76.139 114.815  0.00  0.00     0.028 C 
ATOM      5  C   LIG d   1      -0.853  75.792 115.866  0.00  0.00    -0.047 C 
ATOM      6  C   LIG d   1      -1.349  76.273 117.248  0.00  0.00     0.091 C 
ENDROOT
BRANCH   1   7
ATOM      7  O   LIG d   1      -2.548  78.104 118.350  0.00  0.00    -0.368 OA
BRANCH   7   8
ATOM      8  C   LIG d   1      -2.044  79.102 119.272  0.00  0.00     0.119 C 
BRANCH   8   9
ATOM      9  C   LIG d   1      -3.094  80.226 119.357  0.00  0.00     0.028 C 
ATOM     10  C   LIG d   1      -4.439  79.822 118.730  0.00  0.00     0.006 C 
ENDBRANCH   8   9
BRANCH   8  11
ATOM     11  C   LIG d   1      -0.777  79.771 118.730  0.00  0.00     0.028 C 
ATOM     12  C   LIG d   1      -0.871  81.305 118.721  0.00  0.00     0.006 C 
ENDBRANCH   8  11
ENDBRANCH   7   8
ENDBRANCH   1   7
BRANCH   6  13
ATOM     13  N   LIG d   1      -0.345  76.048 118.321  0.00  0.00    -0.311 N 
ATOM     14  C   LIG d   1       0.915  76.472 118.246  0.00  0.00     0.210 C 
ATOM     15  C   LIG d   1       1.789  76.117 119.453  0.00  0.00     0.109 C 
ATOM     16  O   LIG d   1       1.383  77.138 117.310  0.00  0.00    -0.276 OA
ATOM     17  H   LIG d   1      -0.649  75.543 119.131  0.00  0.00     0.149 HD
ENDBRANCH   6  13
BRANCH   5  18
ATOM     18  N   LIG d   1      -0.628  74.335 115.807  0.00  0.00     0.381 N 
ATOM     19  H   LIG d   1       0.222  74.104 116.281  0.00  0.00    -0.090 HD
ATOM     20  H   LIG d   1      -0.538  74.059 114.845  0.00  0.00    -0.090 HD
ATOM     21  H   LIG d   1      -1.393  73.855 116.228  0.00  0.00    -0.090 HD
ENDBRANCH   5  18
BRANCH   3  22
ATOM     22  C   LIG d   1      -2.709  78.081 113.668  0.00  0.00     0.382 C 
ATOM     23  O   LIG d   1      -2.539  79.312 113.497  0.00  0.00    -0.241 OA
ATOM     24  O   LIG d   1      -3.284  77.413 112.787  0.00  0.00    -0.241 OA
ENDBRANCH   3  22
TORSDOF 7
ENDMDL
MODEL 7
REMARK VINA RESULT:      -4.1      3.000      5.644
REMARK  7 active torsions:
REMARK  status: ('A' for Active; 'I' for Inactive)
REMARK    1  A    between atoms: C_2  and  C_3 
REMARK    2  A    between atoms: C_3  and  O_6 
REMARK    3  A    between atoms: C_3  and  C_4 
REMARK    4  A    between atoms: C_7  and  O_6 
REMARK    5  A    between atoms: C_9  and  C_10 
REMARK    6  A    between atoms: N_15  and  C_14 
REMARK    7  A    between atoms: N_20  and  C_19 
REMARK       I    between atoms: C_22  and  N_20 
ROOT
ATOM      1  C   LIG d   1       0.182  77.904 116.004  0.00  0.00     0.161 C 
ATOM      2  C   LIG d   1      -0.230  76.639 116.455  0.00  0.00     0.016 C 
ATOM      3  C   LIG d   1      -0.008  76.172 117.771  0.00  0.00     0.038 C 
ATOM      4  C   LIG d   1       0.510  77.003 118.775  0.00  0.00     0.028 C 
ATOM      5  C   LIG d   1       1.402  78.117 118.239  0.00  0.00    -0.047 C 
ATOM      6  C   LIG d   1       0.649  78.867 117.116  0.00  0.00     0.091 C 
ENDROOT
BRANCH   1   7
ATOM      7  O   LIG d   1      -0.868  78.511 115.225  0.00  0.00    -0.368 OA
BRANCH   7   8
ATOM      8  C   LIG d   1      -2.096  77.751 115.109  0.00  0.00     0.119 C 
BRANCH   8   9
ATOM      9  C   LIG d   1      -2.586  77.882 113.653  0.00  0.00     0.028 C 
ATOM     10  C   LIG d   1      -1.434  78.148 112.669  0.00  0.00     0.006 C 
ENDBRANCH   8   9
BRANCH   8  11
ATOM     11  C   LIG d   1      -3.210  78.356 115.968  0.00  0.00     0.028 C 
ATOM     12  C   LIG d   1      -3.806  77.350 116.966  0.00  0.00     0.006 C 
ENDBRANCH   8  11
ENDBRANCH   7   8
ENDBRANCH   1   7
BRANCH   6  13
ATOM     13  N   LIG d   1       1.483  79.919 116.479  0.00  0.00    -0.311 N 
ATOM     14  C   LIG d   1       1.525  81.180 116.907  0.00  0.00     0.210 C 
ATOM     15  C   LIG d   1       2.434  82.108 116.096  0.00  0.00     0.109 C 
ATOM     16  O   LIG d   1       0.921  81.610 117.901  0.00  0.00    -0.276 OA
ATOM     17  H   LIG d   1       2.029  79.650 115.685  0.00  0.00     0.149 HD
ENDBRANCH   6  13
BRANCH   5  18
ATOM     18  N   LIG d   1       1.760  78.987 119.375  0.00  0.00     0.381 N 
ATOM     19  H   LIG d   1       2.431  78.525 119.957  0.00  0.00    -0.090 HD
ATOM     20  H   LIG d   1       0.936  79.162 119.923  0.00  0.00    -0.090 HD
ATOM     21  H   LIG d   1       2.136  79.847 119.041  0.00  0.00    -0.090 HD
ENDBRANCH   5  18
BRANCH   3  22
ATOM     22  C   LIG d   1      -0.270  74.846 118.083  0.00  0.00     0.382 C 
ATOM     23  O   LIG d   1      -1.073  74.184 117.382  0.00  0.00    -0.241 OA
ATOM     24  O   LIG d   1       0.253  74.317 119.082  0.00  0.00    -0.241 OA
ENDBRANCH   3  22
TORSDOF 7
ENDMDL
MODEL 8
REMARK VINA RESULT:      -4.1      2.656      4.856
REMARK  7 active torsions:
REMARK  status: ('A' for Active; 'I' for Inactive)
REMARK    1  A    between atoms: C_2  and  C_3 
REMARK    2  A    between atoms: C_3  and  O_6 
REMARK    3  A    between atoms: C_3  and  C_4 
REMARK    4  A    between atoms: C_7  and  O_6 
REMARK    5  A    between atoms: C_9  and  C_10 
REMARK    6  A    between atoms: N_15  and  C_14 
REMARK    7  A    between atoms: N_20  and  C_19 
REMARK       I    between atoms: C_22  and  N_20 
ROOT
ATOM      1  C   LIG d   1      -1.102  76.909 118.161  0.00  0.00     0.161 C 
ATOM      2  C   LIG d   1       0.153  77.126 118.752  0.00  0.00     0.016 C 
ATOM      3  C   LIG d   1       1.333  77.363 118.009  0.00  0.00     0.038 C 
ATOM      4  C   LIG d   1       1.308  77.550 116.619  0.00  0.00     0.028 C 
ATOM      5  C   LIG d   1       0.147  76.840 115.933  0.00  0.00    -0.047 C 
ATOM      6  C   LIG d   1      -1.168  77.219 116.651  0.00  0.00     0.091 C 
ENDROOT
BRANCH   1   7
ATOM      7  O   LIG d   1      -2.112  77.654 118.870  0.00  0.00    -0.368 OA
BRANCH   7   8
ATOM      8  C   LIG d   1      -2.411  78.974 118.353  0.00  0.00     0.119 C 
BRANCH   8   9
ATOM      9  C   LIG d   1      -1.909  80.000 119.388  0.00  0.00     0.028 C 
ATOM     10  C   LIG d   1      -0.827  80.930 118.815  0.00  0.00     0.006 C 
ENDBRANCH   8   9
BRANCH   8  11
ATOM     11  C   LIG d   1      -3.921  79.204 118.253  0.00  0.00     0.028 C 
ATOM     12  C   LIG d   1      -4.439  80.223 119.281  0.00  0.00     0.006 C 
ENDBRANCH   8  11
ENDBRANCH   7   8
ENDBRANCH   1   7
BRANCH   6  13
ATOM     13  N   LIG d   1      -2.345  76.501 116.095  0.00  0.00    -0.311 N 
ATOM     14  C   LIG d   1      -3.149  77.019 115.168  0.00  0.00     0.210 C 
ATOM     15  C   LIG d   1      -4.315  76.119 114.748  0.00  0.00     0.109 C 
ATOM     16  O   LIG d   1      -2.988  78.125 114.630  0.00  0.00    -0.276 OA
ATOM     17  H   LIG d   1      -2.531  75.585 116.453  0.00  0.00     0.149 HD
ENDBRANCH   6  13
BRANCH   5  18
ATOM     18  N   LIG d   1       0.163  77.231 114.510  0.00  0.00     0.381 N 
ATOM     19  H   LIG d   1       0.130  78.228 114.433  0.00  0.00    -0.090 HD
ATOM     20  H   LIG d   1      -0.652  76.853 114.060  0.00  0.00    -0.090 HD
ATOM     21  H   LIG d   1       0.986  76.883 114.070  0.00  0.00    -0.090 HD
ENDBRANCH   5  18
BRANCH   3  22
ATOM     22  C   LIG d   1       2.560  77.376 118.654  0.00  0.00     0.382 C 
ATOM     23  O   LIG d   1       3.417  78.242 118.354  0.00  0.00    -0.241 OA
ATOM     24  O   LIG d   1       2.838  76.506 119.501  0.00  0.00    -0.241 OA
ENDBRANCH   3  22
TORSDOF 7
ENDMDL
MODEL 9
REMARK VINA RESULT:      -4.0      2.288      4.984
REMARK  7 active torsions:
REMARK  status: ('A' for Active; 'I' for Inactive)
REMARK    1  A    between atoms: C_2  and  C_3 
REMARK    2  A    between atoms: C_3  and  O_6 
REMARK    3  A    between atoms: C_3  and  C_4 
REMARK    4  A    between atoms: C_7  and  O_6 
REMARK    5  A    between atoms: C_9  and  C_10 
REMARK    6  A    between atoms: N_15  and  C_14 
REMARK    7  A    between atoms: N_20  and  C_19 
REMARK       I    between atoms: C_22  and  N_20 
ROOT
ATOM      1  C   LIG d   1      -1.500  78.175 116.835  0.00  0.00     0.161 C 
ATOM      2  C   LIG d   1      -1.494  77.327 117.955  0.00  0.00     0.016 C 
ATOM      3  C   LIG d   1      -0.960  76.018 117.937  0.00  0.00     0.038 C 
ATOM      4  C   LIG d   1      -0.255  75.520 116.831  0.00  0.00     0.028 C 
ATOM      5  C   LIG d   1      -0.677  76.151 115.509  0.00  0.00    -0.047 C 
ATOM      6  C   LIG d   1      -0.636  77.690 115.652  0.00  0.00     0.091 C 
ENDROOT
BRANCH   1   7
ATOM      7  O   LIG d   1      -1.110  79.506 117.228  0.00  0.00    -0.368 OA
BRANCH   7   8
ATOM      8  C   LIG d   1       0.018  79.599 118.132  0.00  0.00     0.119 C 
BRANCH   8   9
ATOM      9  C   LIG d   1      -0.288  80.723 119.140  0.00  0.00     0.028 C 
ATOM     10  C   LIG d   1      -1.757  81.176 119.086  0.00  0.00     0.006 C 
ENDBRANCH   8   9
BRANCH   8  11
ATOM     11  C   LIG d   1       1.285  80.047 117.397  0.00  0.00     0.028 C 
ATOM     12  C   LIG d   1       2.409  78.999 117.455  0.00  0.00     0.006 C 
ENDBRANCH   8  11
ENDBRANCH   7   8
ENDBRANCH   1   7
BRANCH   6  13
ATOM     13  N   LIG d   1      -1.115  78.386 114.429  0.00  0.00    -0.311 N 
ATOM     14  C   LIG d   1      -2.151  77.966 113.705  0.00  0.00     0.210 C 
ATOM     15  C   LIG d   1      -2.466  78.819 112.472  0.00  0.00     0.109 C 
ATOM     16  O   LIG d   1      -2.859  76.987 113.985  0.00  0.00    -0.276 OA
ATOM     17  H   LIG d   1      -0.617  79.208 114.148  0.00  0.00     0.149 HD
ENDBRANCH   6  13
BRANCH   5  18
ATOM     18  N   LIG d   1       0.230  75.643 114.462  0.00  0.00     0.381 N 
ATOM     19  H   LIG d   1       0.150  76.209 113.641  0.00  0.00    -0.090 HD
ATOM     20  H   LIG d   1      -0.040  74.705 114.226  0.00  0.00    -0.090 HD
ATOM     21  H   LIG d   1       1.170  75.654 114.792  0.00  0.00    -0.090 HD
ENDBRANCH   5  18
BRANCH   3  22
ATOM     22  C   LIG d   1      -1.165  75.177 119.020  0.00  0.00     0.382 C 
ATOM     23  O   LIG d   1      -2.159  75.347 119.767  0.00  0.00    -0.241 OA
ATOM     24  O   LIG d   1      -0.344  74.279 119.287  0.00  0.00    -0.241 OA
ENDBRANCH   3  22
TORSDOF 7
ENDMDL
