MODEL 1
REMARK VINA RESULT:      -4.4      0.000      0.000
REMARK  7 active torsions:
REMARK  status: ('A' for Active; 'I' for Inactive)
REMARK    1  A    between atoms: C_2  and  C_3 
REMARK    2  A    between atoms: C_3  and  O_6 
REMARK    3  A    between atoms: C_3  and  C_4 
REMARK    4  A    between atoms: C_7  and  O_6 
REMARK    5  A    between atoms: C_9  and  C_10 
REMARK    6  A    between atoms: N_15  and  C_14 
REMARK    7  A    between atoms: N_20  and  C_19 
REMARK       I    between atoms: C_22  and  N_20 
ROOT
ATOM      1  C   LIG d   1      -2.411  77.493 115.521  0.00  0.00     0.161 C 
ATOM      2  C   LIG d   1      -2.685  78.126 114.298  0.00  0.00     0.016 C 
ATOM      3  C   LIG d   1      -1.964  79.246 113.823  0.00  0.00     0.038 C 
ATOM      4  C   LIG d   1      -0.814  79.718 114.473  0.00  0.00     0.028 C 
ATOM      5  C   LIG d   1      -0.803  79.427 115.970  0.00  0.00    -0.047 C 
ATOM      6  C   LIG d   1      -1.089  77.924 116.191  0.00  0.00     0.091 C 
ENDROOT
BRANCH   1   7
ATOM      7  O   LIG d   1      -2.441  76.062 115.348  0.00  0.00    -0.368 OA
BRANCH   7   8
ATOM      8  C   LIG d   1      -3.540  75.366 115.985  0.00  0.00     0.119 C 
BRANCH   8   9
ATOM      9  C   LIG d   1      -4.297  76.390 116.852  0.00  0.00     0.028 C 
ATOM     10  C   LIG d   1      -4.319  75.998 118.339  0.00  0.00     0.006 C 
ENDBRANCH   8   9
BRANCH   8  11
ATOM     11  C   LIG d   1      -3.034  74.302 116.963  0.00  0.00     0.028 C 
ATOM     12  C   LIG d   1      -1.502  74.180 116.971  0.00  0.00     0.006 C 
ENDBRANCH   8  11
ENDBRANCH   7   8
ENDBRANCH   1   7
BRANCH   6  13
ATOM     13  N   LIG d   1      -1.179  77.570 117.632  0.00  0.00    -0.311 N 
ATOM     14  C   LIG d   1      -0.148  77.112 118.340  0.00  0.00     0.210 C 
ATOM     15  C   LIG d   1      -0.462  76.790 119.805  0.00  0.00     0.109 C 
ATOM     16  O   LIG d   1       1.004  76.973 117.903  0.00  0.00    -0.276 OA
ATOM     17  H   LIG d   1      -2.070  77.682 118.075  0.00  0.00     0.149 HD
ENDBRANCH   6  13
BRANCH   5  18
ATOM     18  N   LIG d   1       0.510  79.848 116.496  0.00  0.00     0.381 N 
ATOM     19  H   LIG d   1       0.462  80.800 116.801  0.00  0.00    -0.090 HD
ATOM     20  H   LIG d   1       1.190  79.787 115.759  0.00  0.00    -0.090 HD
ATOM     21  H   LIG d   1       0.777  79.261 117.255  0.00  0.00    -0.090 HD
ENDBRANCH   5  18
BRANCH   3  22
ATOM     22  C   LIG d   1      -2.416  79.931 112.705  0.00  0.00     0.382 C 
ATOM     23  O   LIG d   1      -1.757  79.895 111.639  0.00  0.00    -0.241 OA
ATOM     24  O   LIG d   1      -3.452  80.620 112.763  0.00  0.00    -0.241 OA
ENDBRANCH   3  22
TORSDOF 7
ENDMDL
MODEL 2
REMARK VINA RESULT:      -4.2      2.730      4.507
REMARK  7 active torsions:
REMARK  status: ('A' for Active; 'I' for Inactive)
REMARK    1  A    between atoms: C_2  and  C_3 
REMARK    2  A    between atoms: C_3  and  O_6 
REMARK    3  A    between atoms: C_3  and  C_4 
REMARK    4  A    between atoms: C_7  and  O_6 
REMARK    5  A    between atoms: C_9  and  C_10 
REMARK    6  A    between atoms: N_15  and  C_14 
REMARK    7  A    between atoms: N_20  and  C_19 
REMARK       I    between atoms: C_22  and  N_20 
ROOT
ATOM      1  C   LIG d   1       0.100  78.846 116.915  0.00  0.00     0.161 C 
ATOM      2  C   LIG d   1      -1.084  79.073 116.193  0.00  0.00     0.016 C 
ATOM      3  C   LIG d   1      -1.744  78.070 115.446  0.00  0.00     0.038 C 
ATOM      4  C   LIG d   1      -1.345  76.726 115.495  0.00  0.00     0.028 C 
ATOM      5  C   LIG d   1       0.137  76.545 115.805  0.00  0.00    -0.047 C 
ATOM      6  C   LIG d   1       0.488  77.361 117.070  0.00  0.00     0.091 C 
ENDROOT
BRANCH   1   7
ATOM      7  O   LIG d   1       0.012  79.478 118.208  0.00  0.00    -0.368 OA
BRANCH   7   8
ATOM      8  C   LIG d   1      -0.816  80.665 118.281  0.00  0.00     0.119 C 
BRANCH   8   9
ATOM      9  C   LIG d   1       0.111  81.857 118.589  0.00  0.00     0.028 C 
ATOM     10  C   LIG d   1      -0.661  83.082 119.107  0.00  0.00     0.006 C 
ENDBRANCH   8   9
BRANCH   8  11
ATOM     11  C   LIG d   1      -1.789  80.593 119.462  0.00  0.00     0.028 C 
ATOM     12  C   LIG d   1      -3.236  80.318 119.024  0.00  0.00     0.006 C 
ENDBRANCH   8  11
ENDBRANCH   7   8
ENDBRANCH   1   7
BRANCH   6  13
ATOM     13  N   LIG d   1       1.937  77.306 117.396  0.00  0.00    -0.311 N 
ATOM     14  C   LIG d   1       2.407  76.945 118.588  0.00  0.00     0.210 C 
ATOM     15  C   LIG d   1       3.934  76.976 118.718  0.00  0.00     0.109 C 
ATOM     16  O   LIG d   1       1.707  76.570 119.541  0.00  0.00    -0.276 OA
ATOM     17  H   LIG d   1       2.578  77.564 116.671  0.00  0.00     0.149 HD
ENDBRANCH   6  13
BRANCH   5  18
ATOM     18  N   LIG d   1       0.386  75.099 115.962  0.00  0.00     0.381 N 
ATOM     19  H   LIG d   1       0.414  74.864 116.934  0.00  0.00    -0.090 HD
ATOM     20  H   LIG d   1       1.279  74.878 115.558  0.00  0.00    -0.090 HD
ATOM     21  H   LIG d   1      -0.331  74.578 115.507  0.00  0.00    -0.090 HD
ENDBRANCH   5  18
BRANCH   3  22
ATOM     22  C   LIG d   1      -2.793  78.416 114.608  0.00  0.00     0.382 C 
ATOM     23  O   LIG d   1      -3.329  77.544 113.883  0.00  0.00    -0.241 OA
ATOM     24  O   LIG d   1      -3.180  79.598 114.535  0.00  0.00    -0.241 OA
ENDBRANCH   3  22
TORSDOF 7
ENDMDL
MODEL 3
REMARK VINA RESULT:      -4.0      0.817      1.823
REMARK  7 active torsions:
REMARK  status: ('A' for Active; 'I' for Inactive)
REMARK    1  A    between atoms: C_2  and  C_3 
REMARK    2  A    between atoms: C_3  and  O_6 
REMARK    3  A    between atoms: C_3  and  C_4 
REMARK    4  A    between atoms: C_7  and  O_6 
REMARK    5  A    between atoms: C_9  and  C_10 
REMARK    6  A    between atoms: N_15  and  C_14 
REMARK    7  A    between atoms: N_20  and  C_19 
REMARK       I    between atoms: C_22  and  N_20 
ROOT
ATOM      1  C   LIG d   1      -2.171  77.428 115.365  0.00  0.00     0.161 C 
ATOM      2  C   LIG d   1      -2.479  78.115 114.179  0.00  0.00     0.016 C 
ATOM      3  C   LIG d   1      -1.826  79.302 113.775  0.00  0.00     0.038 C 
ATOM      4  C   LIG d   1      -0.708  79.802 114.459  0.00  0.00     0.028 C 
ATOM      5  C   LIG d   1      -0.683  79.425 115.937  0.00  0.00    -0.047 C 
ATOM      6  C   LIG d   1      -0.879  77.897 116.067  0.00  0.00     0.091 C 
ENDROOT
BRANCH   1   7
ATOM      7  O   LIG d   1      -2.114  76.010 115.108  0.00  0.00    -0.368 OA
BRANCH   7   8
ATOM      8  C   LIG d   1      -1.874  75.163 116.258  0.00  0.00     0.119 C 
BRANCH   8   9
ATOM      9  C   LIG d   1      -0.748  74.180 115.882  0.00  0.00     0.028 C 
ATOM     10  C   LIG d   1       0.196  74.751 114.810  0.00  0.00     0.006 C 
ENDBRANCH   8   9
BRANCH   8  11
ATOM     11  C   LIG d   1      -3.090  74.286 116.568  0.00  0.00     0.028 C 
ATOM     12  C   LIG d   1      -4.424  75.012 116.332  0.00  0.00     0.006 C 
ENDBRANCH   8  11
ENDBRANCH   7   8
ENDBRANCH   1   7
BRANCH   6  13
ATOM     13  N   LIG d   1      -0.951  77.454 117.484  0.00  0.00    -0.311 N 
ATOM     14  C   LIG d   1       0.109  77.044 118.179  0.00  0.00     0.210 C 
ATOM     15  C   LIG d   1      -0.189  76.612 119.618  0.00  0.00     0.109 C 
ATOM     16  O   LIG d   1       1.272  77.028 117.750  0.00  0.00    -0.276 OA
ATOM     17  H   LIG d   1      -1.852  77.465 117.920  0.00  0.00     0.149 HD
ENDBRANCH   6  13
BRANCH   5  18
ATOM     18  N   LIG d   1       0.601  79.892 116.494  0.00  0.00     0.381 N 
ATOM     19  H   LIG d   1       1.263  80.024 115.756  0.00  0.00    -0.090 HD
ATOM     20  H   LIG d   1       0.959  79.190 117.117  0.00  0.00    -0.090 HD
ATOM     21  H   LIG d   1       0.467  80.748 116.987  0.00  0.00    -0.090 HD
ENDBRANCH   5  18
BRANCH   3  22
ATOM     22  C   LIG d   1      -2.316  80.023 112.697  0.00  0.00     0.382 C 
ATOM     23  O   LIG d   1      -1.669  80.062 111.623  0.00  0.00    -0.241 OA
ATOM     24  O   LIG d   1      -3.374  80.672 112.800  0.00  0.00    -0.241 OA
ENDBRANCH   3  22
TORSDOF 7
ENDMDL
MODEL 4
REMARK VINA RESULT:      -4.0      2.787      5.389
REMARK  7 active torsions:
REMARK  status: ('A' for Active; 'I' for Inactive)
REMARK    1  A    between atoms: C_2  and  C_3 
REMARK    2  A    between atoms: C_3  and  O_6 
REMARK    3  A    between atoms: C_3  and  C_4 
REMARK    4  A    between atoms: C_7  and  O_6 
REMARK    5  A    between atoms: C_9  and  C_10 
REMARK    6  A    between atoms: N_15  and  C_14 
REMARK    7  A    between atoms: N_20  and  C_19 
REMARK       I    between atoms: C_22  and  N_20 
ROOT
ATOM      1  C   LIG d   1      -1.533  78.665 115.286  0.00  0.00     0.161 C 
ATOM      2  C   LIG d   1      -2.167  79.477 116.241  0.00  0.00     0.016 C 
ATOM      3  C   LIG d   1      -2.256  79.143 117.612  0.00  0.00     0.038 C 
ATOM      4  C   LIG d   1      -1.580  78.037 118.150  0.00  0.00     0.028 C 
ATOM      5  C   LIG d   1      -1.350  76.917 117.141  0.00  0.00    -0.047 C 
ATOM      6  C   LIG d   1      -0.694  77.511 115.874  0.00  0.00     0.091 C 
ENDROOT
BRANCH   1   7
ATOM      7  O   LIG d   1      -0.724  79.478 114.413  0.00  0.00    -0.368 OA
BRANCH   7   8
ATOM      8  C   LIG d   1      -1.055  79.424 113.004  0.00  0.00     0.119 C 
BRANCH   8   9
ATOM      9  C   LIG d   1      -0.313  80.582 112.309  0.00  0.00     0.028 C 
ATOM     10  C   LIG d   1       0.237  80.182 110.929  0.00  0.00     0.006 C 
ENDBRANCH   8   9
BRANCH   8  11
ATOM     11  C   LIG d   1      -2.544  79.699 112.770  0.00  0.00     0.028 C 
ATOM     12  C   LIG d   1      -2.870  81.200 112.708  0.00  0.00     0.006 C 
ENDBRANCH   8  11
ENDBRANCH   7   8
ENDBRANCH   1   7
BRANCH   6  13
ATOM     13  N   LIG d   1      -0.511  76.497 114.803  0.00  0.00    -0.311 N 
ATOM     14  C   LIG d   1       0.566  75.720 114.705  0.00  0.00     0.210 C 
ATOM     15  C   LIG d   1       0.562  74.756 113.514  0.00  0.00     0.109 C 
ATOM     16  O   LIG d   1       1.509  75.714 115.510  0.00  0.00    -0.276 OA
ATOM     17  H   LIG d   1      -1.243  76.413 114.124  0.00  0.00     0.149 HD
ENDBRANCH   6  13
BRANCH   5  18
ATOM     18  N   LIG d   1      -0.518  75.891 117.797  0.00  0.00     0.381 N 
ATOM     19  H   LIG d   1      -0.502  76.048 118.785  0.00  0.00    -0.090 HD
ATOM     20  H   LIG d   1       0.423  75.966 117.451  0.00  0.00    -0.090 HD
ATOM     21  H   LIG d   1      -0.880  74.983 117.603  0.00  0.00    -0.090 HD
ENDBRANCH   5  18
BRANCH   3  22
ATOM     22  C   LIG d   1      -3.061  79.896 118.452  0.00  0.00     0.382 C 
ATOM     23  O   LIG d   1      -2.570  80.851 119.100  0.00  0.00    -0.241 OA
ATOM     24  O   LIG d   1      -4.262  79.605 118.604  0.00  0.00    -0.241 OA
ENDBRANCH   3  22
TORSDOF 7
ENDMDL
MODEL 5
REMARK VINA RESULT:      -3.9      2.645      5.746
REMARK  7 active torsions:
REMARK  status: ('A' for Active; 'I' for Inactive)
REMARK    1  A    between atoms: C_2  and  C_3 
REMARK    2  A    between atoms: C_3  and  O_6 
REMARK    3  A    between atoms: C_3  and  C_4 
REMARK    4  A    between atoms: C_7  and  O_6 
REMARK    5  A    between atoms: C_9  and  C_10 
REMARK    6  A    between atoms: N_15  and  C_14 
REMARK    7  A    between atoms: N_20  and  C_19 
REMARK       I    between atoms: C_22  and  N_20 
ROOT
ATOM      1  C   LIG d   1      -2.182  77.972 116.701  0.00  0.00     0.161 C 
ATOM      2  C   LIG d   1      -1.919  77.136 117.799  0.00  0.00     0.016 C 
ATOM      3  C   LIG d   1      -1.057  76.017 117.737  0.00  0.00     0.038 C 
ATOM      4  C   LIG d   1      -0.276  75.745 116.604  0.00  0.00     0.028 C 
ATOM      5  C   LIG d   1      -0.888  76.265 115.307  0.00  0.00    -0.047 C 
ATOM      6  C   LIG d   1      -1.253  77.756 115.488  0.00  0.00     0.091 C 
ENDROOT
BRANCH   1   7
ATOM      7  O   LIG d   1      -2.149  79.351 117.118  0.00  0.00    -0.368 OA
BRANCH   7   8
ATOM      8  C   LIG d   1      -1.323  79.649 118.270  0.00  0.00     0.119 C 
BRANCH   8   9
ATOM      9  C   LIG d   1      -2.029  80.760 119.071  0.00  0.00     0.028 C 
ATOM     10  C   LIG d   1      -1.155  82.016 119.228  0.00  0.00     0.006 C 
ENDBRANCH   8   9
BRANCH   8  11
ATOM     11  C   LIG d   1       0.024  80.245 117.851  0.00  0.00     0.028 C 
ATOM     12  C   LIG d   1       1.202  79.290 118.100  0.00  0.00     0.006 C 
ENDBRANCH   8  11
ENDBRANCH   7   8
ENDBRANCH   1   7
BRANCH   6  13
ATOM     13  N   LIG d   1      -1.935  78.321 114.294  0.00  0.00    -0.311 N 
ATOM     14  C   LIG d   1      -1.534  79.433 113.678  0.00  0.00     0.210 C 
ATOM     15  C   LIG d   1      -2.390  79.852 112.479  0.00  0.00     0.109 C 
ATOM     16  O   LIG d   1      -0.533  80.093 113.992  0.00  0.00    -0.276 OA
ATOM     17  H   LIG d   1      -2.738  77.831 113.953  0.00  0.00     0.149 HD
ENDBRANCH   6  13
BRANCH   5  18
ATOM     18  N   LIG d   1       0.092  76.036 114.229  0.00  0.00     0.381 N 
ATOM     19  H   LIG d   1      -0.386  75.859 113.368  0.00  0.00    -0.090 HD
ATOM     20  H   LIG d   1       0.643  75.227 114.456  0.00  0.00    -0.090 HD
ATOM     21  H   LIG d   1       0.684  76.832 114.131  0.00  0.00    -0.090 HD
ENDBRANCH   5  18
BRANCH   3  22
ATOM     22  C   LIG d   1      -1.000  75.133 118.803  0.00  0.00     0.382 C 
ATOM     23  O   LIG d   1      -0.076  75.227 119.647  0.00  0.00    -0.241 OA
ATOM     24  O   LIG d   1      -1.835  74.215 118.908  0.00  0.00    -0.241 OA
ENDBRANCH   3  22
TORSDOF 7
ENDMDL
MODEL 6
REMARK VINA RESULT:      -3.7      2.267      5.472
REMARK  7 active torsions:
REMARK  status: ('A' for Active; 'I' for Inactive)
REMARK    1  A    between atoms: C_2  and  C_3 
REMARK    2  A    between atoms: C_3  and  O_6 
REMARK    3  A    between atoms: C_3  and  C_4 
REMARK    4  A    between atoms: C_7  and  O_6 
REMARK    5  A    between atoms: C_9  and  C_10 
REMARK    6  A    between atoms: N_15  and  C_14 
REMARK    7  A    between atoms: N_20  and  C_19 
REMARK       I    between atoms: C_22  and  N_20 
ROOT
ATOM      1  C   LIG d   1      -0.554  77.897 117.099  0.00  0.00     0.161 C 
ATOM      2  C   LIG d   1       0.560  78.598 117.591  0.00  0.00     0.016 C 
ATOM      3  C   LIG d   1       1.449  78.068 118.554  0.00  0.00     0.038 C 
ATOM      4  C   LIG d   1       1.371  76.734 118.981  0.00  0.00     0.028 C 
ATOM      5  C   LIG d   1      -0.035  76.151 118.891  0.00  0.00    -0.047 C 
ATOM      6  C   LIG d   1      -0.591  76.400 117.471  0.00  0.00     0.091 C 
ENDROOT
BRANCH   1   7
ATOM      7  O   LIG d   1      -0.642  78.061 115.670  0.00  0.00    -0.368 OA
BRANCH   7   8
ATOM      8  C   LIG d   1      -1.485  79.142 115.203  0.00  0.00     0.119 C 
BRANCH   8   9
ATOM      9  C   LIG d   1      -2.938  78.629 115.201  0.00  0.00     0.028 C 
ATOM     10  C   LIG d   1      -3.744  79.143 116.406  0.00  0.00     0.006 C 
ENDBRANCH   8   9
BRANCH   8  11
ATOM     11  C   LIG d   1      -1.179  79.498 113.745  0.00  0.00     0.028 C 
ATOM     12  C   LIG d   1      -2.391  80.094 113.010  0.00  0.00     0.006 C 
ENDBRANCH   8  11
ENDBRANCH   7   8
ENDBRANCH   1   7
BRANCH   6  13
ATOM     13  N   LIG d   1      -1.995  75.935 117.322  0.00  0.00    -0.311 N 
ATOM     14  C   LIG d   1      -2.402  75.133 116.339  0.00  0.00     0.210 C 
ATOM     15  C   LIG d   1      -3.895  74.791 116.360  0.00  0.00     0.109 C 
ATOM     16  O   LIG d   1      -1.662  74.648 115.471  0.00  0.00    -0.276 OA
ATOM     17  H   LIG d   1      -2.656  76.256 118.002  0.00  0.00     0.149 HD
ENDBRANCH   6  13
BRANCH   5  18
ATOM     18  N   LIG d   1       0.054  74.719 119.235  0.00  0.00     0.381 N 
ATOM     19  H   LIG d   1       0.448  74.210 118.468  0.00  0.00    -0.090 HD
ATOM     20  H   LIG d   1      -0.872  74.367 119.403  0.00  0.00    -0.090 HD
ATOM     21  H   LIG d   1       0.616  74.598 120.048  0.00  0.00    -0.090 HD
ENDBRANCH   5  18
BRANCH   3  22
ATOM     22  C   LIG d   1       2.407  78.889 119.130  0.00  0.00     0.382 C 
ATOM     23  O   LIG d   1       2.061  79.791 119.930  0.00  0.00    -0.241 OA
ATOM     24  O   LIG d   1       3.609  78.767 118.825  0.00  0.00    -0.241 OA
ENDBRANCH   3  22
TORSDOF 7
ENDMDL
MODEL 7
REMARK VINA RESULT:      -3.6      3.128      5.477
REMARK  7 active torsions:
REMARK  status: ('A' for Active; 'I' for Inactive)
REMARK    1  A    between atoms: C_2  and  C_3 
REMARK    2  A    between atoms: C_3  and  O_6 
REMARK    3  A    between atoms: C_3  and  C_4 
REMARK    4  A    between atoms: C_7  and  O_6 
REMARK    5  A    between atoms: C_9  and  C_10 
REMARK    6  A    between atoms: N_15  and  C_14 
REMARK    7  A    between atoms: N_20  and  C_19 
REMARK       I    between atoms: C_22  and  N_20 
ROOT
ATOM      1  C   LIG d   1       0.017  77.246 117.944  0.00  0.00     0.161 C 
ATOM      2  C   LIG d   1       0.082  76.061 117.193  0.00  0.00     0.016 C 
ATOM      3  C   LIG d   1      -0.251  75.991 115.820  0.00  0.00     0.038 C 
ATOM      4  C   LIG d   1      -0.530  77.140 115.065  0.00  0.00     0.028 C 
ATOM      5  C   LIG d   1      -1.098  78.287 115.894  0.00  0.00    -0.047 C 
ATOM      6  C   LIG d   1      -0.177  78.530 117.112  0.00  0.00     0.091 C 
ENDROOT
BRANCH   1   7
ATOM      7  O   LIG d   1       1.188  77.361 118.777  0.00  0.00    -0.368 OA
BRANCH   7   8
ATOM      8  C   LIG d   1       2.361  77.938 118.152  0.00  0.00     0.119 C 
BRANCH   8   9
ATOM      9  C   LIG d   1       3.424  76.827 118.050  0.00  0.00     0.028 C 
ATOM     10  C   LIG d   1       3.814  76.261 119.426  0.00  0.00     0.006 C 
ENDBRANCH   8   9
BRANCH   8  11
ATOM     11  C   LIG d   1       2.988  79.020 119.035  0.00  0.00     0.028 C 
ATOM     12  C   LIG d   1       3.999  79.896 118.277  0.00  0.00     0.006 C 
ENDBRANCH   8  11
ENDBRANCH   7   8
ENDBRANCH   1   7
BRANCH   6  13
ATOM     13  N   LIG d   1      -0.706  79.580 118.021  0.00  0.00    -0.311 N 
ATOM     14  C   LIG d   1      -0.174  80.797 118.123  0.00  0.00     0.210 C 
ATOM     15  C   LIG d   1      -0.861  81.720 119.135  0.00  0.00     0.109 C 
ATOM     16  O   LIG d   1       0.781  81.211 117.448  0.00  0.00    -0.276 OA
ATOM     17  H   LIG d   1      -1.499  79.340 118.583  0.00  0.00     0.149 HD
ENDBRANCH   6  13
BRANCH   5  18
ATOM     18  N   LIG d   1      -1.212  79.462 115.010  0.00  0.00     0.381 N 
ATOM     19  H   LIG d   1      -1.302  80.292 115.561  0.00  0.00    -0.090 HD
ATOM     20  H   LIG d   1      -2.038  79.366 114.447  0.00  0.00    -0.090 HD
ATOM     21  H   LIG d   1      -0.408  79.528 114.426  0.00  0.00    -0.090 HD
ENDBRANCH   5  18
BRANCH   3  22
ATOM     22  C   LIG d   1      -0.348  74.755 115.199  0.00  0.00     0.382 C 
ATOM     23  O   LIG d   1      -1.460  74.180 115.116  0.00  0.00    -0.241 OA
ATOM     24  O   LIG d   1       0.670  74.188 114.760  0.00  0.00    -0.241 OA
ENDBRANCH   3  22
TORSDOF 7
ENDMDL
MODEL 8
REMARK VINA RESULT:      -3.6      1.886      5.300
REMARK  7 active torsions:
REMARK  status: ('A' for Active; 'I' for Inactive)
REMARK    1  A    between atoms: C_2  and  C_3 
REMARK    2  A    between atoms: C_3  and  O_6 
REMARK    3  A    between atoms: C_3  and  C_4 
REMARK    4  A    between atoms: C_7  and  O_6 
REMARK    5  A    between atoms: C_9  and  C_10 
REMARK    6  A    between atoms: N_15  and  C_14 
REMARK    7  A    between atoms: N_20  and  C_19 
REMARK       I    between atoms: C_22  and  N_20 
ROOT
ATOM      1  C   LIG d   1       0.070  77.246 116.181  0.00  0.00     0.161 C 
ATOM      2  C   LIG d   1       0.699  76.721 117.322  0.00  0.00     0.016 C 
ATOM      3  C   LIG d   1       1.025  77.497 118.458  0.00  0.00     0.038 C 
ATOM      4  C   LIG d   1       0.605  78.829 118.590  0.00  0.00     0.028 C 
ATOM      5  C   LIG d   1       0.411  79.539 117.255  0.00  0.00    -0.047 C 
ATOM      6  C   LIG d   1      -0.495  78.671 116.352  0.00  0.00     0.091 C 
ENDROOT
BRANCH   1   7
ATOM      7  O   LIG d   1      -0.965  76.346 115.736  0.00  0.00    -0.368 OA
BRANCH   7   8
ATOM      8  C   LIG d   1      -0.816  74.960 116.128  0.00  0.00     0.119 C 
BRANCH   8   9
ATOM      9  C   LIG d   1      -0.221  74.200 114.926  0.00  0.00     0.028 C 
ATOM     10  C   LIG d   1       0.392  75.146 113.879  0.00  0.00     0.006 C 
ENDBRANCH   8   9
BRANCH   8  11
ATOM     11  C   LIG d   1      -2.176  74.305 116.388  0.00  0.00     0.028 C 
ATOM     12  C   LIG d   1      -3.313  75.329 116.527  0.00  0.00     0.006 C 
ENDBRANCH   8  11
ENDBRANCH   7   8
ENDBRANCH   1   7
BRANCH   6  13
ATOM     13  N   LIG d   1      -0.668  79.253 114.995  0.00  0.00    -0.311 N 
ATOM     14  C   LIG d   1      -1.852  79.386 114.400  0.00  0.00     0.210 C 
ATOM     15  C   LIG d   1      -1.803  79.991 112.993  0.00  0.00     0.109 C 
ATOM     16  O   LIG d   1      -2.940  79.090 114.916  0.00  0.00    -0.276 OA
ATOM     17  H   LIG d   1       0.161  79.548 114.517  0.00  0.00     0.149 HD
ENDBRANCH   6  13
BRANCH   5  18
ATOM     18  N   LIG d   1      -0.158  80.871 117.536  0.00  0.00     0.381 N 
ATOM     19  H   LIG d   1      -1.119  80.779 117.801  0.00  0.00    -0.090 HD
ATOM     20  H   LIG d   1      -0.113  81.427 116.701  0.00  0.00    -0.090 HD
ATOM     21  H   LIG d   1       0.354  81.313 118.267  0.00  0.00    -0.090 HD
ENDBRANCH   5  18
BRANCH   3  22
ATOM     22  C   LIG d   1       1.814  76.953 119.459  0.00  0.00     0.382 C 
ATOM     23  O   LIG d   1       1.539  75.822 119.929  0.00  0.00    -0.241 OA
ATOM     24  O   LIG d   1       2.771  77.596 119.930  0.00  0.00    -0.241 OA
ENDBRANCH   3  22
TORSDOF 7
ENDMDL
MODEL 9
REMARK VINA RESULT:      -3.5      2.287      3.078
REMARK  7 active torsions:
REMARK  status: ('A' for Active; 'I' for Inactive)
REMARK    1  A    between atoms: C_2  and  C_3 
REMARK    2  A    between atoms: C_3  and  O_6 
REMARK    3  A    between atoms: C_3  and  C_4 
REMARK    4  A    between atoms: C_7  and  O_6 
REMARK    5  A    between atoms: C_9  and  C_10 
REMARK    6  A    between atoms: N_15  and  C_14 
REMARK    7  A    between atoms: N_20  and  C_19 
REMARK       I    between atoms: C_22  and  N_20 
ROOT
ATOM      1  C   LIG d   1      -0.978  76.871 118.114  0.00  0.00     0.161 C 
ATOM      2  C   LIG d   1      -2.114  77.466 117.542  0.00  0.00     0.016 C 
ATOM      3  C   LIG d   1      -2.099  78.740 116.928  0.00  0.00     0.038 C 
ATOM      4  C   LIG d   1      -0.906  79.444 116.709  0.00  0.00     0.028 C 
ATOM      5  C   LIG d   1       0.188  79.110 117.719  0.00  0.00    -0.047 C 
ATOM      6  C   LIG d   1       0.356  77.575 117.787  0.00  0.00     0.091 C 
ENDROOT
BRANCH   1   7
ATOM      7  O   LIG d   1      -0.915  75.480 117.741  0.00  0.00    -0.368 OA
BRANCH   7   8
ATOM      8  C   LIG d   1      -1.386  75.155 116.410  0.00  0.00     0.119 C 
BRANCH   8   9
ATOM      9  C   LIG d   1      -2.569  74.180 116.564  0.00  0.00     0.028 C 
ATOM     10  C   LIG d   1      -3.911  74.909 116.751  0.00  0.00     0.006 C 
ENDBRANCH   8   9
BRANCH   8  11
ATOM     11  C   LIG d   1      -0.327  74.386 115.616  0.00  0.00     0.028 C 
ATOM     12  C   LIG d   1       0.741  75.304 115.002  0.00  0.00     0.006 C 
ENDBRANCH   8  11
ENDBRANCH   7   8
ENDBRANCH   1   7
BRANCH   6  13
ATOM     13  N   LIG d   1       1.348  77.159 118.812  0.00  0.00    -0.311 N 
ATOM     14  C   LIG d   1       2.614  76.858 118.528  0.00  0.00     0.210 C 
ATOM     15  C   LIG d   1       3.463  76.433 119.730  0.00  0.00     0.109 C 
ATOM     16  O   LIG d   1       3.122  76.933 117.399  0.00  0.00    -0.276 OA
ATOM     17  H   LIG d   1       1.028  77.101 119.759  0.00  0.00     0.149 HD
ENDBRANCH   6  13
BRANCH   5  18
ATOM     18  N   LIG d   1       1.415  79.808 117.292  0.00  0.00     0.381 N 
ATOM     19  H   LIG d   1       2.172  79.563 117.899  0.00  0.00    -0.090 HD
ATOM     20  H   LIG d   1       1.266  80.799 117.359  0.00  0.00    -0.090 HD
ATOM     21  H   LIG d   1       1.639  79.561 116.353  0.00  0.00    -0.090 HD
ENDBRANCH   5  18
BRANCH   3  22
ATOM     22  C   LIG d   1      -3.295  79.340 116.561  0.00  0.00     0.382 C 
ATOM     23  O   LIG d   1      -4.109  79.706 117.442  0.00  0.00    -0.241 OA
ATOM     24  O   LIG d   1      -3.589  79.478 115.358  0.00  0.00    -0.241 OA
ENDBRANCH   3  22
TORSDOF 7
ENDMDL
