MODEL 1
REMARK VINA RESULT:      -5.8      0.000      0.000
REMARK  7 active torsions:
REMARK  status: ('A' for Active; 'I' for Inactive)
REMARK    1  A    between atoms: C_2  and  C_3 
REMARK    2  A    between atoms: C_3  and  O_6 
REMARK    3  A    between atoms: C_3  and  C_4 
REMARK    4  A    between atoms: C_7  and  O_6 
REMARK    5  A    between atoms: C_9  and  C_10 
REMARK    6  A    between atoms: N_15  and  C_14 
REMARK    7  A    between atoms: N_20  and  C_19 
REMARK       I    between atoms: C_22  and  N_20 
ROOT
ATOM      1  C   LIG d   1       0.512  82.172 112.471  0.00  0.00     0.161 C 
ATOM      2  C   LIG d   1      -0.763  81.869 112.979  0.00  0.00     0.016 C 
ATOM      3  C   LIG d   1      -1.600  80.868 112.435  0.00  0.00     0.038 C 
ATOM      4  C   LIG d   1      -1.154  79.994 111.432  0.00  0.00     0.028 C 
ATOM      5  C   LIG d   1      -0.064  80.590 110.549  0.00  0.00    -0.047 C 
ATOM      6  C   LIG d   1       1.059  81.154 111.449  0.00  0.00     0.091 C 
ENDROOT
BRANCH   1   7
ATOM      7  O   LIG d   1       1.443  82.342 113.558  0.00  0.00    -0.368 OA
BRANCH   7   8
ATOM      8  C   LIG d   1       1.479  83.655 114.168  0.00  0.00     0.119 C 
BRANCH   8   9
ATOM      9  C   LIG d   1       2.930  84.165 114.085  0.00  0.00     0.028 C 
ATOM     10  C   LIG d   1       3.361  84.478 112.642  0.00  0.00     0.006 C 
ENDBRANCH   8   9
BRANCH   8  11
ATOM     11  C   LIG d   1       1.158  83.584 115.664  0.00  0.00     0.028 C 
ATOM     12  C   LIG d   1       1.005  82.142 116.172  0.00  0.00     0.006 C 
ENDBRANCH   8  11
ENDBRANCH   7   8
ENDBRANCH   1   7
BRANCH   6  13
ATOM     13  N   LIG d   1       2.126  81.831 110.667  0.00  0.00    -0.311 N 
ATOM     14  C   LIG d   1       3.199  81.201 110.192  0.00  0.00     0.210 C 
ATOM     15  C   LIG d   1       4.187  82.090 109.430  0.00  0.00     0.109 C 
ATOM     16  O   LIG d   1       3.411  79.984 110.301  0.00  0.00    -0.276 OA
ATOM     17  H   LIG d   1       2.019  82.813 110.504  0.00  0.00     0.149 HD
ENDBRANCH   6  13
BRANCH   5  18
ATOM     18  N   LIG d   1       0.404  79.527 109.639  0.00  0.00     0.381 N 
ATOM     19  H   LIG d   1       0.419  78.651 110.121  0.00  0.00    -0.090 HD
ATOM     20  H   LIG d   1       1.340  79.741 109.343  0.00  0.00    -0.090 HD
ATOM     21  H   LIG d   1      -0.198  79.468 108.846  0.00  0.00    -0.090 HD
ENDBRANCH   5  18
BRANCH   3  22
ATOM     22  C   LIG d   1      -2.913  80.761 112.866  0.00  0.00     0.382 C 
ATOM     23  O   LIG d   1      -3.354  79.656 113.264  0.00  0.00    -0.241 OA
ATOM     24  O   LIG d   1      -3.675  81.745 112.822  0.00  0.00    -0.241 OA
ENDBRANCH   3  22
TORSDOF 7
ENDMDL
MODEL 2
REMARK VINA RESULT:      -5.6      2.317      4.195
REMARK  7 active torsions:
REMARK  status: ('A' for Active; 'I' for Inactive)
REMARK    1  A    between atoms: C_2  and  C_3 
REMARK    2  A    between atoms: C_3  and  O_6 
REMARK    3  A    between atoms: C_3  and  C_4 
REMARK    4  A    between atoms: C_7  and  O_6 
REMARK    5  A    between atoms: C_9  and  C_10 
REMARK    6  A    between atoms: N_15  and  C_14 
REMARK    7  A    between atoms: N_20  and  C_19 
REMARK       I    between atoms: C_22  and  N_20 
ROOT
ATOM      1  C   LIG d   1      -0.046  80.828 111.425  0.00  0.00     0.161 C 
ATOM      2  C   LIG d   1      -1.017  79.829 111.245  0.00  0.00     0.016 C 
ATOM      3  C   LIG d   1      -1.861  79.368 112.282  0.00  0.00     0.038 C 
ATOM      4  C   LIG d   1      -1.894  79.987 113.541  0.00  0.00     0.028 C 
ATOM      5  C   LIG d   1      -0.581  80.663 113.918  0.00  0.00    -0.047 C 
ATOM      6  C   LIG d   1      -0.144  81.592 112.762  0.00  0.00     0.091 C 
ENDROOT
BRANCH   1   7
ATOM      7  O   LIG d   1      -0.084  81.750 110.317  0.00  0.00    -0.368 OA
BRANCH   7   8
ATOM      8  C   LIG d   1       1.062  81.727 109.430  0.00  0.00     0.119 C 
BRANCH   8   9
ATOM      9  C   LIG d   1       2.046  80.673 109.973  0.00  0.00     0.028 C 
ATOM     10  C   LIG d   1       3.453  81.250 110.208  0.00  0.00     0.006 C 
ENDBRANCH   8   9
BRANCH   8  11
ATOM     11  C   LIG d   1       1.825  83.054 109.471  0.00  0.00     0.028 C 
ATOM     12  C   LIG d   1       0.893  84.276 109.506  0.00  0.00     0.006 C 
ENDBRANCH   8  11
ENDBRANCH   7   8
ENDBRANCH   1   7
BRANCH   6  13
ATOM     13  N   LIG d   1       1.175  82.228 113.014  0.00  0.00    -0.311 N 
ATOM     14  C   LIG d   1       1.347  83.546 113.107  0.00  0.00     0.210 C 
ATOM     15  C   LIG d   1       2.792  83.993 113.349  0.00  0.00     0.109 C 
ATOM     16  O   LIG d   1       0.436  84.385 113.043  0.00  0.00    -0.276 OA
ATOM     17  H   LIG d   1       1.964  81.620 113.109  0.00  0.00     0.149 HD
ENDBRANCH   6  13
BRANCH   5  18
ATOM     18  N   LIG d   1      -0.799  81.383 115.187  0.00  0.00     0.381 N 
ATOM     19  H   LIG d   1       0.011  81.297 115.769  0.00  0.00    -0.090 HD
ATOM     20  H   LIG d   1      -1.577  80.967 115.667  0.00  0.00    -0.090 HD
ATOM     21  H   LIG d   1      -0.986  82.345 115.006  0.00  0.00    -0.090 HD
ENDBRANCH   5  18
BRANCH   3  22
ATOM     22  C   LIG d   1      -2.656  78.251 112.076  0.00  0.00     0.382 C 
ATOM     23  O   LIG d   1      -2.128  77.150 111.790  0.00  0.00    -0.241 OA
ATOM     24  O   LIG d   1      -3.897  78.340 112.130  0.00  0.00    -0.241 OA
ENDBRANCH   3  22
TORSDOF 7
ENDMDL
MODEL 3
REMARK VINA RESULT:      -5.1      1.344      2.146
REMARK  7 active torsions:
REMARK  status: ('A' for Active; 'I' for Inactive)
REMARK    1  A    between atoms: C_2  and  C_3 
REMARK    2  A    between atoms: C_3  and  O_6 
REMARK    3  A    between atoms: C_3  and  C_4 
REMARK    4  A    between atoms: C_7  and  O_6 
REMARK    5  A    between atoms: C_9  and  C_10 
REMARK    6  A    between atoms: N_15  and  C_14 
REMARK    7  A    between atoms: N_20  and  C_19 
REMARK       I    between atoms: C_22  and  N_20 
ROOT
ATOM      1  C   LIG d   1      -0.423  83.139 112.643  0.00  0.00     0.161 C 
ATOM      2  C   LIG d   1      -1.496  82.411 113.183  0.00  0.00     0.016 C 
ATOM      3  C   LIG d   1      -1.739  81.050 112.890  0.00  0.00     0.038 C 
ATOM      4  C   LIG d   1      -0.832  80.278 112.149  0.00  0.00     0.028 C 
ATOM      5  C   LIG d   1      -0.000  81.096 111.167  0.00  0.00    -0.047 C 
ATOM      6  C   LIG d   1       0.640  82.284 111.921  0.00  0.00     0.091 C 
ENDROOT
BRANCH   1   7
ATOM      7  O   LIG d   1       0.193  83.939 113.671  0.00  0.00    -0.368 OA
BRANCH   7   8
ATOM      8  C   LIG d   1       1.118  83.250 114.547  0.00  0.00     0.119 C 
BRANCH   8   9
ATOM      9  C   LIG d   1       0.338  82.830 115.808  0.00  0.00     0.028 C 
ATOM     10  C   LIG d   1       0.425  83.880 116.928  0.00  0.00     0.006 C 
ENDBRANCH   8   9
BRANCH   8  11
ATOM     11  C   LIG d   1       2.219  84.190 115.046  0.00  0.00     0.028 C 
ATOM     12  C   LIG d   1       3.445  84.218 114.119  0.00  0.00     0.006 C 
ENDBRANCH   8  11
ENDBRANCH   7   8
ENDBRANCH   1   7
BRANCH   6  13
ATOM     13  N   LIG d   1       1.403  83.184 111.017  0.00  0.00    -0.311 N 
ATOM     14  C   LIG d   1       2.707  83.050 110.779  0.00  0.00     0.210 C 
ATOM     15  C   LIG d   1       3.301  84.097 109.831  0.00  0.00     0.109 C 
ATOM     16  O   LIG d   1       3.420  82.146 111.237  0.00  0.00    -0.276 OA
ATOM     17  H   LIG d   1       0.895  83.927 110.578  0.00  0.00     0.149 HD
ENDBRANCH   6  13
BRANCH   5  18
ATOM     18  N   LIG d   1       0.995  80.190 110.563  0.00  0.00     0.381 N 
ATOM     19  H   LIG d   1       1.104  79.377 111.135  0.00  0.00    -0.090 HD
ATOM     20  H   LIG d   1       1.880  80.664 110.517  0.00  0.00    -0.090 HD
ATOM     21  H   LIG d   1       0.704  79.925 109.648  0.00  0.00    -0.090 HD
ENDBRANCH   5  18
BRANCH   3  22
ATOM     22  C   LIG d   1      -2.922  80.458 113.306  0.00  0.00     0.382 C 
ATOM     23  O   LIG d   1      -3.445  80.801 114.394  0.00  0.00    -0.241 OA
ATOM     24  O   LIG d   1      -3.448  79.554 112.631  0.00  0.00    -0.241 OA
ENDBRANCH   3  22
TORSDOF 7
ENDMDL
MODEL 4
REMARK VINA RESULT:      -5.1      1.947      2.938
REMARK  7 active torsions:
REMARK  status: ('A' for Active; 'I' for Inactive)
REMARK    1  A    between atoms: C_2  and  C_3 
REMARK    2  A    between atoms: C_3  and  O_6 
REMARK    3  A    between atoms: C_3  and  C_4 
REMARK    4  A    between atoms: C_7  and  O_6 
REMARK    5  A    between atoms: C_9  and  C_10 
REMARK    6  A    between atoms: N_15  and  C_14 
REMARK    7  A    between atoms: N_20  and  C_19 
REMARK       I    between atoms: C_22  and  N_20 
ROOT
ATOM      1  C   LIG d   1      -1.684  81.802 112.447  0.00  0.00     0.161 C 
ATOM      2  C   LIG d   1      -2.450  80.749 112.973  0.00  0.00     0.016 C 
ATOM      3  C   LIG d   1      -2.348  79.412 112.524  0.00  0.00     0.038 C 
ATOM      4  C   LIG d   1      -1.358  79.009 111.616  0.00  0.00     0.028 C 
ATOM      5  C   LIG d   1      -0.899  80.126 110.685  0.00  0.00    -0.047 C 
ATOM      6  C   LIG d   1      -0.521  81.362 111.533  0.00  0.00     0.091 C 
ENDROOT
BRANCH   1   7
ATOM      7  O   LIG d   1      -1.193  82.633 113.517  0.00  0.00    -0.368 OA
BRANCH   7   8
ATOM      8  C   LIG d   1      -0.533  81.943 114.607  0.00  0.00     0.119 C 
BRANCH   8   9
ATOM      9  C   LIG d   1      -1.092  82.516 115.924  0.00  0.00     0.028 C 
ATOM     10  C   LIG d   1      -2.210  81.641 116.517  0.00  0.00     0.006 C 
ENDBRANCH   8   9
BRANCH   8  11
ATOM     11  C   LIG d   1       0.967  82.253 114.635  0.00  0.00     0.028 C 
ATOM     12  C   LIG d   1       1.308  83.608 113.996  0.00  0.00     0.006 C 
ENDBRANCH   8  11
ENDBRANCH   7   8
ENDBRANCH   1   7
BRANCH   6  13
ATOM     13  N   LIG d   1      -0.140  82.529 110.696  0.00  0.00    -0.311 N 
ATOM     14  C   LIG d   1       1.118  82.815 110.366  0.00  0.00     0.210 C 
ATOM     15  C   LIG d   1       1.292  84.075 109.512  0.00  0.00     0.109 C 
ATOM     16  O   LIG d   1       2.104  82.128 110.673  0.00  0.00    -0.276 OA
ATOM     17  H   LIG d   1      -0.881  83.123 110.377  0.00  0.00     0.149 HD
ENDBRANCH   6  13
BRANCH   5  18
ATOM     18  N   LIG d   1       0.228  79.606 109.887  0.00  0.00     0.381 N 
ATOM     19  H   LIG d   1       0.431  80.236 109.137  0.00  0.00    -0.090 HD
ATOM     20  H   LIG d   1      -0.035  78.720 109.492  0.00  0.00    -0.090 HD
ATOM     21  H   LIG d   1       1.032  79.495 110.464  0.00  0.00    -0.090 HD
ENDBRANCH   5  18
BRANCH   3  22
ATOM     22  C   LIG d   1      -3.270  78.470 112.956  0.00  0.00     0.382 C 
ATOM     23  O   LIG d   1      -3.999  77.879 112.123  0.00  0.00    -0.241 OA
ATOM     24  O   LIG d   1      -3.412  78.236 114.171  0.00  0.00    -0.241 OA
ENDBRANCH   3  22
TORSDOF 7
ENDMDL
MODEL 5
REMARK VINA RESULT:      -5.1      2.785      3.919
REMARK  7 active torsions:
REMARK  status: ('A' for Active; 'I' for Inactive)
REMARK    1  A    between atoms: C_2  and  C_3 
REMARK    2  A    between atoms: C_3  and  O_6 
REMARK    3  A    between atoms: C_3  and  C_4 
REMARK    4  A    between atoms: C_7  and  O_6 
REMARK    5  A    between atoms: C_9  and  C_10 
REMARK    6  A    between atoms: N_15  and  C_14 
REMARK    7  A    between atoms: N_20  and  C_19 
REMARK       I    between atoms: C_22  and  N_20 
ROOT
ATOM      1  C   LIG d   1      -1.927  80.478 114.119  0.00  0.00     0.161 C 
ATOM      2  C   LIG d   1      -2.444  79.249 114.558  0.00  0.00     0.016 C 
ATOM      3  C   LIG d   1      -2.534  78.103 113.734  0.00  0.00     0.038 C 
ATOM      4  C   LIG d   1      -1.968  78.067 112.451  0.00  0.00     0.028 C 
ATOM      5  C   LIG d   1      -1.887  79.437 111.786  0.00  0.00    -0.047 C 
ATOM      6  C   LIG d   1      -1.203  80.426 112.757  0.00  0.00     0.091 C 
ENDROOT
BRANCH   1   7
ATOM      7  O   LIG d   1      -1.057  81.031 115.127  0.00  0.00    -0.368 OA
BRANCH   7   8
ATOM      8  C   LIG d   1      -1.483  82.282 115.720  0.00  0.00     0.119 C 
BRANCH   8   9
ATOM      9  C   LIG d   1      -0.214  83.064 116.113  0.00  0.00     0.028 C 
ATOM     10  C   LIG d   1      -0.356  83.766 117.474  0.00  0.00     0.006 C 
ENDBRANCH   8   9
BRANCH   8  11
ATOM     11  C   LIG d   1      -2.238  82.048 117.032  0.00  0.00     0.028 C 
ATOM     12  C   LIG d   1      -3.761  82.181 116.875  0.00  0.00     0.006 C 
ENDBRANCH   8  11
ENDBRANCH   7   8
ENDBRANCH   1   7
BRANCH   6  13
ATOM     13  N   LIG d   1      -1.159  81.810 112.217  0.00  0.00    -0.311 N 
ATOM     14  C   LIG d   1      -0.059  82.562 112.215  0.00  0.00     0.210 C 
ATOM     15  C   LIG d   1      -0.237  83.966 111.630  0.00  0.00     0.109 C 
ATOM     16  O   LIG d   1       1.054  82.187 112.612  0.00  0.00    -0.276 OA
ATOM     17  H   LIG d   1      -2.011  82.183 111.847  0.00  0.00     0.149 HD
ENDBRANCH   6  13
BRANCH   5  18
ATOM     18  N   LIG d   1      -1.155  79.273 110.516  0.00  0.00     0.381 N 
ATOM     19  H   LIG d   1      -0.172  79.222 110.696  0.00  0.00    -0.090 HD
ATOM     20  H   LIG d   1      -1.328  80.074 109.935  0.00  0.00    -0.090 HD
ATOM     21  H   LIG d   1      -1.458  78.445 110.051  0.00  0.00    -0.090 HD
ENDBRANCH   5  18
BRANCH   3  22
ATOM     22  C   LIG d   1      -3.230  76.990 114.179  0.00  0.00     0.382 C 
ATOM     23  O   LIG d   1      -4.439  76.844 113.876  0.00  0.00    -0.241 OA
ATOM     24  O   LIG d   1      -2.677  76.151 114.915  0.00  0.00    -0.241 OA
ENDBRANCH   3  22
TORSDOF 7
ENDMDL
MODEL 6
REMARK VINA RESULT:      -5.0      3.576      6.179
REMARK  7 active torsions:
REMARK  status: ('A' for Active; 'I' for Inactive)
REMARK    1  A    between atoms: C_2  and  C_3 
REMARK    2  A    between atoms: C_3  and  O_6 
REMARK    3  A    between atoms: C_3  and  C_4 
REMARK    4  A    between atoms: C_7  and  O_6 
REMARK    5  A    between atoms: C_9  and  C_10 
REMARK    6  A    between atoms: N_15  and  C_14 
REMARK    7  A    between atoms: N_20  and  C_19 
REMARK       I    between atoms: C_22  and  N_20 
ROOT
ATOM      1  C   LIG d   1      -2.383  80.723 114.682  0.00  0.00     0.161 C 
ATOM      2  C   LIG d   1      -1.943  81.886 114.029  0.00  0.00     0.016 C 
ATOM      3  C   LIG d   1      -1.391  81.886 112.728  0.00  0.00     0.038 C 
ATOM      4  C   LIG d   1      -1.381  80.734 111.927  0.00  0.00     0.028 C 
ATOM      5  C   LIG d   1      -1.352  79.438 112.729  0.00  0.00    -0.047 C 
ATOM      6  C   LIG d   1      -2.483  79.474 113.782  0.00  0.00     0.091 C 
ENDROOT
BRANCH   1   7
ATOM      7  O   LIG d   1      -3.645  80.975 115.331  0.00  0.00    -0.368 OA
BRANCH   7   8
ATOM      8  C   LIG d   1      -3.617  81.037 116.778  0.00  0.00     0.119 C 
BRANCH   8   9
ATOM      9  C   LIG d   1      -4.440  79.847 117.309  0.00  0.00     0.028 C 
ATOM     10  C   LIG d   1      -3.617  78.928 118.228  0.00  0.00     0.006 C 
ENDBRANCH   8   9
BRANCH   8  11
ATOM     11  C   LIG d   1      -4.333  82.288 117.297  0.00  0.00     0.028 C 
ATOM     12  C   LIG d   1      -3.832  82.731 118.680  0.00  0.00     0.006 C 
ENDBRANCH   8  11
ENDBRANCH   7   8
ENDBRANCH   1   7
BRANCH   6  13
ATOM     13  N   LIG d   1      -2.473  78.279 114.666  0.00  0.00    -0.311 N 
ATOM     14  C   LIG d   1      -3.271  77.228 114.488  0.00  0.00     0.210 C 
ATOM     15  C   LIG d   1      -3.113  76.113 115.526  0.00  0.00     0.109 C 
ATOM     16  O   LIG d   1      -4.073  77.100 113.551  0.00  0.00    -0.276 OA
ATOM     17  H   LIG d   1      -1.830  78.286 115.434  0.00  0.00     0.149 HD
ENDBRANCH   6  13
BRANCH   5  18
ATOM     18  N   LIG d   1      -1.484  78.320 111.776  0.00  0.00     0.381 N 
ATOM     19  H   LIG d   1      -0.578  77.966 111.541  0.00  0.00    -0.090 HD
ATOM     20  H   LIG d   1      -1.918  78.659 110.935  0.00  0.00    -0.090 HD
ATOM     21  H   LIG d   1      -2.038  77.595 112.175  0.00  0.00    -0.090 HD
ENDBRANCH   5  18
BRANCH   3  22
ATOM     22  C   LIG d   1      -0.804  83.039 112.230  0.00  0.00     0.382 C 
ATOM     23  O   LIG d   1       0.238  83.492 112.762  0.00  0.00    -0.241 OA
ATOM     24  O   LIG d   1      -1.328  83.657 111.284  0.00  0.00    -0.241 OA
ENDBRANCH   3  22
TORSDOF 7
ENDMDL
MODEL 7
REMARK VINA RESULT:      -5.0      2.169      5.041
REMARK  7 active torsions:
REMARK  status: ('A' for Active; 'I' for Inactive)
REMARK    1  A    between atoms: C_2  and  C_3 
REMARK    2  A    between atoms: C_3  and  O_6 
REMARK    3  A    between atoms: C_3  and  C_4 
REMARK    4  A    between atoms: C_7  and  O_6 
REMARK    5  A    between atoms: C_9  and  C_10 
REMARK    6  A    between atoms: N_15  and  C_14 
REMARK    7  A    between atoms: N_20  and  C_19 
REMARK       I    between atoms: C_22  and  N_20 
ROOT
ATOM      1  C   LIG d   1       0.249  81.513 113.162  0.00  0.00     0.161 C 
ATOM      2  C   LIG d   1       1.270  82.447 112.921  0.00  0.00     0.016 C 
ATOM      3  C   LIG d   1       1.745  82.765 111.628  0.00  0.00     0.038 C 
ATOM      4  C   LIG d   1       1.124  82.277 110.469  0.00  0.00     0.028 C 
ATOM      5  C   LIG d   1       0.418  80.942 110.677  0.00  0.00    -0.047 C 
ATOM      6  C   LIG d   1      -0.517  81.053 111.903  0.00  0.00     0.091 C 
ENDROOT
BRANCH   1   7
ATOM      7  O   LIG d   1      -0.668  82.033 114.144  0.00  0.00    -0.368 OA
BRANCH   7   8
ATOM      8  C   LIG d   1      -0.390  81.686 115.523  0.00  0.00     0.119 C 
BRANCH   8   9
ATOM      9  C   LIG d   1      -1.593  80.879 116.049  0.00  0.00     0.028 C 
ATOM     10  C   LIG d   1      -1.299  79.372 116.130  0.00  0.00     0.006 C 
ENDBRANCH   8   9
BRANCH   8  11
ATOM     11  C   LIG d   1      -0.319  82.933 116.409  0.00  0.00     0.028 C 
ATOM     12  C   LIG d   1      -1.312  82.888 117.581  0.00  0.00     0.006 C 
ENDBRANCH   8  11
ENDBRANCH   7   8
ENDBRANCH   1   7
BRANCH   6  13
ATOM     13  N   LIG d   1      -1.183  79.765 112.228  0.00  0.00    -0.311 N 
ATOM     14  C   LIG d   1      -2.467  79.669 112.566  0.00  0.00     0.210 C 
ATOM     15  C   LIG d   1      -2.949  78.249 112.881  0.00  0.00     0.109 C 
ATOM     16  O   LIG d   1      -3.262  80.621 112.605  0.00  0.00    -0.276 OA
ATOM     17  H   LIG d   1      -0.619  78.938 112.191  0.00  0.00     0.149 HD
ENDBRANCH   6  13
BRANCH   5  18
ATOM     18  N   LIG d   1      -0.302  80.619 109.430  0.00  0.00     0.381 N 
ATOM     19  H   LIG d   1       0.090  81.138 108.669  0.00  0.00    -0.090 HD
ATOM     20  H   LIG d   1      -1.265  80.886 109.532  0.00  0.00    -0.090 HD
ATOM     21  H   LIG d   1      -0.238  79.642 109.243  0.00  0.00    -0.090 HD
ENDBRANCH   5  18
BRANCH   3  22
ATOM     22  C   LIG d   1       2.881  83.549 111.486  0.00  0.00     0.382 C 
ATOM     23  O   LIG d   1       3.937  83.236 112.087  0.00  0.00    -0.241 OA
ATOM     24  O   LIG d   1       2.849  84.588 110.801  0.00  0.00    -0.241 OA
ENDBRANCH   3  22
TORSDOF 7
ENDMDL
MODEL 8
REMARK VINA RESULT:      -4.8      4.181      5.303
REMARK  7 active torsions:
REMARK  status: ('A' for Active; 'I' for Inactive)
REMARK    1  A    between atoms: C_2  and  C_3 
REMARK    2  A    between atoms: C_3  and  O_6 
REMARK    3  A    between atoms: C_3  and  C_4 
REMARK    4  A    between atoms: C_7  and  O_6 
REMARK    5  A    between atoms: C_9  and  C_10 
REMARK    6  A    between atoms: N_15  and  C_14 
REMARK    7  A    between atoms: N_20  and  C_19 
REMARK       I    between atoms: C_22  and  N_20 
ROOT
ATOM      1  C   LIG d   1      -0.639  80.747 115.788  0.00  0.00     0.161 C 
ATOM      2  C   LIG d   1      -1.406  81.519 114.899  0.00  0.00     0.016 C 
ATOM      3  C   LIG d   1      -2.138  80.968 113.822  0.00  0.00     0.038 C 
ATOM      4  C   LIG d   1      -2.276  79.582 113.651  0.00  0.00     0.028 C 
ATOM      5  C   LIG d   1      -1.110  78.782 114.223  0.00  0.00    -0.047 C 
ATOM      6  C   LIG d   1      -0.867  79.224 115.684  0.00  0.00     0.091 C 
ENDROOT
BRANCH   1   7
ATOM      7  O   LIG d   1      -0.860  81.196 117.140  0.00  0.00    -0.368 OA
BRANCH   7   8
ATOM      8  C   LIG d   1      -1.579  82.445 117.287  0.00  0.00     0.119 C 
BRANCH   8   9
ATOM      9  C   LIG d   1      -0.681  83.404 118.093  0.00  0.00     0.028 C 
ATOM     10  C   LIG d   1       0.375  84.095 117.214  0.00  0.00     0.006 C 
ENDBRANCH   8   9
BRANCH   8  11
ATOM     11  C   LIG d   1      -2.842  82.264 118.135  0.00  0.00     0.028 C 
ATOM     12  C   LIG d   1      -4.135  82.411 117.317  0.00  0.00     0.006 C 
ENDBRANCH   8  11
ENDBRANCH   7   8
ENDBRANCH   1   7
BRANCH   6  13
ATOM     13  N   LIG d   1       0.310  78.551 116.292  0.00  0.00    -0.311 N 
ATOM     14  C   LIG d   1       0.216  77.647 117.266  0.00  0.00     0.210 C 
ATOM     15  C   LIG d   1       1.554  77.091 117.763  0.00  0.00     0.109 C 
ATOM     16  O   LIG d   1      -0.850  77.230 117.743  0.00  0.00    -0.276 OA
ATOM     17  H   LIG d   1       1.213  78.807 115.942  0.00  0.00     0.149 HD
ENDBRANCH   6  13
BRANCH   5  18
ATOM     18  N   LIG d   1      -1.449  77.352 114.100  0.00  0.00     0.381 N 
ATOM     19  H   LIG d   1      -1.362  76.906 114.991  0.00  0.00    -0.090 HD
ATOM     20  H   LIG d   1      -0.801  76.918 113.466  0.00  0.00    -0.090 HD
ATOM     21  H   LIG d   1      -2.379  77.250 113.758  0.00  0.00    -0.090 HD
ENDBRANCH   5  18
BRANCH   3  22
ATOM     22  C   LIG d   1      -2.709  81.808 112.878  0.00  0.00     0.382 C 
ATOM     23  O   LIG d   1      -1.990  82.611 112.236  0.00  0.00    -0.241 OA
ATOM     24  O   LIG d   1      -3.941  81.805 112.693  0.00  0.00    -0.241 OA
ENDBRANCH   3  22
TORSDOF 7
ENDMDL
MODEL 9
REMARK VINA RESULT:      -4.5      1.618      2.241
REMARK  7 active torsions:
REMARK  status: ('A' for Active; 'I' for Inactive)
REMARK    1  A    between atoms: C_2  and  C_3 
REMARK    2  A    between atoms: C_3  and  O_6 
REMARK    3  A    between atoms: C_3  and  C_4 
REMARK    4  A    between atoms: C_7  and  O_6 
REMARK    5  A    between atoms: C_9  and  C_10 
REMARK    6  A    between atoms: N_15  and  C_14 
REMARK    7  A    between atoms: N_20  and  C_19 
REMARK       I    between atoms: C_22  and  N_20 
ROOT
ATOM      1  C   LIG d   1       0.274  81.245 113.868  0.00  0.00     0.161 C 
ATOM      2  C   LIG d   1      -0.833  80.602 114.447  0.00  0.00     0.016 C 
ATOM      3  C   LIG d   1      -1.740  79.804 113.713  0.00  0.00     0.038 C 
ATOM      4  C   LIG d   1      -1.514  79.469 112.370  0.00  0.00     0.028 C 
ATOM      5  C   LIG d   1      -0.684  80.504 111.618  0.00  0.00    -0.047 C 
ATOM      6  C   LIG d   1       0.599  80.801 112.427  0.00  0.00     0.091 C 
ENDROOT
BRANCH   1   7
ATOM      7  O   LIG d   1       1.429  81.085 114.715  0.00  0.00    -0.368 OA
BRANCH   7   8
ATOM      8  C   LIG d   1       1.707  82.175 115.627  0.00  0.00     0.119 C 
BRANCH   8   9
ATOM      9  C   LIG d   1       1.561  81.628 117.060  0.00  0.00     0.028 C 
ATOM     10  C   LIG d   1       2.920  81.365 117.730  0.00  0.00     0.006 C 
ENDBRANCH   8   9
BRANCH   8  11
ATOM     11  C   LIG d   1       0.657  83.284 115.507  0.00  0.00     0.028 C 
ATOM     12  C   LIG d   1       0.205  83.826 116.872  0.00  0.00     0.006 C 
ENDBRANCH   8  11
ENDBRANCH   7   8
ENDBRANCH   1   7
BRANCH   6  13
ATOM     13  N   LIG d   1       1.428  81.866 111.804  0.00  0.00    -0.311 N 
ATOM     14  C   LIG d   1       2.443  81.616 110.979  0.00  0.00     0.210 C 
ATOM     15  C   LIG d   1       3.179  82.858 110.464  0.00  0.00     0.109 C 
ATOM     16  O   LIG d   1       2.785  80.486 110.599  0.00  0.00    -0.276 OA
ATOM     17  H   LIG d   1       1.200  82.813 112.033  0.00  0.00     0.149 HD
ENDBRANCH   6  13
BRANCH   5  18
ATOM     18  N   LIG d   1      -0.409  79.964 110.274  0.00  0.00     0.381 N 
ATOM     19  H   LIG d   1      -1.133  79.325 110.010  0.00  0.00    -0.090 HD
ATOM     20  H   LIG d   1       0.461  79.462 110.297  0.00  0.00    -0.090 HD
ATOM     21  H   LIG d   1      -0.355  80.707 109.612  0.00  0.00    -0.090 HD
ENDBRANCH   5  18
BRANCH   3  22
ATOM     22  C   LIG d   1      -2.910  79.364 114.314  0.00  0.00     0.382 C 
ATOM     23  O   LIG d   1      -3.366  78.228 114.041  0.00  0.00    -0.241 OA
ATOM     24  O   LIG d   1      -3.539  80.107 115.091  0.00  0.00    -0.241 OA
ENDBRANCH   3  22
TORSDOF 7
ENDMDL
