MODEL 1
REMARK VINA RESULT:      -5.1      0.000      0.000
REMARK  7 active torsions:
REMARK  status: ('A' for Active; 'I' for Inactive)
REMARK    1  A    between atoms: C_2  and  C_3 
REMARK    2  A    between atoms: C_3  and  O_6 
REMARK    3  A    between atoms: C_3  and  C_4 
REMARK    4  A    between atoms: C_7  and  O_6 
REMARK    5  A    between atoms: C_9  and  C_10 
REMARK    6  A    between atoms: N_15  and  C_14 
REMARK    7  A    between atoms: N_20  and  C_19 
REMARK       I    between atoms: C_22  and  N_20 
ROOT
ATOM      1  C   LIG d   1       1.584  81.922 112.682  0.00  0.00     0.161 C 
ATOM      2  C   LIG d   1       2.497  82.659 111.909  0.00  0.00     0.016 C 
ATOM      3  C   LIG d   1       2.752  82.394 110.544  0.00  0.00     0.038 C 
ATOM      4  C   LIG d   1       1.996  81.464 109.815  0.00  0.00     0.028 C 
ATOM      5  C   LIG d   1       1.414  80.348 110.676  0.00  0.00    -0.047 C 
ATOM      6  C   LIG d   1       0.669  80.977 111.876  0.00  0.00     0.091 C 
ENDROOT
BRANCH   1   7
ATOM      7  O   LIG d   1       0.794  82.817 113.490  0.00  0.00    -0.368 OA
BRANCH   7   8
ATOM      8  C   LIG d   1      -0.503  83.180 112.955  0.00  0.00     0.119 C 
BRANCH   8   9
ATOM      9  C   LIG d   1      -0.396  84.621 112.420  0.00  0.00     0.028 C 
ATOM     10  C   LIG d   1      -0.359  84.675 110.884  0.00  0.00     0.006 C 
ENDBRANCH   8   9
BRANCH   8  11
ATOM     11  C   LIG d   1      -1.565  83.234 114.058  0.00  0.00     0.028 C 
ATOM     12  C   LIG d   1      -1.299  84.345 115.086  0.00  0.00     0.006 C 
ENDBRANCH   8  11
ENDBRANCH   7   8
ENDBRANCH   1   7
BRANCH   6  13
ATOM     13  N   LIG d   1       0.141  79.953 112.815  0.00  0.00    -0.311 N 
ATOM     14  C   LIG d   1      -1.093  79.458 112.742  0.00  0.00     0.210 C 
ATOM     15  C   LIG d   1      -1.441  78.427 113.820  0.00  0.00     0.109 C 
ATOM     16  O   LIG d   1      -1.922  79.751 111.867  0.00  0.00    -0.276 OA
ATOM     17  H   LIG d   1       0.758  79.635 113.537  0.00  0.00     0.149 HD
ENDBRANCH   6  13
BRANCH   5  18
ATOM     18  N   LIG d   1       0.538  79.531 109.815  0.00  0.00     0.381 N 
ATOM     19  H   LIG d   1       1.037  78.727 109.490  0.00  0.00    -0.090 HD
ATOM     20  H   LIG d   1       0.266  80.077 109.017  0.00  0.00    -0.090 HD
ATOM     21  H   LIG d   1      -0.270  79.246 110.324  0.00  0.00    -0.090 HD
ENDBRANCH   5  18
BRANCH   3  22
ATOM     22  C   LIG d   1       3.802  83.035 109.904  0.00  0.00     0.382 C 
ATOM     23  O   LIG d   1       3.780  84.281 109.760  0.00  0.00    -0.241 OA
ATOM     24  O   LIG d   1       4.748  82.379 109.430  0.00  0.00    -0.241 OA
ENDBRANCH   3  22
TORSDOF 7
ENDMDL
MODEL 2
REMARK VINA RESULT:      -5.1      1.881      5.021
REMARK  7 active torsions:
REMARK  status: ('A' for Active; 'I' for Inactive)
REMARK    1  A    between atoms: C_2  and  C_3 
REMARK    2  A    between atoms: C_3  and  O_6 
REMARK    3  A    between atoms: C_3  and  C_4 
REMARK    4  A    between atoms: C_7  and  O_6 
REMARK    5  A    between atoms: C_9  and  C_10 
REMARK    6  A    between atoms: N_15  and  C_14 
REMARK    7  A    between atoms: N_20  and  C_19 
REMARK       I    between atoms: C_22  and  N_20 
ROOT
ATOM      1  C   LIG d   1       0.632  83.083 112.161  0.00  0.00     0.161 C 
ATOM      2  C   LIG d   1      -0.584  82.605 112.678  0.00  0.00     0.016 C 
ATOM      3  C   LIG d   1      -1.077  81.303 112.430  0.00  0.00     0.038 C 
ATOM      4  C   LIG d   1      -0.309  80.334 111.768  0.00  0.00     0.028 C 
ATOM      5  C   LIG d   1       0.706  80.925 110.795  0.00  0.00    -0.047 C 
ATOM      6  C   LIG d   1       1.535  82.003 111.529  0.00  0.00     0.091 C 
ENDROOT
BRANCH   1   7
ATOM      7  O   LIG d   1       1.350  83.800 113.185  0.00  0.00    -0.368 OA
BRANCH   7   8
ATOM      8  C   LIG d   1       1.216  83.289 114.534  0.00  0.00     0.119 C 
BRANCH   8   9
ATOM      9  C   LIG d   1       0.782  84.463 115.433  0.00  0.00     0.028 C 
ATOM     10  C   LIG d   1      -0.667  84.319 115.927  0.00  0.00     0.006 C 
ENDBRANCH   8   9
BRANCH   8  11
ATOM     11  C   LIG d   1       2.567  82.829 115.092  0.00  0.00     0.028 C 
ATOM     12  C   LIG d   1       2.749  81.304 115.027  0.00  0.00     0.006 C 
ENDBRANCH   8  11
ENDBRANCH   7   8
ENDBRANCH   1   7
BRANCH   6  13
ATOM     13  N   LIG d   1       2.495  82.691 110.628  0.00  0.00    -0.311 N 
ATOM     14  C   LIG d   1       3.721  82.234 110.376  0.00  0.00     0.210 C 
ATOM     15  C   LIG d   1       4.555  83.107 109.433  0.00  0.00     0.109 C 
ATOM     16  O   LIG d   1       4.184  81.172 110.818  0.00  0.00    -0.276 OA
ATOM     17  H   LIG d   1       2.190  83.544 110.201  0.00  0.00     0.149 HD
ENDBRANCH   6  13
BRANCH   5  18
ATOM     18  N   LIG d   1       1.528  79.814 110.280  0.00  0.00     0.381 N 
ATOM     19  H   LIG d   1       2.394  80.169 109.928  0.00  0.00    -0.090 HD
ATOM     20  H   LIG d   1       1.038  79.370 109.523  0.00  0.00    -0.090 HD
ATOM     21  H   LIG d   1       1.702  79.153 111.005  0.00  0.00    -0.090 HD
ENDBRANCH   5  18
BRANCH   3  22
ATOM     22  C   LIG d   1      -2.368  80.973 112.812  0.00  0.00     0.382 C 
ATOM     23  O   LIG d   1      -2.577  79.934 113.484  0.00  0.00    -0.241 OA
ATOM     24  O   LIG d   1      -3.332  81.677 112.456  0.00  0.00    -0.241 OA
ENDBRANCH   3  22
TORSDOF 7
ENDMDL
MODEL 3
REMARK VINA RESULT:      -5.0      1.521      2.051
REMARK  7 active torsions:
REMARK  status: ('A' for Active; 'I' for Inactive)
REMARK    1  A    between atoms: C_2  and  C_3 
REMARK    2  A    between atoms: C_3  and  O_6 
REMARK    3  A    between atoms: C_3  and  C_4 
REMARK    4  A    between atoms: C_7  and  O_6 
REMARK    5  A    between atoms: C_9  and  C_10 
REMARK    6  A    between atoms: N_15  and  C_14 
REMARK    7  A    between atoms: N_20  and  C_19 
REMARK       I    between atoms: C_22  and  N_20 
ROOT
ATOM      1  C   LIG d   1       0.763  82.946 112.691  0.00  0.00     0.161 C 
ATOM      2  C   LIG d   1       1.842  83.400 111.915  0.00  0.00     0.016 C 
ATOM      3  C   LIG d   1       2.349  82.695 110.799  0.00  0.00     0.038 C 
ATOM      4  C   LIG d   1       1.709  81.556 110.288  0.00  0.00     0.028 C 
ATOM      5  C   LIG d   1       0.920  80.783 111.339  0.00  0.00    -0.047 C 
ATOM      6  C   LIG d   1      -0.018  81.762 112.083  0.00  0.00     0.091 C 
ENDROOT
BRANCH   1   7
ATOM      7  O   LIG d   1      -0.130  84.041 112.975  0.00  0.00    -0.368 OA
BRANCH   7   8
ATOM      8  C   LIG d   1      -0.073  84.578 114.320  0.00  0.00     0.119 C 
BRANCH   8   9
ATOM      9  C   LIG d   1       0.731  83.584 115.181  0.00  0.00     0.028 C 
ATOM     10  C   LIG d   1       1.970  84.232 115.822  0.00  0.00     0.006 C 
ENDBRANCH   8   9
BRANCH   8  11
ATOM     11  C   LIG d   1      -1.464  84.633 114.957  0.00  0.00     0.028 C 
ATOM     12  C   LIG d   1      -1.624  83.648 116.126  0.00  0.00     0.006 C 
ENDBRANCH   8  11
ENDBRANCH   7   8
ENDBRANCH   1   7
BRANCH   6  13
ATOM     13  N   LIG d   1      -0.766  81.103 113.185  0.00  0.00    -0.311 N 
ATOM     14  C   LIG d   1      -2.093  81.143 113.297  0.00  0.00     0.210 C 
ATOM     15  C   LIG d   1      -2.661  80.415 114.519  0.00  0.00     0.109 C 
ATOM     16  O   LIG d   1      -2.855  81.686 112.483  0.00  0.00    -0.276 OA
ATOM     17  H   LIG d   1      -0.228  80.614 113.873  0.00  0.00     0.149 HD
ENDBRANCH   6  13
BRANCH   5  18
ATOM     18  N   LIG d   1       0.194  79.702 110.645  0.00  0.00     0.381 N 
ATOM     19  H   LIG d   1      -0.676  80.049 110.293  0.00  0.00    -0.090 HD
ATOM     20  H   LIG d   1      -0.002  78.968 111.303  0.00  0.00    -0.090 HD
ATOM     21  H   LIG d   1       0.746  79.347 109.896  0.00  0.00    -0.090 HD
ENDBRANCH   5  18
BRANCH   3  22
ATOM     22  C   LIG d   1       3.532  83.108 110.205  0.00  0.00     0.382 C 
ATOM     23  O   LIG d   1       4.507  82.321 110.137  0.00  0.00    -0.241 OA
ATOM     24  O   LIG d   1       3.652  84.272 109.777  0.00  0.00    -0.241 OA
ENDBRANCH   3  22
TORSDOF 7
ENDMDL
MODEL 4
REMARK VINA RESULT:      -4.6      2.472      5.750
REMARK  7 active torsions:
REMARK  status: ('A' for Active; 'I' for Inactive)
REMARK    1  A    between atoms: C_2  and  C_3 
REMARK    2  A    between atoms: C_3  and  O_6 
REMARK    3  A    between atoms: C_3  and  C_4 
REMARK    4  A    between atoms: C_7  and  O_6 
REMARK    5  A    between atoms: C_9  and  C_10 
REMARK    6  A    between atoms: N_15  and  C_14 
REMARK    7  A    between atoms: N_20  and  C_19 
REMARK       I    between atoms: C_22  and  N_20 
ROOT
ATOM      1  C   LIG d   1      -1.972  80.909 114.083  0.00  0.00     0.161 C 
ATOM      2  C   LIG d   1      -2.387  79.681 114.623  0.00  0.00     0.016 C 
ATOM      3  C   LIG d   1      -2.140  78.435 114.002  0.00  0.00     0.038 C 
ATOM      4  C   LIG d   1      -1.325  78.321 112.866  0.00  0.00     0.028 C 
ATOM      5  C   LIG d   1      -1.307  79.579 112.005  0.00  0.00    -0.047 C 
ATOM      6  C   LIG d   1      -0.986  80.797 112.902  0.00  0.00     0.091 C 
ENDROOT
BRANCH   1   7
ATOM      7  O   LIG d   1      -1.416  81.738 115.123  0.00  0.00    -0.368 OA
BRANCH   7   8
ATOM      8  C   LIG d   1      -2.370  82.369 116.012  0.00  0.00     0.119 C 
BRANCH   8   9
ATOM      9  C   LIG d   1      -2.855  83.662 115.328  0.00  0.00     0.028 C 
ATOM     10  C   LIG d   1      -1.690  84.549 114.856  0.00  0.00     0.006 C 
ENDBRANCH   8   9
BRANCH   8  11
ATOM     11  C   LIG d   1      -1.701  82.825 117.313  0.00  0.00     0.028 C 
ATOM     12  C   LIG d   1      -2.632  82.715 118.531  0.00  0.00     0.006 C 
ENDBRANCH   8  11
ENDBRANCH   7   8
ENDBRANCH   1   7
BRANCH   6  13
ATOM     13  N   LIG d   1      -1.031  82.080 112.153  0.00  0.00    -0.311 N 
ATOM     14  C   LIG d   1       0.043  82.649 111.609  0.00  0.00     0.210 C 
ATOM     15  C   LIG d   1      -0.222  83.981 110.899  0.00  0.00     0.109 C 
ATOM     16  O   LIG d   1       1.183  82.163 111.619  0.00  0.00    -0.276 OA
ATOM     17  H   LIG d   1      -1.923  82.528 112.070  0.00  0.00     0.149 HD
ENDBRANCH   6  13
BRANCH   5  18
ATOM     18  N   LIG d   1      -0.314  79.372 110.934  0.00  0.00     0.381 N 
ATOM     19  H   LIG d   1      -0.193  80.219 110.416  0.00  0.00    -0.090 HD
ATOM     20  H   LIG d   1      -0.655  78.665 110.307  0.00  0.00    -0.090 HD
ATOM     21  H   LIG d   1       0.556  79.087 111.326  0.00  0.00    -0.090 HD
ENDBRANCH   5  18
BRANCH   3  22
ATOM     22  C   LIG d   1      -2.746  77.289 114.495  0.00  0.00     0.382 C 
ATOM     23  O   LIG d   1      -2.322  76.159 114.153  0.00  0.00    -0.241 OA
ATOM     24  O   LIG d   1      -3.739  77.371 115.243  0.00  0.00    -0.241 OA
ENDBRANCH   3  22
TORSDOF 7
ENDMDL
MODEL 5
REMARK VINA RESULT:      -4.2      2.338      5.667
REMARK  7 active torsions:
REMARK  status: ('A' for Active; 'I' for Inactive)
REMARK    1  A    between atoms: C_2  and  C_3 
REMARK    2  A    between atoms: C_3  and  O_6 
REMARK    3  A    between atoms: C_3  and  C_4 
REMARK    4  A    between atoms: C_7  and  O_6 
REMARK    5  A    between atoms: C_9  and  C_10 
REMARK    6  A    between atoms: N_15  and  C_14 
REMARK    7  A    between atoms: N_20  and  C_19 
REMARK       I    between atoms: C_22  and  N_20 
ROOT
ATOM      1  C   LIG d   1      -1.419  82.336 113.489  0.00  0.00     0.161 C 
ATOM      2  C   LIG d   1      -2.064  81.504 114.420  0.00  0.00     0.016 C 
ATOM      3  C   LIG d   1      -2.126  80.097 114.294  0.00  0.00     0.038 C 
ATOM      4  C   LIG d   1      -1.414  79.409 113.300  0.00  0.00     0.028 C 
ATOM      5  C   LIG d   1      -1.166  80.241 112.047  0.00  0.00    -0.047 C 
ATOM      6  C   LIG d   1      -0.542  81.595 112.458  0.00  0.00     0.091 C 
ENDROOT
BRANCH   1   7
ATOM      7  O   LIG d   1      -0.644  83.335 114.180  0.00  0.00    -0.368 OA
BRANCH   7   8
ATOM      8  C   LIG d   1      -0.254  83.012 115.537  0.00  0.00     0.119 C 
BRANCH   8   9
ATOM      9  C   LIG d   1      -0.598  84.227 116.420  0.00  0.00     0.028 C 
ATOM     10  C   LIG d   1      -0.432  83.929 117.920  0.00  0.00     0.006 C 
ENDBRANCH   8   9
BRANCH   8  11
ATOM     11  C   LIG d   1       1.264  82.841 115.655  0.00  0.00     0.028 C 
ATOM     12  C   LIG d   1       2.045  83.850 114.798  0.00  0.00     0.006 C 
ENDBRANCH   8  11
ENDBRANCH   7   8
ENDBRANCH   1   7
BRANCH   6  13
ATOM     13  N   LIG d   1      -0.345  82.504 111.299  0.00  0.00    -0.311 N 
ATOM     14  C   LIG d   1       0.847  82.966 110.924  0.00  0.00     0.210 C 
ATOM     15  C   LIG d   1       0.824  83.906 109.714  0.00  0.00     0.109 C 
ATOM     16  O   LIG d   1       1.923  82.661 111.458  0.00  0.00    -0.276 OA
ATOM     17  H   LIG d   1      -1.163  82.777 110.790  0.00  0.00     0.149 HD
ENDBRANCH   6  13
BRANCH   5  18
ATOM     18  N   LIG d   1      -0.297  79.453 111.152  0.00  0.00     0.381 N 
ATOM     19  H   LIG d   1       0.262  80.067 110.594  0.00  0.00    -0.090 HD
ATOM     20  H   LIG d   1      -0.874  78.906 110.538  0.00  0.00    -0.090 HD
ATOM     21  H   LIG d   1       0.290  78.853 111.689  0.00  0.00    -0.090 HD
ENDBRANCH   5  18
BRANCH   3  22
ATOM     22  C   LIG d   1      -2.941  79.366 115.145  0.00  0.00     0.382 C 
ATOM     23  O   LIG d   1      -3.026  78.121 115.017  0.00  0.00    -0.241 OA
ATOM     24  O   LIG d   1      -3.626  79.941 116.012  0.00  0.00    -0.241 OA
ENDBRANCH   3  22
TORSDOF 7
ENDMDL
MODEL 6
REMARK VINA RESULT:      -4.1      2.862      4.477
REMARK  7 active torsions:
REMARK  status: ('A' for Active; 'I' for Inactive)
REMARK    1  A    between atoms: C_2  and  C_3 
REMARK    2  A    between atoms: C_3  and  O_6 
REMARK    3  A    between atoms: C_3  and  C_4 
REMARK    4  A    between atoms: C_7  and  O_6 
REMARK    5  A    between atoms: C_9  and  C_10 
REMARK    6  A    between atoms: N_15  and  C_14 
REMARK    7  A    between atoms: N_20  and  C_19 
REMARK       I    between atoms: C_22  and  N_20 
ROOT
ATOM      1  C   LIG d   1       1.655  83.864 113.737  0.00  0.00     0.161 C 
ATOM      2  C   LIG d   1       2.867  84.199 114.363  0.00  0.00     0.016 C 
ATOM      3  C   LIG d   1       3.534  83.348 115.274  0.00  0.00     0.038 C 
ATOM      4  C   LIG d   1       3.108  82.032 115.506  0.00  0.00     0.028 C 
ATOM      5  C   LIG d   1       1.613  81.831 115.284  0.00  0.00    -0.047 C 
ATOM      6  C   LIG d   1       1.233  82.388 113.893  0.00  0.00     0.091 C 
ENDROOT
BRANCH   1   7
ATOM      7  O   LIG d   1       1.709  84.225 112.342  0.00  0.00    -0.368 OA
BRANCH   7   8
ATOM      8  C   LIG d   1       2.379  83.285 111.466  0.00  0.00     0.119 C 
BRANCH   8   9
ATOM      9  C   LIG d   1       3.590  84.011 110.848  0.00  0.00     0.028 C 
ATOM     10  C   LIG d   1       4.308  83.157 109.790  0.00  0.00     0.006 C 
ENDBRANCH   8   9
BRANCH   8  11
ATOM     11  C   LIG d   1       1.491  82.897 110.281  0.00  0.00     0.028 C 
ATOM     12  C   LIG d   1       0.170  83.683 110.244  0.00  0.00     0.006 C 
ENDBRANCH   8  11
ENDBRANCH   7   8
ENDBRANCH   1   7
BRANCH   6  13
ATOM     13  N   LIG d   1      -0.227  82.308 113.630  0.00  0.00    -0.311 N 
ATOM     14  C   LIG d   1      -0.798  81.306 112.962  0.00  0.00     0.210 C 
ATOM     15  C   LIG d   1      -2.315  81.428 112.785  0.00  0.00     0.109 C 
ATOM     16  O   LIG d   1      -0.196  80.312 112.529  0.00  0.00    -0.276 OA
ATOM     17  H   LIG d   1      -0.795  83.057 113.974  0.00  0.00     0.149 HD
ENDBRANCH   6  13
BRANCH   5  18
ATOM     18  N   LIG d   1       1.331  80.390 115.427  0.00  0.00     0.381 N 
ATOM     19  H   LIG d   1       0.459  80.171 114.987  0.00  0.00    -0.090 HD
ATOM     20  H   LIG d   1       1.256  80.169 116.404  0.00  0.00    -0.090 HD
ATOM     21  H   LIG d   1       2.063  79.857 115.013  0.00  0.00    -0.090 HD
ENDBRANCH   5  18
BRANCH   3  22
ATOM     22  C   LIG d   1       4.618  83.826 115.993  0.00  0.00     0.382 C 
ATOM     23  O   LIG d   1       4.482  84.135 117.202  0.00  0.00    -0.241 OA
ATOM     24  O   LIG d   1       5.720  83.995 115.438  0.00  0.00    -0.241 OA
ENDBRANCH   3  22
TORSDOF 7
ENDMDL
MODEL 7
REMARK VINA RESULT:      -4.1      3.398      6.134
REMARK  7 active torsions:
REMARK  status: ('A' for Active; 'I' for Inactive)
REMARK    1  A    between atoms: C_2  and  C_3 
REMARK    2  A    between atoms: C_3  and  O_6 
REMARK    3  A    between atoms: C_3  and  C_4 
REMARK    4  A    between atoms: C_7  and  O_6 
REMARK    5  A    between atoms: C_9  and  C_10 
REMARK    6  A    between atoms: N_15  and  C_14 
REMARK    7  A    between atoms: N_20  and  C_19 
REMARK       I    between atoms: C_22  and  N_20 
ROOT
ATOM      1  C   LIG d   1      -1.470  80.132 114.756  0.00  0.00     0.161 C 
ATOM      2  C   LIG d   1      -2.188  78.936 114.916  0.00  0.00     0.016 C 
ATOM      3  C   LIG d   1      -2.297  77.953 113.906  0.00  0.00     0.038 C 
ATOM      4  C   LIG d   1      -1.565  78.031 112.712  0.00  0.00     0.028 C 
ATOM      5  C   LIG d   1      -1.226  79.461 112.302  0.00  0.00    -0.047 C 
ATOM      6  C   LIG d   1      -0.572  80.185 113.501  0.00  0.00     0.091 C 
ENDROOT
BRANCH   1   7
ATOM      7  O   LIG d   1      -0.691  80.397 115.940  0.00  0.00    -0.368 OA
BRANCH   7   8
ATOM      8  C   LIG d   1      -1.163  81.476 116.784  0.00  0.00     0.119 C 
BRANCH   8   9
ATOM      9  C   LIG d   1      -1.839  80.839 118.014  0.00  0.00     0.028 C 
ATOM     10  C   LIG d   1      -2.158  81.872 119.108  0.00  0.00     0.006 C 
ENDBRANCH   8   9
BRANCH   8  11
ATOM     11  C   LIG d   1      -2.262  82.286 116.091  0.00  0.00     0.028 C 
ATOM     12  C   LIG d   1      -1.890  83.767 115.916  0.00  0.00     0.006 C 
ENDBRANCH   8  11
ENDBRANCH   7   8
ENDBRANCH   1   7
BRANCH   6  13
ATOM     13  N   LIG d   1      -0.286  81.614 113.213  0.00  0.00    -0.311 N 
ATOM     14  C   LIG d   1      -1.121  82.409 112.546  0.00  0.00     0.210 C 
ATOM     15  C   LIG d   1      -0.624  83.843 112.340  0.00  0.00     0.109 C 
ATOM     16  O   LIG d   1      -2.241  82.072 112.134  0.00  0.00    -0.276 OA
ATOM     17  H   LIG d   1       0.587  81.979 113.539  0.00  0.00     0.149 HD
ENDBRANCH   6  13
BRANCH   5  18
ATOM     18  N   LIG d   1      -0.346  79.389 111.121  0.00  0.00     0.381 N 
ATOM     19  H   LIG d   1       0.498  78.906 111.355  0.00  0.00    -0.090 HD
ATOM     20  H   LIG d   1      -0.106  80.323 110.837  0.00  0.00    -0.090 HD
ATOM     21  H   LIG d   1      -0.812  78.917 110.377  0.00  0.00    -0.090 HD
ENDBRANCH   5  18
BRANCH   3  22
ATOM     22  C   LIG d   1      -3.179  76.895 114.069  0.00  0.00     0.382 C 
ATOM     23  O   LIG d   1      -3.840  76.473 113.089  0.00  0.00    -0.241 OA
ATOM     24  O   LIG d   1      -3.354  76.386 115.192  0.00  0.00    -0.241 OA
ENDBRANCH   3  22
TORSDOF 7
ENDMDL
MODEL 8
REMARK VINA RESULT:      -4.1      2.444      5.110
REMARK  7 active torsions:
REMARK  status: ('A' for Active; 'I' for Inactive)
REMARK    1  A    between atoms: C_2  and  C_3 
REMARK    2  A    between atoms: C_3  and  O_6 
REMARK    3  A    between atoms: C_3  and  C_4 
REMARK    4  A    between atoms: C_7  and  O_6 
REMARK    5  A    between atoms: C_9  and  C_10 
REMARK    6  A    between atoms: N_15  and  C_14 
REMARK    7  A    between atoms: N_20  and  C_19 
REMARK       I    between atoms: C_22  and  N_20 
ROOT
ATOM      1  C   LIG d   1       1.919  82.571 112.893  0.00  0.00     0.161 C 
ATOM      2  C   LIG d   1       0.691  82.908 113.485  0.00  0.00     0.016 C 
ATOM      3  C   LIG d   1      -0.534  82.290 113.142  0.00  0.00     0.038 C 
ATOM      4  C   LIG d   1      -0.590  81.181 112.286  0.00  0.00     0.028 C 
ATOM      5  C   LIG d   1       0.556  81.133 111.281  0.00  0.00    -0.047 C 
ATOM      6  C   LIG d   1       1.894  81.287 112.038  0.00  0.00     0.091 C 
ENDROOT
BRANCH   1   7
ATOM      7  O   LIG d   1       2.941  82.479 113.906  0.00  0.00    -0.368 OA
BRANCH   7   8
ATOM      8  C   LIG d   1       2.474  82.349 115.271  0.00  0.00     0.119 C 
BRANCH   8   9
ATOM      9  C   LIG d   1       3.351  83.263 116.149  0.00  0.00     0.028 C 
ATOM     10  C   LIG d   1       3.966  84.427 115.354  0.00  0.00     0.006 C 
ENDBRANCH   8   9
BRANCH   8  11
ATOM     11  C   LIG d   1       2.704  80.932 115.806  0.00  0.00     0.028 C 
ATOM     12  C   LIG d   1       4.184  80.637 116.095  0.00  0.00     0.006 C 
ENDBRANCH   8  11
ENDBRANCH   7   8
ENDBRANCH   1   7
BRANCH   6  13
ATOM     13  N   LIG d   1       3.062  81.336 111.120  0.00  0.00    -0.311 N 
ATOM     14  C   LIG d   1       3.323  82.367 110.319  0.00  0.00     0.210 C 
ATOM     15  C   LIG d   1       4.566  82.204 109.439  0.00  0.00     0.109 C 
ATOM     16  O   LIG d   1       2.660  83.414 110.276  0.00  0.00    -0.276 OA
ATOM     17  H   LIG d   1       3.670  80.540 111.113  0.00  0.00     0.149 HD
ENDBRANCH   6  13
BRANCH   5  18
ATOM     18  N   LIG d   1       0.451  79.858 110.546  0.00  0.00     0.381 N 
ATOM     19  H   LIG d   1       0.196  80.035 109.595  0.00  0.00    -0.090 HD
ATOM     20  H   LIG d   1      -0.270  79.299 110.966  0.00  0.00    -0.090 HD
ATOM     21  H   LIG d   1       1.320  79.373 110.579  0.00  0.00    -0.090 HD
ENDBRANCH   5  18
BRANCH   3  22
ATOM     22  C   LIG d   1      -1.725  82.809 113.628  0.00  0.00     0.382 C 
ATOM     23  O   LIG d   1      -1.789  84.012 113.978  0.00  0.00    -0.241 OA
ATOM     24  O   LIG d   1      -2.724  82.077 113.762  0.00  0.00    -0.241 OA
ENDBRANCH   3  22
TORSDOF 7
ENDMDL
MODEL 9
REMARK VINA RESULT:      -3.9      2.168      3.145
REMARK  7 active torsions:
REMARK  status: ('A' for Active; 'I' for Inactive)
REMARK    1  A    between atoms: C_2  and  C_3 
REMARK    2  A    between atoms: C_3  and  O_6 
REMARK    3  A    between atoms: C_3  and  C_4 
REMARK    4  A    between atoms: C_7  and  O_6 
REMARK    5  A    between atoms: C_9  and  C_10 
REMARK    6  A    between atoms: N_15  and  C_14 
REMARK    7  A    between atoms: N_20  and  C_19 
REMARK       I    between atoms: C_22  and  N_20 
ROOT
ATOM      1  C   LIG d   1       0.335  81.390 113.838  0.00  0.00     0.161 C 
ATOM      2  C   LIG d   1       1.010  82.518 113.343  0.00  0.00     0.016 C 
ATOM      3  C   LIG d   1       1.307  82.709 111.974  0.00  0.00     0.038 C 
ATOM      4  C   LIG d   1       0.812  81.850 110.981  0.00  0.00     0.028 C 
ATOM      5  C   LIG d   1       0.557  80.432 111.480  0.00  0.00    -0.047 C 
ATOM      6  C   LIG d   1      -0.310  80.497 112.758  0.00  0.00     0.091 C 
ENDROOT
BRANCH   1   7
ATOM      7  O   LIG d   1      -0.652  81.797 114.807  0.00  0.00    -0.368 OA
BRANCH   7   8
ATOM      8  C   LIG d   1      -0.404  81.396 116.176  0.00  0.00     0.119 C 
BRANCH   8   9
ATOM      9  C   LIG d   1       0.927  80.618 116.198  0.00  0.00     0.028 C 
ATOM     10  C   LIG d   1       0.824  79.301 116.984  0.00  0.00     0.006 C 
ENDBRANCH   8   9
BRANCH   8  11
ATOM     11  C   LIG d   1      -1.462  80.402 116.667  0.00  0.00     0.028 C 
ATOM     12  C   LIG d   1      -2.830  80.611 115.998  0.00  0.00     0.006 C 
ENDBRANCH   8  11
ENDBRANCH   7   8
ENDBRANCH   1   7
BRANCH   6  13
ATOM     13  N   LIG d   1      -0.536  79.156 113.358  0.00  0.00    -0.311 N 
ATOM     14  C   LIG d   1      -1.655  78.455 113.187  0.00  0.00     0.210 C 
ATOM     15  C   LIG d   1      -1.690  77.105 113.910  0.00  0.00     0.109 C 
ATOM     16  O   LIG d   1      -2.610  78.809 112.478  0.00  0.00    -0.276 OA
ATOM     17  H   LIG d   1       0.200  78.780 113.923  0.00  0.00     0.149 HD
ENDBRANCH   6  13
BRANCH   5  18
ATOM     18  N   LIG d   1      -0.085  79.683 110.383  0.00  0.00     0.381 N 
ATOM     19  H   LIG d   1      -0.696  80.287 109.872  0.00  0.00    -0.090 HD
ATOM     20  H   LIG d   1      -0.633  78.938 110.776  0.00  0.00    -0.090 HD
ATOM     21  H   LIG d   1       0.609  79.308 109.774  0.00  0.00    -0.090 HD
ENDBRANCH   5  18
BRANCH   3  22
ATOM     22  C   LIG d   1       2.141  83.748 111.590  0.00  0.00     0.382 C 
ATOM     23  O   LIG d   1       2.398  84.676 112.395  0.00  0.00    -0.241 OA
ATOM     24  O   LIG d   1       2.604  83.792 110.435  0.00  0.00    -0.241 OA
ENDBRANCH   3  22
TORSDOF 7
ENDMDL
