MODEL 1
REMARK VINA RESULT:      -5.4      0.000      0.000
REMARK  7 active torsions:
REMARK  status: ('A' for Active; 'I' for Inactive)
REMARK    1  A    between atoms: C_2  and  C_3 
REMARK    2  A    between atoms: C_3  and  O_6 
REMARK    3  A    between atoms: C_3  and  C_4 
REMARK    4  A    between atoms: C_7  and  O_6 
REMARK    5  A    between atoms: C_9  and  C_10 
REMARK    6  A    between atoms: N_15  and  C_14 
REMARK    7  A    between atoms: N_20  and  C_19 
REMARK       I    between atoms: C_22  and  N_20 
ROOT
ATOM      1  C   LIG d   1       0.159  79.827 111.411  0.00  0.00     0.161 C 
ATOM      2  C   LIG d   1      -1.051  79.153 111.179  0.00  0.00     0.016 C 
ATOM      3  C   LIG d   1      -1.989  78.864 112.197  0.00  0.00     0.038 C 
ATOM      4  C   LIG d   1      -1.848  79.367 113.499  0.00  0.00     0.028 C 
ATOM      5  C   LIG d   1      -0.398  79.621 113.896  0.00  0.00    -0.047 C 
ATOM      6  C   LIG d   1       0.279  80.480 112.804  0.00  0.00     0.091 C 
ENDROOT
BRANCH   1   7
ATOM      7  O   LIG d   1       0.379  80.807 110.377  0.00  0.00    -0.368 OA
BRANCH   7   8
ATOM      8  C   LIG d   1       1.435  80.509 109.431  0.00  0.00     0.119 C 
BRANCH   8   9
ATOM      9  C   LIG d   1       2.099  79.192 109.878  0.00  0.00     0.028 C 
ATOM     10  C   LIG d   1       3.635  79.279 109.872  0.00  0.00     0.006 C 
ENDBRANCH   8   9
BRANCH   8  11
ATOM     11  C   LIG d   1       2.545  81.562 109.485  0.00  0.00     0.028 C 
ATOM     12  C   LIG d   1       2.001  82.997 109.583  0.00  0.00     0.006 C 
ENDBRANCH   8  11
ENDBRANCH   7   8
ENDBRANCH   1   7
BRANCH   6  13
ATOM     13  N   LIG d   1       1.723  80.704 113.073  0.00  0.00    -0.311 N 
ATOM     14  C   LIG d   1       2.269  81.914 113.186  0.00  0.00     0.210 C 
ATOM     15  C   LIG d   1       3.779  81.921 113.444  0.00  0.00     0.109 C 
ATOM     16  O   LIG d   1       1.640  82.981 113.129  0.00  0.00    -0.276 OA
ATOM     17  H   LIG d   1       2.302  79.892 113.164  0.00  0.00     0.149 HD
ENDBRANCH   6  13
BRANCH   5  18
ATOM     18  N   LIG d   1      -0.406  80.271 115.221  0.00  0.00     0.381 N 
ATOM     19  H   LIG d   1      -0.092  81.217 115.135  0.00  0.00    -0.090 HD
ATOM     20  H   LIG d   1       0.229  79.781 115.827  0.00  0.00    -0.090 HD
ATOM     21  H   LIG d   1      -1.325  80.251 115.604  0.00  0.00    -0.090 HD
ENDBRANCH   5  18
BRANCH   3  22
ATOM     22  C   LIG d   1      -3.064  78.031 111.926  0.00  0.00     0.382 C 
ATOM     23  O   LIG d   1      -3.283  77.653 110.749  0.00  0.00    -0.241 OA
ATOM     24  O   LIG d   1      -3.842  77.688 112.835  0.00  0.00    -0.241 OA
ENDBRANCH   3  22
TORSDOF 7
ENDMDL
MODEL 2
REMARK VINA RESULT:      -5.1      1.906      3.902
REMARK  7 active torsions:
REMARK  status: ('A' for Active; 'I' for Inactive)
REMARK    1  A    between atoms: C_2  and  C_3 
REMARK    2  A    between atoms: C_3  and  O_6 
REMARK    3  A    between atoms: C_3  and  C_4 
REMARK    4  A    between atoms: C_7  and  O_6 
REMARK    5  A    between atoms: C_9  and  C_10 
REMARK    6  A    between atoms: N_15  and  C_14 
REMARK    7  A    between atoms: N_20  and  C_19 
REMARK       I    between atoms: C_22  and  N_20 
ROOT
ATOM      1  C   LIG d   1      -0.763  80.517 112.096  0.00  0.00     0.161 C 
ATOM      2  C   LIG d   1      -1.826  79.707 112.530  0.00  0.00     0.016 C 
ATOM      3  C   LIG d   1      -2.093  78.424 112.000  0.00  0.00     0.038 C 
ATOM      4  C   LIG d   1      -1.219  77.796 111.101  0.00  0.00     0.028 C 
ATOM      5  C   LIG d   1      -0.410  78.777 110.258  0.00  0.00    -0.047 C 
ATOM      6  C   LIG d   1       0.266  79.804 111.195  0.00  0.00     0.091 C 
ENDROOT
BRANCH   1   7
ATOM      7  O   LIG d   1      -0.107  81.112 113.233  0.00  0.00    -0.368 OA
BRANCH   7   8
ATOM      8  C   LIG d   1       0.836  80.268 113.939  0.00  0.00     0.119 C 
BRANCH   8   9
ATOM      9  C   LIG d   1       0.319  80.102 115.381  0.00  0.00     0.028 C 
ATOM     10  C   LIG d   1      -0.260  78.701 115.640  0.00  0.00     0.006 C 
ENDBRANCH   8   9
BRANCH   8  11
ATOM     11  C   LIG d   1       2.201  80.948 114.073  0.00  0.00     0.028 C 
ATOM     12  C   LIG d   1       2.594  81.213 115.535  0.00  0.00     0.006 C 
ENDBRANCH   8  11
ENDBRANCH   7   8
ENDBRANCH   1   7
BRANCH   6  13
ATOM     13  N   LIG d   1       1.010  80.851 110.446  0.00  0.00    -0.311 N 
ATOM     14  C   LIG d   1       2.318  80.789 110.203  0.00  0.00     0.210 C 
ATOM     15  C   LIG d   1       2.889  81.983 109.431  0.00  0.00     0.109 C 
ATOM     16  O   LIG d   1       3.053  79.844 110.525  0.00  0.00    -0.276 OA
ATOM     17  H   LIG d   1       0.484  81.638 110.120  0.00  0.00     0.149 HD
ENDBRANCH   6  13
BRANCH   5  18
ATOM     18  N   LIG d   1       0.556  77.993 109.466  0.00  0.00     0.381 N 
ATOM     19  H   LIG d   1       1.313  77.699 110.049  0.00  0.00    -0.090 HD
ATOM     20  H   LIG d   1       0.927  78.576 108.736  0.00  0.00    -0.090 HD
ATOM     21  H   LIG d   1       0.105  77.198 109.069  0.00  0.00    -0.090 HD
ENDBRANCH   5  18
BRANCH   3  22
ATOM     22  C   LIG d   1      -3.268  77.771 112.341  0.00  0.00     0.382 C 
ATOM     23  O   LIG d   1      -3.296  77.010 113.338  0.00  0.00    -0.241 OA
ATOM     24  O   LIG d   1      -4.288  77.898 111.638  0.00  0.00    -0.241 OA
ENDBRANCH   3  22
TORSDOF 7
ENDMDL
MODEL 3
REMARK VINA RESULT:      -4.9      1.904      5.041
REMARK  7 active torsions:
REMARK  status: ('A' for Active; 'I' for Inactive)
REMARK    1  A    between atoms: C_2  and  C_3 
REMARK    2  A    between atoms: C_3  and  O_6 
REMARK    3  A    between atoms: C_3  and  C_4 
REMARK    4  A    between atoms: C_7  and  O_6 
REMARK    5  A    between atoms: C_9  and  C_10 
REMARK    6  A    between atoms: N_15  and  C_14 
REMARK    7  A    between atoms: N_20  and  C_19 
REMARK       I    between atoms: C_22  and  N_20 
ROOT
ATOM      1  C   LIG d   1      -0.151  81.072 111.973  0.00  0.00     0.161 C 
ATOM      2  C   LIG d   1       0.801  81.555 111.060  0.00  0.00     0.016 C 
ATOM      3  C   LIG d   1       2.176  81.682 111.363  0.00  0.00     0.038 C 
ATOM      4  C   LIG d   1       2.720  81.188 112.558  0.00  0.00     0.028 C 
ATOM      5  C   LIG d   1       1.722  81.154 113.710  0.00  0.00    -0.047 C 
ATOM      6  C   LIG d   1       0.441  80.425 113.243  0.00  0.00     0.091 C 
ENDROOT
BRANCH   1   7
ATOM      7  O   LIG d   1      -1.041  80.152 111.311  0.00  0.00    -0.368 OA
BRANCH   7   8
ATOM      8  C   LIG d   1      -0.520  78.822 111.071  0.00  0.00     0.119 C 
BRANCH   8   9
ATOM      9  C   LIG d   1      -0.088  78.754 109.593  0.00  0.00     0.028 C 
ATOM     10  C   LIG d   1       1.381  78.330 109.430  0.00  0.00     0.006 C 
ENDBRANCH   8   9
BRANCH   8  11
ATOM     11  C   LIG d   1      -1.612  77.759 111.223  0.00  0.00     0.028 C 
ATOM     12  C   LIG d   1      -2.965  78.352 111.647  0.00  0.00     0.006 C 
ENDBRANCH   8  11
ENDBRANCH   7   8
ENDBRANCH   1   7
BRANCH   6  13
ATOM     13  N   LIG d   1      -0.620  80.421 114.283  0.00  0.00    -0.311 N 
ATOM     14  C   LIG d   1      -1.119  79.308 114.817  0.00  0.00     0.210 C 
ATOM     15  C   LIG d   1      -2.221  79.528 115.859  0.00  0.00     0.109 C 
ATOM     16  O   LIG d   1      -0.731  78.160 114.551  0.00  0.00    -0.276 OA
ATOM     17  H   LIG d   1      -0.971  81.311 114.580  0.00  0.00     0.149 HD
ENDBRANCH   6  13
BRANCH   5  18
ATOM     18  N   LIG d   1       2.381  80.492 114.851  0.00  0.00     0.381 N 
ATOM     19  H   LIG d   1       3.298  80.871 114.979  0.00  0.00    -0.090 HD
ATOM     20  H   LIG d   1       2.469  79.511 114.651  0.00  0.00    -0.090 HD
ATOM     21  H   LIG d   1       1.841  80.622 115.679  0.00  0.00    -0.090 HD
ENDBRANCH   5  18
BRANCH   3  22
ATOM     22  C   LIG d   1       3.016  82.344 110.480  0.00  0.00     0.382 C 
ATOM     23  O   LIG d   1       2.800  83.546 110.192  0.00  0.00    -0.241 OA
ATOM     24  O   LIG d   1       3.960  81.743 109.935  0.00  0.00    -0.241 OA
ENDBRANCH   3  22
TORSDOF 7
ENDMDL
MODEL 4
REMARK VINA RESULT:      -4.7      2.415      6.246
REMARK  7 active torsions:
REMARK  status: ('A' for Active; 'I' for Inactive)
REMARK    1  A    between atoms: C_2  and  C_3 
REMARK    2  A    between atoms: C_3  and  O_6 
REMARK    3  A    between atoms: C_3  and  C_4 
REMARK    4  A    between atoms: C_7  and  O_6 
REMARK    5  A    between atoms: C_9  and  C_10 
REMARK    6  A    between atoms: N_15  and  C_14 
REMARK    7  A    between atoms: N_20  and  C_19 
REMARK       I    between atoms: C_22  and  N_20 
ROOT
ATOM      1  C   LIG d   1       0.732  80.283 113.458  0.00  0.00     0.161 C 
ATOM      2  C   LIG d   1       1.964  80.953 113.542  0.00  0.00     0.016 C 
ATOM      3  C   LIG d   1       2.582  81.586 112.440  0.00  0.00     0.038 C 
ATOM      4  C   LIG d   1       1.932  81.724 111.204  0.00  0.00     0.028 C 
ATOM      5  C   LIG d   1       0.908  80.627 110.932  0.00  0.00    -0.047 C 
ATOM      6  C   LIG d   1      -0.044  80.518 112.145  0.00  0.00     0.091 C 
ENDROOT
BRANCH   1   7
ATOM      7  O   LIG d   1      -0.089  80.625 114.593  0.00  0.00    -0.368 OA
BRANCH   7   8
ATOM      8  C   LIG d   1      -0.014  79.727 115.727  0.00  0.00     0.119 C 
BRANCH   8   9
ATOM      9  C   LIG d   1      -1.240  78.796 115.662  0.00  0.00     0.028 C 
ATOM     10  C   LIG d   1      -0.896  77.412 115.084  0.00  0.00     0.006 C 
ENDBRANCH   8   9
BRANCH   8  11
ATOM     11  C   LIG d   1      -0.152  80.487 117.050  0.00  0.00     0.028 C 
ATOM     12  C   LIG d   1       1.140  81.214 117.456  0.00  0.00     0.006 C 
ENDBRANCH   8  11
ENDBRANCH   7   8
ENDBRANCH   1   7
BRANCH   6  13
ATOM     13  N   LIG d   1      -1.025  79.412 111.998  0.00  0.00    -0.311 N 
ATOM     14  C   LIG d   1      -2.331  79.556 112.218  0.00  0.00     0.210 C 
ATOM     15  C   LIG d   1      -3.162  78.283 112.028  0.00  0.00     0.109 C 
ATOM     16  O   LIG d   1      -2.883  80.624 112.521  0.00  0.00    -0.276 OA
ATOM     17  H   LIG d   1      -0.667  78.518 111.724  0.00  0.00     0.149 HD
ENDBRANCH   6  13
BRANCH   5  18
ATOM     18  N   LIG d   1       0.211  80.970 109.678  0.00  0.00     0.381 N 
ATOM     19  H   LIG d   1      -0.753  81.159 109.868  0.00  0.00    -0.090 HD
ATOM     20  H   LIG d   1       0.261  80.184 109.054  0.00  0.00    -0.090 HD
ATOM     21  H   LIG d   1       0.637  81.766 109.258  0.00  0.00    -0.090 HD
ENDBRANCH   5  18
BRANCH   3  22
ATOM     22  C   LIG d   1       3.881  82.056 112.557  0.00  0.00     0.382 C 
ATOM     23  O   LIG d   1       4.689  81.480 113.325  0.00  0.00    -0.241 OA
ATOM     24  O   LIG d   1       4.243  83.075 111.939  0.00  0.00    -0.241 OA
ENDBRANCH   3  22
TORSDOF 7
ENDMDL
MODEL 5
REMARK VINA RESULT:      -4.7      2.121      2.739
REMARK  7 active torsions:
REMARK  status: ('A' for Active; 'I' for Inactive)
REMARK    1  A    between atoms: C_2  and  C_3 
REMARK    2  A    between atoms: C_3  and  O_6 
REMARK    3  A    between atoms: C_3  and  C_4 
REMARK    4  A    between atoms: C_7  and  O_6 
REMARK    5  A    between atoms: C_9  and  C_10 
REMARK    6  A    between atoms: N_15  and  C_14 
REMARK    7  A    between atoms: N_20  and  C_19 
REMARK       I    between atoms: C_22  and  N_20 
ROOT
ATOM      1  C   LIG d   1       1.054  81.213 112.721  0.00  0.00     0.161 C 
ATOM      2  C   LIG d   1      -0.314  81.174 112.400  0.00  0.00     0.016 C 
ATOM      3  C   LIG d   1      -1.299  80.633 113.258  0.00  0.00     0.038 C 
ATOM      4  C   LIG d   1      -1.000  80.228 114.567  0.00  0.00     0.028 C 
ATOM      5  C   LIG d   1       0.447  79.782 114.749  0.00  0.00    -0.047 C 
ATOM      6  C   LIG d   1       1.383  80.878 114.190  0.00  0.00     0.091 C 
ENDROOT
BRANCH   1   7
ATOM      7  O   LIG d   1       1.602  82.498 112.365  0.00  0.00    -0.368 OA
BRANCH   7   8
ATOM      8  C   LIG d   1       1.595  82.825 110.953  0.00  0.00     0.119 C 
BRANCH   8   9
ATOM      9  C   LIG d   1       3.022  82.597 110.418  0.00  0.00     0.028 C 
ATOM     10  C   LIG d   1       4.102  83.065 111.408  0.00  0.00     0.006 C 
ENDBRANCH   8   9
BRANCH   8  11
ATOM     11  C   LIG d   1       1.310  84.312 110.727  0.00  0.00     0.028 C 
ATOM     12  C   LIG d   1      -0.164  84.679 110.961  0.00  0.00     0.006 C 
ENDBRANCH   8  11
ENDBRANCH   7   8
ENDBRANCH   1   7
BRANCH   6  13
ATOM     13  N   LIG d   1       2.815  80.485 114.252  0.00  0.00    -0.311 N 
ATOM     14  C   LIG d   1       3.624  80.816 115.257  0.00  0.00     0.210 C 
ATOM     15  C   LIG d   1       5.068  80.326 115.112  0.00  0.00     0.109 C 
ATOM     16  O   LIG d   1       3.274  81.441 116.269  0.00  0.00    -0.276 OA
ATOM     17  H   LIG d   1       3.174  79.949 113.486  0.00  0.00     0.149 HD
ENDBRANCH   6  13
BRANCH   5  18
ATOM     18  N   LIG d   1       0.655  79.520 116.185  0.00  0.00     0.381 N 
ATOM     19  H   LIG d   1       1.623  79.634 116.413  0.00  0.00    -0.090 HD
ATOM     20  H   LIG d   1       0.395  78.570 116.383  0.00  0.00    -0.090 HD
ATOM     21  H   LIG d   1       0.102  80.144 116.730  0.00  0.00    -0.090 HD
ENDBRANCH   5  18
BRANCH   3  22
ATOM     22  C   LIG d   1      -2.593  80.456 112.792  0.00  0.00     0.382 C 
ATOM     23  O   LIG d   1      -3.009  79.303 112.522  0.00  0.00    -0.241 OA
ATOM     24  O   LIG d   1      -3.334  81.437 112.597  0.00  0.00    -0.241 OA
ENDBRANCH   3  22
TORSDOF 7
ENDMDL
MODEL 6
REMARK VINA RESULT:      -4.7      2.124      4.074
REMARK  7 active torsions:
REMARK  status: ('A' for Active; 'I' for Inactive)
REMARK    1  A    between atoms: C_2  and  C_3 
REMARK    2  A    between atoms: C_3  and  O_6 
REMARK    3  A    between atoms: C_3  and  C_4 
REMARK    4  A    between atoms: C_7  and  O_6 
REMARK    5  A    between atoms: C_9  and  C_10 
REMARK    6  A    between atoms: N_15  and  C_14 
REMARK    7  A    between atoms: N_20  and  C_19 
REMARK       I    between atoms: C_22  and  N_20 
ROOT
ATOM      1  C   LIG d   1      -1.233  80.504 113.054  0.00  0.00     0.161 C 
ATOM      2  C   LIG d   1      -2.298  79.629 112.781  0.00  0.00     0.016 C 
ATOM      3  C   LIG d   1      -2.264  78.658 111.755  0.00  0.00     0.038 C 
ATOM      4  C   LIG d   1      -1.096  78.392 111.024  0.00  0.00     0.028 C 
ATOM      5  C   LIG d   1      -0.159  79.591 110.923  0.00  0.00    -0.047 C 
ATOM      6  C   LIG d   1       0.090  80.154 112.341  0.00  0.00     0.091 C 
ENDROOT
BRANCH   1   7
ATOM      7  O   LIG d   1      -1.026  80.593 114.478  0.00  0.00    -0.368 OA
BRANCH   7   8
ATOM      8  C   LIG d   1      -0.126  79.614 115.054  0.00  0.00     0.119 C 
BRANCH   8   9
ATOM      9  C   LIG d   1      -0.990  78.546 115.752  0.00  0.00     0.028 C 
ATOM     10  C   LIG d   1      -0.809  77.149 115.135  0.00  0.00     0.006 C 
ENDBRANCH   8   9
BRANCH   8  11
ATOM     11  C   LIG d   1       0.732  80.231 116.162  0.00  0.00     0.028 C 
ATOM     12  C   LIG d   1       2.023  80.872 115.629  0.00  0.00     0.006 C 
ENDBRANCH   8  11
ENDBRANCH   7   8
ENDBRANCH   1   7
BRANCH   6  13
ATOM     13  N   LIG d   1       0.930  81.380 112.324  0.00  0.00    -0.311 N 
ATOM     14  C   LIG d   1       0.525  82.539 111.807  0.00  0.00     0.210 C 
ATOM     15  C   LIG d   1       1.554  83.672 111.875  0.00  0.00     0.109 C 
ATOM     16  O   LIG d   1      -0.600  82.745 111.329  0.00  0.00    -0.276 OA
ATOM     17  H   LIG d   1       1.847  81.310 112.721  0.00  0.00     0.149 HD
ENDBRANCH   6  13
BRANCH   5  18
ATOM     18  N   LIG d   1       1.076  79.136 110.257  0.00  0.00     0.381 N 
ATOM     19  H   LIG d   1       0.978  78.180 109.977  0.00  0.00    -0.090 HD
ATOM     20  H   LIG d   1       1.839  79.196 110.909  0.00  0.00    -0.090 HD
ATOM     21  H   LIG d   1       1.264  79.705 109.461  0.00  0.00    -0.090 HD
ENDBRANCH   5  18
BRANCH   3  22
ATOM     22  C   LIG d   1      -3.420  77.967 111.423  0.00  0.00     0.382 C 
ATOM     23  O   LIG d   1      -4.280  77.725 112.304  0.00  0.00    -0.241 OA
ATOM     24  O   LIG d   1      -3.593  77.545 110.264  0.00  0.00    -0.241 OA
ENDBRANCH   3  22
TORSDOF 7
ENDMDL
MODEL 7
REMARK VINA RESULT:      -4.7      1.868      2.567
REMARK  7 active torsions:
REMARK  status: ('A' for Active; 'I' for Inactive)
REMARK    1  A    between atoms: C_2  and  C_3 
REMARK    2  A    between atoms: C_3  and  O_6 
REMARK    3  A    between atoms: C_3  and  C_4 
REMARK    4  A    between atoms: C_7  and  O_6 
REMARK    5  A    between atoms: C_9  and  C_10 
REMARK    6  A    between atoms: N_15  and  C_14 
REMARK    7  A    between atoms: N_20  and  C_19 
REMARK       I    between atoms: C_22  and  N_20 
ROOT
ATOM      1  C   LIG d   1       0.050  80.232 112.961  0.00  0.00     0.161 C 
ATOM      2  C   LIG d   1      -1.000  79.742 112.166  0.00  0.00     0.016 C 
ATOM      3  C   LIG d   1      -1.991  78.856 112.646  0.00  0.00     0.038 C 
ATOM      4  C   LIG d   1      -2.087  78.514 114.003  0.00  0.00     0.028 C 
ATOM      5  C   LIG d   1      -0.754  78.582 114.740  0.00  0.00    -0.047 C 
ATOM      6  C   LIG d   1      -0.102  79.958 114.473  0.00  0.00     0.091 C 
ENDROOT
BRANCH   1   7
ATOM      7  O   LIG d   1       0.227  81.642 112.723  0.00  0.00    -0.368 OA
BRANCH   7   8
ATOM      8  C   LIG d   1       1.426  82.021 112.002  0.00  0.00     0.119 C 
BRANCH   8   9
ATOM      9  C   LIG d   1       1.007  82.383 110.564  0.00  0.00     0.028 C 
ATOM     10  C   LIG d   1       1.951  81.781 109.509  0.00  0.00     0.006 C 
ENDBRANCH   8   9
BRANCH   8  11
ATOM     11  C   LIG d   1       2.387  80.837 111.859  0.00  0.00     0.028 C 
ATOM     12  C   LIG d   1       3.694  81.032 112.644  0.00  0.00     0.006 C 
ENDBRANCH   8  11
ENDBRANCH   7   8
ENDBRANCH   1   7
BRANCH   6  13
ATOM     13  N   LIG d   1       1.245  80.077 115.089  0.00  0.00    -0.311 N 
ATOM     14  C   LIG d   1       1.467  80.676 116.257  0.00  0.00     0.210 C 
ATOM     15  C   LIG d   1       2.933  80.705 116.701  0.00  0.00     0.109 C 
ATOM     16  O   LIG d   1       0.585  81.157 116.984  0.00  0.00    -0.276 OA
ATOM     17  H   LIG d   1       2.015  79.686 114.581  0.00  0.00     0.149 HD
ENDBRANCH   6  13
BRANCH   5  18
ATOM     18  N   LIG d   1      -1.022  78.338 116.170  0.00  0.00     0.381 N 
ATOM     19  H   LIG d   1      -0.706  77.423 116.422  0.00  0.00    -0.090 HD
ATOM     20  H   LIG d   1      -2.013  78.383 116.327  0.00  0.00    -0.090 HD
ATOM     21  H   LIG d   1      -0.558  79.023 116.726  0.00  0.00    -0.090 HD
ENDBRANCH   5  18
BRANCH   3  22
ATOM     22  C   LIG d   1      -2.877  78.269 111.755  0.00  0.00     0.382 C 
ATOM     23  O   LIG d   1      -4.015  77.914 112.145  0.00  0.00    -0.241 OA
ATOM     24  O   LIG d   1      -2.536  78.049 110.577  0.00  0.00    -0.241 OA
ENDBRANCH   3  22
TORSDOF 7
ENDMDL
MODEL 8
REMARK VINA RESULT:      -4.6      1.818      2.721
REMARK  7 active torsions:
REMARK  status: ('A' for Active; 'I' for Inactive)
REMARK    1  A    between atoms: C_2  and  C_3 
REMARK    2  A    between atoms: C_3  and  O_6 
REMARK    3  A    between atoms: C_3  and  C_4 
REMARK    4  A    between atoms: C_7  and  O_6 
REMARK    5  A    between atoms: C_9  and  C_10 
REMARK    6  A    between atoms: N_15  and  C_14 
REMARK    7  A    between atoms: N_20  and  C_19 
REMARK       I    between atoms: C_22  and  N_20 
ROOT
ATOM      1  C   LIG d   1       1.900  80.668 112.072  0.00  0.00     0.161 C 
ATOM      2  C   LIG d   1       0.819  80.163 111.330  0.00  0.00     0.016 C 
ATOM      3  C   LIG d   1      -0.416  79.792 111.908  0.00  0.00     0.038 C 
ATOM      4  C   LIG d   1      -0.709  80.045 113.257  0.00  0.00     0.028 C 
ATOM      5  C   LIG d   1       0.528  80.087 114.148  0.00  0.00    -0.047 C 
ATOM      6  C   LIG d   1       1.561  81.055 113.527  0.00  0.00     0.091 C 
ENDROOT
BRANCH   1   7
ATOM      7  O   LIG d   1       2.487  81.788 111.380  0.00  0.00    -0.368 OA
BRANCH   7   8
ATOM      8  C   LIG d   1       2.015  83.100 111.774  0.00  0.00     0.119 C 
BRANCH   8   9
ATOM      9  C   LIG d   1       1.138  83.640 110.628  0.00  0.00     0.028 C 
ATOM     10  C   LIG d   1       1.970  84.270 109.499  0.00  0.00     0.006 C 
ENDBRANCH   8   9
BRANCH   8  11
ATOM     11  C   LIG d   1       3.173  84.094 111.901  0.00  0.00     0.028 C 
ATOM     12  C   LIG d   1       4.536  83.403 112.062  0.00  0.00     0.006 C 
ENDBRANCH   8  11
ENDBRANCH   7   8
ENDBRANCH   1   7
BRANCH   6  13
ATOM     13  N   LIG d   1       2.835  81.091 114.291  0.00  0.00    -0.311 N 
ATOM     14  C   LIG d   1       3.115  82.017 115.206  0.00  0.00     0.210 C 
ATOM     15  C   LIG d   1       4.493  81.882 115.862  0.00  0.00     0.109 C 
ATOM     16  O   LIG d   1       2.340  82.918 115.560  0.00  0.00    -0.276 OA
ATOM     17  H   LIG d   1       3.508  80.378 114.089  0.00  0.00     0.149 HD
ENDBRANCH   6  13
BRANCH   5  18
ATOM     18  N   LIG d   1       0.092  80.494 115.497  0.00  0.00     0.381 N 
ATOM     19  H   LIG d   1      -0.506  81.294 115.432  0.00  0.00    -0.090 HD
ATOM     20  H   LIG d   1       0.901  80.748 116.037  0.00  0.00    -0.090 HD
ATOM     21  H   LIG d   1      -0.390  79.744 115.940  0.00  0.00    -0.090 HD
ENDBRANCH   5  18
BRANCH   3  22
ATOM     22  C   LIG d   1      -1.360  79.125 111.143  0.00  0.00     0.382 C 
ATOM     23  O   LIG d   1      -1.080  78.767 109.974  0.00  0.00    -0.241 OA
ATOM     24  O   LIG d   1      -2.503  78.915 111.592  0.00  0.00    -0.241 OA
ENDBRANCH   3  22
TORSDOF 7
ENDMDL
MODEL 9
REMARK VINA RESULT:      -4.4      4.022      6.387
REMARK  7 active torsions:
REMARK  status: ('A' for Active; 'I' for Inactive)
REMARK    1  A    between atoms: C_2  and  C_3 
REMARK    2  A    between atoms: C_3  and  O_6 
REMARK    3  A    between atoms: C_3  and  C_4 
REMARK    4  A    between atoms: C_7  and  O_6 
REMARK    5  A    between atoms: C_9  and  C_10 
REMARK    6  A    between atoms: N_15  and  C_14 
REMARK    7  A    between atoms: N_20  and  C_19 
REMARK       I    between atoms: C_22  and  N_20 
ROOT
ATOM      1  C   LIG d   1      -0.271  78.982 114.735  0.00  0.00     0.161 C 
ATOM      2  C   LIG d   1      -0.795  80.157 114.171  0.00  0.00     0.016 C 
ATOM      3  C   LIG d   1      -2.073  80.230 113.571  0.00  0.00     0.038 C 
ATOM      4  C   LIG d   1      -2.981  79.163 113.628  0.00  0.00     0.028 C 
ATOM      5  C   LIG d   1      -2.307  77.799 113.741  0.00  0.00    -0.047 C 
ATOM      6  C   LIG d   1      -1.291  77.836 114.906  0.00  0.00     0.091 C 
ENDROOT
BRANCH   1   7
ATOM      7  O   LIG d   1       0.360  79.283 115.995  0.00  0.00    -0.368 OA
BRANCH   7   8
ATOM      8  C   LIG d   1      -0.338  80.222 116.849  0.00  0.00     0.119 C 
BRANCH   8   9
ATOM      9  C   LIG d   1       0.726  81.034 117.612  0.00  0.00     0.028 C 
ATOM     10  C   LIG d   1       0.112  82.176 118.439  0.00  0.00     0.006 C 
ENDBRANCH   8   9
BRANCH   8  11
ATOM     11  C   LIG d   1      -1.147  79.497 117.929  0.00  0.00     0.028 C 
ATOM     12  C   LIG d   1      -0.371  78.341 118.580  0.00  0.00     0.006 C 
ENDBRANCH   8  11
ENDBRANCH   7   8
ENDBRANCH   1   7
BRANCH   6  13
ATOM     13  N   LIG d   1      -0.527  76.568 115.031  0.00  0.00    -0.311 N 
ATOM     14  C   LIG d   1      -0.910  75.555 115.807  0.00  0.00     0.210 C 
ATOM     15  C   LIG d   1       0.034  74.348 115.807  0.00  0.00     0.109 C 
ATOM     16  O   LIG d   1      -1.958  75.529 116.469  0.00  0.00    -0.276 OA
ATOM     17  H   LIG d   1       0.321  76.492 114.504  0.00  0.00     0.149 HD
ENDBRANCH   6  13
BRANCH   5  18
ATOM     18  N   LIG d   1      -3.368  76.792 113.931  0.00  0.00     0.381 N 
ATOM     19  H   LIG d   1      -4.111  77.181 114.476  0.00  0.00    -0.090 HD
ATOM     20  H   LIG d   1      -2.986  76.009 114.431  0.00  0.00    -0.090 HD
ATOM     21  H   LIG d   1      -3.716  76.493 113.046  0.00  0.00    -0.090 HD
ENDBRANCH   5  18
BRANCH   3  22
ATOM     22  C   LIG d   1      -2.438  81.369 112.869  0.00  0.00     0.382 C 
ATOM     23  O   LIG d   1      -3.639  81.555 112.558  0.00  0.00    -0.241 OA
ATOM     24  O   LIG d   1      -1.575  82.190 112.504  0.00  0.00    -0.241 OA
ENDBRANCH   3  22
TORSDOF 7
ENDMDL
