MODEL 1
REMARK VINA RESULT:      -5.5      0.000      0.000
REMARK  7 active torsions:
REMARK  status: ('A' for Active; 'I' for Inactive)
REMARK    1  A    between atoms: C_2  and  C_3 
REMARK    2  A    between atoms: C_3  and  O_6 
REMARK    3  A    between atoms: C_3  and  C_4 
REMARK    4  A    between atoms: C_7  and  O_6 
REMARK    5  A    between atoms: C_9  and  C_10 
REMARK    6  A    between atoms: N_15  and  C_14 
REMARK    7  A    between atoms: N_20  and  C_19 
REMARK       I    between atoms: C_22  and  N_20 
ROOT
ATOM      1  C   LIG d   1       0.337  82.827 111.989  0.00  0.00     0.161 C 
ATOM      2  C   LIG d   1      -0.879  82.414 112.560  0.00  0.00     0.016 C 
ATOM      3  C   LIG d   1      -1.408  81.112 112.408  0.00  0.00     0.038 C 
ATOM      4  C   LIG d   1      -0.678  80.082 111.796  0.00  0.00     0.028 C 
ATOM      5  C   LIG d   1       0.330  80.583 110.767  0.00  0.00    -0.047 C 
ATOM      6  C   LIG d   1       1.200  81.685 111.412  0.00  0.00     0.091 C 
ENDROOT
BRANCH   1   7
ATOM      7  O   LIG d   1       1.093  83.591 112.950  0.00  0.00    -0.368 OA
BRANCH   7   8
ATOM      8  C   LIG d   1       1.222  83.007 114.269  0.00  0.00     0.119 C 
BRANCH   8   9
ATOM      9  C   LIG d   1       0.657  84.021 115.282  0.00  0.00     0.028 C 
ATOM     10  C   LIG d   1       0.088  83.341 116.538  0.00  0.00     0.006 C 
ENDBRANCH   8   9
BRANCH   8  11
ATOM     11  C   LIG d   1       2.693  82.824 114.656  0.00  0.00     0.028 C 
ATOM     12  C   LIG d   1       3.107  81.347 114.745  0.00  0.00     0.006 C 
ENDBRANCH   8  11
ENDBRANCH   7   8
ENDBRANCH   1   7
BRANCH   6  13
ATOM     13  N   LIG d   1       2.157  82.289 110.448  0.00  0.00    -0.311 N 
ATOM     14  C   LIG d   1       3.474  82.103 110.509  0.00  0.00     0.210 C 
ATOM     15  C   LIG d   1       4.281  82.832 109.430  0.00  0.00     0.109 C 
ATOM     16  O   LIG d   1       4.049  81.377 111.335  0.00  0.00    -0.276 OA
ATOM     17  H   LIG d   1       1.774  82.868 109.727  0.00  0.00     0.149 HD
ENDBRANCH   6  13
BRANCH   5  18
ATOM     18  N   LIG d   1       1.115  79.420 110.310  0.00  0.00     0.381 N 
ATOM     19  H   LIG d   1       1.075  79.356 109.312  0.00  0.00    -0.090 HD
ATOM     20  H   LIG d   1       0.713  78.584 110.696  0.00  0.00    -0.090 HD
ATOM     21  H   LIG d   1       2.061  79.510 110.607  0.00  0.00    -0.090 HD
ENDBRANCH   5  18
BRANCH   3  22
ATOM     22  C   LIG d   1      -2.698  80.840 112.836  0.00  0.00     0.382 C 
ATOM     23  O   LIG d   1      -3.615  81.672 112.632  0.00  0.00    -0.241 OA
ATOM     24  O   LIG d   1      -2.948  79.793 113.464  0.00  0.00    -0.241 OA
ENDBRANCH   3  22
TORSDOF 7
ENDMDL
MODEL 2
REMARK VINA RESULT:      -5.3      1.888      4.912
REMARK  7 active torsions:
REMARK  status: ('A' for Active; 'I' for Inactive)
REMARK    1  A    between atoms: C_2  and  C_3 
REMARK    2  A    between atoms: C_3  and  O_6 
REMARK    3  A    between atoms: C_3  and  C_4 
REMARK    4  A    between atoms: C_7  and  O_6 
REMARK    5  A    between atoms: C_9  and  C_10 
REMARK    6  A    between atoms: N_15  and  C_14 
REMARK    7  A    between atoms: N_20  and  C_19 
REMARK       I    between atoms: C_22  and  N_20 
ROOT
ATOM      1  C   LIG d   1       0.741  81.190 113.041  0.00  0.00     0.161 C 
ATOM      2  C   LIG d   1       1.695  82.128 112.614  0.00  0.00     0.016 C 
ATOM      3  C   LIG d   1       1.963  82.402 111.253  0.00  0.00     0.038 C 
ATOM      4  C   LIG d   1       1.183  81.860 110.221  0.00  0.00     0.028 C 
ATOM      5  C   LIG d   1       0.544  80.523 110.582  0.00  0.00    -0.047 C 
ATOM      6  C   LIG d   1      -0.197  80.670 111.931  0.00  0.00     0.091 C 
ENDROOT
BRANCH   1   7
ATOM      7  O   LIG d   1      -0.027  81.735 114.132  0.00  0.00    -0.368 OA
BRANCH   7   8
ATOM      8  C   LIG d   1      -1.078  82.664 113.769  0.00  0.00     0.119 C 
BRANCH   8   9
ATOM      9  C   LIG d   1      -0.588  84.080 114.129  0.00  0.00     0.028 C 
ATOM     10  C   LIG d   1       0.127  84.126 115.490  0.00  0.00     0.006 C 
ENDBRANCH   8   9
BRANCH   8  11
ATOM     11  C   LIG d   1      -2.335  82.443 114.616  0.00  0.00     0.028 C 
ATOM     12  C   LIG d   1      -2.203  81.251 115.577  0.00  0.00     0.006 C 
ENDBRANCH   8  11
ENDBRANCH   7   8
ENDBRANCH   1   7
BRANCH   6  13
ATOM     13  N   LIG d   1      -0.780  79.386 112.400  0.00  0.00    -0.311 N 
ATOM     14  C   LIG d   1      -2.090  79.174 112.513  0.00  0.00     0.210 C 
ATOM     15  C   LIG d   1      -2.478  77.786 113.034  0.00  0.00     0.109 C 
ATOM     16  O   LIG d   1      -2.968  79.991 112.200  0.00  0.00    -0.276 OA
ATOM     17  H   LIG d   1      -0.139  78.657 112.646  0.00  0.00     0.149 HD
ENDBRANCH   6  13
BRANCH   5  18
ATOM     18  N   LIG d   1      -0.349  80.141 109.472  0.00  0.00     0.381 N 
ATOM     19  H   LIG d   1      -1.259  79.927 109.827  0.00  0.00    -0.090 HD
ATOM     20  H   LIG d   1       0.018  79.318 109.028  0.00  0.00    -0.090 HD
ATOM     21  H   LIG d   1      -0.409  80.885 108.811  0.00  0.00    -0.090 HD
ENDBRANCH   5  18
BRANCH   3  22
ATOM     22  C   LIG d   1       3.047  83.195 110.912  0.00  0.00     0.382 C 
ATOM     23  O   LIG d   1       4.205  82.710 110.915  0.00  0.00    -0.241 OA
ATOM     24  O   LIG d   1       2.889  84.402 110.645  0.00  0.00    -0.241 OA
ENDBRANCH   3  22
TORSDOF 7
ENDMDL
MODEL 3
REMARK VINA RESULT:      -5.1      1.903      4.764
REMARK  7 active torsions:
REMARK  status: ('A' for Active; 'I' for Inactive)
REMARK    1  A    between atoms: C_2  and  C_3 
REMARK    2  A    between atoms: C_3  and  O_6 
REMARK    3  A    between atoms: C_3  and  C_4 
REMARK    4  A    between atoms: C_7  and  O_6 
REMARK    5  A    between atoms: C_9  and  C_10 
REMARK    6  A    between atoms: N_15  and  C_14 
REMARK    7  A    between atoms: N_20  and  C_19 
REMARK       I    between atoms: C_22  and  N_20 
ROOT
ATOM      1  C   LIG d   1       0.714  81.701 112.847  0.00  0.00     0.161 C 
ATOM      2  C   LIG d   1       1.635  82.621 112.318  0.00  0.00     0.016 C 
ATOM      3  C   LIG d   1       1.929  82.721 110.939  0.00  0.00     0.038 C 
ATOM      4  C   LIG d   1       1.206  82.006 109.972  0.00  0.00     0.028 C 
ATOM      5  C   LIG d   1       0.620  80.700 110.498  0.00  0.00    -0.047 C 
ATOM      6  C   LIG d   1      -0.165  80.990 111.798  0.00  0.00     0.091 C 
ENDROOT
BRANCH   1   7
ATOM      7  O   LIG d   1      -0.111  82.350 113.835  0.00  0.00    -0.368 OA
BRANCH   7   8
ATOM      8  C   LIG d   1       0.174  82.022 115.218  0.00  0.00     0.119 C 
BRANCH   8   9
ATOM      9  C   LIG d   1      -1.078  81.336 115.798  0.00  0.00     0.028 C 
ATOM     10  C   LIG d   1      -2.379  82.051 115.397  0.00  0.00     0.006 C 
ENDBRANCH   8   9
BRANCH   8  11
ATOM     11  C   LIG d   1       0.371  83.285 116.061  0.00  0.00     0.028 C 
ATOM     12  C   LIG d   1       0.377  84.570 115.217  0.00  0.00     0.006 C 
ENDBRANCH   8  11
ENDBRANCH   7   8
ENDBRANCH   1   7
BRANCH   6  13
ATOM     13  N   LIG d   1      -0.701  79.753 112.424  0.00  0.00    -0.311 N 
ATOM     14  C   LIG d   1      -1.997  79.548 112.651  0.00  0.00     0.210 C 
ATOM     15  C   LIG d   1      -2.333  78.214 113.325  0.00  0.00     0.109 C 
ATOM     16  O   LIG d   1      -2.904  80.331 112.329  0.00  0.00    -0.276 OA
ATOM     17  H   LIG d   1      -0.038  79.051 112.688  0.00  0.00     0.149 HD
ENDBRANCH   6  13
BRANCH   5  18
ATOM     18  N   LIG d   1      -0.220  80.126 109.430  0.00  0.00     0.381 N 
ATOM     19  H   LIG d   1       0.310  80.050 108.586  0.00  0.00    -0.090 HD
ATOM     20  H   LIG d   1      -0.996  80.743 109.261  0.00  0.00    -0.090 HD
ATOM     21  H   LIG d   1      -0.554  79.228 109.704  0.00  0.00    -0.090 HD
ENDBRANCH   5  18
BRANCH   3  22
ATOM     22  C   LIG d   1       2.985  83.515 110.517  0.00  0.00     0.382 C 
ATOM     23  O   LIG d   1       2.788  84.423 109.674  0.00  0.00    -0.241 OA
ATOM     24  O   LIG d   1       4.139  83.306 110.936  0.00  0.00    -0.241 OA
ENDBRANCH   3  22
TORSDOF 7
ENDMDL
MODEL 4
REMARK VINA RESULT:      -4.9      3.018      5.391
REMARK  7 active torsions:
REMARK  status: ('A' for Active; 'I' for Inactive)
REMARK    1  A    between atoms: C_2  and  C_3 
REMARK    2  A    between atoms: C_3  and  O_6 
REMARK    3  A    between atoms: C_3  and  C_4 
REMARK    4  A    between atoms: C_7  and  O_6 
REMARK    5  A    between atoms: C_9  and  C_10 
REMARK    6  A    between atoms: N_15  and  C_14 
REMARK    7  A    between atoms: N_20  and  C_19 
REMARK       I    between atoms: C_22  and  N_20 
ROOT
ATOM      1  C   LIG d   1      -1.949  80.972 114.295  0.00  0.00     0.161 C 
ATOM      2  C   LIG d   1      -1.734  82.316 113.948  0.00  0.00     0.016 C 
ATOM      3  C   LIG d   1      -1.043  82.718 112.782  0.00  0.00     0.038 C 
ATOM      4  C   LIG d   1      -0.647  81.797 111.800  0.00  0.00     0.028 C 
ATOM      5  C   LIG d   1      -0.396  80.397 112.349  0.00  0.00    -0.047 C 
ATOM      6  C   LIG d   1      -1.622  79.956 113.181  0.00  0.00     0.091 C 
ENDROOT
BRANCH   1   7
ATOM      7  O   LIG d   1      -3.304  80.796 114.752  0.00  0.00    -0.368 OA
BRANCH   7   8
ATOM      8  C   LIG d   1      -3.476  80.606 116.178  0.00  0.00     0.119 C 
BRANCH   8   9
ATOM      9  C   LIG d   1      -2.084  80.711 116.831  0.00  0.00     0.028 C 
ATOM     10  C   LIG d   1      -1.998  81.862 117.847  0.00  0.00     0.006 C 
ENDBRANCH   8   9
BRANCH   8  11
ATOM     11  C   LIG d   1      -3.967  79.190 116.497  0.00  0.00     0.028 C 
ATOM     12  C   LIG d   1      -2.932  78.361 117.274  0.00  0.00     0.006 C 
ENDBRANCH   8  11
ENDBRANCH   7   8
ENDBRANCH   1   7
BRANCH   6  13
ATOM     13  N   LIG d   1      -1.424  78.631 113.824  0.00  0.00    -0.311 N 
ATOM     14  C   LIG d   1      -2.204  77.578 113.589  0.00  0.00     0.210 C 
ATOM     15  C   LIG d   1      -1.837  76.313 114.372  0.00  0.00     0.109 C 
ATOM     16  O   LIG d   1      -3.146  77.561 112.782  0.00  0.00    -0.276 OA
ATOM     17  H   LIG d   1      -0.663  78.547 114.470  0.00  0.00     0.149 HD
ENDBRANCH   6  13
BRANCH   5  18
ATOM     18  N   LIG d   1      -0.126  79.510 111.202  0.00  0.00     0.381 N 
ATOM     19  H   LIG d   1      -0.672  78.675 111.283  0.00  0.00    -0.090 HD
ATOM     20  H   LIG d   1       0.846  79.253 111.211  0.00  0.00    -0.090 HD
ATOM     21  H   LIG d   1      -0.346  79.978 110.350  0.00  0.00    -0.090 HD
ENDBRANCH   5  18
BRANCH   3  22
ATOM     22  C   LIG d   1      -0.705  84.051 112.608  0.00  0.00     0.382 C 
ATOM     23  O   LIG d   1      -1.024  84.646 111.550  0.00  0.00    -0.241 OA
ATOM     24  O   LIG d   1      -0.047  84.655 113.477  0.00  0.00    -0.241 OA
ENDBRANCH   3  22
TORSDOF 7
ENDMDL
MODEL 5
REMARK VINA RESULT:      -4.9      2.494      4.545
REMARK  7 active torsions:
REMARK  status: ('A' for Active; 'I' for Inactive)
REMARK    1  A    between atoms: C_2  and  C_3 
REMARK    2  A    between atoms: C_3  and  O_6 
REMARK    3  A    between atoms: C_3  and  C_4 
REMARK    4  A    between atoms: C_7  and  O_6 
REMARK    5  A    between atoms: C_9  and  C_10 
REMARK    6  A    between atoms: N_15  and  C_14 
REMARK    7  A    between atoms: N_20  and  C_19 
REMARK       I    between atoms: C_22  and  N_20 
ROOT
ATOM      1  C   LIG d   1       0.357  80.874 113.501  0.00  0.00     0.161 C 
ATOM      2  C   LIG d   1      -0.986  81.208 113.264  0.00  0.00     0.016 C 
ATOM      3  C   LIG d   1      -1.742  82.046 114.115  0.00  0.00     0.038 C 
ATOM      4  C   LIG d   1      -1.157  82.734 115.189  0.00  0.00     0.028 C 
ATOM      5  C   LIG d   1       0.071  82.032 115.761  0.00  0.00    -0.047 C 
ATOM      6  C   LIG d   1       1.044  81.704 114.606  0.00  0.00     0.091 C 
ENDROOT
BRANCH   1   7
ATOM      7  O   LIG d   1       1.106  80.958 112.273  0.00  0.00    -0.368 OA
BRANCH   7   8
ATOM      8  C   LIG d   1       0.353  81.329 111.092  0.00  0.00     0.119 C 
BRANCH   8   9
ATOM      9  C   LIG d   1       0.628  80.262 110.014  0.00  0.00     0.028 C 
ATOM     10  C   LIG d   1       2.123  80.146 109.670  0.00  0.00     0.006 C 
ENDBRANCH   8   9
BRANCH   8  11
ATOM     11  C   LIG d   1       0.861  82.646 110.497  0.00  0.00     0.028 C 
ATOM     12  C   LIG d   1      -0.122  83.809 110.700  0.00  0.00     0.006 C 
ENDBRANCH   8  11
ENDBRANCH   7   8
ENDBRANCH   1   7
BRANCH   6  13
ATOM     13  N   LIG d   1       2.234  80.941 115.068  0.00  0.00    -0.311 N 
ATOM     14  C   LIG d   1       3.475  81.422 115.027  0.00  0.00     0.210 C 
ATOM     15  C   LIG d   1       4.557  80.464 115.533  0.00  0.00     0.109 C 
ATOM     16  O   LIG d   1       3.778  82.564 114.649  0.00  0.00    -0.276 OA
ATOM     17  H   LIG d   1       2.075  80.017 115.419  0.00  0.00     0.149 HD
ENDBRANCH   6  13
BRANCH   5  18
ATOM     18  N   LIG d   1       0.660  82.923 116.778  0.00  0.00     0.381 N 
ATOM     19  H   LIG d   1       0.484  82.556 117.692  0.00  0.00    -0.090 HD
ATOM     20  H   LIG d   1       0.223  83.826 116.712  0.00  0.00    -0.090 HD
ATOM     21  H   LIG d   1       1.641  83.009 116.629  0.00  0.00    -0.090 HD
ENDBRANCH   5  18
BRANCH   3  22
ATOM     22  C   LIG d   1      -3.109  82.172 113.920  0.00  0.00     0.382 C 
ATOM     23  O   LIG d   1      -3.816  82.741 114.785  0.00  0.00    -0.241 OA
ATOM     24  O   LIG d   1      -3.650  81.684 112.909  0.00  0.00    -0.241 OA
ENDBRANCH   3  22
TORSDOF 7
ENDMDL
MODEL 6
REMARK VINA RESULT:      -4.9      3.592      5.480
REMARK  7 active torsions:
REMARK  status: ('A' for Active; 'I' for Inactive)
REMARK    1  A    between atoms: C_2  and  C_3 
REMARK    2  A    between atoms: C_3  and  O_6 
REMARK    3  A    between atoms: C_3  and  C_4 
REMARK    4  A    between atoms: C_7  and  O_6 
REMARK    5  A    between atoms: C_9  and  C_10 
REMARK    6  A    between atoms: N_15  and  C_14 
REMARK    7  A    between atoms: N_20  and  C_19 
REMARK       I    between atoms: C_22  and  N_20 
ROOT
ATOM      1  C   LIG d   1      -0.519  80.123 115.127  0.00  0.00     0.161 C 
ATOM      2  C   LIG d   1      -0.667  81.364 114.487  0.00  0.00     0.016 C 
ATOM      3  C   LIG d   1      -1.369  81.535 113.272  0.00  0.00     0.038 C 
ATOM      4  C   LIG d   1      -2.105  80.493 112.689  0.00  0.00     0.028 C 
ATOM      5  C   LIG d   1      -1.569  79.107 113.031  0.00  0.00    -0.047 C 
ATOM      6  C   LIG d   1      -1.410  78.995 114.564  0.00  0.00     0.091 C 
ENDROOT
BRANCH   1   7
ATOM      7  O   LIG d   1      -0.739  80.274 116.544  0.00  0.00    -0.368 OA
BRANCH   7   8
ATOM      8  C   LIG d   1      -1.431  81.478 116.956  0.00  0.00     0.119 C 
BRANCH   8   9
ATOM      9  C   LIG d   1      -0.642  82.085 118.134  0.00  0.00     0.028 C 
ATOM     10  C   LIG d   1       0.474  83.033 117.666  0.00  0.00     0.006 C 
ENDBRANCH   8   9
BRANCH   8  11
ATOM     11  C   LIG d   1      -2.819  81.159 117.520  0.00  0.00     0.028 C 
ATOM     12  C   LIG d   1      -3.936  81.322 116.478  0.00  0.00     0.006 C 
ENDBRANCH   8  11
ENDBRANCH   7   8
ENDBRANCH   1   7
BRANCH   6  13
ATOM     13  N   LIG d   1      -0.810  77.700 114.978  0.00  0.00    -0.311 N 
ATOM     14  C   LIG d   1      -1.533  76.631 115.310  0.00  0.00     0.210 C 
ATOM     15  C   LIG d   1      -0.716  75.403 115.726  0.00  0.00     0.109 C 
ATOM     16  O   LIG d   1      -2.771  76.573 115.268  0.00  0.00    -0.276 OA
ATOM     17  H   LIG d   1       0.189  77.649 115.010  0.00  0.00     0.149 HD
ENDBRANCH   6  13
BRANCH   5  18
ATOM     18  N   LIG d   1      -2.508  78.116 112.473  0.00  0.00     0.381 N 
ATOM     19  H   LIG d   1      -2.310  77.969 111.504  0.00  0.00    -0.090 HD
ATOM     20  H   LIG d   1      -3.444  78.474 112.553  0.00  0.00    -0.090 HD
ATOM     21  H   LIG d   1      -2.431  77.255 112.969  0.00  0.00    -0.090 HD
ENDBRANCH   5  18
BRANCH   3  22
ATOM     22  C   LIG d   1      -1.306  82.750 112.607  0.00  0.00     0.382 C 
ATOM     23  O   LIG d   1      -1.197  82.775 111.357  0.00  0.00    -0.241 OA
ATOM     24  O   LIG d   1      -1.311  83.820 113.244  0.00  0.00    -0.241 OA
ENDBRANCH   3  22
TORSDOF 7
ENDMDL
MODEL 7
REMARK VINA RESULT:      -4.8      4.250      6.568
REMARK  7 active torsions:
REMARK  status: ('A' for Active; 'I' for Inactive)
REMARK    1  A    between atoms: C_2  and  C_3 
REMARK    2  A    between atoms: C_3  and  O_6 
REMARK    3  A    between atoms: C_3  and  C_4 
REMARK    4  A    between atoms: C_7  and  O_6 
REMARK    5  A    between atoms: C_9  and  C_10 
REMARK    6  A    between atoms: N_15  and  C_14 
REMARK    7  A    between atoms: N_20  and  C_19 
REMARK       I    between atoms: C_22  and  N_20 
ROOT
ATOM      1  C   LIG d   1      -2.891  79.458 115.598  0.00  0.00     0.161 C 
ATOM      2  C   LIG d   1      -2.758  80.705 114.964  0.00  0.00     0.016 C 
ATOM      3  C   LIG d   1      -2.316  80.856 113.630  0.00  0.00     0.038 C 
ATOM      4  C   LIG d   1      -2.120  79.754 112.784  0.00  0.00     0.028 C 
ATOM      5  C   LIG d   1      -1.756  78.475 113.531  0.00  0.00    -0.047 C 
ATOM      6  C   LIG d   1      -2.789  78.240 114.657  0.00  0.00     0.091 C 
ENDROOT
BRANCH   1   7
ATOM      7  O   LIG d   1      -4.127  79.416 116.339  0.00  0.00    -0.368 OA
BRANCH   7   8
ATOM      8  C   LIG d   1      -4.008  79.473 117.782  0.00  0.00     0.119 C 
BRANCH   8   9
ATOM      9  C   LIG d   1      -4.163  80.947 118.202  0.00  0.00     0.028 C 
ATOM     10  C   LIG d   1      -2.863  81.534 118.776  0.00  0.00     0.006 C 
ENDBRANCH   8   9
BRANCH   8  11
ATOM     11  C   LIG d   1      -2.604  79.066 118.241  0.00  0.00     0.028 C 
ATOM     12  C   LIG d   1      -2.597  77.759 119.048  0.00  0.00     0.006 C 
ENDBRANCH   8  11
ENDBRANCH   7   8
ENDBRANCH   1   7
BRANCH   6  13
ATOM     13  N   LIG d   1      -2.459  77.054 115.490  0.00  0.00    -0.311 N 
ATOM     14  C   LIG d   1      -2.898  75.826 115.223  0.00  0.00     0.210 C 
ATOM     15  C   LIG d   1      -2.457  74.750 116.221  0.00  0.00     0.109 C 
ATOM     16  O   LIG d   1      -3.585  75.519 114.237  0.00  0.00    -0.276 OA
ATOM     17  H   LIG d   1      -1.881  77.208 116.293  0.00  0.00     0.149 HD
ENDBRANCH   6  13
BRANCH   5  18
ATOM     18  N   LIG d   1      -1.717  77.379 112.544  0.00  0.00     0.381 N 
ATOM     19  H   LIG d   1      -0.773  77.217 112.256  0.00  0.00    -0.090 HD
ATOM     20  H   LIG d   1      -2.252  77.649 111.737  0.00  0.00    -0.090 HD
ATOM     21  H   LIG d   1      -2.097  76.549 112.942  0.00  0.00    -0.090 HD
ENDBRANCH   5  18
BRANCH   3  22
ATOM     22  C   LIG d   1      -2.027  82.121 113.141  0.00  0.00     0.382 C 
ATOM     23  O   LIG d   1      -1.735  82.274 111.930  0.00  0.00    -0.241 OA
ATOM     24  O   LIG d   1      -2.011  83.105 113.904  0.00  0.00    -0.241 OA
ENDBRANCH   3  22
TORSDOF 7
ENDMDL
MODEL 8
REMARK VINA RESULT:      -4.7      2.487      4.215
REMARK  7 active torsions:
REMARK  status: ('A' for Active; 'I' for Inactive)
REMARK    1  A    between atoms: C_2  and  C_3 
REMARK    2  A    between atoms: C_3  and  O_6 
REMARK    3  A    between atoms: C_3  and  C_4 
REMARK    4  A    between atoms: C_7  and  O_6 
REMARK    5  A    between atoms: C_9  and  C_10 
REMARK    6  A    between atoms: N_15  and  C_14 
REMARK    7  A    between atoms: N_20  and  C_19 
REMARK       I    between atoms: C_22  and  N_20 
ROOT
ATOM      1  C   LIG d   1       1.027  81.415 112.923  0.00  0.00     0.161 C 
ATOM      2  C   LIG d   1      -0.314  81.401 112.504  0.00  0.00     0.016 C 
ATOM      3  C   LIG d   1      -1.402  81.189 113.383  0.00  0.00     0.038 C 
ATOM      4  C   LIG d   1      -1.230  81.126 114.774  0.00  0.00     0.028 C 
ATOM      5  C   LIG d   1       0.151  80.630 115.191  0.00  0.00    -0.047 C 
ATOM      6  C   LIG d   1       1.226  81.458 114.453  0.00  0.00     0.091 C 
ENDROOT
BRANCH   1   7
ATOM      7  O   LIG d   1       1.723  82.509 112.295  0.00  0.00    -0.368 OA
BRANCH   7   8
ATOM      8  C   LIG d   1       2.904  82.160 111.532  0.00  0.00     0.119 C 
BRANCH   8   9
ATOM      9  C   LIG d   1       3.422  83.448 110.864  0.00  0.00     0.028 C 
ATOM     10  C   LIG d   1       2.364  84.109 109.966  0.00  0.00     0.006 C 
ENDBRANCH   8   9
BRANCH   8  11
ATOM     11  C   LIG d   1       2.562  81.214 110.378  0.00  0.00     0.028 C 
ATOM     12  C   LIG d   1       3.809  80.629 109.696  0.00  0.00     0.006 C 
ENDBRANCH   8  11
ENDBRANCH   7   8
ENDBRANCH   1   7
BRANCH   6  13
ATOM     13  N   LIG d   1       2.605  80.983 114.740  0.00  0.00    -0.311 N 
ATOM     14  C   LIG d   1       3.360  81.475 115.720  0.00  0.00     0.210 C 
ATOM     15  C   LIG d   1       4.758  80.858 115.831  0.00  0.00     0.109 C 
ATOM     16  O   LIG d   1       2.994  82.341 116.529  0.00  0.00    -0.276 OA
ATOM     17  H   LIG d   1       2.969  80.259 114.152  0.00  0.00     0.149 HD
ENDBRANCH   6  13
BRANCH   5  18
ATOM     18  N   LIG d   1       0.240  80.745 116.659  0.00  0.00     0.381 N 
ATOM     19  H   LIG d   1      -0.677  80.850 117.047  0.00  0.00    -0.090 HD
ATOM     20  H   LIG d   1       0.775  81.563 116.890  0.00  0.00    -0.090 HD
ATOM     21  H   LIG d   1       0.678  79.934 117.039  0.00  0.00    -0.090 HD
ENDBRANCH   5  18
BRANCH   3  22
ATOM     22  C   LIG d   1      -2.674  80.997 112.867  0.00  0.00     0.382 C 
ATOM     23  O   LIG d   1      -2.964  79.918 112.297  0.00  0.00    -0.241 OA
ATOM     24  O   LIG d   1      -3.523  81.907 112.925  0.00  0.00    -0.241 OA
ENDBRANCH   3  22
TORSDOF 7
ENDMDL
MODEL 9
REMARK VINA RESULT:      -4.5      5.195      7.535
REMARK  7 active torsions:
REMARK  status: ('A' for Active; 'I' for Inactive)
REMARK    1  A    between atoms: C_2  and  C_3 
REMARK    2  A    between atoms: C_3  and  O_6 
REMARK    3  A    between atoms: C_3  and  C_4 
REMARK    4  A    between atoms: C_7  and  O_6 
REMARK    5  A    between atoms: C_9  and  C_10 
REMARK    6  A    between atoms: N_15  and  C_14 
REMARK    7  A    between atoms: N_20  and  C_19 
REMARK       I    between atoms: C_22  and  N_20 
ROOT
ATOM      1  C   LIG d   1      -2.234  78.424 115.280  0.00  0.00     0.161 C 
ATOM      2  C   LIG d   1      -2.199  79.214 114.119  0.00  0.00     0.016 C 
ATOM      3  C   LIG d   1      -2.577  80.576 114.093  0.00  0.00     0.038 C 
ATOM      4  C   LIG d   1      -2.874  81.286 115.266  0.00  0.00     0.028 C 
ATOM      5  C   LIG d   1      -3.410  80.404 116.388  0.00  0.00    -0.047 C 
ATOM      6  C   LIG d   1      -2.449  79.210 116.591  0.00  0.00     0.091 C 
ENDROOT
BRANCH   1   7
ATOM      7  O   LIG d   1      -1.037  77.627 115.365  0.00  0.00    -0.368 OA
BRANCH   7   8
ATOM      8  C   LIG d   1      -1.190  76.214 115.082  0.00  0.00     0.119 C 
BRANCH   8   9
ATOM      9  C   LIG d   1      -2.700  75.919 115.003  0.00  0.00     0.028 C 
ATOM     10  C   LIG d   1      -3.122  74.767 115.930  0.00  0.00     0.006 C 
ENDBRANCH   8   9
BRANCH   8  11
ATOM     11  C   LIG d   1      -0.668  75.354 116.236  0.00  0.00     0.028 C 
ATOM     12  C   LIG d   1       0.084  76.173 117.297  0.00  0.00     0.006 C 
ENDBRANCH   8  11
ENDBRANCH   7   8
ENDBRANCH   1   7
BRANCH   6  13
ATOM     13  N   LIG d   1      -2.943  78.252 117.614  0.00  0.00    -0.311 N 
ATOM     14  C   LIG d   1      -2.575  78.291 118.893  0.00  0.00     0.210 C 
ATOM     15  C   LIG d   1      -3.187  77.199 119.776  0.00  0.00     0.109 C 
ATOM     16  O   LIG d   1      -1.825  79.147 119.388  0.00  0.00    -0.276 OA
ATOM     17  H   LIG d   1      -3.580  77.544 117.306  0.00  0.00     0.149 HD
ENDBRANCH   6  13
BRANCH   5  18
ATOM     18  N   LIG d   1      -3.547  81.247 117.591  0.00  0.00     0.381 N 
ATOM     19  H   LIG d   1      -3.433  82.210 117.344  0.00  0.00    -0.090 HD
ATOM     20  H   LIG d   1      -2.824  81.001 118.244  0.00  0.00    -0.090 HD
ATOM     21  H   LIG d   1      -4.442  81.107 118.006  0.00  0.00    -0.090 HD
ENDBRANCH   5  18
BRANCH   3  22
ATOM     22  C   LIG d   1      -2.699  81.232 112.877  0.00  0.00     0.382 C 
ATOM     23  O   LIG d   1      -3.817  81.665 112.508  0.00  0.00    -0.241 OA
ATOM     24  O   LIG d   1      -1.714  81.357 112.125  0.00  0.00    -0.241 OA
ENDBRANCH   3  22
TORSDOF 7
ENDMDL
