MODEL 1
REMARK VINA RESULT:      -5.0      0.000      0.000
REMARK  7 active torsions:
REMARK  status: ('A' for Active; 'I' for Inactive)
REMARK    1  A    between atoms: C_2  and  C_3 
REMARK    2  A    between atoms: C_3  and  O_6 
REMARK    3  A    between atoms: C_3  and  C_4 
REMARK    4  A    between atoms: C_7  and  O_6 
REMARK    5  A    between atoms: C_9  and  C_10 
REMARK    6  A    between atoms: N_15  and  C_14 
REMARK    7  A    between atoms: N_20  and  C_19 
REMARK       I    between atoms: C_22  and  N_20 
ROOT
ATOM      1  C   LIG d   1      -2.476  78.399 115.132  0.00  0.00     0.161 C 
ATOM      2  C   LIG d   1      -2.859  79.589 114.492  0.00  0.00     0.016 C 
ATOM      3  C   LIG d   1      -2.704  79.812 113.104  0.00  0.00     0.038 C 
ATOM      4  C   LIG d   1      -2.294  78.793 112.231  0.00  0.00     0.028 C 
ATOM      5  C   LIG d   1      -1.420  77.738 112.901  0.00  0.00    -0.047 C 
ATOM      6  C   LIG d   1      -2.129  77.235 114.179  0.00  0.00     0.091 C 
ENDROOT
BRANCH   1   7
ATOM      7  O   LIG d   1      -3.498  77.995 116.064  0.00  0.00    -0.368 OA
BRANCH   7   8
ATOM      8  C   LIG d   1      -3.229  78.266 117.462  0.00  0.00     0.119 C 
BRANCH   8   9
ATOM      9  C   LIG d   1      -1.737  78.629 117.584  0.00  0.00     0.028 C 
ATOM     10  C   LIG d   1      -1.500  79.834 118.509  0.00  0.00     0.006 C 
ENDBRANCH   8   9
BRANCH   8  11
ATOM     11  C   LIG d   1      -3.413  77.010 118.318  0.00  0.00     0.028 C 
ATOM     12  C   LIG d   1      -2.084  76.306 118.637  0.00  0.00     0.006 C 
ENDBRANCH   8  11
ENDBRANCH   7   8
ENDBRANCH   1   7
BRANCH   6  13
ATOM     13  N   LIG d   1      -1.304  76.262 114.940  0.00  0.00    -0.311 N 
ATOM     14  C   LIG d   1      -1.690  75.011 115.190  0.00  0.00     0.210 C 
ATOM     15  C   LIG d   1      -0.697  74.180 116.009  0.00  0.00     0.109 C 
ATOM     16  O   LIG d   1      -2.745  74.502 114.784  0.00  0.00    -0.276 OA
ATOM     17  H   LIG d   1      -0.418  76.582 115.280  0.00  0.00     0.149 HD
ENDBRANCH   6  13
BRANCH   5  18
ATOM     18  N   LIG d   1      -1.179  76.668 111.915  0.00  0.00     0.381 N 
ATOM     19  H   LIG d   1      -0.195  76.512 111.817  0.00  0.00    -0.090 HD
ATOM     20  H   LIG d   1      -1.543  76.958 111.024  0.00  0.00    -0.090 HD
ATOM     21  H   LIG d   1      -1.627  75.827 112.207  0.00  0.00    -0.090 HD
ENDBRANCH   5  18
BRANCH   3  22
ATOM     22  C   LIG d   1      -2.925  81.077 112.582  0.00  0.00     0.382 C 
ATOM     23  O   LIG d   1      -1.972  81.886 112.475  0.00  0.00    -0.241 OA
ATOM     24  O   LIG d   1      -4.073  81.435 112.258  0.00  0.00    -0.241 OA
ENDBRANCH   3  22
TORSDOF 7
ENDMDL
MODEL 2
REMARK VINA RESULT:      -4.6      2.415      4.570
REMARK  7 active torsions:
REMARK  status: ('A' for Active; 'I' for Inactive)
REMARK    1  A    between atoms: C_2  and  C_3 
REMARK    2  A    between atoms: C_3  and  O_6 
REMARK    3  A    between atoms: C_3  and  C_4 
REMARK    4  A    between atoms: C_7  and  O_6 
REMARK    5  A    between atoms: C_9  and  C_10 
REMARK    6  A    between atoms: N_15  and  C_14 
REMARK    7  A    between atoms: N_20  and  C_19 
REMARK       I    between atoms: C_22  and  N_20 
ROOT
ATOM      1  C   LIG d   1      -1.955  79.007 114.686  0.00  0.00     0.161 C 
ATOM      2  C   LIG d   1      -2.645  77.847 115.076  0.00  0.00     0.016 C 
ATOM      3  C   LIG d   1      -3.262  76.964 114.160  0.00  0.00     0.038 C 
ATOM      4  C   LIG d   1      -3.100  77.101 112.773  0.00  0.00     0.028 C 
ATOM      5  C   LIG d   1      -2.836  78.538 112.334  0.00  0.00    -0.047 C 
ATOM      6  C   LIG d   1      -1.673  79.114 113.173  0.00  0.00     0.091 C 
ENDROOT
BRANCH   1   7
ATOM      7  O   LIG d   1      -0.728  79.120 115.434  0.00  0.00    -0.368 OA
BRANCH   7   8
ATOM      8  C   LIG d   1      -0.693  78.434 116.709  0.00  0.00     0.119 C 
BRANCH   8   9
ATOM      9  C   LIG d   1      -0.703  79.508 117.813  0.00  0.00     0.028 C 
ATOM     10  C   LIG d   1      -1.978  79.456 118.672  0.00  0.00     0.006 C 
ENDBRANCH   8   9
BRANCH   8  11
ATOM     11  C   LIG d   1       0.622  77.672 116.897  0.00  0.00     0.028 C 
ATOM     12  C   LIG d   1       0.472  76.159 116.668  0.00  0.00     0.006 C 
ENDBRANCH   8  11
ENDBRANCH   7   8
ENDBRANCH   1   7
BRANCH   6  13
ATOM     13  N   LIG d   1      -1.405  80.543 112.865  0.00  0.00    -0.311 N 
ATOM     14  C   LIG d   1      -0.571  80.943 111.907  0.00  0.00     0.210 C 
ATOM     15  C   LIG d   1      -0.424  82.461 111.769  0.00  0.00     0.109 C 
ATOM     16  O   LIG d   1       0.037  80.184 111.137  0.00  0.00    -0.276 OA
ATOM     17  H   LIG d   1      -1.881  81.226 113.421  0.00  0.00     0.149 HD
ENDBRANCH   6  13
BRANCH   5  18
ATOM     18  N   LIG d   1      -2.550  78.516 110.887  0.00  0.00     0.381 N 
ATOM     19  H   LIG d   1      -2.996  77.726 110.465  0.00  0.00    -0.090 HD
ATOM     20  H   LIG d   1      -1.559  78.427 110.753  0.00  0.00    -0.090 HD
ATOM     21  H   LIG d   1      -2.876  79.356 110.462  0.00  0.00    -0.090 HD
ENDBRANCH   5  18
BRANCH   3  22
ATOM     22  C   LIG d   1      -4.085  75.951 114.630  0.00  0.00     0.382 C 
ATOM     23  O   LIG d   1      -4.440  75.939 115.833  0.00  0.00    -0.241 OA
ATOM     24  O   LIG d   1      -4.440  75.025 113.876  0.00  0.00    -0.241 OA
ENDBRANCH   3  22
TORSDOF 7
ENDMDL
MODEL 3
REMARK VINA RESULT:      -4.3      2.500      3.791
REMARK  7 active torsions:
REMARK  status: ('A' for Active; 'I' for Inactive)
REMARK    1  A    between atoms: C_2  and  C_3 
REMARK    2  A    between atoms: C_3  and  O_6 
REMARK    3  A    between atoms: C_3  and  C_4 
REMARK    4  A    between atoms: C_7  and  O_6 
REMARK    5  A    between atoms: C_9  and  C_10 
REMARK    6  A    between atoms: N_15  and  C_14 
REMARK    7  A    between atoms: N_20  and  C_19 
REMARK       I    between atoms: C_22  and  N_20 
ROOT
ATOM      1  C   LIG d   1      -1.140  78.464 115.525  0.00  0.00     0.161 C 
ATOM      2  C   LIG d   1      -2.319  78.218 114.803  0.00  0.00     0.016 C 
ATOM      3  C   LIG d   1      -2.717  76.929 114.379  0.00  0.00     0.038 C 
ATOM      4  C   LIG d   1      -2.034  75.772 114.782  0.00  0.00     0.028 C 
ATOM      5  C   LIG d   1      -0.560  76.014 115.087  0.00  0.00    -0.047 C 
ATOM      6  C   LIG d   1      -0.439  77.201 116.070  0.00  0.00     0.091 C 
ENDROOT
BRANCH   1   7
ATOM      7  O   LIG d   1      -1.407  79.390 116.597  0.00  0.00    -0.368 OA
BRANCH   7   8
ATOM      8  C   LIG d   1      -1.730  78.802 117.881  0.00  0.00     0.119 C 
BRANCH   8   9
ATOM      9  C   LIG d   1      -3.225  79.066 118.148  0.00  0.00     0.028 C 
ATOM     10  C   LIG d   1      -4.065  77.779 118.108  0.00  0.00     0.006 C 
ENDBRANCH   8   9
BRANCH   8  11
ATOM     11  C   LIG d   1      -0.985  79.505 119.019  0.00  0.00     0.028 C 
ATOM     12  C   LIG d   1      -0.233  80.762 118.552  0.00  0.00     0.006 C 
ENDBRANCH   8  11
ENDBRANCH   7   8
ENDBRANCH   1   7
BRANCH   6  13
ATOM     13  N   LIG d   1       0.975  77.559 116.355  0.00  0.00    -0.311 N 
ATOM     14  C   LIG d   1       1.637  77.131 117.429  0.00  0.00     0.210 C 
ATOM     15  C   LIG d   1       3.079  77.634 117.543  0.00  0.00     0.109 C 
ATOM     16  O   LIG d   1       1.176  76.357 118.281  0.00  0.00    -0.276 OA
ATOM     17  H   LIG d   1       1.435  78.159 115.699  0.00  0.00     0.149 HD
ENDBRANCH   6  13
BRANCH   5  18
ATOM     18  N   LIG d   1      -0.004  74.759 115.626  0.00  0.00     0.381 N 
ATOM     19  H   LIG d   1      -0.470  73.976 115.211  0.00  0.00    -0.090 HD
ATOM     20  H   LIG d   1      -0.165  74.732 116.617  0.00  0.00    -0.090 HD
ATOM     21  H   LIG d   1       0.973  74.710 115.439  0.00  0.00    -0.090 HD
ENDBRANCH   5  18
BRANCH   3  22
ATOM     22  C   LIG d   1      -3.788  76.793 113.509  0.00  0.00     0.382 C 
ATOM     23  O   LIG d   1      -4.139  77.759 112.790  0.00  0.00    -0.241 OA
ATOM     24  O   LIG d   1      -4.435  75.729 113.465  0.00  0.00    -0.241 OA
ENDBRANCH   3  22
TORSDOF 7
ENDMDL
MODEL 4
REMARK VINA RESULT:      -4.3      2.712      5.862
REMARK  7 active torsions:
REMARK  status: ('A' for Active; 'I' for Inactive)
REMARK    1  A    between atoms: C_2  and  C_3 
REMARK    2  A    between atoms: C_3  and  O_6 
REMARK    3  A    between atoms: C_3  and  C_4 
REMARK    4  A    between atoms: C_7  and  O_6 
REMARK    5  A    between atoms: C_9  and  C_10 
REMARK    6  A    between atoms: N_15  and  C_14 
REMARK    7  A    between atoms: N_20  and  C_19 
REMARK       I    between atoms: C_22  and  N_20 
ROOT
ATOM      1  C   LIG d   1      -0.863  75.515 115.218  0.00  0.00     0.161 C 
ATOM      2  C   LIG d   1      -0.422  74.873 116.388  0.00  0.00     0.016 C 
ATOM      3  C   LIG d   1       0.167  75.557 117.476  0.00  0.00     0.038 C 
ATOM      4  C   LIG d   1       0.218  76.958 117.531  0.00  0.00     0.028 C 
ATOM      5  C   LIG d   1       0.244  77.618 116.157  0.00  0.00    -0.047 C 
ATOM      6  C   LIG d   1      -0.918  77.054 115.307  0.00  0.00     0.091 C 
ENDROOT
BRANCH   1   7
ATOM      7  O   LIG d   1      -2.147  74.989 114.827  0.00  0.00    -0.368 OA
BRANCH   7   8
ATOM      8  C   LIG d   1      -3.302  75.767 115.226  0.00  0.00     0.119 C 
BRANCH   8   9
ATOM      9  C   LIG d   1      -3.848  75.152 116.529  0.00  0.00     0.028 C 
ATOM     10  C   LIG d   1      -3.717  76.106 117.728  0.00  0.00     0.006 C 
ENDBRANCH   8   9
BRANCH   8  11
ATOM     11  C   LIG d   1      -4.440  75.637 114.209  0.00  0.00     0.028 C 
ATOM     12  C   LIG d   1      -4.440  76.766 113.167  0.00  0.00     0.006 C 
ENDBRANCH   8  11
ENDBRANCH   7   8
ENDBRANCH   1   7
BRANCH   6  13
ATOM     13  N   LIG d   1      -0.914  77.585 113.919  0.00  0.00    -0.311 N 
ATOM     14  C   LIG d   1      -1.586  78.674 113.548  0.00  0.00     0.210 C 
ATOM     15  C   LIG d   1      -1.463  79.036 112.065  0.00  0.00     0.109 C 
ATOM     16  O   LIG d   1      -2.246  79.392 114.314  0.00  0.00    -0.276 OA
ATOM     17  H   LIG d   1      -0.379  77.081 113.239  0.00  0.00     0.149 HD
ENDBRANCH   6  13
BRANCH   5  18
ATOM     18  N   LIG d   1       0.156  79.076 116.361  0.00  0.00     0.381 N 
ATOM     19  H   LIG d   1       0.400  79.301 117.305  0.00  0.00    -0.090 HD
ATOM     20  H   LIG d   1      -0.791  79.371 116.200  0.00  0.00    -0.090 HD
ATOM     21  H   LIG d   1       0.769  79.546 115.731  0.00  0.00    -0.090 HD
ENDBRANCH   5  18
BRANCH   3  22
ATOM     22  C   LIG d   1       0.750  74.836 118.507  0.00  0.00     0.382 C 
ATOM     23  O   LIG d   1       0.031  74.324 119.398  0.00  0.00    -0.241 OA
ATOM     24  O   LIG d   1       1.989  74.728 118.580  0.00  0.00    -0.241 OA
ENDBRANCH   3  22
TORSDOF 7
ENDMDL
MODEL 5
REMARK VINA RESULT:      -4.2      2.386      3.035
REMARK  7 active torsions:
REMARK  status: ('A' for Active; 'I' for Inactive)
REMARK    1  A    between atoms: C_2  and  C_3 
REMARK    2  A    between atoms: C_3  and  O_6 
REMARK    3  A    between atoms: C_3  and  C_4 
REMARK    4  A    between atoms: C_7  and  O_6 
REMARK    5  A    between atoms: C_9  and  C_10 
REMARK    6  A    between atoms: N_15  and  C_14 
REMARK    7  A    between atoms: N_20  and  C_19 
REMARK       I    between atoms: C_22  and  N_20 
ROOT
ATOM      1  C   LIG d   1      -0.480  77.495 116.419  0.00  0.00     0.161 C 
ATOM      2  C   LIG d   1      -1.208  78.158 115.417  0.00  0.00     0.016 C 
ATOM      3  C   LIG d   1      -1.481  77.593 114.151  0.00  0.00     0.038 C 
ATOM      4  C   LIG d   1      -1.172  76.257 113.852  0.00  0.00     0.028 C 
ATOM      5  C   LIG d   1       0.008  75.716 114.651  0.00  0.00    -0.047 C 
ATOM      6  C   LIG d   1      -0.231  75.995 116.152  0.00  0.00     0.091 C 
ENDROOT
BRANCH   1   7
ATOM      7  O   LIG d   1      -1.127  77.676 117.694  0.00  0.00    -0.368 OA
BRANCH   7   8
ATOM      8  C   LIG d   1      -2.570  77.802 117.665  0.00  0.00     0.119 C 
BRANCH   8   9
ATOM      9  C   LIG d   1      -2.961  78.878 118.696  0.00  0.00     0.028 C 
ATOM     10  C   LIG d   1      -4.384  79.418 118.470  0.00  0.00     0.006 C 
ENDBRANCH   8   9
BRANCH   8  11
ATOM     11  C   LIG d   1      -3.252  76.517 118.141  0.00  0.00     0.028 C 
ATOM     12  C   LIG d   1      -3.798  75.667 116.983  0.00  0.00     0.006 C 
ENDBRANCH   8  11
ENDBRANCH   7   8
ENDBRANCH   1   7
BRANCH   6  13
ATOM     13  N   LIG d   1       0.916  75.572 116.998  0.00  0.00    -0.311 N 
ATOM     14  C   LIG d   1       0.779  74.871 118.122  0.00  0.00     0.210 C 
ATOM     15  C   LIG d   1       2.089  74.557 118.851  0.00  0.00     0.109 C 
ATOM     16  O   LIG d   1      -0.300  74.452 118.567  0.00  0.00    -0.276 OA
ATOM     17  H   LIG d   1       1.831  75.843 116.694  0.00  0.00     0.149 HD
ENDBRANCH   6  13
BRANCH   5  18
ATOM     18  N   LIG d   1       0.133  74.278 114.343  0.00  0.00     0.381 N 
ATOM     19  H   LIG d   1      -0.437  74.051 113.553  0.00  0.00    -0.090 HD
ATOM     20  H   LIG d   1      -0.194  73.748 115.131  0.00  0.00    -0.090 HD
ATOM     21  H   LIG d   1       1.084  74.052 114.152  0.00  0.00    -0.090 HD
ENDBRANCH   5  18
BRANCH   3  22
ATOM     22  C   LIG d   1      -2.035  78.380 113.152  0.00  0.00     0.382 C 
ATOM     23  O   LIG d   1      -3.244  78.710 113.213  0.00  0.00    -0.241 OA
ATOM     24  O   LIG d   1      -1.353  78.726 112.169  0.00  0.00    -0.241 OA
ENDBRANCH   3  22
TORSDOF 7
ENDMDL
MODEL 6
REMARK VINA RESULT:      -4.2      2.968      4.172
REMARK  7 active torsions:
REMARK  status: ('A' for Active; 'I' for Inactive)
REMARK    1  A    between atoms: C_2  and  C_3 
REMARK    2  A    between atoms: C_3  and  O_6 
REMARK    3  A    between atoms: C_3  and  C_4 
REMARK    4  A    between atoms: C_7  and  O_6 
REMARK    5  A    between atoms: C_9  and  C_10 
REMARK    6  A    between atoms: N_15  and  C_14 
REMARK    7  A    between atoms: N_20  and  C_19 
REMARK       I    between atoms: C_22  and  N_20 
ROOT
ATOM      1  C   LIG d   1      -0.383  77.606 116.161  0.00  0.00     0.161 C 
ATOM      2  C   LIG d   1      -1.708  77.685 115.701  0.00  0.00     0.016 C 
ATOM      3  C   LIG d   1      -2.291  76.727 114.840  0.00  0.00     0.038 C 
ATOM      4  C   LIG d   1      -1.630  75.537 114.499  0.00  0.00     0.028 C 
ATOM      5  C   LIG d   1      -0.110  75.658 114.530  0.00  0.00    -0.047 C 
ATOM      6  C   LIG d   1       0.317  76.259 115.889  0.00  0.00     0.091 C 
ENDROOT
BRANCH   1   7
ATOM      7  O   LIG d   1      -0.334  77.922 117.567  0.00  0.00    -0.368 OA
BRANCH   7   8
ATOM      8  C   LIG d   1       0.327  79.162 117.919  0.00  0.00     0.119 C 
BRANCH   8   9
ATOM      9  C   LIG d   1      -0.755  80.136 118.424  0.00  0.00     0.028 C 
ATOM     10  C   LIG d   1      -0.168  81.484 118.874  0.00  0.00     0.006 C 
ENDBRANCH   8   9
BRANCH   8  11
ATOM     11  C   LIG d   1       0.937  79.838 116.688  0.00  0.00     0.028 C 
ATOM     12  C   LIG d   1       2.465  79.976 116.780  0.00  0.00     0.006 C 
ENDBRANCH   8  11
ENDBRANCH   7   8
ENDBRANCH   1   7
BRANCH   6  13
ATOM     13  N   LIG d   1       1.783  76.489 115.971  0.00  0.00    -0.311 N 
ATOM     14  C   LIG d   1       2.507  76.226 117.058  0.00  0.00     0.210 C 
ATOM     15  C   LIG d   1       3.998  76.556 116.937  0.00  0.00     0.109 C 
ATOM     16  O   LIG d   1       2.061  75.722 118.100  0.00  0.00    -0.276 OA
ATOM     17  H   LIG d   1       2.232  76.867 115.160  0.00  0.00     0.149 HD
ENDBRANCH   6  13
BRANCH   5  18
ATOM     18  N   LIG d   1       0.449  74.314 114.291  0.00  0.00     0.381 N 
ATOM     19  H   LIG d   1       0.400  74.096 113.316  0.00  0.00    -0.090 HD
ATOM     20  H   LIG d   1      -0.101  73.639 114.793  0.00  0.00    -0.090 HD
ATOM     21  H   LIG d   1       1.396  74.279 114.599  0.00  0.00    -0.090 HD
ENDBRANCH   5  18
BRANCH   3  22
ATOM     22  C   LIG d   1      -3.534  76.974 114.278  0.00  0.00     0.382 C 
ATOM     23  O   LIG d   1      -4.412  77.578 114.940  0.00  0.00    -0.241 OA
ATOM     24  O   LIG d   1      -3.803  76.562 113.134  0.00  0.00    -0.241 OA
ENDBRANCH   3  22
TORSDOF 7
ENDMDL
MODEL 7
REMARK VINA RESULT:      -4.2      4.989      6.597
REMARK  7 active torsions:
REMARK  status: ('A' for Active; 'I' for Inactive)
REMARK    1  A    between atoms: C_2  and  C_3 
REMARK    2  A    between atoms: C_3  and  O_6 
REMARK    3  A    between atoms: C_3  and  C_4 
REMARK    4  A    between atoms: C_7  and  O_6 
REMARK    5  A    between atoms: C_9  and  C_10 
REMARK    6  A    between atoms: N_15  and  C_14 
REMARK    7  A    between atoms: N_20  and  C_19 
REMARK       I    between atoms: C_22  and  N_20 
ROOT
ATOM      1  C   LIG d   1       1.387  81.364 112.514  0.00  0.00     0.161 C 
ATOM      2  C   LIG d   1       2.488  81.818 111.771  0.00  0.00     0.016 C 
ATOM      3  C   LIG d   1       2.603  81.656 110.371  0.00  0.00     0.038 C 
ATOM      4  C   LIG d   1       1.546  81.159 109.593  0.00  0.00     0.028 C 
ATOM      5  C   LIG d   1       0.617  80.225 110.361  0.00  0.00    -0.047 C 
ATOM      6  C   LIG d   1       0.175  80.919 111.669  0.00  0.00     0.091 C 
ENDROOT
BRANCH   1   7
ATOM      7  O   LIG d   1       0.991  82.371 113.466  0.00  0.00    -0.368 OA
BRANCH   7   8
ATOM      8  C   LIG d   1       1.987  82.746 114.449  0.00  0.00     0.119 C 
BRANCH   8   9
ATOM      9  C   LIG d   1       1.635  82.022 115.764  0.00  0.00     0.028 C 
ATOM     10  C   LIG d   1       2.667  80.943 116.133  0.00  0.00     0.006 C 
ENDBRANCH   8   9
BRANCH   8  11
ATOM     11  C   LIG d   1       1.913  84.240 114.777  0.00  0.00     0.028 C 
ATOM     12  C   LIG d   1       2.973  84.680 115.799  0.00  0.00     0.006 C 
ENDBRANCH   8  11
ENDBRANCH   7   8
ENDBRANCH   1   7
BRANCH   6  13
ATOM     13  N   LIG d   1      -0.669  80.041 112.520  0.00  0.00    -0.311 N 
ATOM     14  C   LIG d   1      -1.983  80.206 112.668  0.00  0.00     0.210 C 
ATOM     15  C   LIG d   1      -2.659  79.202 113.607  0.00  0.00     0.109 C 
ATOM     16  O   LIG d   1      -2.657  81.069 112.086  0.00  0.00    -0.276 OA
ATOM     17  H   LIG d   1      -0.208  79.295 113.004  0.00  0.00     0.149 HD
ENDBRANCH   6  13
BRANCH   5  18
ATOM     18  N   LIG d   1      -0.513  79.892 109.472  0.00  0.00     0.381 N 
ATOM     19  H   LIG d   1      -1.083  79.189 109.899  0.00  0.00    -0.090 HD
ATOM     20  H   LIG d   1      -0.151  79.524 108.610  0.00  0.00    -0.090 HD
ATOM     21  H   LIG d   1      -1.057  80.707 109.292  0.00  0.00    -0.090 HD
ENDBRANCH   5  18
BRANCH   3  22
ATOM     22  C   LIG d   1       3.800  81.956 109.740  0.00  0.00     0.382 C 
ATOM     23  O   LIG d   1       4.069  83.144 109.436  0.00  0.00    -0.241 OA
ATOM     24  O   LIG d   1       4.596  81.049 109.430  0.00  0.00    -0.241 OA
ENDBRANCH   3  22
TORSDOF 7
ENDMDL
MODEL 8
REMARK VINA RESULT:      -3.8      3.707      5.061
REMARK  7 active torsions:
REMARK  status: ('A' for Active; 'I' for Inactive)
REMARK    1  A    between atoms: C_2  and  C_3 
REMARK    2  A    between atoms: C_3  and  O_6 
REMARK    3  A    between atoms: C_3  and  C_4 
REMARK    4  A    between atoms: C_7  and  O_6 
REMARK    5  A    between atoms: C_9  and  C_10 
REMARK    6  A    between atoms: N_15  and  C_14 
REMARK    7  A    between atoms: N_20  and  C_19 
REMARK       I    between atoms: C_22  and  N_20 
ROOT
ATOM      1  C   LIG d   1       1.090  77.076 116.683  0.00  0.00     0.161 C 
ATOM      2  C   LIG d   1       0.705  78.121 117.539  0.00  0.00     0.016 C 
ATOM      3  C   LIG d   1      -0.524  78.810 117.422  0.00  0.00     0.038 C 
ATOM      4  C   LIG d   1      -1.524  78.396 116.530  0.00  0.00     0.028 C 
ATOM      5  C   LIG d   1      -0.980  77.666 115.306  0.00  0.00    -0.047 C 
ATOM      6  C   LIG d   1      -0.035  76.536 115.775  0.00  0.00     0.091 C 
ENDROOT
BRANCH   1   7
ATOM      7  O   LIG d   1       1.670  76.004 117.452  0.00  0.00    -0.368 OA
BRANCH   7   8
ATOM      8  C   LIG d   1       2.846  76.340 118.228  0.00  0.00     0.119 C 
BRANCH   8   9
ATOM      9  C   LIG d   1       4.079  76.068 117.344  0.00  0.00     0.028 C 
ATOM     10  C   LIG d   1       4.800  77.361 116.929  0.00  0.00     0.006 C 
ENDBRANCH   8   9
BRANCH   8  11
ATOM     11  C   LIG d   1       3.001  75.412 119.437  0.00  0.00     0.028 C 
ATOM     12  C   LIG d   1       4.033  74.297 119.203  0.00  0.00     0.006 C 
ENDBRANCH   8  11
ENDBRANCH   7   8
ENDBRANCH   1   7
BRANCH   6  13
ATOM     13  N   LIG d   1       0.607  75.826 114.638  0.00  0.00    -0.311 N 
ATOM     14  C   LIG d   1       0.061  74.776 114.027  0.00  0.00     0.210 C 
ATOM     15  C   LIG d   1       0.899  74.181 112.891  0.00  0.00     0.109 C 
ATOM     16  O   LIG d   1      -1.053  74.301 114.297  0.00  0.00    -0.276 OA
ATOM     17  H   LIG d   1       1.499  76.165 114.333  0.00  0.00     0.149 HD
ENDBRANCH   6  13
BRANCH   5  18
ATOM     18  N   LIG d   1      -2.134  77.171 114.533  0.00  0.00     0.381 N 
ATOM     19  H   LIG d   1      -1.944  76.249 114.193  0.00  0.00    -0.090 HD
ATOM     20  H   LIG d   1      -2.279  77.775 113.743  0.00  0.00    -0.090 HD
ATOM     21  H   LIG d   1      -2.949  77.160 115.106  0.00  0.00    -0.090 HD
ENDBRANCH   5  18
BRANCH   3  22
ATOM     22  C   LIG d   1      -0.746  79.952 118.177  0.00  0.00     0.382 C 
ATOM     23  O   LIG d   1      -1.692  79.984 119.001  0.00  0.00    -0.241 OA
ATOM     24  O   LIG d   1      -0.041  80.965 118.013  0.00  0.00    -0.241 OA
ENDBRANCH   3  22
TORSDOF 7
ENDMDL
MODEL 9
REMARK VINA RESULT:      -3.8      4.818      6.981
REMARK  7 active torsions:
REMARK  status: ('A' for Active; 'I' for Inactive)
REMARK    1  A    between atoms: C_2  and  C_3 
REMARK    2  A    between atoms: C_3  and  O_6 
REMARK    3  A    between atoms: C_3  and  C_4 
REMARK    4  A    between atoms: C_7  and  O_6 
REMARK    5  A    between atoms: C_9  and  C_10 
REMARK    6  A    between atoms: N_15  and  C_14 
REMARK    7  A    between atoms: N_20  and  C_19 
REMARK       I    between atoms: C_22  and  N_20 
ROOT
ATOM      1  C   LIG d   1       2.167  76.946 116.848  0.00  0.00     0.161 C 
ATOM      2  C   LIG d   1       1.248  76.018 116.330  0.00  0.00     0.016 C 
ATOM      3  C   LIG d   1      -0.106  76.329 116.066  0.00  0.00     0.038 C 
ATOM      4  C   LIG d   1      -0.598  77.639 116.160  0.00  0.00     0.028 C 
ATOM      5  C   LIG d   1       0.165  78.502 117.160  0.00  0.00    -0.047 C 
ATOM      6  C   LIG d   1       1.677  78.409 116.852  0.00  0.00     0.091 C 
ENDROOT
BRANCH   1   7
ATOM      7  O   LIG d   1       3.419  76.839 116.142  0.00  0.00    -0.368 OA
BRANCH   7   8
ATOM      8  C   LIG d   1       4.523  76.265 116.884  0.00  0.00     0.119 C 
BRANCH   8   9
ATOM      9  C   LIG d   1       4.026  75.995 118.318  0.00  0.00     0.028 C 
ATOM     10  C   LIG d   1       4.164  74.516 118.717  0.00  0.00     0.006 C 
ENDBRANCH   8   9
BRANCH   8  11
ATOM     11  C   LIG d   1       5.672  77.266 117.036  0.00  0.00     0.028 C 
ATOM     12  C   LIG d   1       6.060  77.934 115.707  0.00  0.00     0.006 C 
ENDBRANCH   8  11
ENDBRANCH   7   8
ENDBRANCH   1   7
BRANCH   6  13
ATOM     13  N   LIG d   1       2.503  79.157 117.836  0.00  0.00    -0.311 N 
ATOM     14  C   LIG d   1       3.410  80.068 117.489  0.00  0.00     0.210 C 
ATOM     15  C   LIG d   1       4.165  80.707 118.659  0.00  0.00     0.109 C 
ATOM     16  O   LIG d   1       3.638  80.431 116.326  0.00  0.00    -0.276 OA
ATOM     17  H   LIG d   1       2.360  78.947 118.805  0.00  0.00     0.149 HD
ENDBRANCH   6  13
BRANCH   5  18
ATOM     18  N   LIG d   1      -0.363  79.876 117.057  0.00  0.00     0.381 N 
ATOM     19  H   LIG d   1      -1.306  79.852 116.725  0.00  0.00    -0.090 HD
ATOM     20  H   LIG d   1       0.192  80.388 116.394  0.00  0.00    -0.090 HD
ATOM     21  H   LIG d   1      -0.327  80.322 117.946  0.00  0.00    -0.090 HD
ENDBRANCH   5  18
BRANCH   3  22
ATOM     22  C   LIG d   1      -0.993  75.314 115.740  0.00  0.00     0.382 C 
ATOM     23  O   LIG d   1      -1.443  75.226 114.573  0.00  0.00    -0.241 OA
ATOM     24  O   LIG d   1      -1.383  74.512 116.610  0.00  0.00    -0.241 OA
ENDBRANCH   3  22
TORSDOF 7
ENDMDL
