MODEL 1
REMARK VINA RESULT:      -5.6      0.000      0.000
REMARK  7 active torsions:
REMARK  status: ('A' for Active; 'I' for Inactive)
REMARK    1  A    between atoms: C_2  and  C_3 
REMARK    2  A    between atoms: C_3  and  O_6 
REMARK    3  A    between atoms: C_3  and  C_4 
REMARK    4  A    between atoms: C_7  and  O_6 
REMARK    5  A    between atoms: C_9  and  C_10 
REMARK    6  A    between atoms: N_15  and  C_14 
REMARK    7  A    between atoms: N_20  and  C_19 
REMARK       I    between atoms: C_22  and  N_20 
ROOT
ATOM      1  C   LIG d   1       0.476  81.478 113.134  0.00  0.00     0.161 C 
ATOM      2  C   LIG d   1       1.372  82.366 112.515  0.00  0.00     0.016 C 
ATOM      3  C   LIG d   1       1.566  82.426 111.116  0.00  0.00     0.038 C 
ATOM      4  C   LIG d   1       0.761  81.702 110.224  0.00  0.00     0.028 C 
ATOM      5  C   LIG d   1       0.192  80.421 110.825  0.00  0.00    -0.047 C 
ATOM      6  C   LIG d   1      -0.491  80.759 112.170  0.00  0.00     0.091 C 
ENDROOT
BRANCH   1   7
ATOM      7  O   LIG d   1      -0.262  82.167 114.162  0.00  0.00    -0.368 OA
BRANCH   7   8
ATOM      8  C   LIG d   1      -1.455  82.867 113.731  0.00  0.00     0.119 C 
BRANCH   8   9
ATOM      9  C   LIG d   1      -1.187  84.376 113.882  0.00  0.00     0.028 C 
ATOM     10  C   LIG d   1      -0.045  84.674 114.869  0.00  0.00     0.006 C 
ENDBRANCH   8   9
BRANCH   8  11
ATOM     11  C   LIG d   1      -2.640  82.571 114.655  0.00  0.00     0.028 C 
ATOM     12  C   LIG d   1      -2.255  81.687 115.853  0.00  0.00     0.006 C 
ENDBRANCH   8  11
ENDBRANCH   7   8
ENDBRANCH   1   7
BRANCH   6  13
ATOM     13  N   LIG d   1      -1.002  79.549 112.866  0.00  0.00    -0.311 N 
ATOM     14  C   LIG d   1      -2.296  79.254 112.967  0.00  0.00     0.210 C 
ATOM     15  C   LIG d   1      -2.608  77.970 113.743  0.00  0.00     0.109 C 
ATOM     16  O   LIG d   1      -3.215  79.916 112.461  0.00  0.00    -0.276 OA
ATOM     17  H   LIG d   1      -0.323  78.939 113.279  0.00  0.00     0.149 HD
ENDBRANCH   6  13
BRANCH   5  18
ATOM     18  N   LIG d   1      -0.736  79.839 109.836  0.00  0.00     0.381 N 
ATOM     19  H   LIG d   1      -0.516  80.182 108.922  0.00  0.00    -0.090 HD
ATOM     20  H   LIG d   1      -1.672  80.123 110.062  0.00  0.00    -0.090 HD
ATOM     21  H   LIG d   1      -0.669  78.845 109.851  0.00  0.00    -0.090 HD
ENDBRANCH   5  18
BRANCH   3  22
ATOM     22  C   LIG d   1       2.603  83.188 110.598  0.00  0.00     0.382 C 
ATOM     23  O   LIG d   1       3.644  83.372 111.274  0.00  0.00    -0.241 OA
ATOM     24  O   LIG d   1       2.491  83.730 109.482  0.00  0.00    -0.241 OA
ENDBRANCH   3  22
TORSDOF 7
ENDMDL
MODEL 2
REMARK VINA RESULT:      -5.2      2.051      5.129
REMARK  7 active torsions:
REMARK  status: ('A' for Active; 'I' for Inactive)
REMARK    1  A    between atoms: C_2  and  C_3 
REMARK    2  A    between atoms: C_3  and  O_6 
REMARK    3  A    between atoms: C_3  and  C_4 
REMARK    4  A    between atoms: C_7  and  O_6 
REMARK    5  A    between atoms: C_9  and  C_10 
REMARK    6  A    between atoms: N_15  and  C_14 
REMARK    7  A    between atoms: N_20  and  C_19 
REMARK       I    between atoms: C_22  and  N_20 
ROOT
ATOM      1  C   LIG d   1      -0.256  83.554 112.225  0.00  0.00     0.161 C 
ATOM      2  C   LIG d   1      -1.411  82.996 112.798  0.00  0.00     0.016 C 
ATOM      3  C   LIG d   1      -1.763  81.633 112.668  0.00  0.00     0.038 C 
ATOM      4  C   LIG d   1      -0.899  80.697 112.080  0.00  0.00     0.028 C 
ATOM      5  C   LIG d   1       0.042  81.307 111.046  0.00  0.00    -0.047 C 
ATOM      6  C   LIG d   1       0.754  82.526 111.675  0.00  0.00     0.091 C 
ENDROOT
BRANCH   1   7
ATOM      7  O   LIG d   1       0.385  84.429 113.174  0.00  0.00    -0.368 OA
BRANCH   7   8
ATOM      8  C   LIG d   1       1.367  83.814 114.045  0.00  0.00     0.119 C 
BRANCH   8   9
ATOM      9  C   LIG d   1       0.846  83.936 115.490  0.00  0.00     0.028 C 
ATOM     10  C   LIG d   1       0.278  82.610 116.022  0.00  0.00     0.006 C 
ENDBRANCH   8   9
BRANCH   8  11
ATOM     11  C   LIG d   1       2.690  84.586 114.024  0.00  0.00     0.028 C 
ATOM     12  C   LIG d   1       3.360  84.657 115.406  0.00  0.00     0.006 C 
ENDBRANCH   8  11
ENDBRANCH   7   8
ENDBRANCH   1   7
BRANCH   6  13
ATOM     13  N   LIG d   1       1.630  83.233 110.704  0.00  0.00    -0.311 N 
ATOM     14  C   LIG d   1       2.918  82.939 110.530  0.00  0.00     0.210 C 
ATOM     15  C   LIG d   1       3.644  83.803 109.493  0.00  0.00     0.109 C 
ATOM     16  O   LIG d   1       3.519  82.024 111.112  0.00  0.00    -0.276 OA
ATOM     17  H   LIG d   1       1.216  83.969 110.167  0.00  0.00     0.149 HD
ENDBRANCH   6  13
BRANCH   5  18
ATOM     18  N   LIG d   1       0.976  80.250 110.615  0.00  0.00     0.381 N 
ATOM     19  H   LIG d   1       1.685  80.121 111.309  0.00  0.00    -0.090 HD
ATOM     20  H   LIG d   1       1.420  80.537 109.761  0.00  0.00    -0.090 HD
ATOM     21  H   LIG d   1       0.483  79.397 110.472  0.00  0.00    -0.090 HD
ENDBRANCH   5  18
BRANCH   3  22
ATOM     22  C   LIG d   1      -3.010  81.201 113.095  0.00  0.00     0.382 C 
ATOM     23  O   LIG d   1      -3.859  82.034 113.493  0.00  0.00    -0.241 OA
ATOM     24  O   LIG d   1      -3.280  79.985 113.129  0.00  0.00    -0.241 OA
ENDBRANCH   3  22
TORSDOF 7
ENDMDL
MODEL 3
REMARK VINA RESULT:      -5.2      3.156      4.635
REMARK  7 active torsions:
REMARK  status: ('A' for Active; 'I' for Inactive)
REMARK    1  A    between atoms: C_2  and  C_3 
REMARK    2  A    between atoms: C_3  and  O_6 
REMARK    3  A    between atoms: C_3  and  C_4 
REMARK    4  A    between atoms: C_7  and  O_6 
REMARK    5  A    between atoms: C_9  and  C_10 
REMARK    6  A    between atoms: N_15  and  C_14 
REMARK    7  A    between atoms: N_20  and  C_19 
REMARK       I    between atoms: C_22  and  N_20 
ROOT
ATOM      1  C   LIG d   1      -1.544  79.744 115.429  0.00  0.00     0.161 C 
ATOM      2  C   LIG d   1      -1.768  81.099 115.136  0.00  0.00     0.016 C 
ATOM      3  C   LIG d   1      -1.988  81.586 113.827  0.00  0.00     0.038 C 
ATOM      4  C   LIG d   1      -2.150  80.723 112.733  0.00  0.00     0.028 C 
ATOM      5  C   LIG d   1      -1.431  79.389 112.901  0.00  0.00    -0.047 C 
ATOM      6  C   LIG d   1      -1.827  78.774 114.263  0.00  0.00     0.091 C 
ENDROOT
BRANCH   1   7
ATOM      7  O   LIG d   1      -2.304  79.364 116.593  0.00  0.00    -0.368 OA
BRANCH   7   8
ATOM      8  C   LIG d   1      -3.731  79.205 116.399  0.00  0.00     0.119 C 
BRANCH   8   9
ATOM      9  C   LIG d   1      -4.440  80.197 117.341  0.00  0.00     0.028 C 
ATOM     10  C   LIG d   1      -3.579  80.565 118.561  0.00  0.00     0.006 C 
ENDBRANCH   8   9
BRANCH   8  11
ATOM     11  C   LIG d   1      -4.203  77.817 116.842  0.00  0.00     0.028 C 
ATOM     12  C   LIG d   1      -3.127  77.042 117.620  0.00  0.00     0.006 C 
ENDBRANCH   8  11
ENDBRANCH   7   8
ENDBRANCH   1   7
BRANCH   6  13
ATOM     13  N   LIG d   1      -1.103  77.507 114.545  0.00  0.00    -0.311 N 
ATOM     14  C   LIG d   1      -1.638  76.301 114.362  0.00  0.00     0.210 C 
ATOM     15  C   LIG d   1      -0.727  75.127 114.734  0.00  0.00     0.109 C 
ATOM     16  O   LIG d   1      -2.768  76.092 113.897  0.00  0.00    -0.276 OA
ATOM     17  H   LIG d   1      -0.169  77.584 114.896  0.00  0.00     0.149 HD
ENDBRANCH   6  13
BRANCH   5  18
ATOM     18  N   LIG d   1      -1.797  78.538 111.754  0.00  0.00     0.381 N 
ATOM     19  H   LIG d   1      -1.762  77.574 112.022  0.00  0.00    -0.090 HD
ATOM     20  H   LIG d   1      -1.132  78.684 111.015  0.00  0.00    -0.090 HD
ATOM     21  H   LIG d   1      -2.713  78.768 111.436  0.00  0.00    -0.090 HD
ENDBRANCH   5  18
BRANCH   3  22
ATOM     22  C   LIG d   1      -2.008  82.953 113.597  0.00  0.00     0.382 C 
ATOM     23  O   LIG d   1      -1.693  83.404 112.469  0.00  0.00    -0.241 OA
ATOM     24  O   LIG d   1      -2.295  83.744 114.515  0.00  0.00    -0.241 OA
ENDBRANCH   3  22
TORSDOF 7
ENDMDL
MODEL 4
REMARK VINA RESULT:      -5.2      2.354      5.751
REMARK  7 active torsions:
REMARK  status: ('A' for Active; 'I' for Inactive)
REMARK    1  A    between atoms: C_2  and  C_3 
REMARK    2  A    between atoms: C_3  and  O_6 
REMARK    3  A    between atoms: C_3  and  C_4 
REMARK    4  A    between atoms: C_7  and  O_6 
REMARK    5  A    between atoms: C_9  and  C_10 
REMARK    6  A    between atoms: N_15  and  C_14 
REMARK    7  A    between atoms: N_20  and  C_19 
REMARK       I    between atoms: C_22  and  N_20 
ROOT
ATOM      1  C   LIG d   1      -0.617  80.945 111.923  0.00  0.00     0.161 C 
ATOM      2  C   LIG d   1      -1.381  79.778 111.755  0.00  0.00     0.016 C 
ATOM      3  C   LIG d   1      -2.259  79.275 112.742  0.00  0.00     0.038 C 
ATOM      4  C   LIG d   1      -2.550  79.992 113.912  0.00  0.00     0.028 C 
ATOM      5  C   LIG d   1      -1.422  80.922 114.348  0.00  0.00    -0.047 C 
ATOM      6  C   LIG d   1      -1.004  81.801 113.148  0.00  0.00     0.091 C 
ENDROOT
BRANCH   1   7
ATOM      7  O   LIG d   1      -0.667  81.739 110.721  0.00  0.00    -0.368 OA
BRANCH   7   8
ATOM      8  C   LIG d   1       0.546  81.776 109.930  0.00  0.00     0.119 C 
BRANCH   8   9
ATOM      9  C   LIG d   1       1.642  81.046 110.730  0.00  0.00     0.028 C 
ATOM     10  C   LIG d   1       3.049  81.293 110.159  0.00  0.00     0.006 C 
ENDBRANCH   8   9
BRANCH   8  11
ATOM     11  C   LIG d   1       1.056  83.209 109.757  0.00  0.00     0.028 C 
ATOM     12  C   LIG d   1       0.001  84.265 110.124  0.00  0.00     0.006 C 
ENDBRANCH   8  11
ENDBRANCH   7   8
ENDBRANCH   1   7
BRANCH   6  13
ATOM     13  N   LIG d   1       0.151  82.681 113.465  0.00  0.00    -0.311 N 
ATOM     14  C   LIG d   1       0.022  83.944 113.867  0.00  0.00     0.210 C 
ATOM     15  C   LIG d   1       1.341  84.680 114.121  0.00  0.00     0.109 C 
ATOM     16  O   LIG d   1      -1.061  84.515 114.069  0.00  0.00    -0.276 OA
ATOM     17  H   LIG d   1       1.066  82.289 113.358  0.00  0.00     0.149 HD
ENDBRANCH   6  13
BRANCH   5  18
ATOM     18  N   LIG d   1      -1.911  81.706 115.497  0.00  0.00     0.381 N 
ATOM     19  H   LIG d   1      -2.732  81.277 115.876  0.00  0.00    -0.090 HD
ATOM     20  H   LIG d   1      -2.155  82.629 115.181  0.00  0.00    -0.090 HD
ATOM     21  H   LIG d   1      -1.204  81.763 116.197  0.00  0.00    -0.090 HD
ENDBRANCH   5  18
BRANCH   3  22
ATOM     22  C   LIG d   1      -2.828  78.021 112.580  0.00  0.00     0.382 C 
ATOM     23  O   LIG d   1      -2.397  77.047 113.243  0.00  0.00    -0.241 OA
ATOM     24  O   LIG d   1      -3.737  77.842 111.747  0.00  0.00    -0.241 OA
ENDBRANCH   3  22
TORSDOF 7
ENDMDL
MODEL 5
REMARK VINA RESULT:      -5.1      2.699      4.172
REMARK  7 active torsions:
REMARK  status: ('A' for Active; 'I' for Inactive)
REMARK    1  A    between atoms: C_2  and  C_3 
REMARK    2  A    between atoms: C_3  and  O_6 
REMARK    3  A    between atoms: C_3  and  C_4 
REMARK    4  A    between atoms: C_7  and  O_6 
REMARK    5  A    between atoms: C_9  and  C_10 
REMARK    6  A    between atoms: N_15  and  C_14 
REMARK    7  A    between atoms: N_20  and  C_19 
REMARK       I    between atoms: C_22  and  N_20 
ROOT
ATOM      1  C   LIG d   1      -1.690  80.440 114.961  0.00  0.00     0.161 C 
ATOM      2  C   LIG d   1      -1.728  81.812 114.659  0.00  0.00     0.016 C 
ATOM      3  C   LIG d   1      -1.650  82.322 113.342  0.00  0.00     0.038 C 
ATOM      4  C   LIG d   1      -1.681  81.482 112.219  0.00  0.00     0.028 C 
ATOM      5  C   LIG d   1      -1.134  80.085 112.492  0.00  0.00    -0.047 C 
ATOM      6  C   LIG d   1      -1.837  79.506 113.741  0.00  0.00     0.091 C 
ENDROOT
BRANCH   1   7
ATOM      7  O   LIG d   1      -2.689  80.131 115.952  0.00  0.00    -0.368 OA
BRANCH   7   8
ATOM      8  C   LIG d   1      -2.193  79.698 117.243  0.00  0.00     0.119 C 
BRANCH   8   9
ATOM      9  C   LIG d   1      -3.080  78.527 117.711  0.00  0.00     0.028 C 
ATOM     10  C   LIG d   1      -4.264  78.272 116.763  0.00  0.00     0.006 C 
ENDBRANCH   8   9
BRANCH   8  11
ATOM     11  C   LIG d   1      -2.371  80.790 118.302  0.00  0.00     0.028 C 
ATOM     12  C   LIG d   1      -1.045  81.459 118.696  0.00  0.00     0.006 C 
ENDBRANCH   8  11
ENDBRANCH   7   8
ENDBRANCH   1   7
BRANCH   6  13
ATOM     13  N   LIG d   1      -1.300  78.175 114.128  0.00  0.00    -0.311 N 
ATOM     14  C   LIG d   1      -2.002  77.047 114.039  0.00  0.00     0.210 C 
ATOM     15  C   LIG d   1      -1.267  75.788 114.508  0.00  0.00     0.109 C 
ATOM     16  O   LIG d   1      -3.154  76.965 113.586  0.00  0.00    -0.276 OA
ATOM     17  H   LIG d   1      -0.362  78.145 114.477  0.00  0.00     0.149 HD
ENDBRANCH   6  13
BRANCH   5  18
ATOM     18  N   LIG d   1      -1.353  79.275 111.278  0.00  0.00     0.381 N 
ATOM     19  H   LIG d   1      -2.133  78.663 111.416  0.00  0.00    -0.090 HD
ATOM     20  H   LIG d   1      -0.537  78.714 111.110  0.00  0.00    -0.090 HD
ATOM     21  H   LIG d   1      -1.523  79.871 110.498  0.00  0.00    -0.090 HD
ENDBRANCH   5  18
BRANCH   3  22
ATOM     22  C   LIG d   1      -1.499  83.685 113.141  0.00  0.00     0.382 C 
ATOM     23  O   LIG d   1      -1.851  84.493 114.034  0.00  0.00    -0.241 OA
ATOM     24  O   LIG d   1      -1.057  84.119 112.061  0.00  0.00    -0.241 OA
ENDBRANCH   3  22
TORSDOF 7
ENDMDL
MODEL 6
REMARK VINA RESULT:      -5.0      2.220      5.464
REMARK  7 active torsions:
REMARK  status: ('A' for Active; 'I' for Inactive)
REMARK    1  A    between atoms: C_2  and  C_3 
REMARK    2  A    between atoms: C_3  and  O_6 
REMARK    3  A    between atoms: C_3  and  C_4 
REMARK    4  A    between atoms: C_7  and  O_6 
REMARK    5  A    between atoms: C_9  and  C_10 
REMARK    6  A    between atoms: N_15  and  C_14 
REMARK    7  A    between atoms: N_20  and  C_19 
REMARK       I    between atoms: C_22  and  N_20 
ROOT
ATOM      1  C   LIG d   1      -2.250  80.719 114.139  0.00  0.00     0.161 C 
ATOM      2  C   LIG d   1      -2.690  79.511 114.704  0.00  0.00     0.016 C 
ATOM      3  C   LIG d   1      -2.607  78.265 114.041  0.00  0.00     0.038 C 
ATOM      4  C   LIG d   1      -1.935  78.120 112.818  0.00  0.00     0.028 C 
ATOM      5  C   LIG d   1      -1.922  79.394 111.979  0.00  0.00    -0.047 C 
ATOM      6  C   LIG d   1      -1.413  80.564 112.852  0.00  0.00     0.091 C 
ENDROOT
BRANCH   1   7
ATOM      7  O   LIG d   1      -1.521  81.482 115.121  0.00  0.00    -0.368 OA
BRANCH   7   8
ATOM      8  C   LIG d   1      -0.170  81.038 115.399  0.00  0.00     0.119 C 
BRANCH   8   9
ATOM      9  C   LIG d   1      -0.083  80.737 116.908  0.00  0.00     0.028 C 
ATOM     10  C   LIG d   1      -1.249  81.356 117.698  0.00  0.00     0.006 C 
ENDBRANCH   8   9
BRANCH   8  11
ATOM     11  C   LIG d   1       0.846  82.155 115.148  0.00  0.00     0.028 C 
ATOM     12  C   LIG d   1       0.192  83.541 115.030  0.00  0.00     0.006 C 
ENDBRANCH   8  11
ENDBRANCH   7   8
ENDBRANCH   1   7
BRANCH   6  13
ATOM     13  N   LIG d   1      -1.449  81.864 112.132  0.00  0.00    -0.311 N 
ATOM     14  C   LIG d   1      -0.394  82.386 111.508  0.00  0.00     0.210 C 
ATOM     15  C   LIG d   1      -0.641  83.745 110.847  0.00  0.00     0.109 C 
ATOM     16  O   LIG d   1       0.714  81.836 111.412  0.00  0.00    -0.276 OA
ATOM     17  H   LIG d   1      -2.317  82.363 112.134  0.00  0.00     0.149 HD
ENDBRANCH   6  13
BRANCH   5  18
ATOM     18  N   LIG d   1      -1.074  79.141 110.799  0.00  0.00     0.381 N 
ATOM     19  H   LIG d   1      -1.648  78.918 110.011  0.00  0.00    -0.090 HD
ATOM     20  H   LIG d   1      -0.479  78.354 110.989  0.00  0.00    -0.090 HD
ATOM     21  H   LIG d   1      -0.520  79.945 110.599  0.00  0.00    -0.090 HD
ENDBRANCH   5  18
BRANCH   3  22
ATOM     22  C   LIG d   1      -3.236  77.155 114.583  0.00  0.00     0.382 C 
ATOM     23  O   LIG d   1      -3.033  76.018 114.092  0.00  0.00    -0.241 OA
ATOM     24  O   LIG d   1      -4.037  77.281 115.528  0.00  0.00    -0.241 OA
ENDBRANCH   3  22
TORSDOF 7
ENDMDL
MODEL 7
REMARK VINA RESULT:      -4.8      2.358      5.463
REMARK  7 active torsions:
REMARK  status: ('A' for Active; 'I' for Inactive)
REMARK    1  A    between atoms: C_2  and  C_3 
REMARK    2  A    between atoms: C_3  and  O_6 
REMARK    3  A    between atoms: C_3  and  C_4 
REMARK    4  A    between atoms: C_7  and  O_6 
REMARK    5  A    between atoms: C_9  and  C_10 
REMARK    6  A    between atoms: N_15  and  C_14 
REMARK    7  A    between atoms: N_20  and  C_19 
REMARK       I    between atoms: C_22  and  N_20 
ROOT
ATOM      1  C   LIG d   1      -1.767  80.037 114.691  0.00  0.00     0.161 C 
ATOM      2  C   LIG d   1      -2.300  78.789 115.053  0.00  0.00     0.016 C 
ATOM      3  C   LIG d   1      -2.519  77.739 114.131  0.00  0.00     0.038 C 
ATOM      4  C   LIG d   1      -2.074  77.814 112.803  0.00  0.00     0.028 C 
ATOM      5  C   LIG d   1      -1.989  79.242 112.273  0.00  0.00    -0.047 C 
ATOM      6  C   LIG d   1      -1.173  80.099 113.268  0.00  0.00     0.091 C 
ENDROOT
BRANCH   1   7
ATOM      7  O   LIG d   1      -0.784  80.449 115.662  0.00  0.00    -0.368 OA
BRANCH   7   8
ATOM      8  C   LIG d   1      -1.145  81.579 116.494  0.00  0.00     0.119 C 
BRANCH   8   9
ATOM      9  C   LIG d   1       0.155  82.325 116.850  0.00  0.00     0.028 C 
ATOM     10  C   LIG d   1       0.916  82.806 115.604  0.00  0.00     0.006 C 
ENDBRANCH   8   9
BRANCH   8  11
ATOM     11  C   LIG d   1      -1.730  81.120 117.833  0.00  0.00     0.028 C 
ATOM     12  C   LIG d   1      -0.856  81.520 119.032  0.00  0.00     0.006 C 
ENDBRANCH   8  11
ENDBRANCH   7   8
ENDBRANCH   1   7
BRANCH   6  13
ATOM     13  N   LIG d   1      -1.113  81.529 112.867  0.00  0.00    -0.311 N 
ATOM     14  C   LIG d   1      -0.130  82.042 112.129  0.00  0.00     0.210 C 
ATOM     15  C   LIG d   1      -0.250  83.543 111.847  0.00  0.00     0.109 C 
ATOM     16  O   LIG d   1       0.813  81.391 111.655  0.00  0.00    -0.276 OA
ATOM     17  H   LIG d   1      -1.854  82.123 113.183  0.00  0.00     0.149 HD
ENDBRANCH   6  13
BRANCH   5  18
ATOM     18  N   LIG d   1      -1.383  79.182 110.929  0.00  0.00     0.381 N 
ATOM     19  H   LIG d   1      -0.481  79.616 110.944  0.00  0.00    -0.090 HD
ATOM     20  H   LIG d   1      -1.966  79.690 110.287  0.00  0.00    -0.090 HD
ATOM     21  H   LIG d   1      -1.298  78.234 110.634  0.00  0.00    -0.090 HD
ENDBRANCH   5  18
BRANCH   3  22
ATOM     22  C   LIG d   1      -3.224  76.613 114.527  0.00  0.00     0.382 C 
ATOM     23  O   LIG d   1      -3.083  76.161 115.689  0.00  0.00    -0.241 OA
ATOM     24  O   LIG d   1      -3.966  76.017 113.723  0.00  0.00    -0.241 OA
ENDBRANCH   3  22
TORSDOF 7
ENDMDL
MODEL 8
REMARK VINA RESULT:      -4.8      1.706      4.842
REMARK  7 active torsions:
REMARK  status: ('A' for Active; 'I' for Inactive)
REMARK    1  A    between atoms: C_2  and  C_3 
REMARK    2  A    between atoms: C_3  and  O_6 
REMARK    3  A    between atoms: C_3  and  C_4 
REMARK    4  A    between atoms: C_7  and  O_6 
REMARK    5  A    between atoms: C_9  and  C_10 
REMARK    6  A    between atoms: N_15  and  C_14 
REMARK    7  A    between atoms: N_20  and  C_19 
REMARK       I    between atoms: C_22  and  N_20 
ROOT
ATOM      1  C   LIG d   1      -0.119  81.815 112.946  0.00  0.00     0.161 C 
ATOM      2  C   LIG d   1      -1.126  80.848 113.103  0.00  0.00     0.016 C 
ATOM      3  C   LIG d   1      -1.424  79.869 112.128  0.00  0.00     0.038 C 
ATOM      4  C   LIG d   1      -0.628  79.693 110.986  0.00  0.00     0.028 C 
ATOM      5  C   LIG d   1       0.086  80.966 110.544  0.00  0.00    -0.047 C 
ATOM      6  C   LIG d   1       0.833  81.569 111.756  0.00  0.00     0.091 C 
ENDROOT
BRANCH   1   7
ATOM      7  O   LIG d   1       0.632  81.942 114.169  0.00  0.00    -0.368 OA
BRANCH   7   8
ATOM      8  C   LIG d   1       0.130  82.905 115.128  0.00  0.00     0.119 C 
BRANCH   8   9
ATOM      9  C   LIG d   1      -0.019  84.253 114.396  0.00  0.00     0.028 C 
ATOM     10  C   LIG d   1      -1.488  84.678 114.243  0.00  0.00     0.006 C 
ENDBRANCH   8   9
BRANCH   8  11
ATOM     11  C   LIG d   1       1.146  83.160 116.246  0.00  0.00     0.028 C 
ATOM     12  C   LIG d   1       1.983  84.428 116.012  0.00  0.00     0.006 C 
ENDBRANCH   8  11
ENDBRANCH   7   8
ENDBRANCH   1   7
BRANCH   6  13
ATOM     13  N   LIG d   1       1.489  82.862 111.431  0.00  0.00    -0.311 N 
ATOM     14  C   LIG d   1       2.753  82.961 111.023  0.00  0.00     0.210 C 
ATOM     15  C   LIG d   1       3.239  84.390 110.761  0.00  0.00     0.109 C 
ATOM     16  O   LIG d   1       3.509  81.998 110.823  0.00  0.00    -0.276 OA
ATOM     17  H   LIG d   1       0.939  83.692 111.535  0.00  0.00     0.149 HD
ENDBRANCH   6  13
BRANCH   5  18
ATOM     18  N   LIG d   1       0.984  80.609 109.430  0.00  0.00     0.381 N 
ATOM     19  H   LIG d   1       1.560  81.393 109.195  0.00  0.00    -0.090 HD
ATOM     20  H   LIG d   1       0.429  80.374 108.627  0.00  0.00    -0.090 HD
ATOM     21  H   LIG d   1       1.555  79.834 109.688  0.00  0.00    -0.090 HD
ENDBRANCH   5  18
BRANCH   3  22
ATOM     22  C   LIG d   1      -2.553  79.077 112.272  0.00  0.00     0.382 C 
ATOM     23  O   LIG d   1      -2.454  77.828 112.218  0.00  0.00    -0.241 OA
ATOM     24  O   LIG d   1      -3.676  79.598 112.411  0.00  0.00    -0.241 OA
ENDBRANCH   3  22
TORSDOF 7
ENDMDL
MODEL 9
REMARK VINA RESULT:      -4.7      4.418      6.888
REMARK  7 active torsions:
REMARK  status: ('A' for Active; 'I' for Inactive)
REMARK    1  A    between atoms: C_2  and  C_3 
REMARK    2  A    between atoms: C_3  and  O_6 
REMARK    3  A    between atoms: C_3  and  C_4 
REMARK    4  A    between atoms: C_7  and  O_6 
REMARK    5  A    between atoms: C_9  and  C_10 
REMARK    6  A    between atoms: N_15  and  C_14 
REMARK    7  A    between atoms: N_20  and  C_19 
REMARK       I    between atoms: C_22  and  N_20 
ROOT
ATOM      1  C   LIG d   1      -2.616  78.048 115.861  0.00  0.00     0.161 C 
ATOM      2  C   LIG d   1      -2.573  77.827 114.474  0.00  0.00     0.016 C 
ATOM      3  C   LIG d   1      -2.577  78.870 113.520  0.00  0.00     0.038 C 
ATOM      4  C   LIG d   1      -2.471  80.218 113.895  0.00  0.00     0.028 C 
ATOM      5  C   LIG d   1      -3.020  80.505 115.288  0.00  0.00    -0.047 C 
ATOM      6  C   LIG d   1      -2.388  79.512 116.291  0.00  0.00     0.091 C 
ENDROOT
BRANCH   1   7
ATOM      7  O   LIG d   1      -1.675  77.179 116.523  0.00  0.00    -0.368 OA
BRANCH   7   8
ATOM      8  C   LIG d   1      -1.893  75.757 116.355  0.00  0.00     0.119 C 
BRANCH   8   9
ATOM      9  C   LIG d   1      -2.598  75.243 117.626  0.00  0.00     0.028 C 
ATOM     10  C   LIG d   1      -2.167  76.011 118.887  0.00  0.00     0.006 C 
ENDBRANCH   8   9
BRANCH   8  11
ATOM     11  C   LIG d   1      -0.567  74.994 116.291  0.00  0.00     0.028 C 
ATOM     12  C   LIG d   1       0.074  75.030 114.894  0.00  0.00     0.006 C 
ENDBRANCH   8  11
ENDBRANCH   7   8
ENDBRANCH   1   7
BRANCH   6  13
ATOM     13  N   LIG d   1      -2.935  79.668 117.664  0.00  0.00    -0.311 N 
ATOM     14  C   LIG d   1      -2.416  80.496 118.569  0.00  0.00     0.210 C 
ATOM     15  C   LIG d   1      -3.120  80.489 119.930  0.00  0.00     0.109 C 
ATOM     16  O   LIG d   1      -1.460  81.259 118.365  0.00  0.00    -0.276 OA
ATOM     17  H   LIG d   1      -3.730  79.110 117.904  0.00  0.00     0.149 HD
ENDBRANCH   6  13
BRANCH   5  18
ATOM     18  N   LIG d   1      -2.721  81.914 115.604  0.00  0.00     0.381 N 
ATOM     19  H   LIG d   1      -2.528  82.009 116.581  0.00  0.00    -0.090 HD
ATOM     20  H   LIG d   1      -3.527  82.474 115.386  0.00  0.00    -0.090 HD
ATOM     21  H   LIG d   1      -1.938  82.224 115.071  0.00  0.00    -0.090 HD
ENDBRANCH   5  18
BRANCH   3  22
ATOM     22  C   LIG d   1      -2.728  78.571 112.175  0.00  0.00     0.382 C 
ATOM     23  O   LIG d   1      -1.984  79.115 111.324  0.00  0.00    -0.241 OA
ATOM     24  O   LIG d   1      -3.628  77.796 111.797  0.00  0.00    -0.241 OA
ENDBRANCH   3  22
TORSDOF 7
ENDMDL
