MODEL 1
REMARK VINA RESULT:      -5.7      0.000      0.000
REMARK  7 active torsions:
REMARK  status: ('A' for Active; 'I' for Inactive)
REMARK    1  A    between atoms: C_2  and  C_3 
REMARK    2  A    between atoms: C_3  and  O_6 
REMARK    3  A    between atoms: C_3  and  C_4 
REMARK    4  A    between atoms: C_7  and  O_6 
REMARK    5  A    between atoms: C_9  and  C_10 
REMARK    6  A    between atoms: N_15  and  C_14 
REMARK    7  A    between atoms: N_20  and  C_19 
REMARK       I    between atoms: C_22  and  N_20 
ROOT
ATOM      1  C   LIG d   1       0.096  81.105 111.322  0.00  0.00     0.161 C 
ATOM      2  C   LIG d   1      -1.073  80.418 111.689  0.00  0.00     0.016 C 
ATOM      3  C   LIG d   1      -1.323  79.069 111.347  0.00  0.00     0.038 C 
ATOM      4  C   LIG d   1      -0.347  78.265 110.740  0.00  0.00     0.028 C 
ATOM      5  C   LIG d   1       0.653  79.054 109.902  0.00  0.00    -0.047 C 
ATOM      6  C   LIG d   1       1.220  80.212 110.755  0.00  0.00     0.091 C 
ENDROOT
BRANCH   1   7
ATOM      7  O   LIG d   1       0.582  81.874 112.439  0.00  0.00    -0.368 OA
BRANCH   7   8
ATOM      8  C   LIG d   1       1.089  83.196 112.131  0.00  0.00     0.119 C 
BRANCH   8   9
ATOM      9  C   LIG d   1       2.121  83.560 113.215  0.00  0.00     0.028 C 
ATOM     10  C   LIG d   1       3.330  84.320 112.644  0.00  0.00     0.006 C 
ENDBRANCH   8   9
BRANCH   8  11
ATOM     11  C   LIG d   1      -0.011  84.255 112.245  0.00  0.00     0.028 C 
ATOM     12  C   LIG d   1      -0.611  84.640 110.884  0.00  0.00     0.006 C 
ENDBRANCH   8  11
ENDBRANCH   7   8
ENDBRANCH   1   7
BRANCH   6  13
ATOM     13  N   LIG d   1       2.143  81.085 109.984  0.00  0.00    -0.311 N 
ATOM     14  C   LIG d   1       3.396  81.338 110.358  0.00  0.00     0.210 C 
ATOM     15  C   LIG d   1       4.169  82.280 109.430  0.00  0.00     0.109 C 
ATOM     16  O   LIG d   1       3.951  80.845 111.351  0.00  0.00    -0.276 OA
ATOM     17  H   LIG d   1       1.784  81.501 109.147  0.00  0.00     0.149 HD
ENDBRANCH   6  13
BRANCH   5  18
ATOM     18  N   LIG d   1       1.691  78.113 109.442  0.00  0.00     0.381 N 
ATOM     19  H   LIG d   1       1.443  77.747 108.544  0.00  0.00    -0.090 HD
ATOM     20  H   LIG d   1       1.746  77.347 110.090  0.00  0.00    -0.090 HD
ATOM     21  H   LIG d   1       2.571  78.576 109.388  0.00  0.00    -0.090 HD
ENDBRANCH   5  18
BRANCH   3  22
ATOM     22  C   LIG d   1      -2.576  78.522 111.578  0.00  0.00     0.382 C 
ATOM     23  O   LIG d   1      -3.114  77.797 110.707  0.00  0.00    -0.241 OA
ATOM     24  O   LIG d   1      -3.195  78.781 112.627  0.00  0.00    -0.241 OA
ENDBRANCH   3  22
TORSDOF 7
ENDMDL
MODEL 2
REMARK VINA RESULT:      -5.7      1.866      4.670
REMARK  7 active torsions:
REMARK  status: ('A' for Active; 'I' for Inactive)
REMARK    1  A    between atoms: C_2  and  C_3 
REMARK    2  A    between atoms: C_3  and  O_6 
REMARK    3  A    between atoms: C_3  and  C_4 
REMARK    4  A    between atoms: C_7  and  O_6 
REMARK    5  A    between atoms: C_9  and  C_10 
REMARK    6  A    between atoms: N_15  and  C_14 
REMARK    7  A    between atoms: N_20  and  C_19 
REMARK       I    between atoms: C_22  and  N_20 
ROOT
ATOM      1  C   LIG d   1       1.257  81.034 112.423  0.00  0.00     0.161 C 
ATOM      2  C   LIG d   1       2.434  81.313 111.709  0.00  0.00     0.016 C 
ATOM      3  C   LIG d   1       2.608  80.995 110.342  0.00  0.00     0.038 C 
ATOM      4  C   LIG d   1       1.554  80.510 109.553  0.00  0.00     0.028 C 
ATOM      5  C   LIG d   1       0.504  79.743 110.351  0.00  0.00    -0.047 C 
ATOM      6  C   LIG d   1       0.057  80.607 111.552  0.00  0.00     0.091 C 
ENDROOT
BRANCH   1   7
ATOM      7  O   LIG d   1       0.903  82.166 113.242  0.00  0.00    -0.368 OA
BRANCH   7   8
ATOM      8  C   LIG d   1       1.213  83.471 112.695  0.00  0.00     0.119 C 
BRANCH   8   9
ATOM      9  C   LIG d   1       1.546  84.402 113.877  0.00  0.00     0.028 C 
ATOM     10  C   LIG d   1       2.951  84.146 114.448  0.00  0.00     0.006 C 
ENDBRANCH   8   9
BRANCH   8  11
ATOM     11  C   LIG d   1      -0.010  84.097 112.018  0.00  0.00     0.028 C 
ATOM     12  C   LIG d   1       0.210  84.365 110.521  0.00  0.00     0.006 C 
ENDBRANCH   8  11
ENDBRANCH   7   8
ENDBRANCH   1   7
BRANCH   6  13
ATOM     13  N   LIG d   1      -0.908  79.897 112.432  0.00  0.00    -0.311 N 
ATOM     14  C   LIG d   1      -2.116  80.372 112.729  0.00  0.00     0.210 C 
ATOM     15  C   LIG d   1      -2.944  79.492 113.670  0.00  0.00     0.109 C 
ATOM     16  O   LIG d   1      -2.593  81.424 112.276  0.00  0.00    -0.276 OA
ATOM     17  H   LIG d   1      -0.614  79.021 112.818  0.00  0.00     0.149 HD
ENDBRANCH   6  13
BRANCH   5  18
ATOM     18  N   LIG d   1      -0.601  79.414 109.431  0.00  0.00     0.381 N 
ATOM     19  H   LIG d   1      -1.048  80.255 109.125  0.00  0.00    -0.090 HD
ATOM     20  H   LIG d   1      -1.278  78.858 109.923  0.00  0.00    -0.090 HD
ATOM     21  H   LIG d   1      -0.253  78.910 108.646  0.00  0.00    -0.090 HD
ENDBRANCH   5  18
BRANCH   3  22
ATOM     22  C   LIG d   1       3.860  81.125 109.761  0.00  0.00     0.382 C 
ATOM     23  O   LIG d   1       4.294  82.261 109.453  0.00  0.00    -0.241 OA
ATOM     24  O   LIG d   1       4.543  80.116 109.499  0.00  0.00    -0.241 OA
ENDBRANCH   3  22
TORSDOF 7
ENDMDL
MODEL 3
REMARK VINA RESULT:      -5.2      2.317      5.196
REMARK  7 active torsions:
REMARK  status: ('A' for Active; 'I' for Inactive)
REMARK    1  A    between atoms: C_2  and  C_3 
REMARK    2  A    between atoms: C_3  and  O_6 
REMARK    3  A    between atoms: C_3  and  C_4 
REMARK    4  A    between atoms: C_7  and  O_6 
REMARK    5  A    between atoms: C_9  and  C_10 
REMARK    6  A    between atoms: N_15  and  C_14 
REMARK    7  A    between atoms: N_20  and  C_19 
REMARK       I    between atoms: C_22  and  N_20 
ROOT
ATOM      1  C   LIG d   1       1.836  81.311 112.581  0.00  0.00     0.161 C 
ATOM      2  C   LIG d   1       2.752  82.124 111.893  0.00  0.00     0.016 C 
ATOM      3  C   LIG d   1       2.710  82.333 110.495  0.00  0.00     0.038 C 
ATOM      4  C   LIG d   1       1.651  81.860 109.706  0.00  0.00     0.028 C 
ATOM      5  C   LIG d   1       0.981  80.614 110.276  0.00  0.00    -0.047 C 
ATOM      6  C   LIG d   1       0.609  80.876 111.754  0.00  0.00     0.091 C 
ENDROOT
BRANCH   1   7
ATOM      7  O   LIG d   1       1.416  81.967 113.794  0.00  0.00    -0.368 OA
BRANCH   7   8
ATOM      8  C   LIG d   1       2.471  82.343 114.713  0.00  0.00     0.119 C 
BRANCH   8   9
ATOM      9  C   LIG d   1       2.311  81.480 115.980  0.00  0.00     0.028 C 
ATOM     10  C   LIG d   1       3.662  81.011 116.545  0.00  0.00     0.006 C 
ENDBRANCH   8   9
BRANCH   8  11
ATOM     11  C   LIG d   1       2.308  83.791 115.185  0.00  0.00     0.028 C 
ATOM     12  C   LIG d   1       1.545  84.664 114.177  0.00  0.00     0.006 C 
ENDBRANCH   8  11
ENDBRANCH   7   8
ENDBRANCH   1   7
BRANCH   6  13
ATOM     13  N   LIG d   1       0.024  79.679 112.412  0.00  0.00    -0.311 N 
ATOM     14  C   LIG d   1      -1.287  79.461 112.506  0.00  0.00     0.210 C 
ATOM     15  C   LIG d   1      -1.677  78.175 113.241  0.00  0.00     0.109 C 
ATOM     16  O   LIG d   1      -2.162  80.194 112.022  0.00  0.00    -0.276 OA
ATOM     17  H   LIG d   1       0.663  79.016 112.804  0.00  0.00     0.149 HD
ENDBRANCH   6  13
BRANCH   5  18
ATOM     18  N   LIG d   1      -0.189  80.311 109.430  0.00  0.00     0.381 N 
ATOM     19  H   LIG d   1      -0.019  79.478 108.904  0.00  0.00    -0.090 HD
ATOM     20  H   LIG d   1      -0.329  81.069 108.785  0.00  0.00    -0.090 HD
ATOM     21  H   LIG d   1      -0.999  80.195 109.998  0.00  0.00    -0.090 HD
ENDBRANCH   5  18
BRANCH   3  22
ATOM     22  C   LIG d   1       3.758  82.989 109.867  0.00  0.00     0.382 C 
ATOM     23  O   LIG d   1       4.736  82.335 109.431  0.00  0.00    -0.241 OA
ATOM     24  O   LIG d   1       3.758  84.230 109.769  0.00  0.00    -0.241 OA
ENDBRANCH   3  22
TORSDOF 7
ENDMDL
MODEL 4
REMARK VINA RESULT:      -4.8      3.238      4.386
REMARK  7 active torsions:
REMARK  status: ('A' for Active; 'I' for Inactive)
REMARK    1  A    between atoms: C_2  and  C_3 
REMARK    2  A    between atoms: C_3  and  O_6 
REMARK    3  A    between atoms: C_3  and  C_4 
REMARK    4  A    between atoms: C_7  and  O_6 
REMARK    5  A    between atoms: C_9  and  C_10 
REMARK    6  A    between atoms: N_15  and  C_14 
REMARK    7  A    between atoms: N_20  and  C_19 
REMARK       I    between atoms: C_22  and  N_20 
ROOT
ATOM      1  C   LIG d   1      -0.310  79.501 112.945  0.00  0.00     0.161 C 
ATOM      2  C   LIG d   1      -1.266  79.093 112.000  0.00  0.00     0.016 C 
ATOM      3  C   LIG d   1      -2.464  78.425 112.343  0.00  0.00     0.038 C 
ATOM      4  C   LIG d   1      -2.860  78.252 113.678  0.00  0.00     0.028 C 
ATOM      5  C   LIG d   1      -1.690  78.196 114.655  0.00  0.00    -0.047 C 
ATOM      6  C   LIG d   1      -0.776  79.420 114.413  0.00  0.00     0.091 C 
ENDROOT
BRANCH   1   7
ATOM      7  O   LIG d   1       0.145  80.833 112.636  0.00  0.00    -0.368 OA
BRANCH   7   8
ATOM      8  C   LIG d   1       0.368  81.122 111.234  0.00  0.00     0.119 C 
BRANCH   8   9
ATOM      9  C   LIG d   1       1.733  80.518 110.849  0.00  0.00     0.028 C 
ATOM     10  C   LIG d   1       2.897  81.157 111.625  0.00  0.00     0.006 C 
ENDBRANCH   8   9
BRANCH   8  11
ATOM     11  C   LIG d   1       0.507  82.627 110.990  0.00  0.00     0.028 C 
ATOM     12  C   LIG d   1      -0.661  83.436 111.576  0.00  0.00     0.006 C 
ENDBRANCH   8  11
ENDBRANCH   7   8
ENDBRANCH   1   7
BRANCH   6  13
ATOM     13  N   LIG d   1       0.438  79.399 115.270  0.00  0.00    -0.311 N 
ATOM     14  C   LIG d   1       0.502  79.984 116.465  0.00  0.00     0.210 C 
ATOM     15  C   LIG d   1       1.854  79.860 117.174  0.00  0.00     0.109 C 
ATOM     16  O   LIG d   1      -0.442  80.568 117.018  0.00  0.00    -0.276 OA
ATOM     17  H   LIG d   1       1.241  78.920 114.912  0.00  0.00     0.149 HD
ENDBRANCH   6  13
BRANCH   5  18
ATOM     18  N   LIG d   1      -2.250  78.153 116.019  0.00  0.00     0.381 N 
ATOM     19  H   LIG d   1      -3.072  77.583 116.029  0.00  0.00    -0.090 HD
ATOM     20  H   LIG d   1      -2.507  79.084 116.294  0.00  0.00    -0.090 HD
ATOM     21  H   LIG d   1      -1.574  77.786 116.653  0.00  0.00    -0.090 HD
ENDBRANCH   5  18
BRANCH   3  22
ATOM     22  C   LIG d   1      -3.261  77.886 111.345  0.00  0.00     0.382 C 
ATOM     23  O   LIG d   1      -4.440  77.542 111.601  0.00  0.00    -0.241 OA
ATOM     24  O   LIG d   1      -2.801  77.698 110.202  0.00  0.00    -0.241 OA
ENDBRANCH   3  22
TORSDOF 7
ENDMDL
MODEL 5
REMARK VINA RESULT:      -4.8      2.727      4.347
REMARK  7 active torsions:
REMARK  status: ('A' for Active; 'I' for Inactive)
REMARK    1  A    between atoms: C_2  and  C_3 
REMARK    2  A    between atoms: C_3  and  O_6 
REMARK    3  A    between atoms: C_3  and  C_4 
REMARK    4  A    between atoms: C_7  and  O_6 
REMARK    5  A    between atoms: C_9  and  C_10 
REMARK    6  A    between atoms: N_15  and  C_14 
REMARK    7  A    between atoms: N_20  and  C_19 
REMARK       I    between atoms: C_22  and  N_20 
ROOT
ATOM      1  C   LIG d   1      -0.771  79.928 113.168  0.00  0.00     0.161 C 
ATOM      2  C   LIG d   1      -1.776  79.024 112.782  0.00  0.00     0.016 C 
ATOM      3  C   LIG d   1      -1.940  78.564 111.456  0.00  0.00     0.038 C 
ATOM      4  C   LIG d   1      -1.012  78.861 110.447  0.00  0.00     0.028 C 
ATOM      5  C   LIG d   1      -0.270  80.173 110.674  0.00  0.00    -0.047 C 
ATOM      6  C   LIG d   1       0.318  80.176 112.104  0.00  0.00     0.091 C 
ENDROOT
BRANCH   1   7
ATOM      7  O   LIG d   1      -0.174  79.495 114.406  0.00  0.00    -0.368 OA
BRANCH   7   8
ATOM      8  C   LIG d   1      -0.903  78.485 115.146  0.00  0.00     0.119 C 
BRANCH   8   9
ATOM      9  C   LIG d   1      -1.302  79.103 116.501  0.00  0.00     0.028 C 
ATOM     10  C   LIG d   1      -2.821  79.069 116.736  0.00  0.00     0.006 C 
ENDBRANCH   8   9
BRANCH   8  11
ATOM     11  C   LIG d   1      -0.006  77.293 115.493  0.00  0.00     0.028 C 
ATOM     12  C   LIG d   1      -0.387  76.018 114.725  0.00  0.00     0.006 C 
ENDBRANCH   8  11
ENDBRANCH   7   8
ENDBRANCH   1   7
BRANCH   6  13
ATOM     13  N   LIG d   1       0.989  81.459 112.438  0.00  0.00    -0.311 N 
ATOM     14  C   LIG d   1       2.275  81.701 112.189  0.00  0.00     0.210 C 
ATOM     15  C   LIG d   1       2.771  83.081 112.632  0.00  0.00     0.109 C 
ATOM     16  O   LIG d   1       3.044  80.916 111.614  0.00  0.00    -0.276 OA
ATOM     17  H   LIG d   1       0.432  82.164 112.879  0.00  0.00     0.149 HD
ENDBRANCH   6  13
BRANCH   5  18
ATOM     18  N   LIG d   1       0.761  80.290 109.625  0.00  0.00     0.381 N 
ATOM     19  H   LIG d   1       0.722  81.201 109.213  0.00  0.00    -0.090 HD
ATOM     20  H   LIG d   1       0.574  79.611 108.909  0.00  0.00    -0.090 HD
ATOM     21  H   LIG d   1       1.664  80.132 110.015  0.00  0.00    -0.090 HD
ENDBRANCH   5  18
BRANCH   3  22
ATOM     22  C   LIG d   1      -3.067  77.829 111.118  0.00  0.00     0.382 C 
ATOM     23  O   LIG d   1      -3.869  77.466 112.012  0.00  0.00    -0.241 OA
ATOM     24  O   LIG d   1      -3.267  77.486 109.938  0.00  0.00    -0.241 OA
ENDBRANCH   3  22
TORSDOF 7
ENDMDL
MODEL 6
REMARK VINA RESULT:      -4.6      5.068      7.322
REMARK  7 active torsions:
REMARK  status: ('A' for Active; 'I' for Inactive)
REMARK    1  A    between atoms: C_2  and  C_3 
REMARK    2  A    between atoms: C_3  and  O_6 
REMARK    3  A    between atoms: C_3  and  C_4 
REMARK    4  A    between atoms: C_7  and  O_6 
REMARK    5  A    between atoms: C_9  and  C_10 
REMARK    6  A    between atoms: N_15  and  C_14 
REMARK    7  A    between atoms: N_20  and  C_19 
REMARK       I    between atoms: C_22  and  N_20 
ROOT
ATOM      1  C   LIG d   1      -1.984  76.955 114.973  0.00  0.00     0.161 C 
ATOM      2  C   LIG d   1      -2.646  76.887 113.736  0.00  0.00     0.016 C 
ATOM      3  C   LIG d   1      -2.325  77.713 112.635  0.00  0.00     0.038 C 
ATOM      4  C   LIG d   1      -1.212  78.567 112.648  0.00  0.00     0.028 C 
ATOM      5  C   LIG d   1      -0.823  79.035 114.046  0.00  0.00    -0.047 C 
ATOM      6  C   LIG d   1      -0.694  77.802 114.970  0.00  0.00     0.091 C 
ENDROOT
BRANCH   1   7
ATOM      7  O   LIG d   1      -1.708  75.625 115.454  0.00  0.00    -0.368 OA
BRANCH   7   8
ATOM      8  C   LIG d   1      -2.535  75.160 116.550  0.00  0.00     0.119 C 
BRANCH   8   9
ATOM      9  C   LIG d   1      -3.214  76.394 117.174  0.00  0.00     0.028 C 
ATOM     10  C   LIG d   1      -2.790  76.622 118.634  0.00  0.00     0.006 C 
ENDBRANCH   8   9
BRANCH   8  11
ATOM     11  C   LIG d   1      -1.685  74.554 117.671  0.00  0.00     0.028 C 
ATOM     12  C   LIG d   1      -0.268  74.180 117.208  0.00  0.00     0.006 C 
ENDBRANCH   8  11
ENDBRANCH   7   8
ENDBRANCH   1   7
BRANCH   6  13
ATOM     13  N   LIG d   1      -0.398  78.177 116.377  0.00  0.00    -0.311 N 
ATOM     14  C   LIG d   1       0.670  77.743 117.043  0.00  0.00     0.210 C 
ATOM     15  C   LIG d   1       0.774  78.235 118.490  0.00  0.00     0.109 C 
ATOM     16  O   LIG d   1       1.559  77.024 116.562  0.00  0.00    -0.276 OA
ATOM     17  H   LIG d   1      -1.051  78.783 116.834  0.00  0.00     0.149 HD
ENDBRANCH   6  13
BRANCH   5  18
ATOM     18  N   LIG d   1       0.431  79.802 113.927  0.00  0.00     0.381 N 
ATOM     19  H   LIG d   1       0.289  80.592 113.330  0.00  0.00    -0.090 HD
ATOM     20  H   LIG d   1       1.133  79.216 113.512  0.00  0.00    -0.090 HD
ATOM     21  H   LIG d   1       0.731  80.107 114.827  0.00  0.00    -0.090 HD
ENDBRANCH   5  18
BRANCH   3  22
ATOM     22  C   LIG d   1      -3.147  77.720 111.518  0.00  0.00     0.382 C 
ATOM     23  O   LIG d   1      -2.660  77.936 110.382  0.00  0.00    -0.241 OA
ATOM     24  O   LIG d   1      -4.376  77.557 111.638  0.00  0.00    -0.241 OA
ENDBRANCH   3  22
TORSDOF 7
ENDMDL
MODEL 7
REMARK VINA RESULT:      -4.4      6.112      7.028
REMARK  7 active torsions:
REMARK  status: ('A' for Active; 'I' for Inactive)
REMARK    1  A    between atoms: C_2  and  C_3 
REMARK    2  A    between atoms: C_3  and  O_6 
REMARK    3  A    between atoms: C_3  and  C_4 
REMARK    4  A    between atoms: C_7  and  O_6 
REMARK    5  A    between atoms: C_9  and  C_10 
REMARK    6  A    between atoms: N_15  and  C_14 
REMARK    7  A    between atoms: N_20  and  C_19 
REMARK       I    between atoms: C_22  and  N_20 
ROOT
ATOM      1  C   LIG d   1      -0.246  78.070 115.803  0.00  0.00     0.161 C 
ATOM      2  C   LIG d   1      -1.535  78.102 115.246  0.00  0.00     0.016 C 
ATOM      3  C   LIG d   1      -2.235  76.943 114.838  0.00  0.00     0.038 C 
ATOM      4  C   LIG d   1      -1.751  75.653 115.102  0.00  0.00     0.028 C 
ATOM      5  C   LIG d   1      -0.231  75.586 115.205  0.00  0.00    -0.047 C 
ATOM      6  C   LIG d   1       0.253  76.665 116.201  0.00  0.00     0.091 C 
ENDROOT
BRANCH   1   7
ATOM      7  O   LIG d   1      -0.180  78.963 116.933  0.00  0.00    -0.368 OA
BRANCH   7   8
ATOM      8  C   LIG d   1      -1.410  79.143 117.676  0.00  0.00     0.119 C 
BRANCH   8   9
ATOM      9  C   LIG d   1      -1.429  80.592 118.198  0.00  0.00     0.028 C 
ATOM     10  C   LIG d   1      -2.749  80.946 118.903  0.00  0.00     0.006 C 
ENDBRANCH   8   9
BRANCH   8  11
ATOM     11  C   LIG d   1      -1.439  78.261 118.928  0.00  0.00     0.028 C 
ATOM     12  C   LIG d   1      -2.454  77.111 118.823  0.00  0.00     0.006 C 
ENDBRANCH   8  11
ENDBRANCH   7   8
ENDBRANCH   1   7
BRANCH   6  13
ATOM     13  N   LIG d   1       1.735  76.724 116.297  0.00  0.00    -0.311 N 
ATOM     14  C   LIG d   1       2.434  76.084 117.233  0.00  0.00     0.210 C 
ATOM     15  C   LIG d   1       3.950  76.296 117.165  0.00  0.00     0.109 C 
ATOM     16  O   LIG d   1       1.946  75.337 118.094  0.00  0.00    -0.276 OA
ATOM     17  H   LIG d   1       2.214  77.283 115.619  0.00  0.00     0.149 HD
ENDBRANCH   6  13
BRANCH   5  18
ATOM     18  N   LIG d   1       0.128  74.216 115.618  0.00  0.00     0.381 N 
ATOM     19  H   LIG d   1      -0.566  73.858 116.244  0.00  0.00    -0.090 HD
ATOM     20  H   LIG d   1       1.007  74.242 116.103  0.00  0.00    -0.090 HD
ATOM     21  H   LIG d   1       0.199  73.626 114.818  0.00  0.00    -0.090 HD
ENDBRANCH   5  18
BRANCH   3  22
ATOM     22  C   LIG d   1      -3.416  77.070 114.123  0.00  0.00     0.382 C 
ATOM     23  O   LIG d   1      -3.446  76.769 112.905  0.00  0.00    -0.241 OA
ATOM     24  O   LIG d   1      -4.440  77.523 114.669  0.00  0.00    -0.241 OA
ENDBRANCH   3  22
TORSDOF 7
ENDMDL
MODEL 8
REMARK VINA RESULT:      -4.4      5.623      7.498
REMARK  7 active torsions:
REMARK  status: ('A' for Active; 'I' for Inactive)
REMARK    1  A    between atoms: C_2  and  C_3 
REMARK    2  A    between atoms: C_3  and  O_6 
REMARK    3  A    between atoms: C_3  and  C_4 
REMARK    4  A    between atoms: C_7  and  O_6 
REMARK    5  A    between atoms: C_9  and  C_10 
REMARK    6  A    between atoms: N_15  and  C_14 
REMARK    7  A    between atoms: N_20  and  C_19 
REMARK       I    between atoms: C_22  and  N_20 
ROOT
ATOM      1  C   LIG d   1      -2.458  78.508 116.080  0.00  0.00     0.161 C 
ATOM      2  C   LIG d   1      -2.811  79.207 114.914  0.00  0.00     0.016 C 
ATOM      3  C   LIG d   1      -2.329  78.870 113.628  0.00  0.00     0.038 C 
ATOM      4  C   LIG d   1      -1.574  77.710 113.400  0.00  0.00     0.028 C 
ATOM      5  C   LIG d   1      -0.776  77.257 114.618  0.00  0.00    -0.047 C 
ATOM      6  C   LIG d   1      -1.725  77.172 115.836  0.00  0.00     0.091 C 
ENDROOT
BRANCH   1   7
ATOM      7  O   LIG d   1      -3.627  78.296 116.895  0.00  0.00    -0.368 OA
BRANCH   7   8
ATOM      8  C   LIG d   1      -3.903  79.312 117.890  0.00  0.00     0.119 C 
BRANCH   8   9
ATOM      9  C   LIG d   1      -2.568  80.003 118.229  0.00  0.00     0.028 C 
ATOM     10  C   LIG d   1      -2.755  81.223 119.147  0.00  0.00     0.006 C 
ENDBRANCH   8   9
BRANCH   8  11
ATOM     11  C   LIG d   1      -4.383  78.690 119.205  0.00  0.00     0.028 C 
ATOM     12  C   LIG d   1      -3.711  77.341 119.505  0.00  0.00     0.006 C 
ENDBRANCH   8  11
ENDBRANCH   7   8
ENDBRANCH   1   7
BRANCH   6  13
ATOM     13  N   LIG d   1      -1.008  76.817 117.089  0.00  0.00    -0.311 N 
ATOM     14  C   LIG d   1      -0.925  75.574 117.558  0.00  0.00     0.210 C 
ATOM     15  C   LIG d   1      -0.157  75.430 118.876  0.00  0.00     0.109 C 
ATOM     16  O   LIG d   1      -1.387  74.571 116.992  0.00  0.00    -0.276 OA
ATOM     17  H   LIG d   1      -0.577  77.565 117.595  0.00  0.00     0.149 HD
ENDBRANCH   6  13
BRANCH   5  18
ATOM     18  N   LIG d   1      -0.148  75.965 114.284  0.00  0.00     0.381 N 
ATOM     19  H   LIG d   1      -0.110  75.386 115.099  0.00  0.00    -0.090 HD
ATOM     20  H   LIG d   1       0.793  76.132 113.971  0.00  0.00    -0.090 HD
ATOM     21  H   LIG d   1      -0.667  75.508 113.567  0.00  0.00    -0.090 HD
ENDBRANCH   5  18
BRANCH   3  22
ATOM     22  C   LIG d   1      -2.568  79.721 112.560  0.00  0.00     0.382 C 
ATOM     23  O   LIG d   1      -2.026  79.501 111.450  0.00  0.00    -0.241 OA
ATOM     24  O   LIG d   1      -3.283  80.730 112.704  0.00  0.00    -0.241 OA
ENDBRANCH   3  22
TORSDOF 7
ENDMDL
MODEL 9
REMARK VINA RESULT:      -4.3      3.628      6.411
REMARK  7 active torsions:
REMARK  status: ('A' for Active; 'I' for Inactive)
REMARK    1  A    between atoms: C_2  and  C_3 
REMARK    2  A    between atoms: C_3  and  O_6 
REMARK    3  A    between atoms: C_3  and  C_4 
REMARK    4  A    between atoms: C_7  and  O_6 
REMARK    5  A    between atoms: C_9  and  C_10 
REMARK    6  A    between atoms: N_15  and  C_14 
REMARK    7  A    between atoms: N_20  and  C_19 
REMARK       I    between atoms: C_22  and  N_20 
ROOT
ATOM      1  C   LIG d   1      -0.773  78.913 113.823  0.00  0.00     0.161 C 
ATOM      2  C   LIG d   1       0.022  79.899 113.215  0.00  0.00     0.016 C 
ATOM      3  C   LIG d   1       0.056  80.120 111.819  0.00  0.00     0.038 C 
ATOM      4  C   LIG d   1      -0.823  79.465 110.944  0.00  0.00     0.028 C 
ATOM      5  C   LIG d   1      -1.285  78.104 111.454  0.00  0.00    -0.047 C 
ATOM      6  C   LIG d   1      -1.821  78.264 112.895  0.00  0.00     0.091 C 
ENDROOT
BRANCH   1   7
ATOM      7  O   LIG d   1      -1.410  79.454 114.997  0.00  0.00    -0.368 OA
BRANCH   7   8
ATOM      8  C   LIG d   1      -0.788  79.131 116.266  0.00  0.00     0.119 C 
BRANCH   8   9
ATOM      9  C   LIG d   1       0.033  77.843 116.064  0.00  0.00     0.028 C 
ATOM     10  C   LIG d   1      -0.588  76.633 116.782  0.00  0.00     0.006 C 
ENDBRANCH   8   9
BRANCH   8  11
ATOM     11  C   LIG d   1      -1.836  78.783 117.327  0.00  0.00     0.028 C 
ATOM     12  C   LIG d   1      -3.257  79.207 116.924  0.00  0.00     0.006 C 
ENDBRANCH   8  11
ENDBRANCH   7   8
ENDBRANCH   1   7
BRANCH   6  13
ATOM     13  N   LIG d   1      -2.215  76.965 113.500  0.00  0.00    -0.311 N 
ATOM     14  C   LIG d   1      -3.404  76.749 114.061  0.00  0.00     0.210 C 
ATOM     15  C   LIG d   1      -3.598  75.345 114.643  0.00  0.00     0.109 C 
ATOM     16  O   LIG d   1      -4.328  77.575 114.102  0.00  0.00    -0.276 OA
ATOM     17  H   LIG d   1      -1.537  76.229 113.482  0.00  0.00     0.149 HD
ENDBRANCH   6  13
BRANCH   5  18
ATOM     18  N   LIG d   1      -2.300  77.596 110.512  0.00  0.00     0.381 N 
ATOM     19  H   LIG d   1      -2.695  78.357 109.996  0.00  0.00    -0.090 HD
ATOM     20  H   LIG d   1      -3.036  77.155 111.035  0.00  0.00    -0.090 HD
ATOM     21  H   LIG d   1      -1.887  76.940 109.887  0.00  0.00    -0.090 HD
ENDBRANCH   5  18
BRANCH   3  22
ATOM     22  C   LIG d   1       1.005  80.976 111.282  0.00  0.00     0.382 C 
ATOM     23  O   LIG d   1       2.225  80.703 111.385  0.00  0.00    -0.241 OA
ATOM     24  O   LIG d   1       0.658  82.039 110.734  0.00  0.00    -0.241 OA
ENDBRANCH   3  22
TORSDOF 7
ENDMDL
