MODEL 1
REMARK VINA RESULT:      -5.6      0.000      0.000
REMARK  7 active torsions:
REMARK  status: ('A' for Active; 'I' for Inactive)
REMARK    1  A    between atoms: C_2  and  C_3 
REMARK    2  A    between atoms: C_3  and  O_6 
REMARK    3  A    between atoms: C_3  and  C_4 
REMARK    4  A    between atoms: C_7  and  O_6 
REMARK    5  A    between atoms: C_9  and  C_10 
REMARK    6  A    between atoms: N_15  and  C_14 
REMARK    7  A    between atoms: N_20  and  C_19 
REMARK       I    between atoms: C_22  and  N_20 
ROOT
ATOM      1  C   LIG d   1       0.378  82.937 112.245  0.00  0.00     0.161 C 
ATOM      2  C   LIG d   1      -0.877  82.581 112.764  0.00  0.00     0.016 C 
ATOM      3  C   LIG d   1      -1.506  81.342 112.498  0.00  0.00     0.038 C 
ATOM      4  C   LIG d   1      -0.850  80.309 111.813  0.00  0.00     0.028 C 
ATOM      5  C   LIG d   1       0.215  80.807 110.842  0.00  0.00    -0.047 C 
ATOM      6  C   LIG d   1       1.159  81.779 111.587  0.00  0.00     0.091 C 
ENDROOT
BRANCH   1   7
ATOM      7  O   LIG d   1       1.174  83.557 113.274  0.00  0.00    -0.368 OA
BRANCH   7   8
ATOM      8  C   LIG d   1       0.940  83.093 114.627  0.00  0.00     0.119 C 
BRANCH   8   9
ATOM      9  C   LIG d   1       0.921  84.332 115.543  0.00  0.00     0.028 C 
ATOM     10  C   LIG d   1       0.103  84.101 116.825  0.00  0.00     0.006 C 
ENDBRANCH   8   9
BRANCH   8  11
ATOM     11  C   LIG d   1       2.103  82.234 115.131  0.00  0.00     0.028 C 
ATOM     12  C   LIG d   1       1.654  80.843 115.605  0.00  0.00     0.006 C 
ENDBRANCH   8  11
ENDBRANCH   7   8
ENDBRANCH   1   7
BRANCH   6  13
ATOM     13  N   LIG d   1       2.180  82.378 110.689  0.00  0.00    -0.311 N 
ATOM     14  C   LIG d   1       3.312  81.763 110.353  0.00  0.00     0.210 C 
ATOM     15  C   LIG d   1       4.236  82.566 109.432  0.00  0.00     0.109 C 
ATOM     16  O   LIG d   1       3.625  80.616 110.706  0.00  0.00    -0.276 OA
ATOM     17  H   LIG d   1       1.992  83.295 110.332  0.00  0.00     0.149 HD
ENDBRANCH   6  13
BRANCH   5  18
ATOM     18  N   LIG d   1       0.913  79.625 110.301  0.00  0.00     0.381 N 
ATOM     19  H   LIG d   1       0.273  78.860 110.224  0.00  0.00    -0.090 HD
ATOM     20  H   LIG d   1       1.645  79.361 110.937  0.00  0.00    -0.090 HD
ATOM     21  H   LIG d   1       1.299  79.837 109.408  0.00  0.00    -0.090 HD
ENDBRANCH   5  18
BRANCH   3  22
ATOM     22  C   LIG d   1      -2.823  81.143 112.886  0.00  0.00     0.382 C 
ATOM     23  O   LIG d   1      -3.076  80.570 113.972  0.00  0.00    -0.241 OA
ATOM     24  O   LIG d   1      -3.760  81.490 112.141  0.00  0.00    -0.241 OA
ENDBRANCH   3  22
TORSDOF 7
ENDMDL
MODEL 2
REMARK VINA RESULT:      -5.3      2.025      4.675
REMARK  7 active torsions:
REMARK  status: ('A' for Active; 'I' for Inactive)
REMARK    1  A    between atoms: C_2  and  C_3 
REMARK    2  A    between atoms: C_3  and  O_6 
REMARK    3  A    between atoms: C_3  and  C_4 
REMARK    4  A    between atoms: C_7  and  O_6 
REMARK    5  A    between atoms: C_9  and  C_10 
REMARK    6  A    between atoms: N_15  and  C_14 
REMARK    7  A    between atoms: N_20  and  C_19 
REMARK       I    between atoms: C_22  and  N_20 
ROOT
ATOM      1  C   LIG d   1       0.765  81.290 113.024  0.00  0.00     0.161 C 
ATOM      2  C   LIG d   1       1.669  82.286 112.617  0.00  0.00     0.016 C 
ATOM      3  C   LIG d   1       1.944  82.581 111.262  0.00  0.00     0.038 C 
ATOM      4  C   LIG d   1       1.217  81.998 110.214  0.00  0.00     0.028 C 
ATOM      5  C   LIG d   1       0.652  80.624 110.559  0.00  0.00    -0.047 C 
ATOM      6  C   LIG d   1      -0.120  80.720 111.895  0.00  0.00     0.091 C 
ENDROOT
BRANCH   1   7
ATOM      7  O   LIG d   1      -0.054  81.784 114.102  0.00  0.00    -0.368 OA
BRANCH   7   8
ATOM      8  C   LIG d   1      -1.145  82.660 113.724  0.00  0.00     0.119 C 
BRANCH   8   9
ATOM      9  C   LIG d   1      -0.798  84.074 114.228  0.00  0.00     0.028 C 
ATOM     10  C   LIG d   1      -0.017  84.051 115.552  0.00  0.00     0.006 C 
ENDBRANCH   8   9
BRANCH   8  11
ATOM     11  C   LIG d   1      -2.441  82.279 114.445  0.00  0.00     0.028 C 
ATOM     12  C   LIG d   1      -2.268  81.078 115.387  0.00  0.00     0.006 C 
ENDBRANCH   8  11
ENDBRANCH   7   8
ENDBRANCH   1   7
BRANCH   6  13
ATOM     13  N   LIG d   1      -0.634  79.402 112.349  0.00  0.00    -0.311 N 
ATOM     14  C   LIG d   1      -1.929  79.090 112.376  0.00  0.00     0.210 C 
ATOM     15  C   LIG d   1      -2.244  77.684 112.898  0.00  0.00     0.109 C 
ATOM     16  O   LIG d   1      -2.843  79.831 111.987  0.00  0.00    -0.276 OA
ATOM     17  H   LIG d   1       0.042  78.728 112.652  0.00  0.00     0.149 HD
ENDBRANCH   6  13
BRANCH   5  18
ATOM     18  N   LIG d   1      -0.196  80.194 109.431  0.00  0.00     0.381 N 
ATOM     19  H   LIG d   1       0.141  80.600 108.581  0.00  0.00    -0.090 HD
ATOM     20  H   LIG d   1      -1.133  80.520 109.587  0.00  0.00    -0.090 HD
ATOM     21  H   LIG d   1      -0.189  79.201 109.359  0.00  0.00    -0.090 HD
ENDBRANCH   5  18
BRANCH   3  22
ATOM     22  C   LIG d   1       2.986  83.439 110.944  0.00  0.00     0.382 C 
ATOM     23  O   LIG d   1       3.926  83.612 111.756  0.00  0.00    -0.241 OA
ATOM     24  O   LIG d   1       2.974  84.077 109.874  0.00  0.00    -0.241 OA
ENDBRANCH   3  22
TORSDOF 7
ENDMDL
MODEL 3
REMARK VINA RESULT:      -5.2      1.744      4.774
REMARK  7 active torsions:
REMARK  status: ('A' for Active; 'I' for Inactive)
REMARK    1  A    between atoms: C_2  and  C_3 
REMARK    2  A    between atoms: C_3  and  O_6 
REMARK    3  A    between atoms: C_3  and  C_4 
REMARK    4  A    between atoms: C_7  and  O_6 
REMARK    5  A    between atoms: C_9  and  C_10 
REMARK    6  A    between atoms: N_15  and  C_14 
REMARK    7  A    between atoms: N_20  and  C_19 
REMARK       I    between atoms: C_22  and  N_20 
ROOT
ATOM      1  C   LIG d   1       0.620  82.892 112.892  0.00  0.00     0.161 C 
ATOM      2  C   LIG d   1       1.686  83.306 112.077  0.00  0.00     0.016 C 
ATOM      3  C   LIG d   1       2.088  82.614 110.911  0.00  0.00     0.038 C 
ATOM      4  C   LIG d   1       1.349  81.539 110.395  0.00  0.00     0.028 C 
ATOM      5  C   LIG d   1       0.565  80.778 111.459  0.00  0.00    -0.047 C 
ATOM      6  C   LIG d   1      -0.267  81.785 112.285  0.00  0.00     0.091 C 
ENDROOT
BRANCH   1   7
ATOM      7  O   LIG d   1      -0.183  84.031 113.262  0.00  0.00    -0.368 OA
BRANCH   7   8
ATOM      8  C   LIG d   1      -0.110  84.438 114.651  0.00  0.00     0.119 C 
BRANCH   8   9
ATOM      9  C   LIG d   1       0.991  83.596 115.323  0.00  0.00     0.028 C 
ATOM     10  C   LIG d   1       2.188  84.449 115.778  0.00  0.00     0.006 C 
ENDBRANCH   8   9
BRANCH   8  11
ATOM     11  C   LIG d   1      -1.399  84.093 115.401  0.00  0.00     0.028 C 
ATOM     12  C   LIG d   1      -1.152  83.217 116.639  0.00  0.00     0.006 C 
ENDBRANCH   8  11
ENDBRANCH   7   8
ENDBRANCH   1   7
BRANCH   6  13
ATOM     13  N   LIG d   1      -1.000  81.133 113.402  0.00  0.00    -0.311 N 
ATOM     14  C   LIG d   1      -2.324  81.179 113.535  0.00  0.00     0.210 C 
ATOM     15  C   LIG d   1      -2.876  80.458 114.769  0.00  0.00     0.109 C 
ATOM     16  O   LIG d   1      -3.098  81.721 112.731  0.00  0.00    -0.276 OA
ATOM     17  H   LIG d   1      -0.453  80.645 114.083  0.00  0.00     0.149 HD
ENDBRANCH   6  13
BRANCH   5  18
ATOM     18  N   LIG d   1      -0.265  79.773 110.767  0.00  0.00     0.381 N 
ATOM     19  H   LIG d   1      -0.394  78.976 111.357  0.00  0.00    -0.090 HD
ATOM     20  H   LIG d   1       0.212  79.476 109.934  0.00  0.00    -0.090 HD
ATOM     21  H   LIG d   1      -1.149  80.166 110.529  0.00  0.00    -0.090 HD
ENDBRANCH   5  18
BRANCH   3  22
ATOM     22  C   LIG d   1       3.264  82.973 110.270  0.00  0.00     0.382 C 
ATOM     23  O   LIG d   1       4.216  82.159 110.205  0.00  0.00    -0.241 OA
ATOM     24  O   LIG d   1       3.401  84.116 109.794  0.00  0.00    -0.241 OA
ENDBRANCH   3  22
TORSDOF 7
ENDMDL
MODEL 4
REMARK VINA RESULT:      -5.0      2.665      4.752
REMARK  7 active torsions:
REMARK  status: ('A' for Active; 'I' for Inactive)
REMARK    1  A    between atoms: C_2  and  C_3 
REMARK    2  A    between atoms: C_3  and  O_6 
REMARK    3  A    between atoms: C_3  and  C_4 
REMARK    4  A    between atoms: C_7  and  O_6 
REMARK    5  A    between atoms: C_9  and  C_10 
REMARK    6  A    between atoms: N_15  and  C_14 
REMARK    7  A    between atoms: N_20  and  C_19 
REMARK       I    between atoms: C_22  and  N_20 
ROOT
ATOM      1  C   LIG d   1      -0.387  80.950 111.967  0.00  0.00     0.161 C 
ATOM      2  C   LIG d   1      -1.116  79.781 111.694  0.00  0.00     0.016 C 
ATOM      3  C   LIG d   1      -2.063  79.229 112.587  0.00  0.00     0.038 C 
ATOM      4  C   LIG d   1      -2.457  79.897 113.757  0.00  0.00     0.028 C 
ATOM      5  C   LIG d   1      -1.382  80.823 114.316  0.00  0.00    -0.047 C 
ATOM      6  C   LIG d   1      -0.883  81.753 113.187  0.00  0.00     0.091 C 
ENDROOT
BRANCH   1   7
ATOM      7  O   LIG d   1      -0.353  81.789 110.795  0.00  0.00    -0.368 OA
BRANCH   7   8
ATOM      8  C   LIG d   1       0.899  81.818 110.067  0.00  0.00     0.119 C 
BRANCH   8   9
ATOM      9  C   LIG d   1       1.864  80.842 110.768  0.00  0.00     0.028 C 
ATOM     10  C   LIG d   1       2.572  79.903 109.777  0.00  0.00     0.006 C 
ENDBRANCH   8   9
BRANCH   8  11
ATOM     11  C   LIG d   1       1.569  83.192 110.166  0.00  0.00     0.028 C 
ATOM     12  C   LIG d   1       0.611  84.347 109.835  0.00  0.00     0.006 C 
ENDBRANCH   8  11
ENDBRANCH   7   8
ENDBRANCH   1   7
BRANCH   6  13
ATOM     13  N   LIG d   1       0.229  82.634 113.629  0.00  0.00    -0.311 N 
ATOM     14  C   LIG d   1       0.199  83.962 113.523  0.00  0.00     0.210 C 
ATOM     15  C   LIG d   1       1.458  84.679 114.020  0.00  0.00     0.109 C 
ATOM     16  O   LIG d   1      -0.764  84.615 113.095  0.00  0.00    -0.276 OA
ATOM     17  H   LIG d   1       1.037  82.189 114.017  0.00  0.00     0.149 HD
ENDBRANCH   6  13
BRANCH   5  18
ATOM     18  N   LIG d   1      -1.973  81.557 115.451  0.00  0.00     0.381 N 
ATOM     19  H   LIG d   1      -2.808  82.023 115.156  0.00  0.00    -0.090 HD
ATOM     20  H   LIG d   1      -1.319  82.251 115.766  0.00  0.00    -0.090 HD
ATOM     21  H   LIG d   1      -2.182  80.926 116.194  0.00  0.00    -0.090 HD
ENDBRANCH   5  18
BRANCH   3  22
ATOM     22  C   LIG d   1      -2.598  77.975 112.334  0.00  0.00     0.382 C 
ATOM     23  O   LIG d   1      -2.012  76.948 112.752  0.00  0.00    -0.241 OA
ATOM     24  O   LIG d   1      -3.634  77.856 111.653  0.00  0.00    -0.241 OA
ENDBRANCH   3  22
TORSDOF 7
ENDMDL
MODEL 5
REMARK VINA RESULT:      -4.9      3.777      5.160
REMARK  7 active torsions:
REMARK  status: ('A' for Active; 'I' for Inactive)
REMARK    1  A    between atoms: C_2  and  C_3 
REMARK    2  A    between atoms: C_3  and  O_6 
REMARK    3  A    between atoms: C_3  and  C_4 
REMARK    4  A    between atoms: C_7  and  O_6 
REMARK    5  A    between atoms: C_9  and  C_10 
REMARK    6  A    between atoms: N_15  and  C_14 
REMARK    7  A    between atoms: N_20  and  C_19 
REMARK       I    between atoms: C_22  and  N_20 
ROOT
ATOM      1  C   LIG d   1      -0.342  80.511 115.520  0.00  0.00     0.161 C 
ATOM      2  C   LIG d   1      -1.048  81.275 114.576  0.00  0.00     0.016 C 
ATOM      3  C   LIG d   1      -1.920  80.713 113.615  0.00  0.00     0.038 C 
ATOM      4  C   LIG d   1      -2.262  79.352 113.631  0.00  0.00     0.028 C 
ATOM      5  C   LIG d   1      -1.186  78.464 114.245  0.00  0.00    -0.047 C 
ATOM      6  C   LIG d   1      -0.788  79.037 115.624  0.00  0.00     0.091 C 
ENDROOT
BRANCH   1   7
ATOM      7  O   LIG d   1      -0.408  81.147 116.811  0.00  0.00    -0.368 OA
BRANCH   7   8
ATOM      8  C   LIG d   1      -1.242  82.328 116.898  0.00  0.00     0.119 C 
BRANCH   8   9
ATOM      9  C   LIG d   1      -0.400  83.443 117.549  0.00  0.00     0.028 C 
ATOM     10  C   LIG d   1       0.324  84.314 116.510  0.00  0.00     0.006 C 
ENDBRANCH   8   9
BRANCH   8  11
ATOM     11  C   LIG d   1      -2.424  82.107 117.846  0.00  0.00     0.028 C 
ATOM     12  C   LIG d   1      -3.706  81.682 117.111  0.00  0.00     0.006 C 
ENDBRANCH   8  11
ENDBRANCH   7   8
ENDBRANCH   1   7
BRANCH   6  13
ATOM     13  N   LIG d   1       0.320  78.275 116.257  0.00  0.00    -0.311 N 
ATOM     14  C   LIG d   1       0.125  77.268 117.106  0.00  0.00     0.210 C 
ATOM     15  C   LIG d   1       1.405  76.631 117.658  0.00  0.00     0.109 C 
ATOM     16  O   LIG d   1      -0.985  76.820 117.429  0.00  0.00    -0.276 OA
ATOM     17  H   LIG d   1       1.254  78.552 116.026  0.00  0.00     0.149 HD
ENDBRANCH   6  13
BRANCH   5  18
ATOM     18  N   LIG d   1      -1.730  77.095 114.323  0.00  0.00     0.381 N 
ATOM     19  H   LIG d   1      -1.676  76.657 113.425  0.00  0.00    -0.090 HD
ATOM     20  H   LIG d   1      -2.697  77.144 114.593  0.00  0.00    -0.090 HD
ATOM     21  H   LIG d   1      -1.218  76.562 114.991  0.00  0.00    -0.090 HD
ENDBRANCH   5  18
BRANCH   3  22
ATOM     22  C   LIG d   1      -2.427  81.508 112.599  0.00  0.00     0.382 C 
ATOM     23  O   LIG d   1      -1.671  82.296 111.982  0.00  0.00    -0.241 OA
ATOM     24  O   LIG d   1      -3.641  81.480 112.321  0.00  0.00    -0.241 OA
ENDBRANCH   3  22
TORSDOF 7
ENDMDL
MODEL 6
REMARK VINA RESULT:      -4.9      3.885      5.982
REMARK  7 active torsions:
REMARK  status: ('A' for Active; 'I' for Inactive)
REMARK    1  A    between atoms: C_2  and  C_3 
REMARK    2  A    between atoms: C_3  and  O_6 
REMARK    3  A    between atoms: C_3  and  C_4 
REMARK    4  A    between atoms: C_7  and  O_6 
REMARK    5  A    between atoms: C_9  and  C_10 
REMARK    6  A    between atoms: N_15  and  C_14 
REMARK    7  A    between atoms: N_20  and  C_19 
REMARK       I    between atoms: C_22  and  N_20 
ROOT
ATOM      1  C   LIG d   1      -2.763  79.821 114.948  0.00  0.00     0.161 C 
ATOM      2  C   LIG d   1      -2.451  81.031 114.306  0.00  0.00     0.016 C 
ATOM      3  C   LIG d   1      -1.872  81.102 113.018  0.00  0.00     0.038 C 
ATOM      4  C   LIG d   1      -1.705  79.963 112.217  0.00  0.00     0.028 C 
ATOM      5  C   LIG d   1      -1.539  78.677 113.019  0.00  0.00    -0.047 C 
ATOM      6  C   LIG d   1      -2.691  78.572 114.045  0.00  0.00     0.091 C 
ENDROOT
BRANCH   1   7
ATOM      7  O   LIG d   1      -4.061  79.917 115.567  0.00  0.00    -0.368 OA
BRANCH   7   8
ATOM      8  C   LIG d   1      -4.072  80.020 117.012  0.00  0.00     0.119 C 
BRANCH   8   9
ATOM      9  C   LIG d   1      -4.203  81.513 117.369  0.00  0.00     0.028 C 
ATOM     10  C   LIG d   1      -2.919  82.081 117.997  0.00  0.00     0.006 C 
ENDBRANCH   8   9
BRANCH   8  11
ATOM     11  C   LIG d   1      -2.736  79.575 117.613  0.00  0.00     0.028 C 
ATOM     12  C   LIG d   1      -2.848  78.268 118.414  0.00  0.00     0.006 C 
ENDBRANCH   8  11
ENDBRANCH   7   8
ENDBRANCH   1   7
BRANCH   6  13
ATOM     13  N   LIG d   1      -2.557  77.385 114.928  0.00  0.00    -0.311 N 
ATOM     14  C   LIG d   1      -3.082  76.195 114.641  0.00  0.00     0.210 C 
ATOM     15  C   LIG d   1      -2.844  75.111 115.698  0.00  0.00     0.109 C 
ATOM     16  O   LIG d   1      -3.694  75.925 113.597  0.00  0.00    -0.276 OA
ATOM     17  H   LIG d   1      -2.049  77.507 115.782  0.00  0.00     0.149 HD
ENDBRANCH   6  13
BRANCH   5  18
ATOM     18  N   LIG d   1      -1.513  77.554 112.063  0.00  0.00     0.381 N 
ATOM     19  H   LIG d   1      -1.496  77.907 111.127  0.00  0.00    -0.090 HD
ATOM     20  H   LIG d   1      -2.349  77.009 112.178  0.00  0.00    -0.090 HD
ATOM     21  H   LIG d   1      -0.711  76.986 112.225  0.00  0.00    -0.090 HD
ENDBRANCH   5  18
BRANCH   3  22
ATOM     22  C   LIG d   1      -1.417  82.319 112.535  0.00  0.00     0.382 C 
ATOM     23  O   LIG d   1      -1.254  82.483 111.302  0.00  0.00    -0.241 OA
ATOM     24  O   LIG d   1      -1.125  83.241 113.321  0.00  0.00    -0.241 OA
ENDBRANCH   3  22
TORSDOF 7
ENDMDL
MODEL 7
REMARK VINA RESULT:      -4.7      2.006      4.741
REMARK  7 active torsions:
REMARK  status: ('A' for Active; 'I' for Inactive)
REMARK    1  A    between atoms: C_2  and  C_3 
REMARK    2  A    between atoms: C_3  and  O_6 
REMARK    3  A    between atoms: C_3  and  C_4 
REMARK    4  A    between atoms: C_7  and  O_6 
REMARK    5  A    between atoms: C_9  and  C_10 
REMARK    6  A    between atoms: N_15  and  C_14 
REMARK    7  A    between atoms: N_20  and  C_19 
REMARK       I    between atoms: C_22  and  N_20 
ROOT
ATOM      1  C   LIG d   1       0.581  81.591 113.587  0.00  0.00     0.161 C 
ATOM      2  C   LIG d   1       1.572  81.533 112.593  0.00  0.00     0.016 C 
ATOM      3  C   LIG d   1       1.400  80.859 111.362  0.00  0.00     0.038 C 
ATOM      4  C   LIG d   1       0.162  80.322 110.977  0.00  0.00     0.028 C 
ATOM      5  C   LIG d   1      -0.716  79.918 112.157  0.00  0.00    -0.047 C 
ATOM      6  C   LIG d   1      -0.814  81.107 113.140  0.00  0.00     0.091 C 
ENDROOT
BRANCH   1   7
ATOM      7  O   LIG d   1       0.500  82.929 114.118  0.00  0.00    -0.368 OA
BRANCH   7   8
ATOM      8  C   LIG d   1       0.923  83.095 115.494  0.00  0.00     0.119 C 
BRANCH   8   9
ATOM      9  C   LIG d   1      -0.164  83.913 116.217  0.00  0.00     0.028 C 
ATOM     10  C   LIG d   1      -0.674  83.217 117.490  0.00  0.00     0.006 C 
ENDBRANCH   8   9
BRANCH   8  11
ATOM     11  C   LIG d   1       2.197  83.941 115.588  0.00  0.00     0.028 C 
ATOM     12  C   LIG d   1       3.087  83.547 116.777  0.00  0.00     0.006 C 
ENDBRANCH   8  11
ENDBRANCH   7   8
ENDBRANCH   1   7
BRANCH   6  13
ATOM     13  N   LIG d   1      -1.586  80.768 114.364  0.00  0.00    -0.311 N 
ATOM     14  C   LIG d   1      -2.651  81.456 114.772  0.00  0.00     0.210 C 
ATOM     15  C   LIG d   1      -3.288  80.950 116.070  0.00  0.00     0.109 C 
ATOM     16  O   LIG d   1      -3.148  82.417 114.165  0.00  0.00    -0.276 OA
ATOM     17  H   LIG d   1      -1.271  79.983 114.899  0.00  0.00     0.149 HD
ENDBRANCH   6  13
BRANCH   5  18
ATOM     18  N   LIG d   1      -2.025  79.505 111.617  0.00  0.00     0.381 N 
ATOM     19  H   LIG d   1      -1.892  78.913 110.821  0.00  0.00    -0.090 HD
ATOM     20  H   LIG d   1      -2.528  80.323 111.320  0.00  0.00    -0.090 HD
ATOM     21  H   LIG d   1      -2.545  79.022 112.316  0.00  0.00    -0.090 HD
ENDBRANCH   5  18
BRANCH   3  22
ATOM     22  C   LIG d   1       2.485  80.682 110.518  0.00  0.00     0.382 C 
ATOM     23  O   LIG d   1       3.492  81.422 110.628  0.00  0.00    -0.241 OA
ATOM     24  O   LIG d   1       2.452  79.821 109.618  0.00  0.00    -0.241 OA
ENDBRANCH   3  22
TORSDOF 7
ENDMDL
MODEL 8
REMARK VINA RESULT:      -4.6      2.433      3.084
REMARK  7 active torsions:
REMARK  status: ('A' for Active; 'I' for Inactive)
REMARK    1  A    between atoms: C_2  and  C_3 
REMARK    2  A    between atoms: C_3  and  O_6 
REMARK    3  A    between atoms: C_3  and  C_4 
REMARK    4  A    between atoms: C_7  and  O_6 
REMARK    5  A    between atoms: C_9  and  C_10 
REMARK    6  A    between atoms: N_15  and  C_14 
REMARK    7  A    between atoms: N_20  and  C_19 
REMARK       I    between atoms: C_22  and  N_20 
ROOT
ATOM      1  C   LIG d   1      -2.057  81.835 113.929  0.00  0.00     0.161 C 
ATOM      2  C   LIG d   1      -2.517  80.782 114.738  0.00  0.00     0.016 C 
ATOM      3  C   LIG d   1      -2.391  79.419 114.387  0.00  0.00     0.038 C 
ATOM      4  C   LIG d   1      -1.656  79.006 113.266  0.00  0.00     0.028 C 
ATOM      5  C   LIG d   1      -1.609  80.051 112.155  0.00  0.00    -0.047 C 
ATOM      6  C   LIG d   1      -1.154  81.401 112.755  0.00  0.00     0.091 C 
ENDROOT
BRANCH   1   7
ATOM      7  O   LIG d   1      -1.386  82.818 114.741  0.00  0.00    -0.368 OA
BRANCH   7   8
ATOM      8  C   LIG d   1      -0.600  82.304 115.845  0.00  0.00     0.119 C 
BRANCH   8   9
ATOM      9  C   LIG d   1      -0.854  83.219 117.058  0.00  0.00     0.028 C 
ATOM     10  C   LIG d   1      -1.763  82.561 118.110  0.00  0.00     0.006 C 
ENDBRANCH   8   9
BRANCH   8  11
ATOM     11  C   LIG d   1       0.900  82.415 115.559  0.00  0.00     0.028 C 
ATOM     12  C   LIG d   1       1.556  81.053 115.282  0.00  0.00     0.006 C 
ENDBRANCH   8  11
ENDBRANCH   7   8
ENDBRANCH   1   7
BRANCH   6  13
ATOM     13  N   LIG d   1      -1.162  82.498 111.752  0.00  0.00    -0.311 N 
ATOM     14  C   LIG d   1      -0.119  83.297 111.532  0.00  0.00     0.210 C 
ATOM     15  C   LIG d   1      -0.345  84.376 110.469  0.00  0.00     0.109 C 
ATOM     16  O   LIG d   1       0.982  83.194 112.093  0.00  0.00    -0.276 OA
ATOM     17  H   LIG d   1      -2.005  82.632 111.230  0.00  0.00     0.149 HD
ENDBRANCH   6  13
BRANCH   5  18
ATOM     18  N   LIG d   1      -0.699  79.548 111.109  0.00  0.00     0.381 N 
ATOM     19  H   LIG d   1      -0.842  80.059 110.261  0.00  0.00    -0.090 HD
ATOM     20  H   LIG d   1      -0.909  78.581 110.933  0.00  0.00    -0.090 HD
ATOM     21  H   LIG d   1       0.248  79.641 111.406  0.00  0.00    -0.090 HD
ENDBRANCH   5  18
BRANCH   3  22
ATOM     22  C   LIG d   1      -3.039  78.452 115.141  0.00  0.00     0.382 C 
ATOM     23  O   LIG d   1      -2.715  78.271 116.340  0.00  0.00    -0.241 OA
ATOM     24  O   LIG d   1      -3.912  77.729 114.626  0.00  0.00    -0.241 OA
ENDBRANCH   3  22
TORSDOF 7
ENDMDL
MODEL 9
REMARK VINA RESULT:      -4.6      2.463      3.642
REMARK  7 active torsions:
REMARK  status: ('A' for Active; 'I' for Inactive)
REMARK    1  A    between atoms: C_2  and  C_3 
REMARK    2  A    between atoms: C_3  and  O_6 
REMARK    3  A    between atoms: C_3  and  C_4 
REMARK    4  A    between atoms: C_7  and  O_6 
REMARK    5  A    between atoms: C_9  and  C_10 
REMARK    6  A    between atoms: N_15  and  C_14 
REMARK    7  A    between atoms: N_20  and  C_19 
REMARK       I    between atoms: C_22  and  N_20 
ROOT
ATOM      1  C   LIG d   1      -0.269  81.951 115.208  0.00  0.00     0.161 C 
ATOM      2  C   LIG d   1      -1.387  81.360 114.598  0.00  0.00     0.016 C 
ATOM      3  C   LIG d   1      -1.504  81.175 113.201  0.00  0.00     0.038 C 
ATOM      4  C   LIG d   1      -0.438  81.432 112.327  0.00  0.00     0.028 C 
ATOM      5  C   LIG d   1       0.523  82.499 112.841  0.00  0.00    -0.047 C 
ATOM      6  C   LIG d   1       0.951  82.136 114.281  0.00  0.00     0.091 C 
ENDROOT
BRANCH   1   7
ATOM      7  O   LIG d   1       0.102  81.199 116.380  0.00  0.00    -0.368 OA
BRANCH   7   8
ATOM      8  C   LIG d   1      -0.172  81.830 117.656  0.00  0.00     0.119 C 
BRANCH   8   9
ATOM      9  C   LIG d   1      -1.453  81.189 118.223  0.00  0.00     0.028 C 
ATOM     10  C   LIG d   1      -2.662  82.138 118.159  0.00  0.00     0.006 C 
ENDBRANCH   8   9
BRANCH   8  11
ATOM     11  C   LIG d   1      -0.503  83.315 117.483  0.00  0.00     0.028 C 
ATOM     12  C   LIG d   1       0.480  84.235 118.223  0.00  0.00     0.006 C 
ENDBRANCH   8  11
ENDBRANCH   7   8
ENDBRANCH   1   7
BRANCH   6  13
ATOM     13  N   LIG d   1       1.826  83.172 114.891  0.00  0.00    -0.311 N 
ATOM     14  C   LIG d   1       2.946  82.888 115.552  0.00  0.00     0.210 C 
ATOM     15  C   LIG d   1       3.688  84.104 116.118  0.00  0.00     0.109 C 
ATOM     16  O   LIG d   1       3.414  81.749 115.697  0.00  0.00    -0.276 OA
ATOM     17  H   LIG d   1       1.538  84.126 114.794  0.00  0.00     0.149 HD
ENDBRANCH   6  13
BRANCH   5  18
ATOM     18  N   LIG d   1       1.657  82.567 111.901  0.00  0.00     0.381 N 
ATOM     19  H   LIG d   1       1.667  81.751 111.322  0.00  0.00    -0.090 HD
ATOM     20  H   LIG d   1       2.514  82.592 112.426  0.00  0.00    -0.090 HD
ATOM     21  H   LIG d   1       1.582  83.384 111.335  0.00  0.00    -0.090 HD
ENDBRANCH   5  18
BRANCH   3  22
ATOM     22  C   LIG d   1      -2.714  80.764 112.661  0.00  0.00     0.382 C 
ATOM     23  O   LIG d   1      -2.939  79.543 112.484  0.00  0.00    -0.241 OA
ATOM     24  O   LIG d   1      -3.565  81.602 112.308  0.00  0.00    -0.241 OA
ENDBRANCH   3  22
TORSDOF 7
ENDMDL
