MODEL 1
REMARK VINA RESULT:      -5.1      0.000      0.000
REMARK  7 active torsions:
REMARK  status: ('A' for Active; 'I' for Inactive)
REMARK    1  A    between atoms: C_2  and  C_3 
REMARK    2  A    between atoms: C_3  and  O_6 
REMARK    3  A    between atoms: C_3  and  C_4 
REMARK    4  A    between atoms: C_7  and  O_6 
REMARK    5  A    between atoms: C_9  and  C_10 
REMARK    6  A    between atoms: N_15  and  C_14 
REMARK    7  A    between atoms: N_20  and  C_19 
REMARK       I    between atoms: C_22  and  N_20 
ROOT
ATOM      1  C   LIG d   1       1.292  82.005 112.288  0.00  0.00     0.161 C 
ATOM      2  C   LIG d   1      -0.061  81.869 112.640  0.00  0.00     0.016 C 
ATOM      3  C   LIG d   1      -0.907  80.868 112.108  0.00  0.00     0.038 C 
ATOM      4  C   LIG d   1      -0.414  79.836 111.296  0.00  0.00     0.028 C 
ATOM      5  C   LIG d   1       0.834  80.225 110.512  0.00  0.00    -0.047 C 
ATOM      6  C   LIG d   1       1.874  80.821 111.489  0.00  0.00     0.091 C 
ENDROOT
BRANCH   1   7
ATOM      7  O   LIG d   1       2.082  82.250 113.469  0.00  0.00    -0.368 OA
BRANCH   7   8
ATOM      8  C   LIG d   1       1.945  83.563 114.066  0.00  0.00     0.119 C 
BRANCH   8   9
ATOM      9  C   LIG d   1       3.052  84.457 113.475  0.00  0.00     0.028 C 
ATOM     10  C   LIG d   1       4.213  84.680 114.459  0.00  0.00     0.006 C 
ENDBRANCH   8   9
BRANCH   8  11
ATOM     11  C   LIG d   1       2.218  83.521 115.572  0.00  0.00     0.028 C 
ATOM     12  C   LIG d   1       2.327  82.088 116.118  0.00  0.00     0.006 C 
ENDBRANCH   8  11
ENDBRANCH   7   8
ENDBRANCH   1   7
BRANCH   6  13
ATOM     13  N   LIG d   1       3.094  81.305 110.792  0.00  0.00    -0.311 N 
ATOM     14  C   LIG d   1       3.135  82.433 110.084  0.00  0.00     0.210 C 
ATOM     15  C   LIG d   1       4.487  82.737 109.430  0.00  0.00     0.109 C 
ATOM     16  O   LIG d   1       2.190  83.226 109.962  0.00  0.00    -0.276 OA
ATOM     17  H   LIG d   1       3.916  80.738 110.864  0.00  0.00     0.149 HD
ENDBRANCH   6  13
BRANCH   5  18
ATOM     18  N   LIG d   1       1.319  79.018 109.817  0.00  0.00     0.381 N 
ATOM     19  H   LIG d   1       1.664  79.264 108.911  0.00  0.00    -0.090 HD
ATOM     20  H   LIG d   1       0.551  78.381 109.699  0.00  0.00    -0.090 HD
ATOM     21  H   LIG d   1       2.041  78.585 110.349  0.00  0.00    -0.090 HD
ENDBRANCH   5  18
BRANCH   3  22
ATOM     22  C   LIG d   1      -2.271  80.918 112.355  0.00  0.00     0.382 C 
ATOM     23  O   LIG d   1      -2.817  82.011 112.641  0.00  0.00    -0.241 OA
ATOM     24  O   LIG d   1      -2.954  79.877 112.340  0.00  0.00    -0.241 OA
ENDBRANCH   3  22
TORSDOF 7
ENDMDL
MODEL 2
REMARK VINA RESULT:      -4.8      5.637      7.535
REMARK  7 active torsions:
REMARK  status: ('A' for Active; 'I' for Inactive)
REMARK    1  A    between atoms: C_2  and  C_3 
REMARK    2  A    between atoms: C_3  and  O_6 
REMARK    3  A    between atoms: C_3  and  C_4 
REMARK    4  A    between atoms: C_7  and  O_6 
REMARK    5  A    between atoms: C_9  and  C_10 
REMARK    6  A    between atoms: N_15  and  C_14 
REMARK    7  A    between atoms: N_20  and  C_19 
REMARK       I    between atoms: C_22  and  N_20 
ROOT
ATOM      1  C   LIG d   1      -2.431  77.723 116.946  0.00  0.00     0.161 C 
ATOM      2  C   LIG d   1      -3.217  76.942 116.082  0.00  0.00     0.016 C 
ATOM      3  C   LIG d   1      -2.990  76.855 114.689  0.00  0.00     0.038 C 
ATOM      4  C   LIG d   1      -1.861  77.428 114.084  0.00  0.00     0.028 C 
ATOM      5  C   LIG d   1      -1.322  78.641 114.835  0.00  0.00    -0.047 C 
ATOM      6  C   LIG d   1      -1.128  78.266 116.322  0.00  0.00     0.091 C 
ENDROOT
BRANCH   1   7
ATOM      7  O   LIG d   1      -2.140  76.981 118.146  0.00  0.00    -0.368 OA
BRANCH   7   8
ATOM      8  C   LIG d   1      -0.842  76.339 118.200  0.00  0.00     0.119 C 
BRANCH   8   9
ATOM      9  C   LIG d   1      -1.070  74.822 118.057  0.00  0.00     0.028 C 
ATOM     10  C   LIG d   1      -0.610  74.285 116.691  0.00  0.00     0.006 C 
ENDBRANCH   8   9
BRANCH   8  11
ATOM     11  C   LIG d   1      -0.185  76.523 119.571  0.00  0.00     0.028 C 
ATOM     12  C   LIG d   1       1.349  76.473 119.509  0.00  0.00     0.006 C 
ENDBRANCH   8  11
ENDBRANCH   7   8
ENDBRANCH   1   7
BRANCH   6  13
ATOM     13  N   LIG d   1      -0.683  79.422 117.144  0.00  0.00    -0.311 N 
ATOM     14  C   LIG d   1       0.594  79.676 117.421  0.00  0.00     0.210 C 
ATOM     15  C   LIG d   1       0.833  80.906 118.303  0.00  0.00     0.109 C 
ATOM     16  O   LIG d   1       1.555  79.018 116.993  0.00  0.00    -0.276 OA
ATOM     17  H   LIG d   1      -1.396  80.025 117.506  0.00  0.00     0.149 HD
ENDBRANCH   6  13
BRANCH   5  18
ATOM     18  N   LIG d   1      -0.069  79.053 114.175  0.00  0.00     0.381 N 
ATOM     19  H   LIG d   1       0.691  78.497 114.513  0.00  0.00    -0.090 HD
ATOM     20  H   LIG d   1       0.118  80.014 114.402  0.00  0.00    -0.090 HD
ATOM     21  H   LIG d   1      -0.153  78.948 113.188  0.00  0.00    -0.090 HD
ENDBRANCH   5  18
BRANCH   3  22
ATOM     22  C   LIG d   1      -3.920  76.222 113.879  0.00  0.00     0.382 C 
ATOM     23  O   LIG d   1      -4.212  75.019 114.082  0.00  0.00    -0.241 OA
ATOM     24  O   LIG d   1      -4.438  76.825 112.921  0.00  0.00    -0.241 OA
ENDBRANCH   3  22
TORSDOF 7
ENDMDL
MODEL 3
REMARK VINA RESULT:      -4.7      6.216      7.595
REMARK  7 active torsions:
REMARK  status: ('A' for Active; 'I' for Inactive)
REMARK    1  A    between atoms: C_2  and  C_3 
REMARK    2  A    between atoms: C_3  and  O_6 
REMARK    3  A    between atoms: C_3  and  C_4 
REMARK    4  A    between atoms: C_7  and  O_6 
REMARK    5  A    between atoms: C_9  and  C_10 
REMARK    6  A    between atoms: N_15  and  C_14 
REMARK    7  A    between atoms: N_20  and  C_19 
REMARK       I    between atoms: C_22  and  N_20 
ROOT
ATOM      1  C   LIG d   1      -1.049  77.943 115.689  0.00  0.00     0.161 C 
ATOM      2  C   LIG d   1      -2.180  77.783 114.872  0.00  0.00     0.016 C 
ATOM      3  C   LIG d   1      -2.789  76.531 114.621  0.00  0.00     0.038 C 
ATOM      4  C   LIG d   1      -2.395  75.367 115.297  0.00  0.00     0.028 C 
ATOM      5  C   LIG d   1      -0.937  75.391 115.745  0.00  0.00    -0.047 C 
ATOM      6  C   LIG d   1      -0.672  76.700 116.523  0.00  0.00     0.091 C 
ENDROOT
BRANCH   1   7
ATOM      7  O   LIG d   1      -1.224  79.088 116.547  0.00  0.00    -0.368 OA
BRANCH   7   8
ATOM      8  C   LIG d   1      -1.615  78.806 117.913  0.00  0.00     0.119 C 
BRANCH   8   9
ATOM      9  C   LIG d   1      -3.143  78.982 118.003  0.00  0.00     0.028 C 
ATOM     10  C   LIG d   1      -3.874  77.650 118.240  0.00  0.00     0.006 C 
ENDBRANCH   8   9
BRANCH   8  11
ATOM     11  C   LIG d   1      -1.031  79.837 118.884  0.00  0.00     0.028 C 
ATOM     12  C   LIG d   1       0.454  80.131 118.618  0.00  0.00     0.006 C 
ENDBRANCH   8  11
ENDBRANCH   7   8
ENDBRANCH   1   7
BRANCH   6  13
ATOM     13  N   LIG d   1       0.751  76.843 116.925  0.00  0.00    -0.311 N 
ATOM     14  C   LIG d   1       1.221  76.453 118.109  0.00  0.00     0.210 C 
ATOM     15  C   LIG d   1       2.715  76.710 118.328  0.00  0.00     0.109 C 
ATOM     16  O   LIG d   1       0.549  75.891 118.986  0.00  0.00    -0.276 OA
ATOM     17  H   LIG d   1       1.373  77.261 116.261  0.00  0.00     0.149 HD
ENDBRANCH   6  13
BRANCH   5  18
ATOM     18  N   LIG d   1      -0.700  74.180 116.554  0.00  0.00     0.381 N 
ATOM     19  H   LIG d   1      -1.087  74.302 117.469  0.00  0.00    -0.090 HD
ATOM     20  H   LIG d   1       0.291  74.040 116.647  0.00  0.00    -0.090 HD
ATOM     21  H   LIG d   1      -1.115  73.389 116.113  0.00  0.00    -0.090 HD
ENDBRANCH   5  18
BRANCH   3  22
ATOM     22  C   LIG d   1      -3.778  76.430 113.655  0.00  0.00     0.382 C 
ATOM     23  O   LIG d   1      -4.440  75.369 113.545  0.00  0.00    -0.241 OA
ATOM     24  O   LIG d   1      -3.987  77.368 112.863  0.00  0.00    -0.241 OA
ENDBRANCH   3  22
TORSDOF 7
ENDMDL
MODEL 4
REMARK VINA RESULT:      -4.7      5.029      7.009
REMARK  7 active torsions:
REMARK  status: ('A' for Active; 'I' for Inactive)
REMARK    1  A    between atoms: C_2  and  C_3 
REMARK    2  A    between atoms: C_3  and  O_6 
REMARK    3  A    between atoms: C_3  and  C_4 
REMARK    4  A    between atoms: C_7  and  O_6 
REMARK    5  A    between atoms: C_9  and  C_10 
REMARK    6  A    between atoms: N_15  and  C_14 
REMARK    7  A    between atoms: N_20  and  C_19 
REMARK       I    between atoms: C_22  and  N_20 
ROOT
ATOM      1  C   LIG d   1      -0.977  77.993 115.301  0.00  0.00     0.161 C 
ATOM      2  C   LIG d   1      -1.343  78.499 114.042  0.00  0.00     0.016 C 
ATOM      3  C   LIG d   1      -2.442  78.013 113.298  0.00  0.00     0.038 C 
ATOM      4  C   LIG d   1      -3.347  77.084 113.833  0.00  0.00     0.028 C 
ATOM      5  C   LIG d   1      -2.731  76.179 114.894  0.00  0.00    -0.047 C 
ATOM      6  C   LIG d   1      -2.019  77.056 115.949  0.00  0.00     0.091 C 
ENDROOT
BRANCH   1   7
ATOM      7  O   LIG d   1      -0.659  79.081 116.191  0.00  0.00    -0.368 OA
BRANCH   7   8
ATOM      8  C   LIG d   1       0.673  79.069 116.762  0.00  0.00     0.119 C 
BRANCH   8   9
ATOM      9  C   LIG d   1       0.621  79.872 118.076  0.00  0.00     0.028 C 
ATOM     10  C   LIG d   1      -0.807  79.993 118.633  0.00  0.00     0.006 C 
ENDBRANCH   8   9
BRANCH   8  11
ATOM     11  C   LIG d   1       1.668  79.816 115.869  0.00  0.00     0.028 C 
ATOM     12  C   LIG d   1       2.234  81.079 116.536  0.00  0.00     0.006 C 
ENDBRANCH   8  11
ENDBRANCH   7   8
ENDBRANCH   1   7
BRANCH   6  13
ATOM     13  N   LIG d   1      -1.316  76.247 116.979  0.00  0.00    -0.311 N 
ATOM     14  C   LIG d   1      -1.676  76.220 118.261  0.00  0.00     0.210 C 
ATOM     15  C   LIG d   1      -0.805  75.335 119.158  0.00  0.00     0.109 C 
ATOM     16  O   LIG d   1      -2.652  76.820 118.734  0.00  0.00    -0.276 OA
ATOM     17  H   LIG d   1      -0.531  75.705 116.675  0.00  0.00     0.149 HD
ENDBRANCH   6  13
BRANCH   5  18
ATOM     18  N   LIG d   1      -3.815  75.357 115.463  0.00  0.00     0.381 N 
ATOM     19  H   LIG d   1      -3.485  74.426 115.625  0.00  0.00    -0.090 HD
ATOM     20  H   LIG d   1      -4.571  75.313 114.802  0.00  0.00    -0.090 HD
ATOM     21  H   LIG d   1      -4.134  75.757 116.317  0.00  0.00    -0.090 HD
ENDBRANCH   5  18
BRANCH   3  22
ATOM     22  C   LIG d   1      -2.621  78.428 111.987  0.00  0.00     0.382 C 
ATOM     23  O   LIG d   1      -1.960  79.396 111.540  0.00  0.00    -0.241 OA
ATOM     24  O   LIG d   1      -3.468  77.875 111.260  0.00  0.00    -0.241 OA
ENDBRANCH   3  22
TORSDOF 7
ENDMDL
MODEL 5
REMARK VINA RESULT:      -4.4      5.553      7.498
REMARK  7 active torsions:
REMARK  status: ('A' for Active; 'I' for Inactive)
REMARK    1  A    between atoms: C_2  and  C_3 
REMARK    2  A    between atoms: C_3  and  O_6 
REMARK    3  A    between atoms: C_3  and  C_4 
REMARK    4  A    between atoms: C_7  and  O_6 
REMARK    5  A    between atoms: C_9  and  C_10 
REMARK    6  A    between atoms: N_15  and  C_14 
REMARK    7  A    between atoms: N_20  and  C_19 
REMARK       I    between atoms: C_22  and  N_20 
ROOT
ATOM      1  C   LIG d   1      -0.990  77.445 115.704  0.00  0.00     0.161 C 
ATOM      2  C   LIG d   1      -1.359  78.116 114.526  0.00  0.00     0.016 C 
ATOM      3  C   LIG d   1      -2.456  77.731 113.722  0.00  0.00     0.038 C 
ATOM      4  C   LIG d   1      -3.356  76.732 114.124  0.00  0.00     0.028 C 
ATOM      5  C   LIG d   1      -2.734  75.694 115.052  0.00  0.00    -0.047 C 
ATOM      6  C   LIG d   1      -2.026  76.423 116.217  0.00  0.00     0.091 C 
ENDROOT
BRANCH   1   7
ATOM      7  O   LIG d   1      -0.678  78.402 116.735  0.00  0.00    -0.368 OA
BRANCH   7   8
ATOM      8  C   LIG d   1       0.729  78.691 116.932  0.00  0.00     0.119 C 
BRANCH   8   9
ATOM      9  C   LIG d   1       1.191  77.911 118.178  0.00  0.00     0.028 C 
ATOM     10  C   LIG d   1       2.139  76.752 117.827  0.00  0.00     0.006 C 
ENDBRANCH   8   9
BRANCH   8  11
ATOM     11  C   LIG d   1       0.952  80.167 117.271  0.00  0.00     0.028 C 
ATOM     12  C   LIG d   1       0.012  80.674 118.376  0.00  0.00     0.006 C 
ENDBRANCH   8  11
ENDBRANCH   7   8
ENDBRANCH   1   7
BRANCH   6  13
ATOM     13  N   LIG d   1      -1.319  75.484 117.127  0.00  0.00    -0.311 N 
ATOM     14  C   LIG d   1      -1.421  75.532 118.454  0.00  0.00     0.210 C 
ATOM     15  C   LIG d   1      -0.593  74.484 119.204  0.00  0.00     0.109 C 
ATOM     16  O   LIG d   1      -2.143  76.322 119.079  0.00  0.00    -0.276 OA
ATOM     17  H   LIG d   1      -0.735  74.790 116.702  0.00  0.00     0.149 HD
ENDBRANCH   6  13
BRANCH   5  18
ATOM     18  N   LIG d   1      -3.813  74.795 115.502  0.00  0.00     0.381 N 
ATOM     19  H   LIG d   1      -4.508  74.716 114.788  0.00  0.00    -0.090 HD
ATOM     20  H   LIG d   1      -4.244  75.189 116.320  0.00  0.00    -0.090 HD
ATOM     21  H   LIG d   1      -3.441  73.896 115.715  0.00  0.00    -0.090 HD
ENDBRANCH   5  18
BRANCH   3  22
ATOM     22  C   LIG d   1      -2.638  78.320 112.480  0.00  0.00     0.382 C 
ATOM     23  O   LIG d   1      -3.603  77.973 111.757  0.00  0.00    -0.241 OA
ATOM     24  O   LIG d   1      -1.825  79.162 112.055  0.00  0.00    -0.241 OA
ENDBRANCH   3  22
TORSDOF 7
ENDMDL
MODEL 6
REMARK VINA RESULT:      -4.3      7.138      9.226
REMARK  7 active torsions:
REMARK  status: ('A' for Active; 'I' for Inactive)
REMARK    1  A    between atoms: C_2  and  C_3 
REMARK    2  A    between atoms: C_3  and  O_6 
REMARK    3  A    between atoms: C_3  and  C_4 
REMARK    4  A    between atoms: C_7  and  O_6 
REMARK    5  A    between atoms: C_9  and  C_10 
REMARK    6  A    between atoms: N_15  and  C_14 
REMARK    7  A    between atoms: N_20  and  C_19 
REMARK       I    between atoms: C_22  and  N_20 
ROOT
ATOM      1  C   LIG d   1      -1.613  75.654 118.413  0.00  0.00     0.161 C 
ATOM      2  C   LIG d   1      -0.424  75.750 119.154  0.00  0.00     0.016 C 
ATOM      3  C   LIG d   1       0.856  75.498 118.609  0.00  0.00     0.038 C 
ATOM      4  C   LIG d   1       1.047  75.278 117.237  0.00  0.00     0.028 C 
ATOM      5  C   LIG d   1      -0.171  74.674 116.545  0.00  0.00    -0.047 C 
ATOM      6  C   LIG d   1      -1.416  75.524 116.888  0.00  0.00     0.091 C 
ENDROOT
BRANCH   1   7
ATOM      7  O   LIG d   1      -2.468  76.775 118.713  0.00  0.00    -0.368 OA
BRANCH   7   8
ATOM      8  C   LIG d   1      -2.486  77.844 117.735  0.00  0.00     0.119 C 
BRANCH   8   9
ATOM      9  C   LIG d   1      -1.898  79.098 118.410  0.00  0.00     0.028 C 
ATOM     10  C   LIG d   1      -0.398  79.273 118.120  0.00  0.00     0.006 C 
ENDBRANCH   8   9
BRANCH   8  11
ATOM     11  C   LIG d   1      -3.919  78.224 117.351  0.00  0.00     0.028 C 
ATOM     12  C   LIG d   1      -4.036  78.712 115.898  0.00  0.00     0.006 C 
ENDBRANCH   8  11
ENDBRANCH   7   8
ENDBRANCH   1   7
BRANCH   6  13
ATOM     13  N   LIG d   1      -2.665  74.954 116.320  0.00  0.00    -0.311 N 
ATOM     14  C   LIG d   1      -3.124  75.257 115.106  0.00  0.00     0.210 C 
ATOM     15  C   LIG d   1      -4.440  74.574 114.723  0.00  0.00     0.109 C 
ATOM     16  O   LIG d   1      -2.548  76.002 114.299  0.00  0.00    -0.276 OA
ATOM     17  H   LIG d   1      -3.179  74.317 116.896  0.00  0.00     0.149 HD
ENDBRANCH   6  13
BRANCH   5  18
ATOM     18  N   LIG d   1       0.116  74.626 115.099  0.00  0.00     0.381 N 
ATOM     19  H   LIG d   1       1.049  74.945 114.928  0.00  0.00    -0.090 HD
ATOM     20  H   LIG d   1      -0.520  75.240 114.621  0.00  0.00    -0.090 HD
ATOM     21  H   LIG d   1       0.008  73.696 114.761  0.00  0.00    -0.090 HD
ENDBRANCH   5  18
BRANCH   3  22
ATOM     22  C   LIG d   1       1.958  75.425 119.447  0.00  0.00     0.382 C 
ATOM     23  O   LIG d   1       2.632  76.455 119.689  0.00  0.00    -0.241 OA
ATOM     24  O   LIG d   1       2.313  74.333 119.930  0.00  0.00    -0.241 OA
ENDBRANCH   3  22
TORSDOF 7
ENDMDL
MODEL 7
REMARK VINA RESULT:      -4.3      4.062      6.597
REMARK  7 active torsions:
REMARK  status: ('A' for Active; 'I' for Inactive)
REMARK    1  A    between atoms: C_2  and  C_3 
REMARK    2  A    between atoms: C_3  and  O_6 
REMARK    3  A    between atoms: C_3  and  C_4 
REMARK    4  A    between atoms: C_7  and  O_6 
REMARK    5  A    between atoms: C_9  and  C_10 
REMARK    6  A    between atoms: N_15  and  C_14 
REMARK    7  A    between atoms: N_20  and  C_19 
REMARK       I    between atoms: C_22  and  N_20 
ROOT
ATOM      1  C   LIG d   1      -0.850  78.609 114.538  0.00  0.00     0.161 C 
ATOM      2  C   LIG d   1       0.046  79.546 113.996  0.00  0.00     0.016 C 
ATOM      3  C   LIG d   1      -0.030  80.016 112.665  0.00  0.00     0.038 C 
ATOM      4  C   LIG d   1      -1.106  79.691 111.824  0.00  0.00     0.028 C 
ATOM      5  C   LIG d   1      -1.757  78.355 112.163  0.00  0.00    -0.047 C 
ATOM      6  C   LIG d   1      -2.095  78.329 113.671  0.00  0.00     0.091 C 
ENDROOT
BRANCH   1   7
ATOM      7  O   LIG d   1      -1.243  79.019 115.863  0.00  0.00    -0.368 OA
BRANCH   7   8
ATOM      8  C   LIG d   1      -0.376  78.598 116.944  0.00  0.00     0.119 C 
BRANCH   8   9
ATOM      9  C   LIG d   1      -0.861  77.212 117.413  0.00  0.00     0.028 C 
ATOM     10  C   LIG d   1      -2.201  77.282 118.164  0.00  0.00     0.006 C 
ENDBRANCH   8   9
BRANCH   8  11
ATOM     11  C   LIG d   1      -0.523  79.512 118.164  0.00  0.00     0.028 C 
ATOM     12  C   LIG d   1       0.438  80.712 118.128  0.00  0.00     0.006 C 
ENDBRANCH   8  11
ENDBRANCH   7   8
ENDBRANCH   1   7
BRANCH   6  13
ATOM     13  N   LIG d   1      -2.659  77.023 114.103  0.00  0.00    -0.311 N 
ATOM     14  C   LIG d   1      -3.748  76.910 114.861  0.00  0.00     0.210 C 
ATOM     15  C   LIG d   1      -4.148  75.473 115.209  0.00  0.00     0.109 C 
ATOM     16  O   LIG d   1      -4.440  77.863 115.252  0.00  0.00    -0.276 OA
ATOM     17  H   LIG d   1      -2.178  76.197 113.805  0.00  0.00     0.149 HD
ENDBRANCH   6  13
BRANCH   5  18
ATOM     18  N   LIG d   1      -2.946  78.207 111.302  0.00  0.00     0.381 N 
ATOM     19  H   LIG d   1      -2.795  78.680 110.433  0.00  0.00    -0.090 HD
ATOM     20  H   LIG d   1      -3.733  78.631 111.759  0.00  0.00    -0.090 HD
ATOM     21  H   LIG d   1      -3.129  77.242 111.135  0.00  0.00    -0.090 HD
ENDBRANCH   5  18
BRANCH   3  22
ATOM     22  C   LIG d   1       0.999  80.788 112.148  0.00  0.00     0.382 C 
ATOM     23  O   LIG d   1       1.132  80.906 110.906  0.00  0.00    -0.241 OA
ATOM     24  O   LIG d   1       1.823  81.332 112.908  0.00  0.00    -0.241 OA
ENDBRANCH   3  22
TORSDOF 7
ENDMDL
MODEL 8
REMARK VINA RESULT:      -4.2      2.042      2.734
REMARK  7 active torsions:
REMARK  status: ('A' for Active; 'I' for Inactive)
REMARK    1  A    between atoms: C_2  and  C_3 
REMARK    2  A    between atoms: C_3  and  O_6 
REMARK    3  A    between atoms: C_3  and  C_4 
REMARK    4  A    between atoms: C_7  and  O_6 
REMARK    5  A    between atoms: C_9  and  C_10 
REMARK    6  A    between atoms: N_15  and  C_14 
REMARK    7  A    between atoms: N_20  and  C_19 
REMARK       I    between atoms: C_22  and  N_20 
ROOT
ATOM      1  C   LIG d   1       0.853  80.622 113.605  0.00  0.00     0.161 C 
ATOM      2  C   LIG d   1      -0.168  79.659 113.684  0.00  0.00     0.016 C 
ATOM      3  C   LIG d   1      -0.940  79.251 112.573  0.00  0.00     0.038 C 
ATOM      4  C   LIG d   1      -0.641  79.670 111.268  0.00  0.00     0.028 C 
ATOM      5  C   LIG d   1       0.054  81.026 111.212  0.00  0.00    -0.047 C 
ATOM      6  C   LIG d   1       1.267  81.008 112.170  0.00  0.00     0.091 C 
ENDROOT
BRANCH   1   7
ATOM      7  O   LIG d   1       2.001  80.180 114.356  0.00  0.00    -0.368 OA
BRANCH   7   8
ATOM      8  C   LIG d   1       1.927  80.353 115.793  0.00  0.00     0.119 C 
BRANCH   8   9
ATOM      9  C   LIG d   1       2.461  81.762 116.117  0.00  0.00     0.028 C 
ATOM     10  C   LIG d   1       3.242  81.804 117.441  0.00  0.00     0.006 C 
ENDBRANCH   8   9
BRANCH   8  11
ATOM     11  C   LIG d   1       2.868  79.387 116.519  0.00  0.00     0.028 C 
ATOM     12  C   LIG d   1       2.116  78.348 117.366  0.00  0.00     0.006 C 
ENDBRANCH   8  11
ENDBRANCH   7   8
ENDBRANCH   1   7
BRANCH   6  13
ATOM     13  N   LIG d   1       1.954  82.324 112.239  0.00  0.00    -0.311 N 
ATOM     14  C   LIG d   1       3.040  82.622 111.528  0.00  0.00     0.210 C 
ATOM     15  C   LIG d   1       3.602  84.027 111.764  0.00  0.00     0.109 C 
ATOM     16  O   LIG d   1       3.573  81.867 110.700  0.00  0.00    -0.276 OA
ATOM     17  H   LIG d   1       1.570  83.007 112.862  0.00  0.00     0.149 HD
ENDBRANCH   6  13
BRANCH   5  18
ATOM     18  N   LIG d   1       0.430  81.276 109.807  0.00  0.00     0.381 N 
ATOM     19  H   LIG d   1       0.529  82.259 109.653  0.00  0.00    -0.090 HD
ATOM     20  H   LIG d   1      -0.301  80.934 109.209  0.00  0.00    -0.090 HD
ATOM     21  H   LIG d   1       1.286  80.811 109.596  0.00  0.00    -0.090 HD
ENDBRANCH   5  18
BRANCH   3  22
ATOM     22  C   LIG d   1      -2.051  78.444 112.767  0.00  0.00     0.382 C 
ATOM     23  O   LIG d   1      -3.017  78.861 113.451  0.00  0.00    -0.241 OA
ATOM     24  O   LIG d   1      -2.081  77.287 112.305  0.00  0.00    -0.241 OA
ENDBRANCH   3  22
TORSDOF 7
ENDMDL
MODEL 9
REMARK VINA RESULT:      -4.1      3.691      4.862
REMARK  7 active torsions:
REMARK  status: ('A' for Active; 'I' for Inactive)
REMARK    1  A    between atoms: C_2  and  C_3 
REMARK    2  A    between atoms: C_3  and  O_6 
REMARK    3  A    between atoms: C_3  and  C_4 
REMARK    4  A    between atoms: C_7  and  O_6 
REMARK    5  A    between atoms: C_9  and  C_10 
REMARK    6  A    between atoms: N_15  and  C_14 
REMARK    7  A    between atoms: N_20  and  C_19 
REMARK       I    between atoms: C_22  and  N_20 
ROOT
ATOM      1  C   LIG d   1      -1.076  79.122 114.668  0.00  0.00     0.161 C 
ATOM      2  C   LIG d   1      -2.071  78.147 114.851  0.00  0.00     0.016 C 
ATOM      3  C   LIG d   1      -2.809  77.579 113.787  0.00  0.00     0.038 C 
ATOM      4  C   LIG d   1      -2.495  77.839 112.445  0.00  0.00     0.028 C 
ATOM      5  C   LIG d   1      -1.835  79.197 112.229  0.00  0.00    -0.047 C 
ATOM      6  C   LIG d   1      -0.642  79.336 113.203  0.00  0.00     0.091 C 
ENDROOT
BRANCH   1   7
ATOM      7  O   LIG d   1       0.068  78.812 115.488  0.00  0.00    -0.368 OA
BRANCH   7   8
ATOM      8  C   LIG d   1      -0.201  78.568 116.891  0.00  0.00     0.119 C 
BRANCH   8   9
ATOM      9  C   LIG d   1       0.587  79.614 117.703  0.00  0.00     0.028 C 
ATOM     10  C   LIG d   1      -0.335  80.574 118.473  0.00  0.00     0.006 C 
ENDBRANCH   8   9
BRANCH   8  11
ATOM     11  C   LIG d   1       0.351  77.210 117.336  0.00  0.00     0.028 C 
ATOM     12  C   LIG d   1       1.280  77.315 118.555  0.00  0.00     0.006 C 
ENDBRANCH   8  11
ENDBRANCH   7   8
ENDBRANCH   1   7
BRANCH   6  13
ATOM     13  N   LIG d   1       0.007  80.670 113.116  0.00  0.00    -0.311 N 
ATOM     14  C   LIG d   1       1.011  80.944 112.285  0.00  0.00     0.210 C 
ATOM     15  C   LIG d   1       1.549  82.376 112.371  0.00  0.00     0.109 C 
ATOM     16  O   LIG d   1       1.486  80.146 111.463  0.00  0.00    -0.276 OA
ATOM     17  H   LIG d   1      -0.337  81.385 113.727  0.00  0.00     0.149 HD
ENDBRANCH   6  13
BRANCH   5  18
ATOM     18  N   LIG d   1      -1.437  79.279 110.811  0.00  0.00     0.381 N 
ATOM     19  H   LIG d   1      -2.000  78.658 110.265  0.00  0.00    -0.090 HD
ATOM     20  H   LIG d   1      -0.478  78.993 110.726  0.00  0.00    -0.090 HD
ATOM     21  H   LIG d   1      -1.544  80.213 110.481  0.00  0.00    -0.090 HD
ENDBRANCH   5  18
BRANCH   3  22
ATOM     22  C   LIG d   1      -3.901  76.771 114.063  0.00  0.00     0.382 C 
ATOM     23  O   LIG d   1      -4.382  76.038 113.165  0.00  0.00    -0.241 OA
ATOM     24  O   LIG d   1      -4.440  76.798 115.186  0.00  0.00    -0.241 OA
ENDBRANCH   3  22
TORSDOF 7
ENDMDL
