MODEL 1
REMARK VINA RESULT:      -5.0      0.000      0.000
REMARK  7 active torsions:
REMARK  status: ('A' for Active; 'I' for Inactive)
REMARK    1  A    between atoms: C_2  and  C_3 
REMARK    2  A    between atoms: C_3  and  O_6 
REMARK    3  A    between atoms: C_3  and  C_4 
REMARK    4  A    between atoms: C_7  and  O_6 
REMARK    5  A    between atoms: C_9  and  C_10 
REMARK    6  A    between atoms: N_15  and  C_14 
REMARK    7  A    between atoms: N_20  and  C_19 
REMARK       I    between atoms: C_22  and  N_20 
ROOT
ATOM      1  C   LIG d   1      -0.772  79.979 113.206  0.00  0.00     0.161 C 
ATOM      2  C   LIG d   1      -1.849  79.257 112.666  0.00  0.00     0.016 C 
ATOM      3  C   LIG d   1      -2.626  78.342 113.414  0.00  0.00     0.038 C 
ATOM      4  C   LIG d   1      -2.472  78.199 114.801  0.00  0.00     0.028 C 
ATOM      5  C   LIG d   1      -1.067  78.532 115.292  0.00  0.00    -0.047 C 
ATOM      6  C   LIG d   1      -0.660  79.919 114.744  0.00  0.00     0.091 C 
ENDROOT
BRANCH   1   7
ATOM      7  O   LIG d   1      -0.830  81.349 112.761  0.00  0.00    -0.368 OA
BRANCH   7   8
ATOM      8  C   LIG d   1      -0.067  81.664 111.570  0.00  0.00     0.119 C 
BRANCH   8   9
ATOM      9  C   LIG d   1       1.308  80.982 111.706  0.00  0.00     0.028 C 
ATOM     10  C   LIG d   1       1.871  80.521 110.351  0.00  0.00     0.006 C 
ENDBRANCH   8   9
BRANCH   8  11
ATOM     11  C   LIG d   1       0.232  83.163 111.480  0.00  0.00     0.028 C 
ATOM     12  C   LIG d   1      -0.009  83.736 110.074  0.00  0.00     0.006 C 
ENDBRANCH   8  11
ENDBRANCH   7   8
ENDBRANCH   1   7
BRANCH   6  13
ATOM     13  N   LIG d   1       0.734  80.285 115.107  0.00  0.00    -0.311 N 
ATOM     14  C   LIG d   1       1.047  80.994 116.191  0.00  0.00     0.210 C 
ATOM     15  C   LIG d   1       2.542  81.278 116.368  0.00  0.00     0.109 C 
ATOM     16  O   LIG d   1       0.232  81.387 117.039  0.00  0.00    -0.276 OA
ATOM     17  H   LIG d   1       1.461  79.980 114.491  0.00  0.00     0.149 HD
ENDBRANCH   6  13
BRANCH   5  18
ATOM     18  N   LIG d   1      -1.085  78.475 116.765  0.00  0.00     0.381 N 
ATOM     19  H   LIG d   1      -1.289  79.381 117.137  0.00  0.00    -0.090 HD
ATOM     20  H   LIG d   1      -0.175  78.199 117.091  0.00  0.00    -0.090 HD
ATOM     21  H   LIG d   1      -1.769  77.820 117.073  0.00  0.00    -0.090 HD
ENDBRANCH   5  18
BRANCH   3  22
ATOM     22  C   LIG d   1      -3.543  77.529 112.766  0.00  0.00     0.382 C 
ATOM     23  O   LIG d   1      -3.959  77.839 111.624  0.00  0.00    -0.241 OA
ATOM     24  O   LIG d   1      -3.993  76.512 113.327  0.00  0.00    -0.241 OA
ENDBRANCH   3  22
TORSDOF 7
ENDMDL
MODEL 2
REMARK VINA RESULT:      -4.4      2.770      5.404
REMARK  7 active torsions:
REMARK  status: ('A' for Active; 'I' for Inactive)
REMARK    1  A    between atoms: C_2  and  C_3 
REMARK    2  A    between atoms: C_3  and  O_6 
REMARK    3  A    between atoms: C_3  and  C_4 
REMARK    4  A    between atoms: C_7  and  O_6 
REMARK    5  A    between atoms: C_9  and  C_10 
REMARK    6  A    between atoms: N_15  and  C_14 
REMARK    7  A    between atoms: N_20  and  C_19 
REMARK       I    between atoms: C_22  and  N_20 
ROOT
ATOM      1  C   LIG d   1      -2.193  78.758 116.134  0.00  0.00     0.161 C 
ATOM      2  C   LIG d   1      -2.666  79.199 114.887  0.00  0.00     0.016 C 
ATOM      3  C   LIG d   1      -1.865  79.897 113.954  0.00  0.00     0.038 C 
ATOM      4  C   LIG d   1      -0.486  80.069 114.143  0.00  0.00     0.028 C 
ATOM      5  C   LIG d   1      -0.073  80.085 115.611  0.00  0.00    -0.047 C 
ATOM      6  C   LIG d   1      -0.663  78.839 116.311  0.00  0.00     0.091 C 
ENDROOT
BRANCH   1   7
ATOM      7  O   LIG d   1      -2.656  77.416 116.384  0.00  0.00    -0.368 OA
BRANCH   7   8
ATOM      8  C   LIG d   1      -2.504  76.475 115.293  0.00  0.00     0.119 C 
BRANCH   8   9
ATOM      9  C   LIG d   1      -3.858  75.765 115.102  0.00  0.00     0.028 C 
ATOM     10  C   LIG d   1      -4.386  75.146 116.407  0.00  0.00     0.006 C 
ENDBRANCH   8   9
BRANCH   8  11
ATOM     11  C   LIG d   1      -1.511  75.365 115.650  0.00  0.00     0.028 C 
ATOM     12  C   LIG d   1      -0.250  75.389 114.771  0.00  0.00     0.006 C 
ENDBRANCH   8  11
ENDBRANCH   7   8
ENDBRANCH   1   7
BRANCH   6  13
ATOM     13  N   LIG d   1      -0.377  78.819 117.769  0.00  0.00    -0.311 N 
ATOM     14  C   LIG d   1       0.367  77.885 118.358  0.00  0.00     0.210 C 
ATOM     15  C   LIG d   1       0.520  78.040 119.875  0.00  0.00     0.109 C 
ATOM     16  O   LIG d   1       0.941  76.960 117.764  0.00  0.00    -0.276 OA
ATOM     17  H   LIG d   1      -0.778  79.551 118.322  0.00  0.00     0.149 HD
ENDBRANCH   6  13
BRANCH   5  18
ATOM     18  N   LIG d   1       1.401  80.132 115.660  0.00  0.00     0.381 N 
ATOM     19  H   LIG d   1       1.782  79.551 114.940  0.00  0.00    -0.090 HD
ATOM     20  H   LIG d   1       1.708  79.776 116.548  0.00  0.00    -0.090 HD
ATOM     21  H   LIG d   1       1.716  81.069 115.542  0.00  0.00    -0.090 HD
ENDBRANCH   5  18
BRANCH   3  22
ATOM     22  C   LIG d   1      -2.452  80.467 112.834  0.00  0.00     0.382 C 
ATOM     23  O   LIG d   1      -2.410  79.869 111.732  0.00  0.00    -0.241 OA
ATOM     24  O   LIG d   1      -2.985  81.590 112.902  0.00  0.00    -0.241 OA
ENDBRANCH   3  22
TORSDOF 7
ENDMDL
MODEL 3
REMARK VINA RESULT:      -4.4      2.808      5.087
REMARK  7 active torsions:
REMARK  status: ('A' for Active; 'I' for Inactive)
REMARK    1  A    between atoms: C_2  and  C_3 
REMARK    2  A    between atoms: C_3  and  O_6 
REMARK    3  A    between atoms: C_3  and  C_4 
REMARK    4  A    between atoms: C_7  and  O_6 
REMARK    5  A    between atoms: C_9  and  C_10 
REMARK    6  A    between atoms: N_15  and  C_14 
REMARK    7  A    between atoms: N_20  and  C_19 
REMARK       I    between atoms: C_22  and  N_20 
ROOT
ATOM      1  C   LIG d   1      -1.872  78.658 116.588  0.00  0.00     0.161 C 
ATOM      2  C   LIG d   1      -2.606  77.755 115.802  0.00  0.00     0.016 C 
ATOM      3  C   LIG d   1      -2.506  77.690 114.393  0.00  0.00     0.038 C 
ATOM      4  C   LIG d   1      -1.545  78.426 113.683  0.00  0.00     0.028 C 
ATOM      5  C   LIG d   1      -1.132  79.717 114.383  0.00  0.00    -0.047 C 
ATOM      6  C   LIG d   1      -0.738  79.392 115.842  0.00  0.00     0.091 C 
ENDROOT
BRANCH   1   7
ATOM      7  O   LIG d   1      -1.352  77.983 117.750  0.00  0.00    -0.368 OA
BRANCH   7   8
ATOM      8  C   LIG d   1      -0.322  76.994 117.505  0.00  0.00     0.119 C 
BRANCH   8   9
ATOM      9  C   LIG d   1      -0.747  75.695 118.219  0.00  0.00     0.028 C 
ATOM     10  C   LIG d   1      -1.358  74.667 117.251  0.00  0.00     0.006 C 
ENDBRANCH   8   9
BRANCH   8  11
ATOM     11  C   LIG d   1       1.005  77.397 118.156  0.00  0.00     0.028 C 
ATOM     12  C   LIG d   1       2.228  76.958 117.336  0.00  0.00     0.006 C 
ENDBRANCH   8  11
ENDBRANCH   7   8
ENDBRANCH   1   7
BRANCH   6  13
ATOM     13  N   LIG d   1      -0.401  80.611 116.623  0.00  0.00    -0.311 N 
ATOM     14  C   LIG d   1       0.845  81.044 116.804  0.00  0.00     0.210 C 
ATOM     15  C   LIG d   1       0.972  82.310 117.658  0.00  0.00     0.109 C 
ATOM     16  O   LIG d   1       1.855  80.520 116.310  0.00  0.00    -0.276 OA
ATOM     17  H   LIG d   1      -1.163  81.115 117.032  0.00  0.00     0.149 HD
ENDBRANCH   6  13
BRANCH   5  18
ATOM     18  N   LIG d   1      -0.030  80.313 113.605  0.00  0.00     0.381 N 
ATOM     19  H   LIG d   1      -0.167  80.132 112.631  0.00  0.00    -0.090 HD
ATOM     20  H   LIG d   1       0.835  79.885 113.887  0.00  0.00    -0.090 HD
ATOM     21  H   LIG d   1       0.009  81.295 113.766  0.00  0.00    -0.090 HD
ENDBRANCH   5  18
BRANCH   3  22
ATOM     22  C   LIG d   1      -3.400  76.911 113.675  0.00  0.00     0.382 C 
ATOM     23  O   LIG d   1      -3.821  75.832 114.159  0.00  0.00    -0.241 OA
ATOM     24  O   LIG d   1      -3.758  77.250 112.531  0.00  0.00    -0.241 OA
ENDBRANCH   3  22
TORSDOF 7
ENDMDL
MODEL 4
REMARK VINA RESULT:      -4.3      2.677      5.134
REMARK  7 active torsions:
REMARK  status: ('A' for Active; 'I' for Inactive)
REMARK    1  A    between atoms: C_2  and  C_3 
REMARK    2  A    between atoms: C_3  and  O_6 
REMARK    3  A    between atoms: C_3  and  C_4 
REMARK    4  A    between atoms: C_7  and  O_6 
REMARK    5  A    between atoms: C_9  and  C_10 
REMARK    6  A    between atoms: N_15  and  C_14 
REMARK    7  A    between atoms: N_20  and  C_19 
REMARK       I    between atoms: C_22  and  N_20 
ROOT
ATOM      1  C   LIG d   1       0.813  81.317 113.299  0.00  0.00     0.161 C 
ATOM      2  C   LIG d   1      -0.259  80.429 113.487  0.00  0.00     0.016 C 
ATOM      3  C   LIG d   1      -1.013  79.884 112.422  0.00  0.00     0.038 C 
ATOM      4  C   LIG d   1      -0.647  80.073 111.081  0.00  0.00     0.028 C 
ATOM      5  C   LIG d   1       0.121  81.368 110.840  0.00  0.00    -0.047 C 
ATOM      6  C   LIG d   1       1.297  81.448 111.839  0.00  0.00     0.091 C 
ENDROOT
BRANCH   1   7
ATOM      7  O   LIG d   1       1.909  80.949 114.159  0.00  0.00    -0.368 OA
BRANCH   7   8
ATOM      8  C   LIG d   1       1.780  81.324 115.553  0.00  0.00     0.119 C 
BRANCH   8   9
ATOM      9  C   LIG d   1       2.271  82.778 115.688  0.00  0.00     0.028 C 
ATOM     10  C   LIG d   1       1.837  83.423 117.015  0.00  0.00     0.006 C 
ENDBRANCH   8   9
BRANCH   8  11
ATOM     11  C   LIG d   1       2.713  80.495 116.441  0.00  0.00     0.028 C 
ATOM     12  C   LIG d   1       1.972  79.402 117.227  0.00  0.00     0.006 C 
ENDBRANCH   8  11
ENDBRANCH   7   8
ENDBRANCH   1   7
BRANCH   6  13
ATOM     13  N   LIG d   1       2.050  82.724 111.728  0.00  0.00    -0.311 N 
ATOM     14  C   LIG d   1       3.183  82.848 111.038  0.00  0.00     0.210 C 
ATOM     15  C   LIG d   1       3.808  84.247 111.069  0.00  0.00     0.109 C 
ATOM     16  O   LIG d   1       3.713  81.942 110.378  0.00  0.00    -0.276 OA
ATOM     17  H   LIG d   1       1.675  83.519 112.207  0.00  0.00     0.149 HD
ENDBRANCH   6  13
BRANCH   5  18
ATOM     18  N   LIG d   1       0.558  81.371 109.431  0.00  0.00     0.381 N 
ATOM     19  H   LIG d   1       1.055  82.216 109.232  0.00  0.00    -0.090 HD
ATOM     20  H   LIG d   1      -0.253  81.335 108.839  0.00  0.00    -0.090 HD
ATOM     21  H   LIG d   1       1.142  80.583 109.254  0.00  0.00    -0.090 HD
ENDBRANCH   5  18
BRANCH   3  22
ATOM     22  C   LIG d   1      -2.171  79.172 112.695  0.00  0.00     0.382 C 
ATOM     23  O   LIG d   1      -2.146  77.917 112.714  0.00  0.00    -0.241 OA
ATOM     24  O   LIG d   1      -3.250  79.767 112.879  0.00  0.00    -0.241 OA
ENDBRANCH   3  22
TORSDOF 7
ENDMDL
MODEL 5
REMARK VINA RESULT:      -4.2      2.257      5.673
REMARK  7 active torsions:
REMARK  status: ('A' for Active; 'I' for Inactive)
REMARK    1  A    between atoms: C_2  and  C_3 
REMARK    2  A    between atoms: C_3  and  O_6 
REMARK    3  A    between atoms: C_3  and  C_4 
REMARK    4  A    between atoms: C_7  and  O_6 
REMARK    5  A    between atoms: C_9  and  C_10 
REMARK    6  A    between atoms: N_15  and  C_14 
REMARK    7  A    between atoms: N_20  and  C_19 
REMARK       I    between atoms: C_22  and  N_20 
ROOT
ATOM      1  C   LIG d   1       0.803  80.578 114.058  0.00  0.00     0.161 C 
ATOM      2  C   LIG d   1       1.455  81.591 113.336  0.00  0.00     0.016 C 
ATOM      3  C   LIG d   1       1.072  81.990 112.035  0.00  0.00     0.038 C 
ATOM      4  C   LIG d   1      -0.093  81.502 111.423  0.00  0.00     0.028 C 
ATOM      5  C   LIG d   1      -0.495  80.113 111.907  0.00  0.00    -0.047 C 
ATOM      6  C   LIG d   1      -0.537  80.112 113.452  0.00  0.00     0.091 C 
ENDROOT
BRANCH   1   7
ATOM      7  O   LIG d   1       0.617  80.995 115.425  0.00  0.00    -0.368 OA
BRANCH   7   8
ATOM      8  C   LIG d   1       1.821  81.329 116.159  0.00  0.00     0.119 C 
BRANCH   8   9
ATOM      9  C   LIG d   1       2.229  80.084 116.970  0.00  0.00     0.028 C 
ATOM     10  C   LIG d   1       3.649  79.600 116.629  0.00  0.00     0.006 C 
ENDBRANCH   8   9
BRANCH   8  11
ATOM     11  C   LIG d   1       1.554  82.421 117.199  0.00  0.00     0.028 C 
ATOM     12  C   LIG d   1       0.283  82.161 118.023  0.00  0.00     0.006 C 
ENDBRANCH   8  11
ENDBRANCH   7   8
ENDBRANCH   1   7
BRANCH   6  13
ATOM     13  N   LIG d   1      -0.840  78.768 114.010  0.00  0.00    -0.311 N 
ATOM     14  C   LIG d   1      -2.066  78.375 114.350  0.00  0.00     0.210 C 
ATOM     15  C   LIG d   1      -2.155  76.958 114.924  0.00  0.00     0.109 C 
ATOM     16  O   LIG d   1      -3.094  79.053 114.199  0.00  0.00    -0.276 OA
ATOM     17  H   LIG d   1      -0.069  78.142 114.136  0.00  0.00     0.149 HD
ENDBRANCH   6  13
BRANCH   5  18
ATOM     18  N   LIG d   1      -1.795  79.786 111.293  0.00  0.00     0.381 N 
ATOM     19  H   LIG d   1      -1.883  78.795 111.191  0.00  0.00    -0.090 HD
ATOM     20  H   LIG d   1      -1.837  80.202 110.379  0.00  0.00    -0.090 HD
ATOM     21  H   LIG d   1      -2.537  80.136 111.858  0.00  0.00    -0.090 HD
ENDBRANCH   5  18
BRANCH   3  22
ATOM     22  C   LIG d   1       1.880  82.857 111.315  0.00  0.00     0.382 C 
ATOM     23  O   LIG d   1       1.363  83.779 110.639  0.00  0.00    -0.241 OA
ATOM     24  O   LIG d   1       3.115  82.702 111.299  0.00  0.00    -0.241 OA
ENDBRANCH   3  22
TORSDOF 7
ENDMDL
MODEL 6
REMARK VINA RESULT:      -4.2      2.139      4.702
REMARK  7 active torsions:
REMARK  status: ('A' for Active; 'I' for Inactive)
REMARK    1  A    between atoms: C_2  and  C_3 
REMARK    2  A    between atoms: C_3  and  O_6 
REMARK    3  A    between atoms: C_3  and  C_4 
REMARK    4  A    between atoms: C_7  and  O_6 
REMARK    5  A    between atoms: C_9  and  C_10 
REMARK    6  A    between atoms: N_15  and  C_14 
REMARK    7  A    between atoms: N_20  and  C_19 
REMARK       I    between atoms: C_22  and  N_20 
ROOT
ATOM      1  C   LIG d   1      -0.353  80.263 114.692  0.00  0.00     0.161 C 
ATOM      2  C   LIG d   1      -1.224  79.232 115.083  0.00  0.00     0.016 C 
ATOM      3  C   LIG d   1      -1.977  78.461 114.168  0.00  0.00     0.038 C 
ATOM      4  C   LIG d   1      -1.795  78.568 112.782  0.00  0.00     0.028 C 
ATOM      5  C   LIG d   1      -1.300  79.942 112.340  0.00  0.00    -0.047 C 
ATOM      6  C   LIG d   1      -0.058  80.320 113.179  0.00  0.00     0.091 C 
ENDROOT
BRANCH   1   7
ATOM      7  O   LIG d   1       0.876  80.174 115.440  0.00  0.00    -0.368 OA
BRANCH   7   8
ATOM      8  C   LIG d   1       0.740  80.034 116.875  0.00  0.00     0.119 C 
BRANCH   8   9
ATOM      9  C   LIG d   1       0.615  81.451 117.469  0.00  0.00     0.028 C 
ATOM     10  C   LIG d   1      -0.645  81.616 118.335  0.00  0.00     0.006 C 
ENDBRANCH   8   9
BRANCH   8  11
ATOM     11  C   LIG d   1       2.006  79.442 117.500  0.00  0.00     0.028 C 
ATOM     12  C   LIG d   1       3.287  79.862 116.761  0.00  0.00     0.006 C 
ENDBRANCH   8  11
ENDBRANCH   7   8
ENDBRANCH   1   7
BRANCH   6  13
ATOM     13  N   LIG d   1       0.440  81.686 112.869  0.00  0.00    -0.311 N 
ATOM     14  C   LIG d   1       1.475  81.924 112.065  0.00  0.00     0.210 C 
ATOM     15  C   LIG d   1       1.836  83.404 111.897  0.00  0.00     0.109 C 
ATOM     16  O   LIG d   1       2.108  81.053 111.450  0.00  0.00    -0.276 OA
ATOM     17  H   LIG d   1      -0.035  82.454 113.301  0.00  0.00     0.149 HD
ENDBRANCH   6  13
BRANCH   5  18
ATOM     18  N   LIG d   1      -1.022  79.871 110.893  0.00  0.00     0.381 N 
ATOM     19  H   LIG d   1      -1.109  78.926 110.577  0.00  0.00    -0.090 HD
ATOM     20  H   LIG d   1      -0.077  80.172 110.729  0.00  0.00    -0.090 HD
ATOM     21  H   LIG d   1      -1.656  80.456 110.395  0.00  0.00    -0.090 HD
ENDBRANCH   5  18
BRANCH   3  22
ATOM     22  C   LIG d   1      -2.955  77.597 114.639  0.00  0.00     0.382 C 
ATOM     23  O   LIG d   1      -3.783  77.994 115.494  0.00  0.00    -0.241 OA
ATOM     24  O   LIG d   1      -2.991  76.414 114.253  0.00  0.00    -0.241 OA
ENDBRANCH   3  22
TORSDOF 7
ENDMDL
MODEL 7
REMARK VINA RESULT:      -4.0      2.553      5.160
REMARK  7 active torsions:
REMARK  status: ('A' for Active; 'I' for Inactive)
REMARK    1  A    between atoms: C_2  and  C_3 
REMARK    2  A    between atoms: C_3  and  O_6 
REMARK    3  A    between atoms: C_3  and  C_4 
REMARK    4  A    between atoms: C_7  and  O_6 
REMARK    5  A    between atoms: C_9  and  C_10 
REMARK    6  A    between atoms: N_15  and  C_14 
REMARK    7  A    between atoms: N_20  and  C_19 
REMARK       I    between atoms: C_22  and  N_20 
ROOT
ATOM      1  C   LIG d   1      -0.720  78.911 115.315  0.00  0.00     0.161 C 
ATOM      2  C   LIG d   1      -0.865  79.921 114.349  0.00  0.00     0.016 C 
ATOM      3  C   LIG d   1      -1.825  79.874 113.312  0.00  0.00     0.038 C 
ATOM      4  C   LIG d   1      -2.812  78.879 113.260  0.00  0.00     0.028 C 
ATOM      5  C   LIG d   1      -2.388  77.570 113.919  0.00  0.00    -0.047 C 
ATOM      6  C   LIG d   1      -1.861  77.872 115.340  0.00  0.00     0.091 C 
ENDROOT
BRANCH   1   7
ATOM      7  O   LIG d   1      -0.552  79.503 116.618  0.00  0.00    -0.368 OA
BRANCH   7   8
ATOM      8  C   LIG d   1       0.626  80.327 116.797  0.00  0.00     0.119 C 
BRANCH   8   9
ATOM      9  C   LIG d   1       1.652  79.500 117.595  0.00  0.00     0.028 C 
ATOM     10  C   LIG d   1       1.001  78.337 118.361  0.00  0.00     0.006 C 
ENDBRANCH   8   9
BRANCH   8  11
ATOM     11  C   LIG d   1       0.323  81.549 117.670  0.00  0.00     0.028 C 
ATOM     12  C   LIG d   1      -1.010  81.427 118.425  0.00  0.00     0.006 C 
ENDBRANCH   8  11
ENDBRANCH   7   8
ENDBRANCH   1   7
BRANCH   6  13
ATOM     13  N   LIG d   1      -1.347  76.657 116.024  0.00  0.00    -0.311 N 
ATOM     14  C   LIG d   1      -2.088  75.903 116.833  0.00  0.00     0.210 C 
ATOM     15  C   LIG d   1      -1.358  74.706 117.451  0.00  0.00     0.109 C 
ATOM     16  O   LIG d   1      -3.290  76.092 117.073  0.00  0.00    -0.276 OA
ATOM     17  H   LIG d   1      -0.390  76.412 115.861  0.00  0.00     0.149 HD
ENDBRANCH   6  13
BRANCH   5  18
ATOM     18  N   LIG d   1      -3.557  76.670 113.915  0.00  0.00     0.381 N 
ATOM     19  H   LIG d   1      -3.251  75.718 113.902  0.00  0.00    -0.090 HD
ATOM     20  H   LIG d   1      -4.095  76.840 113.083  0.00  0.00    -0.090 HD
ATOM     21  H   LIG d   1      -4.118  76.836 114.721  0.00  0.00    -0.090 HD
ENDBRANCH   5  18
BRANCH   3  22
ATOM     22  C   LIG d   1      -1.778  80.809 112.289  0.00  0.00     0.382 C 
ATOM     23  O   LIG d   1      -1.017  80.627 111.308  0.00  0.00    -0.241 OA
ATOM     24  O   LIG d   1      -2.453  81.854 112.356  0.00  0.00    -0.241 OA
ENDBRANCH   3  22
TORSDOF 7
ENDMDL
MODEL 8
REMARK VINA RESULT:      -4.0      2.339      5.513
REMARK  7 active torsions:
REMARK  status: ('A' for Active; 'I' for Inactive)
REMARK    1  A    between atoms: C_2  and  C_3 
REMARK    2  A    between atoms: C_3  and  O_6 
REMARK    3  A    between atoms: C_3  and  C_4 
REMARK    4  A    between atoms: C_7  and  O_6 
REMARK    5  A    between atoms: C_9  and  C_10 
REMARK    6  A    between atoms: N_15  and  C_14 
REMARK    7  A    between atoms: N_20  and  C_19 
REMARK       I    between atoms: C_22  and  N_20 
ROOT
ATOM      1  C   LIG d   1      -0.991  79.376 114.879  0.00  0.00     0.161 C 
ATOM      2  C   LIG d   1      -0.320  80.224 113.983  0.00  0.00     0.016 C 
ATOM      3  C   LIG d   1      -0.612  80.284 112.601  0.00  0.00     0.038 C 
ATOM      4  C   LIG d   1      -1.705  79.604 112.044  0.00  0.00     0.028 C 
ATOM      5  C   LIG d   1      -2.095  78.348 112.816  0.00  0.00    -0.047 C 
ATOM      6  C   LIG d   1      -2.261  78.709 114.310  0.00  0.00     0.091 C 
ENDROOT
BRANCH   1   7
ATOM      7  O   LIG d   1      -1.302  80.092 116.090  0.00  0.00    -0.368 OA
BRANCH   7   8
ATOM      8  C   LIG d   1      -0.268  80.107 117.105  0.00  0.00     0.119 C 
BRANCH   8   9
ATOM      9  C   LIG d   1      -0.627  79.031 118.148  0.00  0.00     0.028 C 
ATOM     10  C   LIG d   1      -2.008  79.265 118.782  0.00  0.00     0.006 C 
ENDBRANCH   8   9
BRANCH   8  11
ATOM     11  C   LIG d   1      -0.261  81.431 117.875  0.00  0.00     0.028 C 
ATOM     12  C   LIG d   1       0.957  82.307 117.544  0.00  0.00     0.006 C 
ENDBRANCH   8  11
ENDBRANCH   7   8
ENDBRANCH   1   7
BRANCH   6  13
ATOM     13  N   LIG d   1      -2.560  77.520 115.150  0.00  0.00    -0.311 N 
ATOM     14  C   LIG d   1      -3.591  77.457 115.991  0.00  0.00     0.210 C 
ATOM     15  C   LIG d   1      -3.705  76.147 116.776  0.00  0.00     0.109 C 
ATOM     16  O   LIG d   1      -4.440  78.349 116.137  0.00  0.00    -0.276 OA
ATOM     17  H   LIG d   1      -1.939  76.738 115.071  0.00  0.00     0.149 HD
ENDBRANCH   6  13
BRANCH   5  18
ATOM     18  N   LIG d   1      -3.329  77.817 112.208  0.00  0.00     0.381 N 
ATOM     19  H   LIG d   1      -3.401  76.835 112.390  0.00  0.00    -0.090 HD
ATOM     20  H   LIG d   1      -3.285  77.950 111.213  0.00  0.00    -0.090 HD
ATOM     21  H   LIG d   1      -4.123  78.290 112.580  0.00  0.00    -0.090 HD
ENDBRANCH   5  18
BRANCH   3  22
ATOM     22  C   LIG d   1       0.220  81.000 111.753  0.00  0.00     0.382 C 
ATOM     23  O   LIG d   1      -0.255  81.567 110.740  0.00  0.00    -0.241 OA
ATOM     24  O   LIG d   1       1.446  81.049 111.965  0.00  0.00    -0.241 OA
ENDBRANCH   3  22
TORSDOF 7
ENDMDL
MODEL 9
REMARK VINA RESULT:      -3.8      1.765      2.159
REMARK  7 active torsions:
REMARK  status: ('A' for Active; 'I' for Inactive)
REMARK    1  A    between atoms: C_2  and  C_3 
REMARK    2  A    between atoms: C_3  and  O_6 
REMARK    3  A    between atoms: C_3  and  C_4 
REMARK    4  A    between atoms: C_7  and  O_6 
REMARK    5  A    between atoms: C_9  and  C_10 
REMARK    6  A    between atoms: N_15  and  C_14 
REMARK    7  A    between atoms: N_20  and  C_19 
REMARK       I    between atoms: C_22  and  N_20 
ROOT
ATOM      1  C   LIG d   1      -0.610  79.429 114.858  0.00  0.00     0.161 C 
ATOM      2  C   LIG d   1      -1.423  78.548 114.124  0.00  0.00     0.016 C 
ATOM      3  C   LIG d   1      -2.579  77.932 114.654  0.00  0.00     0.038 C 
ATOM      4  C   LIG d   1      -3.090  78.275 115.915  0.00  0.00     0.028 C 
ATOM      5  C   LIG d   1      -2.025  78.778 116.884  0.00  0.00    -0.047 C 
ATOM      6  C   LIG d   1      -1.214  79.901 116.197  0.00  0.00     0.091 C 
ENDROOT
BRANCH   1   7
ATOM      7  O   LIG d   1      -0.256  80.562 114.041  0.00  0.00    -0.368 OA
BRANCH   7   8
ATOM      8  C   LIG d   1      -0.486  80.419 112.618  0.00  0.00     0.119 C 
BRANCH   8   9
ATOM      9  C   LIG d   1       0.831  80.772 111.899  0.00  0.00     0.028 C 
ATOM     10  C   LIG d   1       0.774  80.474 110.391  0.00  0.00     0.006 C 
ENDBRANCH   8   9
BRANCH   8  11
ATOM     11  C   LIG d   1      -1.510  81.439 112.112  0.00  0.00     0.028 C 
ATOM     12  C   LIG d   1      -2.935  81.150 112.610  0.00  0.00     0.006 C 
ENDBRANCH   8  11
ENDBRANCH   7   8
ENDBRANCH   1   7
BRANCH   6  13
ATOM     13  N   LIG d   1      -0.096  80.392 117.046  0.00  0.00    -0.311 N 
ATOM     14  C   LIG d   1       0.888  79.610 117.486  0.00  0.00     0.210 C 
ATOM     15  C   LIG d   1       1.929  80.313 118.363  0.00  0.00     0.109 C 
ATOM     16  O   LIG d   1       1.016  78.409 117.206  0.00  0.00    -0.276 OA
ATOM     17  H   LIG d   1      -0.105  81.362 117.294  0.00  0.00     0.149 HD
ENDBRANCH   6  13
BRANCH   5  18
ATOM     18  N   LIG d   1      -2.714  79.229 118.108  0.00  0.00     0.381 N 
ATOM     19  H   LIG d   1      -2.496  78.612 118.865  0.00  0.00    -0.090 HD
ATOM     20  H   LIG d   1      -3.706  79.199 117.953  0.00  0.00    -0.090 HD
ATOM     21  H   LIG d   1      -2.433  80.157 118.335  0.00  0.00    -0.090 HD
ENDBRANCH   5  18
BRANCH   3  22
ATOM     22  C   LIG d   1      -3.215  76.931 113.936  0.00  0.00     0.382 C 
ATOM     23  O   LIG d   1      -3.335  75.784 114.430  0.00  0.00    -0.241 OA
ATOM     24  O   LIG d   1      -3.631  77.149 112.782  0.00  0.00    -0.241 OA
ENDBRANCH   3  22
TORSDOF 7
ENDMDL
