MODEL 1
REMARK VINA RESULT:      -6.1      0.000      0.000
REMARK  7 active torsions:
REMARK  status: ('A' for Active; 'I' for Inactive)
REMARK    1  A    between atoms: C_2  and  C_3 
REMARK    2  A    between atoms: C_3  and  O_6 
REMARK    3  A    between atoms: C_3  and  C_4 
REMARK    4  A    between atoms: C_7  and  O_6 
REMARK    5  A    between atoms: C_9  and  C_10 
REMARK    6  A    between atoms: N_15  and  C_14 
REMARK    7  A    between atoms: N_20  and  C_19 
REMARK       I    between atoms: C_22  and  N_20 
ROOT
ATOM      1  C   LIG d   1      -0.146  81.175 111.382  0.00  0.00     0.161 C 
ATOM      2  C   LIG d   1      -1.304  80.451 111.714  0.00  0.00     0.016 C 
ATOM      3  C   LIG d   1      -1.511  79.102 111.343  0.00  0.00     0.038 C 
ATOM      4  C   LIG d   1      -0.502  78.336 110.741  0.00  0.00     0.028 C 
ATOM      5  C   LIG d   1       0.493  79.167 109.937  0.00  0.00    -0.047 C 
ATOM      6  C   LIG d   1       1.012  80.323 110.822  0.00  0.00     0.091 C 
ENDROOT
BRANCH   1   7
ATOM      7  O   LIG d   1       0.297  81.936 112.523  0.00  0.00    -0.368 OA
BRANCH   7   8
ATOM      8  C   LIG d   1       0.137  83.373 112.432  0.00  0.00     0.119 C 
BRANCH   8   9
ATOM      9  C   LIG d   1      -0.431  83.688 111.035  0.00  0.00     0.028 C 
ATOM     10  C   LIG d   1       0.494  84.608 110.220  0.00  0.00     0.006 C 
ENDBRANCH   8   9
BRANCH   8  11
ATOM     11  C   LIG d   1       1.489  84.090 112.492  0.00  0.00     0.028 C 
ATOM     12  C   LIG d   1       2.435  83.490 113.544  0.00  0.00     0.006 C 
ENDBRANCH   8  11
ENDBRANCH   7   8
ENDBRANCH   1   7
BRANCH   6  13
ATOM     13  N   LIG d   1       1.926  81.234 110.086  0.00  0.00    -0.311 N 
ATOM     14  C   LIG d   1       3.178  81.481 110.467  0.00  0.00     0.210 C 
ATOM     15  C   LIG d   1       3.942  82.467 109.578  0.00  0.00     0.109 C 
ATOM     16  O   LIG d   1       3.739  80.952 111.439  0.00  0.00    -0.276 OA
ATOM     17  H   LIG d   1       1.562  81.682 109.268  0.00  0.00     0.149 HD
ENDBRANCH   6  13
BRANCH   5  18
ATOM     18  N   LIG d   1       1.564  78.262 109.481  0.00  0.00     0.381 N 
ATOM     19  H   LIG d   1       1.623  78.283 108.482  0.00  0.00    -0.090 HD
ATOM     20  H   LIG d   1       1.340  77.324 109.764  0.00  0.00    -0.090 HD
ATOM     21  H   LIG d   1       2.435  78.537 109.878  0.00  0.00    -0.090 HD
ENDBRANCH   5  18
BRANCH   3  22
ATOM     22  C   LIG d   1      -2.753  78.519 111.538  0.00  0.00     0.382 C 
ATOM     23  O   LIG d   1      -3.403  78.763 112.583  0.00  0.00    -0.241 OA
ATOM     24  O   LIG d   1      -3.213  77.718 110.703  0.00  0.00    -0.241 OA
ENDBRANCH   3  22
TORSDOF 7
ENDMDL
MODEL 2
REMARK VINA RESULT:      -5.1      1.682      4.922
REMARK  7 active torsions:
REMARK  status: ('A' for Active; 'I' for Inactive)
REMARK    1  A    between atoms: C_2  and  C_3 
REMARK    2  A    between atoms: C_3  and  O_6 
REMARK    3  A    between atoms: C_3  and  C_4 
REMARK    4  A    between atoms: C_7  and  O_6 
REMARK    5  A    between atoms: C_9  and  C_10 
REMARK    6  A    between atoms: N_15  and  C_14 
REMARK    7  A    between atoms: N_20  and  C_19 
REMARK       I    between atoms: C_22  and  N_20 
ROOT
ATOM      1  C   LIG d   1       1.182  80.926 112.390  0.00  0.00     0.161 C 
ATOM      2  C   LIG d   1       2.266  81.449 111.665  0.00  0.00     0.016 C 
ATOM      3  C   LIG d   1       2.510  81.150 110.305  0.00  0.00     0.038 C 
ATOM      4  C   LIG d   1       1.594  80.422 109.531  0.00  0.00     0.028 C 
ATOM      5  C   LIG d   1       0.745  79.454 110.348  0.00  0.00    -0.047 C 
ATOM      6  C   LIG d   1       0.112  80.219 111.533  0.00  0.00     0.091 C 
ENDROOT
BRANCH   1   7
ATOM      7  O   LIG d   1       0.580  81.966 113.187  0.00  0.00    -0.368 OA
BRANCH   7   8
ATOM      8  C   LIG d   1       0.939  83.325 112.837  0.00  0.00     0.119 C 
BRANCH   8   9
ATOM      9  C   LIG d   1       1.426  84.021 114.123  0.00  0.00     0.028 C 
ATOM     10  C   LIG d   1       2.941  84.283 114.111  0.00  0.00     0.006 C 
ENDBRANCH   8   9
BRANCH   8  11
ATOM     11  C   LIG d   1      -0.285  84.125 112.382  0.00  0.00     0.028 C 
ATOM     12  C   LIG d   1      -0.493  84.082 110.860  0.00  0.00     0.006 C 
ENDBRANCH   8  11
ENDBRANCH   7   8
ENDBRANCH   1   7
BRANCH   6  13
ATOM     13  N   LIG d   1      -0.668  79.329 112.431  0.00  0.00    -0.311 N 
ATOM     14  C   LIG d   1      -1.914  79.590 112.822  0.00  0.00     0.210 C 
ATOM     15  C   LIG d   1      -2.528  78.551 113.765  0.00  0.00     0.109 C 
ATOM     16  O   LIG d   1      -2.581  80.568 112.451  0.00  0.00    -0.276 OA
ATOM     17  H   LIG d   1      -0.214  78.497 112.755  0.00  0.00     0.149 HD
ENDBRANCH   6  13
BRANCH   5  18
ATOM     18  N   LIG d   1      -0.257  78.864 109.440  0.00  0.00     0.381 N 
ATOM     19  H   LIG d   1      -0.757  78.139 109.913  0.00  0.00    -0.090 HD
ATOM     20  H   LIG d   1       0.218  78.458 108.653  0.00  0.00    -0.090 HD
ATOM     21  H   LIG d   1      -0.891  79.567 109.129  0.00  0.00    -0.090 HD
ENDBRANCH   5  18
BRANCH   3  22
ATOM     22  C   LIG d   1       3.700  81.548 109.717  0.00  0.00     0.382 C 
ATOM     23  O   LIG d   1       4.574  80.694 109.430  0.00  0.00    -0.241 OA
ATOM     24  O   LIG d   1       3.931  82.754 109.509  0.00  0.00    -0.241 OA
ENDBRANCH   3  22
TORSDOF 7
ENDMDL
MODEL 3
REMARK VINA RESULT:      -5.0      2.288      5.487
REMARK  7 active torsions:
REMARK  status: ('A' for Active; 'I' for Inactive)
REMARK    1  A    between atoms: C_2  and  C_3 
REMARK    2  A    between atoms: C_3  and  O_6 
REMARK    3  A    between atoms: C_3  and  C_4 
REMARK    4  A    between atoms: C_7  and  O_6 
REMARK    5  A    between atoms: C_9  and  C_10 
REMARK    6  A    between atoms: N_15  and  C_14 
REMARK    7  A    between atoms: N_20  and  C_19 
REMARK       I    between atoms: C_22  and  N_20 
ROOT
ATOM      1  C   LIG d   1       1.827  81.067 112.587  0.00  0.00     0.161 C 
ATOM      2  C   LIG d   1       2.727  81.978 112.010  0.00  0.00     0.016 C 
ATOM      3  C   LIG d   1       2.615  82.448 110.681  0.00  0.00     0.038 C 
ATOM      4  C   LIG d   1       1.500  82.153 109.883  0.00  0.00     0.028 C 
ATOM      5  C   LIG d   1       0.825  80.835 110.248  0.00  0.00    -0.047 C 
ATOM      6  C   LIG d   1       0.543  80.820 111.768  0.00  0.00     0.091 C 
ENDROOT
BRANCH   1   7
ATOM      7  O   LIG d   1       1.494  81.489 113.924  0.00  0.00    -0.368 OA
BRANCH   7   8
ATOM      8  C   LIG d   1       2.589  82.008 114.720  0.00  0.00     0.119 C 
BRANCH   8   9
ATOM      9  C   LIG d   1       2.949  80.935 115.766  0.00  0.00     0.028 C 
ATOM     10  C   LIG d   1       1.724  80.465 116.570  0.00  0.00     0.006 C 
ENDBRANCH   8   9
BRANCH   8  11
ATOM     11  C   LIG d   1       2.157  83.235 115.529  0.00  0.00     0.028 C 
ATOM     12  C   LIG d   1       1.519  84.328 114.657  0.00  0.00     0.006 C 
ENDBRANCH   8  11
ENDBRANCH   7   8
ENDBRANCH   1   7
BRANCH   6  13
ATOM     13  N   LIG d   1      -0.040  79.531 112.223  0.00  0.00    -0.311 N 
ATOM     14  C   LIG d   1      -1.350  79.312 112.319  0.00  0.00     0.210 C 
ATOM     15  C   LIG d   1      -1.738  77.921 112.829  0.00  0.00     0.109 C 
ATOM     16  O   LIG d   1      -2.229  80.128 112.000  0.00  0.00    -0.276 OA
ATOM     17  H   LIG d   1       0.601  78.803 112.473  0.00  0.00     0.149 HD
ENDBRANCH   6  13
BRANCH   5  18
ATOM     18  N   LIG d   1      -0.398  80.719 109.432  0.00  0.00     0.381 N 
ATOM     19  H   LIG d   1      -0.836  81.615 109.349  0.00  0.00    -0.090 HD
ATOM     20  H   LIG d   1      -1.038  80.096 109.892  0.00  0.00    -0.090 HD
ATOM     21  H   LIG d   1      -0.172  80.366 108.527  0.00  0.00    -0.090 HD
ENDBRANCH   5  18
BRANCH   3  22
ATOM     22  C   LIG d   1       3.645  83.191 110.126  0.00  0.00     0.382 C 
ATOM     23  O   LIG d   1       4.551  82.617 109.474  0.00  0.00    -0.241 OA
ATOM     24  O   LIG d   1       3.704  84.422 110.305  0.00  0.00    -0.241 OA
ENDBRANCH   3  22
TORSDOF 7
ENDMDL
MODEL 4
REMARK VINA RESULT:      -4.4      4.693      6.143
REMARK  7 active torsions:
REMARK  status: ('A' for Active; 'I' for Inactive)
REMARK    1  A    between atoms: C_2  and  C_3 
REMARK    2  A    between atoms: C_3  and  O_6 
REMARK    3  A    between atoms: C_3  and  C_4 
REMARK    4  A    between atoms: C_7  and  O_6 
REMARK    5  A    between atoms: C_9  and  C_10 
REMARK    6  A    between atoms: N_15  and  C_14 
REMARK    7  A    between atoms: N_20  and  C_19 
REMARK       I    between atoms: C_22  and  N_20 
ROOT
ATOM      1  C   LIG d   1      -1.127  77.965 114.794  0.00  0.00     0.161 C 
ATOM      2  C   LIG d   1      -2.243  77.123 114.654  0.00  0.00     0.016 C 
ATOM      3  C   LIG d   1      -2.877  76.484 115.744  0.00  0.00     0.038 C 
ATOM      4  C   LIG d   1      -2.528  76.766 117.074  0.00  0.00     0.028 C 
ATOM      5  C   LIG d   1      -1.082  77.219 117.237  0.00  0.00    -0.047 C 
ATOM      6  C   LIG d   1      -0.802  78.372 116.246  0.00  0.00     0.091 C 
ENDROOT
BRANCH   1   7
ATOM      7  O   LIG d   1      -1.293  79.137 113.971  0.00  0.00    -0.368 OA
BRANCH   7   8
ATOM      8  C   LIG d   1      -0.808  79.033 112.609  0.00  0.00     0.119 C 
BRANCH   8   9
ATOM      9  C   LIG d   1       0.256  80.130 112.412  0.00  0.00     0.028 C 
ATOM     10  C   LIG d   1       0.551  80.402 110.928  0.00  0.00     0.006 C 
ENDBRANCH   8   9
BRANCH   8  11
ATOM     11  C   LIG d   1      -1.913  79.353 111.598  0.00  0.00     0.028 C 
ATOM     12  C   LIG d   1      -2.471  78.099 110.908  0.00  0.00     0.006 C 
ENDBRANCH   8  11
ENDBRANCH   7   8
ENDBRANCH   1   7
BRANCH   6  13
ATOM     13  N   LIG d   1       0.615  78.819 116.282  0.00  0.00    -0.311 N 
ATOM     14  C   LIG d   1       1.029  79.892 116.953  0.00  0.00     0.210 C 
ATOM     15  C   LIG d   1       2.528  80.186 116.841  0.00  0.00     0.109 C 
ATOM     16  O   LIG d   1       0.303  80.609 117.658  0.00  0.00    -0.276 OA
ATOM     17  H   LIG d   1       1.277  78.276 115.762  0.00  0.00     0.149 HD
ENDBRANCH   6  13
BRANCH   5  18
ATOM     18  N   LIG d   1      -0.894  77.610 118.647  0.00  0.00     0.381 N 
ATOM     19  H   LIG d   1       0.069  77.824 118.814  0.00  0.00    -0.090 HD
ATOM     20  H   LIG d   1      -1.151  76.838 119.236  0.00  0.00    -0.090 HD
ATOM     21  H   LIG d   1      -1.460  78.402 118.860  0.00  0.00    -0.090 HD
ENDBRANCH   5  18
BRANCH   3  22
ATOM     22  C   LIG d   1      -3.846  75.521 115.507  0.00  0.00     0.382 C 
ATOM     23  O   LIG d   1      -4.353  75.409 114.365  0.00  0.00    -0.241 OA
ATOM     24  O   LIG d   1      -4.252  74.793 116.433  0.00  0.00    -0.241 OA
ENDBRANCH   3  22
TORSDOF 7
ENDMDL
MODEL 5
REMARK VINA RESULT:      -4.4      2.982      4.581
REMARK  7 active torsions:
REMARK  status: ('A' for Active; 'I' for Inactive)
REMARK    1  A    between atoms: C_2  and  C_3 
REMARK    2  A    between atoms: C_3  and  O_6 
REMARK    3  A    between atoms: C_3  and  C_4 
REMARK    4  A    between atoms: C_7  and  O_6 
REMARK    5  A    between atoms: C_9  and  C_10 
REMARK    6  A    between atoms: N_15  and  C_14 
REMARK    7  A    between atoms: N_20  and  C_19 
REMARK       I    between atoms: C_22  and  N_20 
ROOT
ATOM      1  C   LIG d   1      -0.840  79.615 113.591  0.00  0.00     0.161 C 
ATOM      2  C   LIG d   1      -1.850  78.798 113.056  0.00  0.00     0.016 C 
ATOM      3  C   LIG d   1      -2.055  78.621 111.669  0.00  0.00     0.038 C 
ATOM      4  C   LIG d   1      -1.162  79.134 110.716  0.00  0.00     0.028 C 
ATOM      5  C   LIG d   1      -0.422  80.380 111.189  0.00  0.00    -0.047 C 
ATOM      6  C   LIG d   1       0.212  80.094 112.569  0.00  0.00     0.091 C 
ENDROOT
BRANCH   1   7
ATOM      7  O   LIG d   1      -0.199  78.942 114.692  0.00  0.00    -0.368 OA
BRANCH   7   8
ATOM      8  C   LIG d   1      -1.028  78.024 115.447  0.00  0.00     0.119 C 
BRANCH   8   9
ATOM      9  C   LIG d   1      -1.362  78.700 116.791  0.00  0.00     0.028 C 
ATOM     10  C   LIG d   1      -2.811  78.438 117.236  0.00  0.00     0.006 C 
ENDBRANCH   8   9
BRANCH   8  11
ATOM     11  C   LIG d   1      -0.258  76.752 115.814  0.00  0.00     0.028 C 
ATOM     12  C   LIG d   1      -0.423  75.634 114.772  0.00  0.00     0.006 C 
ENDBRANCH   8  11
ENDBRANCH   7   8
ENDBRANCH   1   7
BRANCH   6  13
ATOM     13  N   LIG d   1       0.885  81.288 113.143  0.00  0.00    -0.311 N 
ATOM     14  C   LIG d   1       2.185  81.540 112.994  0.00  0.00     0.210 C 
ATOM     15  C   LIG d   1       2.679  82.815 113.684  0.00  0.00     0.109 C 
ATOM     16  O   LIG d   1       2.968  80.844 112.331  0.00  0.00    -0.276 OA
ATOM     17  H   LIG d   1       0.317  81.922 113.670  0.00  0.00     0.149 HD
ENDBRANCH   6  13
BRANCH   5  18
ATOM     18  N   LIG d   1       0.572  80.727 110.156  0.00  0.00     0.381 N 
ATOM     19  H   LIG d   1       0.461  81.684 109.886  0.00  0.00    -0.090 HD
ATOM     20  H   LIG d   1       0.416  80.150 109.348  0.00  0.00    -0.090 HD
ATOM     21  H   LIG d   1       1.493  80.578 110.506  0.00  0.00    -0.090 HD
ENDBRANCH   5  18
BRANCH   3  22
ATOM     22  C   LIG d   1      -3.187  77.957 111.220  0.00  0.00     0.382 C 
ATOM     23  O   LIG d   1      -4.136  77.733 112.009  0.00  0.00    -0.241 OA
ATOM     24  O   LIG d   1      -3.252  77.541 110.048  0.00  0.00    -0.241 OA
ENDBRANCH   3  22
TORSDOF 7
ENDMDL
MODEL 6
REMARK VINA RESULT:      -4.2      4.546      6.861
REMARK  7 active torsions:
REMARK  status: ('A' for Active; 'I' for Inactive)
REMARK    1  A    between atoms: C_2  and  C_3 
REMARK    2  A    between atoms: C_3  and  O_6 
REMARK    3  A    between atoms: C_3  and  C_4 
REMARK    4  A    between atoms: C_7  and  O_6 
REMARK    5  A    between atoms: C_9  and  C_10 
REMARK    6  A    between atoms: N_15  and  C_14 
REMARK    7  A    between atoms: N_20  and  C_19 
REMARK       I    between atoms: C_22  and  N_20 
ROOT
ATOM      1  C   LIG d   1      -2.053  77.585 114.296  0.00  0.00     0.161 C 
ATOM      2  C   LIG d   1      -2.341  77.537 112.922  0.00  0.00     0.016 C 
ATOM      3  C   LIG d   1      -1.641  78.291 111.953  0.00  0.00     0.038 C 
ATOM      4  C   LIG d   1      -0.498  79.036 112.277  0.00  0.00     0.028 C 
ATOM      5  C   LIG d   1      -0.476  79.513 113.725  0.00  0.00    -0.047 C 
ATOM      6  C   LIG d   1      -0.737  78.306 114.655  0.00  0.00     0.091 C 
ENDROOT
BRANCH   1   7
ATOM      7  O   LIG d   1      -2.059  76.252 114.843  0.00  0.00    -0.368 OA
BRANCH   7   8
ATOM      8  C   LIG d   1      -3.253  75.865 115.567  0.00  0.00     0.119 C 
BRANCH   8   9
ATOM      9  C   LIG d   1      -3.963  77.158 116.013  0.00  0.00     0.028 C 
ATOM     10  C   LIG d   1      -3.921  77.356 117.537  0.00  0.00     0.006 C 
ENDBRANCH   8   9
BRANCH   8  11
ATOM     11  C   LIG d   1      -2.905  75.127 116.863  0.00  0.00     0.028 C 
ATOM     12  C   LIG d   1      -1.438  74.671 116.913  0.00  0.00     0.006 C 
ENDBRANCH   8  11
ENDBRANCH   7   8
ENDBRANCH   1   7
BRANCH   6  13
ATOM     13  N   LIG d   1      -0.816  78.700 116.086  0.00  0.00    -0.311 N 
ATOM     14  C   LIG d   1      -0.074  78.143 117.042  0.00  0.00     0.210 C 
ATOM     15  C   LIG d   1      -0.327  78.681 118.454  0.00  0.00     0.109 C 
ATOM     16  O   LIG d   1       0.792  77.276 116.850  0.00  0.00    -0.276 OA
ATOM     17  H   LIG d   1      -1.471  79.418 116.326  0.00  0.00     0.149 HD
ENDBRANCH   6  13
BRANCH   5  18
ATOM     18  N   LIG d   1       0.830  80.155 113.964  0.00  0.00     0.381 N 
ATOM     19  H   LIG d   1       0.997  80.229 114.948  0.00  0.00    -0.090 HD
ATOM     20  H   LIG d   1       0.813  81.082 113.576  0.00  0.00    -0.090 HD
ATOM     21  H   LIG d   1       1.555  79.622 113.536  0.00  0.00    -0.090 HD
ENDBRANCH   5  18
BRANCH   3  22
ATOM     22  C   LIG d   1      -2.109  78.337 110.648  0.00  0.00     0.382 C 
ATOM     23  O   LIG d   1      -1.503  79.022 109.789  0.00  0.00    -0.241 OA
ATOM     24  O   LIG d   1      -3.153  77.738 110.330  0.00  0.00    -0.241 OA
ENDBRANCH   3  22
TORSDOF 7
ENDMDL
MODEL 7
REMARK VINA RESULT:      -4.2      6.142      8.108
REMARK  7 active torsions:
REMARK  status: ('A' for Active; 'I' for Inactive)
REMARK    1  A    between atoms: C_2  and  C_3 
REMARK    2  A    between atoms: C_3  and  O_6 
REMARK    3  A    between atoms: C_3  and  C_4 
REMARK    4  A    between atoms: C_7  and  O_6 
REMARK    5  A    between atoms: C_9  and  C_10 
REMARK    6  A    between atoms: N_15  and  C_14 
REMARK    7  A    between atoms: N_20  and  C_19 
REMARK       I    between atoms: C_22  and  N_20 
ROOT
ATOM      1  C   LIG d   1      -1.448  77.768 116.827  0.00  0.00     0.161 C 
ATOM      2  C   LIG d   1      -2.186  78.326 115.771  0.00  0.00     0.016 C 
ATOM      3  C   LIG d   1      -2.192  77.795 114.460  0.00  0.00     0.038 C 
ATOM      4  C   LIG d   1      -1.574  76.574 114.152  0.00  0.00     0.028 C 
ATOM      5  C   LIG d   1      -0.400  76.241 115.067  0.00  0.00    -0.047 C 
ATOM      6  C   LIG d   1      -0.857  76.373 116.538  0.00  0.00     0.091 C 
ENDROOT
BRANCH   1   7
ATOM      7  O   LIG d   1      -2.254  77.733 118.022  0.00  0.00    -0.368 OA
BRANCH   7   8
ATOM      8  C   LIG d   1      -3.668  77.483 117.829  0.00  0.00     0.119 C 
BRANCH   8   9
ATOM      9  C   LIG d   1      -4.440  78.495 118.697  0.00  0.00     0.028 C 
ATOM     10  C   LIG d   1      -3.512  79.531 119.355  0.00  0.00     0.006 C 
ENDBRANCH   8   9
BRANCH   8  11
ATOM     11  C   LIG d   1      -4.068  76.104 118.361  0.00  0.00     0.028 C 
ATOM     12  C   LIG d   1      -4.256  75.065 117.244  0.00  0.00     0.006 C 
ENDBRANCH   8  11
ENDBRANCH   7   8
ENDBRANCH   1   7
BRANCH   6  13
ATOM     13  N   LIG d   1       0.255  76.146 117.498  0.00  0.00    -0.311 N 
ATOM     14  C   LIG d   1       0.146  75.371 118.576  0.00  0.00     0.210 C 
ATOM     15  C   LIG d   1       1.405  75.290 119.444  0.00  0.00     0.109 C 
ATOM     16  O   LIG d   1      -0.864  74.717 118.877  0.00  0.00    -0.276 OA
ATOM     17  H   LIG d   1       1.120  76.614 117.313  0.00  0.00     0.149 HD
ENDBRANCH   6  13
BRANCH   5  18
ATOM     18  N   LIG d   1       0.061  74.883 114.723  0.00  0.00     0.381 N 
ATOM     19  H   LIG d   1      -0.254  74.640 113.806  0.00  0.00    -0.090 HD
ATOM     20  H   LIG d   1      -0.335  74.230 115.376  0.00  0.00    -0.090 HD
ATOM     21  H   LIG d   1       1.056  74.841 114.763  0.00  0.00    -0.090 HD
ENDBRANCH   5  18
BRANCH   3  22
ATOM     22  C   LIG d   1      -2.788  78.509 113.432  0.00  0.00     0.382 C 
ATOM     23  O   LIG d   1      -2.892  79.757 113.514  0.00  0.00    -0.241 OA
ATOM     24  O   LIG d   1      -3.263  77.917 112.444  0.00  0.00    -0.241 OA
ENDBRANCH   3  22
TORSDOF 7
ENDMDL
MODEL 8
REMARK VINA RESULT:      -4.0      6.378      7.472
REMARK  7 active torsions:
REMARK  status: ('A' for Active; 'I' for Inactive)
REMARK    1  A    between atoms: C_2  and  C_3 
REMARK    2  A    between atoms: C_3  and  O_6 
REMARK    3  A    between atoms: C_3  and  C_4 
REMARK    4  A    between atoms: C_7  and  O_6 
REMARK    5  A    between atoms: C_9  and  C_10 
REMARK    6  A    between atoms: N_15  and  C_14 
REMARK    7  A    between atoms: N_20  and  C_19 
REMARK       I    between atoms: C_22  and  N_20 
ROOT
ATOM      1  C   LIG d   1      -0.192  78.037 116.740  0.00  0.00     0.161 C 
ATOM      2  C   LIG d   1      -1.199  78.335 115.807  0.00  0.00     0.016 C 
ATOM      3  C   LIG d   1      -2.058  77.360 115.251  0.00  0.00     0.038 C 
ATOM      4  C   LIG d   1      -2.069  76.034 115.709  0.00  0.00     0.028 C 
ATOM      5  C   LIG d   1      -0.732  75.581 116.285  0.00  0.00    -0.047 C 
ATOM      6  C   LIG d   1      -0.262  76.615 117.334  0.00  0.00     0.091 C 
ENDROOT
BRANCH   1   7
ATOM      7  O   LIG d   1      -0.196  79.021 117.794  0.00  0.00    -0.368 OA
BRANCH   7   8
ATOM      8  C   LIG d   1       0.808  80.061 117.698  0.00  0.00     0.119 C 
BRANCH   8   9
ATOM      9  C   LIG d   1       2.016  79.618 118.546  0.00  0.00     0.028 C 
ATOM     10  C   LIG d   1       3.238  79.261 117.684  0.00  0.00     0.006 C 
ENDBRANCH   8   9
BRANCH   8  11
ATOM     11  C   LIG d   1       0.321  81.365 118.336  0.00  0.00     0.028 C 
ATOM     12  C   LIG d   1      -0.879  81.158 119.275  0.00  0.00     0.006 C 
ENDBRANCH   8  11
ENDBRANCH   7   8
ENDBRANCH   1   7
BRANCH   6  13
ATOM     13  N   LIG d   1       1.079  76.292 117.887  0.00  0.00    -0.311 N 
ATOM     14  C   LIG d   1       1.262  75.663 119.047  0.00  0.00     0.210 C 
ATOM     15  C   LIG d   1       2.727  75.447 119.441  0.00  0.00     0.109 C 
ATOM     16  O   LIG d   1       0.351  75.236 119.771  0.00  0.00    -0.276 OA
ATOM     17  H   LIG d   1       1.875  76.575 117.349  0.00  0.00     0.149 HD
ENDBRANCH   6  13
BRANCH   5  18
ATOM     18  N   LIG d   1      -0.923  74.231 116.849  0.00  0.00     0.381 N 
ATOM     19  H   LIG d   1      -0.035  73.791 116.983  0.00  0.00    -0.090 HD
ATOM     20  H   LIG d   1      -1.453  73.679 116.198  0.00  0.00    -0.090 HD
ATOM     21  H   LIG d   1      -1.408  74.290 117.717  0.00  0.00    -0.090 HD
ENDBRANCH   5  18
BRANCH   3  22
ATOM     22  C   LIG d   1      -2.893  77.699 114.197  0.00  0.00     0.382 C 
ATOM     23  O   LIG d   1      -2.938  78.885 113.790  0.00  0.00    -0.241 OA
ATOM     24  O   LIG d   1      -3.634  76.844 113.678  0.00  0.00    -0.241 OA
ENDBRANCH   3  22
TORSDOF 7
ENDMDL
MODEL 9
REMARK VINA RESULT:      -3.6      5.999      7.288
REMARK  7 active torsions:
REMARK  status: ('A' for Active; 'I' for Inactive)
REMARK    1  A    between atoms: C_2  and  C_3 
REMARK    2  A    between atoms: C_3  and  O_6 
REMARK    3  A    between atoms: C_3  and  C_4 
REMARK    4  A    between atoms: C_7  and  O_6 
REMARK    5  A    between atoms: C_9  and  C_10 
REMARK    6  A    between atoms: N_15  and  C_14 
REMARK    7  A    between atoms: N_20  and  C_19 
REMARK       I    between atoms: C_22  and  N_20 
ROOT
ATOM      1  C   LIG d   1      -1.566  77.844 116.394  0.00  0.00     0.161 C 
ATOM      2  C   LIG d   1      -2.064  77.274 117.578  0.00  0.00     0.016 C 
ATOM      3  C   LIG d   1      -1.984  75.893 117.870  0.00  0.00     0.038 C 
ATOM      4  C   LIG d   1      -1.261  75.005 117.060  0.00  0.00     0.028 C 
ATOM      5  C   LIG d   1      -1.175  75.446 115.603  0.00  0.00    -0.047 C 
ATOM      6  C   LIG d   1      -0.676  76.908 115.550  0.00  0.00     0.091 C 
ENDROOT
BRANCH   1   7
ATOM      7  O   LIG d   1      -0.863  79.065 116.698  0.00  0.00    -0.368 OA
BRANCH   7   8
ATOM      8  C   LIG d   1      -0.295  79.160 118.028  0.00  0.00     0.119 C 
BRANCH   8   9
ATOM      9  C   LIG d   1      -0.308  80.646 118.432  0.00  0.00     0.028 C 
ATOM     10  C   LIG d   1       0.834  81.443 117.779  0.00  0.00     0.006 C 
ENDBRANCH   8   9
BRANCH   8  11
ATOM     11  C   LIG d   1       1.181  78.751 118.033  0.00  0.00     0.028 C 
ATOM     12  C   LIG d   1       1.670  78.304 119.420  0.00  0.00     0.006 C 
ENDBRANCH   8  11
ENDBRANCH   7   8
ENDBRANCH   1   7
BRANCH   6  13
ATOM     13  N   LIG d   1      -0.643  77.447 114.165  0.00  0.00    -0.311 N 
ATOM     14  C   LIG d   1      -1.673  77.371 113.325  0.00  0.00     0.210 C 
ATOM     15  C   LIG d   1      -1.422  77.970 111.938  0.00  0.00     0.109 C 
ATOM     16  O   LIG d   1      -2.782  76.892 113.607  0.00  0.00    -0.276 OA
ATOM     17  H   LIG d   1       0.208  77.880 113.864  0.00  0.00     0.149 HD
ENDBRANCH   6  13
BRANCH   5  18
ATOM     18  N   LIG d   1      -0.281  74.504 114.904  0.00  0.00     0.381 N 
ATOM     19  H   LIG d   1      -0.241  74.734 113.931  0.00  0.00    -0.090 HD
ATOM     20  H   LIG d   1      -0.653  73.575 114.994  0.00  0.00    -0.090 HD
ATOM     21  H   LIG d   1       0.633  74.544 115.300  0.00  0.00    -0.090 HD
ENDBRANCH   5  18
BRANCH   3  22
ATOM     22  C   LIG d   1      -2.667  75.382 118.963  0.00  0.00     0.382 C 
ATOM     23  O   LIG d   1      -3.370  76.139 119.674  0.00  0.00    -0.241 OA
ATOM     24  O   LIG d   1      -2.553  74.181 119.273  0.00  0.00    -0.241 OA
ENDBRANCH   3  22
TORSDOF 7
ENDMDL
