MODEL 1
REMARK VINA RESULT:      -5.8      0.000      0.000
REMARK  7 active torsions:
REMARK  status: ('A' for Active; 'I' for Inactive)
REMARK    1  A    between atoms: C_2  and  C_3 
REMARK    2  A    between atoms: C_3  and  O_6 
REMARK    3  A    between atoms: C_3  and  C_4 
REMARK    4  A    between atoms: C_7  and  O_6 
REMARK    5  A    between atoms: C_9  and  C_10 
REMARK    6  A    between atoms: N_15  and  C_14 
REMARK    7  A    between atoms: N_20  and  C_19 
REMARK       I    between atoms: C_22  and  N_20 
ROOT
ATOM      1  C   LIG d   1       0.264  83.359 112.066  0.00  0.00     0.161 C 
ATOM      2  C   LIG d   1      -0.946  82.973 112.667  0.00  0.00     0.016 C 
ATOM      3  C   LIG d   1      -1.456  81.655 112.614  0.00  0.00     0.038 C 
ATOM      4  C   LIG d   1      -0.711  80.593 112.080  0.00  0.00     0.028 C 
ATOM      5  C   LIG d   1       0.290  81.029 111.016  0.00  0.00    -0.047 C 
ATOM      6  C   LIG d   1       1.144  82.190 111.575  0.00  0.00     0.091 C 
ENDROOT
BRANCH   1   7
ATOM      7  O   LIG d   1       1.009  84.203 112.965  0.00  0.00    -0.368 OA
BRANCH   7   8
ATOM      8  C   LIG d   1       1.997  83.540 113.792  0.00  0.00     0.119 C 
BRANCH   8   9
ATOM      9  C   LIG d   1       1.495  83.597 115.248  0.00  0.00     0.028 C 
ATOM     10  C   LIG d   1       0.910  82.256 115.721  0.00  0.00     0.006 C 
ENDBRANCH   8   9
BRANCH   8  11
ATOM     11  C   LIG d   1       3.326  84.300 113.790  0.00  0.00     0.028 C 
ATOM     12  C   LIG d   1       3.848  84.591 115.206  0.00  0.00     0.006 C 
ENDBRANCH   8  11
ENDBRANCH   7   8
ENDBRANCH   1   7
BRANCH   6  13
ATOM     13  N   LIG d   1       2.092  82.733 110.568  0.00  0.00    -0.311 N 
ATOM     14  C   LIG d   1       3.388  82.424 110.540  0.00  0.00     0.210 C 
ATOM     15  C   LIG d   1       4.191  83.110 109.430  0.00  0.00     0.109 C 
ATOM     16  O   LIG d   1       3.941  81.623 111.308  0.00  0.00    -0.276 OA
ATOM     17  H   LIG d   1       1.721  83.366 109.887  0.00  0.00     0.149 HD
ENDBRANCH   6  13
BRANCH   5  18
ATOM     18  N   LIG d   1       1.091  79.847 110.646  0.00  0.00     0.381 N 
ATOM     19  H   LIG d   1       0.765  79.475 109.777  0.00  0.00    -0.090 HD
ATOM     20  H   LIG d   1       0.977  79.143 111.354  0.00  0.00    -0.090 HD
ATOM     21  H   LIG d   1       2.052  80.098 110.569  0.00  0.00    -0.090 HD
ENDBRANCH   5  18
BRANCH   3  22
ATOM     22  C   LIG d   1      -2.742  81.398 113.062  0.00  0.00     0.382 C 
ATOM     23  O   LIG d   1      -3.704  82.080 112.634  0.00  0.00    -0.241 OA
ATOM     24  O   LIG d   1      -2.948  80.522 113.923  0.00  0.00    -0.241 OA
ENDBRANCH   3  22
TORSDOF 7
ENDMDL
MODEL 2
REMARK VINA RESULT:      -5.6      1.915      5.036
REMARK  7 active torsions:
REMARK  status: ('A' for Active; 'I' for Inactive)
REMARK    1  A    between atoms: C_2  and  C_3 
REMARK    2  A    between atoms: C_3  and  O_6 
REMARK    3  A    between atoms: C_3  and  C_4 
REMARK    4  A    between atoms: C_7  and  O_6 
REMARK    5  A    between atoms: C_9  and  C_10 
REMARK    6  A    between atoms: N_15  and  C_14 
REMARK    7  A    between atoms: N_20  and  C_19 
REMARK       I    between atoms: C_22  and  N_20 
ROOT
ATOM      1  C   LIG d   1       0.985  81.536 112.895  0.00  0.00     0.161 C 
ATOM      2  C   LIG d   1       1.975  82.374 112.356  0.00  0.00     0.016 C 
ATOM      3  C   LIG d   1       2.162  82.564 110.967  0.00  0.00     0.038 C 
ATOM      4  C   LIG d   1       1.267  82.042 110.021  0.00  0.00     0.028 C 
ATOM      5  C   LIG d   1       0.554  80.779 110.493  0.00  0.00    -0.047 C 
ATOM      6  C   LIG d   1      -0.070  81.045 111.882  0.00  0.00     0.091 C 
ENDROOT
BRANCH   1   7
ATOM      7  O   LIG d   1       0.345  82.190 114.009  0.00  0.00    -0.368 OA
BRANCH   7   8
ATOM      8  C   LIG d   1      -0.724  83.110 113.678  0.00  0.00     0.119 C 
BRANCH   8   9
ATOM      9  C   LIG d   1      -0.183  84.539 113.875  0.00  0.00     0.028 C 
ATOM     10  C   LIG d   1       0.915  84.608 114.950  0.00  0.00     0.006 C 
ENDBRANCH   8   9
BRANCH   8  11
ATOM     11  C   LIG d   1      -1.894  82.980 114.659  0.00  0.00     0.028 C 
ATOM     12  C   LIG d   1      -1.701  81.838 115.669  0.00  0.00     0.006 C 
ENDBRANCH   8  11
ENDBRANCH   7   8
ENDBRANCH   1   7
BRANCH   6  13
ATOM     13  N   LIG d   1      -0.715  79.835 112.454  0.00  0.00    -0.311 N 
ATOM     14  C   LIG d   1      -2.026  79.733 112.664  0.00  0.00     0.210 C 
ATOM     15  C   LIG d   1      -2.481  78.407 113.282  0.00  0.00     0.109 C 
ATOM     16  O   LIG d   1      -2.860  80.603 112.368  0.00  0.00    -0.276 OA
ATOM     17  H   LIG d   1      -0.116  79.069 112.695  0.00  0.00     0.149 HD
ENDBRANCH   6  13
BRANCH   5  18
ATOM     18  N   LIG d   1      -0.445  80.422 109.469  0.00  0.00     0.381 N 
ATOM     19  H   LIG d   1       0.008  79.984 108.691  0.00  0.00    -0.090 HD
ATOM     20  H   LIG d   1      -0.890  81.262 109.142  0.00  0.00    -0.090 HD
ATOM     21  H   LIG d   1      -1.126  79.806 109.856  0.00  0.00    -0.090 HD
ENDBRANCH   5  18
BRANCH   3  22
ATOM     22  C   LIG d   1       3.277  83.251 110.511  0.00  0.00     0.382 C 
ATOM     23  O   LIG d   1       3.162  84.083 109.579  0.00  0.00    -0.241 OA
ATOM     24  O   LIG d   1       4.402  83.016 110.989  0.00  0.00    -0.241 OA
ENDBRANCH   3  22
TORSDOF 7
ENDMDL
MODEL 3
REMARK VINA RESULT:      -5.4      1.989      4.875
REMARK  7 active torsions:
REMARK  status: ('A' for Active; 'I' for Inactive)
REMARK    1  A    between atoms: C_2  and  C_3 
REMARK    2  A    between atoms: C_3  and  O_6 
REMARK    3  A    between atoms: C_3  and  C_4 
REMARK    4  A    between atoms: C_7  and  O_6 
REMARK    5  A    between atoms: C_9  and  C_10 
REMARK    6  A    between atoms: N_15  and  C_14 
REMARK    7  A    between atoms: N_20  and  C_19 
REMARK       I    between atoms: C_22  and  N_20 
ROOT
ATOM      1  C   LIG d   1       0.685  81.669 112.962  0.00  0.00     0.161 C 
ATOM      2  C   LIG d   1       1.644  82.588 112.507  0.00  0.00     0.016 C 
ATOM      3  C   LIG d   1       1.943  82.789 111.140  0.00  0.00     0.038 C 
ATOM      4  C   LIG d   1       1.191  82.187 110.120  0.00  0.00     0.028 C 
ATOM      5  C   LIG d   1       0.549  80.869 110.539  0.00  0.00    -0.047 C 
ATOM      6  C   LIG d   1      -0.224  81.084 111.860  0.00  0.00     0.091 C 
ENDROOT
BRANCH   1   7
ATOM      7  O   LIG d   1      -0.112  82.268 114.003  0.00  0.00    -0.368 OA
BRANCH   7   8
ATOM      8  C   LIG d   1      -0.081  81.605 115.291  0.00  0.00     0.119 C 
BRANCH   8   9
ATOM      9  C   LIG d   1      -1.484  81.740 115.914  0.00  0.00     0.028 C 
ATOM     10  C   LIG d   1      -2.437  82.573 115.040  0.00  0.00     0.006 C 
ENDBRANCH   8   9
BRANCH   8  11
ATOM     11  C   LIG d   1       0.864  82.318 116.262  0.00  0.00     0.028 C 
ATOM     12  C   LIG d   1       2.094  81.471 116.627  0.00  0.00     0.006 C 
ENDBRANCH   8  11
ENDBRANCH   7   8
ENDBRANCH   1   7
BRANCH   6  13
ATOM     13  N   LIG d   1      -0.813  79.824 112.385  0.00  0.00    -0.311 N 
ATOM     14  C   LIG d   1      -2.113  79.670 112.631  0.00  0.00     0.210 C 
ATOM     15  C   LIG d   1      -2.507  78.298 113.187  0.00  0.00     0.109 C 
ATOM     16  O   LIG d   1      -2.981  80.527 112.411  0.00  0.00    -0.276 OA
ATOM     17  H   LIG d   1      -0.184  79.066 112.562  0.00  0.00     0.149 HD
ENDBRANCH   6  13
BRANCH   5  18
ATOM     18  N   LIG d   1      -0.316  80.422 109.430  0.00  0.00     0.381 N 
ATOM     19  H   LIG d   1      -0.688  79.516 109.635  0.00  0.00    -0.090 HD
ATOM     20  H   LIG d   1       0.237  80.354 108.594  0.00  0.00    -0.090 HD
ATOM     21  H   LIG d   1      -1.059  81.072 109.294  0.00  0.00    -0.090 HD
ENDBRANCH   5  18
BRANCH   3  22
ATOM     22  C   LIG d   1       3.033  83.569 110.782  0.00  0.00     0.382 C 
ATOM     23  O   LIG d   1       2.927  84.403 109.851  0.00  0.00    -0.241 OA
ATOM     24  O   LIG d   1       4.131  83.417 111.348  0.00  0.00    -0.241 OA
ENDBRANCH   3  22
TORSDOF 7
ENDMDL
MODEL 4
REMARK VINA RESULT:      -4.9      2.691      4.519
REMARK  7 active torsions:
REMARK  status: ('A' for Active; 'I' for Inactive)
REMARK    1  A    between atoms: C_2  and  C_3 
REMARK    2  A    between atoms: C_3  and  O_6 
REMARK    3  A    between atoms: C_3  and  C_4 
REMARK    4  A    between atoms: C_7  and  O_6 
REMARK    5  A    between atoms: C_9  and  C_10 
REMARK    6  A    between atoms: N_15  and  C_14 
REMARK    7  A    between atoms: N_20  and  C_19 
REMARK       I    between atoms: C_22  and  N_20 
ROOT
ATOM      1  C   LIG d   1      -0.638  80.942 112.414  0.00  0.00     0.161 C 
ATOM      2  C   LIG d   1      -1.358  79.782 112.084  0.00  0.00     0.016 C 
ATOM      3  C   LIG d   1      -2.212  79.112 112.991  0.00  0.00     0.038 C 
ATOM      4  C   LIG d   1      -2.523  79.648 114.250  0.00  0.00     0.028 C 
ATOM      5  C   LIG d   1      -1.429  80.550 114.811  0.00  0.00    -0.047 C 
ATOM      6  C   LIG d   1      -1.051  81.603 113.745  0.00  0.00     0.091 C 
ENDROOT
BRANCH   1   7
ATOM      7  O   LIG d   1      -0.725  81.894 111.334  0.00  0.00    -0.368 OA
BRANCH   7   8
ATOM      8  C   LIG d   1       0.425  81.967 110.455  0.00  0.00     0.119 C 
BRANCH   8   9
ATOM      9  C   LIG d   1       1.630  81.388 111.221  0.00  0.00     0.028 C 
ATOM     10  C   LIG d   1       2.972  81.933 110.702  0.00  0.00     0.006 C 
ENDBRANCH   8   9
BRANCH   8  11
ATOM     11  C   LIG d   1       0.799  83.420 110.148  0.00  0.00     0.028 C 
ATOM     12  C   LIG d   1      -0.311  84.414 110.523  0.00  0.00     0.006 C 
ENDBRANCH   8  11
ENDBRANCH   7   8
ENDBRANCH   1   7
BRANCH   6  13
ATOM     13  N   LIG d   1       0.072  82.474 114.182  0.00  0.00    -0.311 N 
ATOM     14  C   LIG d   1      -0.016  83.801 114.259  0.00  0.00     0.210 C 
ATOM     15  C   LIG d   1       1.264  84.509 114.713  0.00  0.00     0.109 C 
ATOM     16  O   LIG d   1      -1.043  84.456 114.026  0.00  0.00    -0.276 OA
ATOM     17  H   LIG d   1       0.933  82.022 114.421  0.00  0.00     0.149 HD
ENDBRANCH   6  13
BRANCH   5  18
ATOM     18  N   LIG d   1      -1.941  81.147 116.059  0.00  0.00     0.381 N 
ATOM     19  H   LIG d   1      -1.790  82.136 116.048  0.00  0.00    -0.090 HD
ATOM     20  H   LIG d   1      -1.436  80.760 116.836  0.00  0.00    -0.090 HD
ATOM     21  H   LIG d   1      -2.914  80.954 116.156  0.00  0.00    -0.090 HD
ENDBRANCH   5  18
BRANCH   3  22
ATOM     22  C   LIG d   1      -2.733  77.872 112.656  0.00  0.00     0.382 C 
ATOM     23  O   LIG d   1      -3.862  77.793 112.113  0.00  0.00    -0.241 OA
ATOM     24  O   LIG d   1      -2.109  76.829 112.929  0.00  0.00    -0.241 OA
ENDBRANCH   3  22
TORSDOF 7
ENDMDL
MODEL 5
REMARK VINA RESULT:      -4.8      4.645      7.008
REMARK  7 active torsions:
REMARK  status: ('A' for Active; 'I' for Inactive)
REMARK    1  A    between atoms: C_2  and  C_3 
REMARK    2  A    between atoms: C_3  and  O_6 
REMARK    3  A    between atoms: C_3  and  C_4 
REMARK    4  A    between atoms: C_7  and  O_6 
REMARK    5  A    between atoms: C_9  and  C_10 
REMARK    6  A    between atoms: N_15  and  C_14 
REMARK    7  A    between atoms: N_20  and  C_19 
REMARK       I    between atoms: C_22  and  N_20 
ROOT
ATOM      1  C   LIG d   1      -1.753  79.216 115.677  0.00  0.00     0.161 C 
ATOM      2  C   LIG d   1      -2.072  80.443 115.070  0.00  0.00     0.016 C 
ATOM      3  C   LIG d   1      -2.422  80.568 113.706  0.00  0.00     0.038 C 
ATOM      4  C   LIG d   1      -2.626  79.448 112.886  0.00  0.00     0.028 C 
ATOM      5  C   LIG d   1      -1.826  78.225 113.323  0.00  0.00    -0.047 C 
ATOM      6  C   LIG d   1      -2.078  77.971 114.826  0.00  0.00     0.091 C 
ENDROOT
BRANCH   1   7
ATOM      7  O   LIG d   1      -2.397  79.127 116.963  0.00  0.00    -0.368 OA
BRANCH   7   8
ATOM      8  C   LIG d   1      -3.838  78.978 116.946  0.00  0.00     0.119 C 
BRANCH   8   9
ATOM      9  C   LIG d   1      -4.439  80.217 117.638  0.00  0.00     0.028 C 
ATOM     10  C   LIG d   1      -3.441  80.903 118.585  0.00  0.00     0.006 C 
ENDBRANCH   8   9
BRANCH   8  11
ATOM     11  C   LIG d   1      -4.285  77.783 117.794  0.00  0.00     0.028 C 
ATOM     12  C   LIG d   1      -3.115  77.089 118.509  0.00  0.00     0.006 C 
ENDBRANCH   8  11
ENDBRANCH   7   8
ENDBRANCH   1   7
BRANCH   6  13
ATOM     13  N   LIG d   1      -1.268  76.842 115.354  0.00  0.00    -0.311 N 
ATOM     14  C   LIG d   1      -1.731  75.599 115.471  0.00  0.00     0.210 C 
ATOM     15  C   LIG d   1      -0.737  74.591 116.057  0.00  0.00     0.109 C 
ATOM     16  O   LIG d   1      -2.860  75.228 115.115  0.00  0.00    -0.276 OA
ATOM     17  H   LIG d   1      -0.330  77.047 115.638  0.00  0.00     0.149 HD
ENDBRANCH   6  13
BRANCH   5  18
ATOM     18  N   LIG d   1      -2.237  77.095 112.468  0.00  0.00     0.381 N 
ATOM     19  H   LIG d   1      -1.758  76.264 112.752  0.00  0.00    -0.090 HD
ATOM     20  H   LIG d   1      -1.982  77.297 111.517  0.00  0.00    -0.090 HD
ATOM     21  H   LIG d   1      -3.222  76.959 112.533  0.00  0.00    -0.090 HD
ENDBRANCH   5  18
BRANCH   3  22
ATOM     22  C   LIG d   1      -2.533  81.828 113.138  0.00  0.00     0.382 C 
ATOM     23  O   LIG d   1      -3.609  82.180 112.597  0.00  0.00    -0.241 OA
ATOM     24  O   LIG d   1      -1.556  82.602 113.120  0.00  0.00    -0.241 OA
ENDBRANCH   3  22
TORSDOF 7
ENDMDL
MODEL 6
REMARK VINA RESULT:      -4.7      3.909      6.079
REMARK  7 active torsions:
REMARK  status: ('A' for Active; 'I' for Inactive)
REMARK    1  A    between atoms: C_2  and  C_3 
REMARK    2  A    between atoms: C_3  and  O_6 
REMARK    3  A    between atoms: C_3  and  C_4 
REMARK    4  A    between atoms: C_7  and  O_6 
REMARK    5  A    between atoms: C_9  and  C_10 
REMARK    6  A    between atoms: N_15  and  C_14 
REMARK    7  A    between atoms: N_20  and  C_19 
REMARK       I    between atoms: C_22  and  N_20 
ROOT
ATOM      1  C   LIG d   1      -0.890  79.757 115.136  0.00  0.00     0.161 C 
ATOM      2  C   LIG d   1      -0.947  81.059 114.613  0.00  0.00     0.016 C 
ATOM      3  C   LIG d   1      -1.535  81.372 113.366  0.00  0.00     0.038 C 
ATOM      4  C   LIG d   1      -2.246  80.419 112.621  0.00  0.00     0.028 C 
ATOM      5  C   LIG d   1      -1.779  78.988 112.867  0.00  0.00    -0.047 C 
ATOM      6  C   LIG d   1      -1.758  78.722 114.389  0.00  0.00     0.091 C 
ENDROOT
BRANCH   1   7
ATOM      7  O   LIG d   1      -1.229  79.777 116.536  0.00  0.00    -0.368 OA
BRANCH   7   8
ATOM      8  C   LIG d   1      -1.809  81.008 117.034  0.00  0.00     0.119 C 
BRANCH   8   9
ATOM      9  C   LIG d   1      -1.118  81.338 118.371  0.00  0.00     0.028 C 
ATOM     10  C   LIG d   1       0.413  81.400 118.241  0.00  0.00     0.006 C 
ENDBRANCH   8   9
BRANCH   8  11
ATOM     11  C   LIG d   1      -3.291  80.827 117.377  0.00  0.00     0.028 C 
ATOM     12  C   LIG d   1      -3.568  80.918 118.886  0.00  0.00     0.006 C 
ENDBRANCH   8  11
ENDBRANCH   7   8
ENDBRANCH   1   7
BRANCH   6  13
ATOM     13  N   LIG d   1      -1.233  77.371 114.721  0.00  0.00    -0.311 N 
ATOM     14  C   LIG d   1      -1.957  76.432 115.326  0.00  0.00     0.210 C 
ATOM     15  C   LIG d   1      -1.217  75.117 115.594  0.00  0.00     0.109 C 
ATOM     16  O   LIG d   1      -3.151  76.550 115.638  0.00  0.00    -0.276 OA
ATOM     17  H   LIG d   1      -0.281  77.179 114.475  0.00  0.00     0.149 HD
ENDBRANCH   6  13
BRANCH   5  18
ATOM     18  N   LIG d   1      -2.693  78.090 112.135  0.00  0.00     0.381 N 
ATOM     19  H   LIG d   1      -3.569  78.548 111.984  0.00  0.00    -0.090 HD
ATOM     20  H   LIG d   1      -2.857  77.270 112.692  0.00  0.00    -0.090 HD
ATOM     21  H   LIG d   1      -2.290  77.831 111.261  0.00  0.00    -0.090 HD
ENDBRANCH   5  18
BRANCH   3  22
ATOM     22  C   LIG d   1      -1.381  82.643 112.833  0.00  0.00     0.382 C 
ATOM     23  O   LIG d   1      -1.220  83.627 113.595  0.00  0.00    -0.241 OA
ATOM     24  O   LIG d   1      -1.446  82.824 111.602  0.00  0.00    -0.241 OA
ENDBRANCH   3  22
TORSDOF 7
ENDMDL
MODEL 7
REMARK VINA RESULT:      -4.6      3.285      6.371
REMARK  7 active torsions:
REMARK  status: ('A' for Active; 'I' for Inactive)
REMARK    1  A    between atoms: C_2  and  C_3 
REMARK    2  A    between atoms: C_3  and  O_6 
REMARK    3  A    between atoms: C_3  and  C_4 
REMARK    4  A    between atoms: C_7  and  O_6 
REMARK    5  A    between atoms: C_9  and  C_10 
REMARK    6  A    between atoms: N_15  and  C_14 
REMARK    7  A    between atoms: N_20  and  C_19 
REMARK       I    between atoms: C_22  and  N_20 
ROOT
ATOM      1  C   LIG d   1      -2.235  81.747 114.316  0.00  0.00     0.161 C 
ATOM      2  C   LIG d   1      -1.811  82.207 113.058  0.00  0.00     0.016 C 
ATOM      3  C   LIG d   1      -0.520  82.730 112.815  0.00  0.00     0.038 C 
ATOM      4  C   LIG d   1       0.491  82.689 113.786  0.00  0.00     0.028 C 
ATOM      5  C   LIG d   1      -0.040  82.699 115.215  0.00  0.00    -0.047 C 
ATOM      6  C   LIG d   1      -1.109  81.592 115.361  0.00  0.00     0.091 C 
ENDROOT
BRANCH   1   7
ATOM      7  O   LIG d   1      -2.954  80.507 114.167  0.00  0.00    -0.368 OA
BRANCH   7   8
ATOM      8  C   LIG d   1      -2.153  79.338 113.867  0.00  0.00     0.119 C 
BRANCH   8   9
ATOM      9  C   LIG d   1      -2.485  78.907 112.425  0.00  0.00     0.028 C 
ATOM     10  C   LIG d   1      -3.166  77.530 112.365  0.00  0.00     0.006 C 
ENDBRANCH   8   9
BRANCH   8  11
ATOM     11  C   LIG d   1      -2.551  78.149 114.746  0.00  0.00     0.028 C 
ATOM     12  C   LIG d   1      -3.479  78.549 115.905  0.00  0.00     0.006 C 
ENDBRANCH   8  11
ENDBRANCH   7   8
ENDBRANCH   1   7
BRANCH   6  13
ATOM     13  N   LIG d   1      -1.742  81.588 116.706  0.00  0.00    -0.311 N 
ATOM     14  C   LIG d   1      -1.306  80.840 117.718  0.00  0.00     0.210 C 
ATOM     15  C   LIG d   1      -2.114  80.971 119.013  0.00  0.00     0.109 C 
ATOM     16  O   LIG d   1      -0.307  80.106 117.676  0.00  0.00    -0.276 OA
ATOM     17  H   LIG d   1      -2.539  82.179 116.837  0.00  0.00     0.149 HD
ENDBRANCH   6  13
BRANCH   5  18
ATOM     18  N   LIG d   1       1.110  82.514 116.120  0.00  0.00     0.381 N 
ATOM     19  H   LIG d   1       1.001  83.094 116.929  0.00  0.00    -0.090 HD
ATOM     20  H   LIG d   1       1.948  82.794 115.642  0.00  0.00    -0.090 HD
ATOM     21  H   LIG d   1       1.178  81.559 116.394  0.00  0.00    -0.090 HD
ENDBRANCH   5  18
BRANCH   3  22
ATOM     22  C   LIG d   1      -0.243  83.339 111.600  0.00  0.00     0.382 C 
ATOM     23  O   LIG d   1      -1.166  83.538 110.774  0.00  0.00    -0.241 OA
ATOM     24  O   LIG d   1       0.925  83.651 111.302  0.00  0.00    -0.241 OA
ENDBRANCH   3  22
TORSDOF 7
ENDMDL
MODEL 8
REMARK VINA RESULT:      -4.4      4.211      6.737
REMARK  7 active torsions:
REMARK  status: ('A' for Active; 'I' for Inactive)
REMARK    1  A    between atoms: C_2  and  C_3 
REMARK    2  A    between atoms: C_3  and  O_6 
REMARK    3  A    between atoms: C_3  and  C_4 
REMARK    4  A    between atoms: C_7  and  O_6 
REMARK    5  A    between atoms: C_9  and  C_10 
REMARK    6  A    between atoms: N_15  and  C_14 
REMARK    7  A    between atoms: N_20  and  C_19 
REMARK       I    between atoms: C_22  and  N_20 
ROOT
ATOM      1  C   LIG d   1      -1.951  79.340 115.343  0.00  0.00     0.161 C 
ATOM      2  C   LIG d   1      -1.623  80.520 114.656  0.00  0.00     0.016 C 
ATOM      3  C   LIG d   1      -1.633  80.628 113.246  0.00  0.00     0.038 C 
ATOM      4  C   LIG d   1      -2.121  79.599 112.427  0.00  0.00     0.028 C 
ATOM      5  C   LIG d   1      -1.985  78.214 113.049  0.00  0.00    -0.047 C 
ATOM      6  C   LIG d   1      -2.593  78.240 114.470  0.00  0.00     0.091 C 
ENDROOT
BRANCH   1   7
ATOM      7  O   LIG d   1      -2.801  79.648 116.465  0.00  0.00    -0.368 OA
BRANCH   7   8
ATOM      8  C   LIG d   1      -2.199  79.512 117.776  0.00  0.00     0.119 C 
BRANCH   8   9
ATOM      9  C   LIG d   1      -3.191  78.734 118.663  0.00  0.00     0.028 C 
ATOM     10  C   LIG d   1      -4.436  78.274 117.886  0.00  0.00     0.006 C 
ENDBRANCH   8   9
BRANCH   8  11
ATOM     11  C   LIG d   1      -2.031  80.874 118.456  0.00  0.00     0.028 C 
ATOM     12  C   LIG d   1      -0.586  81.395 118.396  0.00  0.00     0.006 C 
ENDBRANCH   8  11
ENDBRANCH   7   8
ENDBRANCH   1   7
BRANCH   6  13
ATOM     13  N   LIG d   1      -2.427  76.947 115.183  0.00  0.00    -0.311 N 
ATOM     14  C   LIG d   1      -3.309  75.951 115.110  0.00  0.00     0.210 C 
ATOM     15  C   LIG d   1      -2.955  74.712 115.938  0.00  0.00     0.109 C 
ATOM     16  O   LIG d   1      -4.335  75.965 114.413  0.00  0.00    -0.276 OA
ATOM     17  H   LIG d   1      -1.606  76.838 115.746  0.00  0.00     0.149 HD
ENDBRANCH   6  13
BRANCH   5  18
ATOM     18  N   LIG d   1      -2.656  77.254 112.152  0.00  0.00     0.381 N 
ATOM     19  H   LIG d   1      -2.684  76.351 112.581  0.00  0.00    -0.090 HD
ATOM     20  H   LIG d   1      -2.128  77.182 111.300  0.00  0.00    -0.090 HD
ATOM     21  H   LIG d   1      -3.582  77.564 111.952  0.00  0.00    -0.090 HD
ENDBRANCH   5  18
BRANCH   3  22
ATOM     22  C   LIG d   1      -1.113  81.762 112.640  0.00  0.00     0.382 C 
ATOM     23  O   LIG d   1      -1.883  82.604 112.121  0.00  0.00    -0.241 OA
ATOM     24  O   LIG d   1       0.119  81.930 112.567  0.00  0.00    -0.241 OA
ENDBRANCH   3  22
TORSDOF 7
ENDMDL
MODEL 9
REMARK VINA RESULT:      -4.4      2.720      4.213
REMARK  7 active torsions:
REMARK  status: ('A' for Active; 'I' for Inactive)
REMARK    1  A    between atoms: C_2  and  C_3 
REMARK    2  A    between atoms: C_3  and  O_6 
REMARK    3  A    between atoms: C_3  and  C_4 
REMARK    4  A    between atoms: C_7  and  O_6 
REMARK    5  A    between atoms: C_9  and  C_10 
REMARK    6  A    between atoms: N_15  and  C_14 
REMARK    7  A    between atoms: N_20  and  C_19 
REMARK       I    between atoms: C_22  and  N_20 
ROOT
ATOM      1  C   LIG d   1       0.849  81.325 113.843  0.00  0.00     0.161 C 
ATOM      2  C   LIG d   1      -0.351  81.313 113.114  0.00  0.00     0.016 C 
ATOM      3  C   LIG d   1      -1.629  81.368 113.717  0.00  0.00     0.038 C 
ATOM      4  C   LIG d   1      -1.790  81.593 115.093  0.00  0.00     0.028 C 
ATOM      5  C   LIG d   1      -0.611  81.106 115.928  0.00  0.00    -0.047 C 
ATOM      6  C   LIG d   1       0.696  81.682 115.336  0.00  0.00     0.091 C 
ENDROOT
BRANCH   1   7
ATOM      7  O   LIG d   1       1.795  82.210 113.211  0.00  0.00    -0.368 OA
BRANCH   7   8
ATOM      8  C   LIG d   1       1.239  83.204 112.315  0.00  0.00     0.119 C 
BRANCH   8   9
ATOM      9  C   LIG d   1       1.923  83.028 110.946  0.00  0.00     0.028 C 
ATOM     10  C   LIG d   1       3.100  82.039 111.000  0.00  0.00     0.006 C 
ENDBRANCH   8   9
BRANCH   8  11
ATOM     11  C   LIG d   1       1.595  84.623 112.767  0.00  0.00     0.028 C 
ATOM     12  C   LIG d   1       2.889  84.678 113.594  0.00  0.00     0.006 C 
ENDBRANCH   8  11
ENDBRANCH   7   8
ENDBRANCH   1   7
BRANCH   6  13
ATOM     13  N   LIG d   1       1.905  81.187 116.044  0.00  0.00    -0.311 N 
ATOM     14  C   LIG d   1       2.766  81.987 116.671  0.00  0.00     0.210 C 
ATOM     15  C   LIG d   1       3.957  81.273 117.319  0.00  0.00     0.109 C 
ATOM     16  O   LIG d   1       2.640  83.216 116.780  0.00  0.00    -0.276 OA
ATOM     17  H   LIG d   1       2.069  80.200 116.032  0.00  0.00     0.149 HD
ENDBRANCH   6  13
BRANCH   5  18
ATOM     18  N   LIG d   1      -0.848  81.527 117.322  0.00  0.00     0.381 N 
ATOM     19  H   LIG d   1      -0.353  80.923 117.947  0.00  0.00    -0.090 HD
ATOM     20  H   LIG d   1      -1.830  81.451 117.522  0.00  0.00    -0.090 HD
ATOM     21  H   LIG d   1      -0.548  82.468 117.450  0.00  0.00    -0.090 HD
ENDBRANCH   5  18
BRANCH   3  22
ATOM     22  C   LIG d   1      -2.762  81.157 112.947  0.00  0.00     0.382 C 
ATOM     23  O   LIG d   1      -2.951  80.043 112.402  0.00  0.00    -0.241 OA
ATOM     24  O   LIG d   1      -3.576  82.080 112.755  0.00  0.00    -0.241 OA
ENDBRANCH   3  22
TORSDOF 7
ENDMDL
