MODEL 1
REMARK VINA RESULT:      -5.4      0.000      0.000
REMARK  7 active torsions:
REMARK  status: ('A' for Active; 'I' for Inactive)
REMARK    1  A    between atoms: C_2  and  C_3 
REMARK    2  A    between atoms: C_3  and  O_6 
REMARK    3  A    between atoms: C_3  and  C_4 
REMARK    4  A    between atoms: C_7  and  O_6 
REMARK    5  A    between atoms: C_9  and  C_10 
REMARK    6  A    between atoms: N_15  and  C_14 
REMARK    7  A    between atoms: N_20  and  C_19 
REMARK       I    between atoms: C_22  and  N_20 
ROOT
ATOM      1  C   LIG d   1       1.352  81.011 112.546  0.00  0.00     0.161 C 
ATOM      2  C   LIG d   1       2.537  81.399 111.898  0.00  0.00     0.016 C 
ATOM      3  C   LIG d   1       2.803  81.128 110.536  0.00  0.00     0.038 C 
ATOM      4  C   LIG d   1       1.831  80.581 109.685  0.00  0.00     0.028 C 
ATOM      5  C   LIG d   1       0.807  79.715 110.413  0.00  0.00    -0.047 C 
ATOM      6  C   LIG d   1       0.234  80.512 111.607  0.00  0.00     0.091 C 
ENDROOT
BRANCH   1   7
ATOM      7  O   LIG d   1       0.869  82.092 113.369  0.00  0.00    -0.368 OA
BRANCH   7   8
ATOM      8  C   LIG d   1       1.026  83.426 112.825  0.00  0.00     0.119 C 
BRANCH   8   9
ATOM      9  C   LIG d   1       1.433  84.354 113.986  0.00  0.00     0.028 C 
ATOM     10  C   LIG d   1       2.938  84.281 114.295  0.00  0.00     0.006 C 
ENDBRANCH   8   9
BRANCH   8  11
ATOM     11  C   LIG d   1      -0.308  83.978 112.313  0.00  0.00     0.028 C 
ATOM     12  C   LIG d   1      -0.322  84.184 110.790  0.00  0.00     0.006 C 
ENDBRANCH   8  11
ENDBRANCH   7   8
ENDBRANCH   1   7
BRANCH   6  13
ATOM     13  N   LIG d   1      -0.713  79.708 112.423  0.00  0.00    -0.311 N 
ATOM     14  C   LIG d   1      -1.905  80.154 112.815  0.00  0.00     0.210 C 
ATOM     15  C   LIG d   1      -2.716  79.172 113.665  0.00  0.00     0.109 C 
ATOM     16  O   LIG d   1      -2.381  81.259 112.511  0.00  0.00    -0.276 OA
ATOM     17  H   LIG d   1      -0.420  78.787 112.687  0.00  0.00     0.149 HD
ENDBRANCH   6  13
BRANCH   5  18
ATOM     18  N   LIG d   1      -0.222  79.323 109.432  0.00  0.00     0.381 N 
ATOM     19  H   LIG d   1      -0.613  78.438 109.687  0.00  0.00    -0.090 HD
ATOM     20  H   LIG d   1       0.208  79.229 108.529  0.00  0.00    -0.090 HD
ATOM     21  H   LIG d   1      -0.939  80.013 109.396  0.00  0.00    -0.090 HD
ENDBRANCH   5  18
BRANCH   3  22
ATOM     22  C   LIG d   1       4.067  81.370 110.022  0.00  0.00     0.382 C 
ATOM     23  O   LIG d   1       4.392  82.531 109.677  0.00  0.00    -0.241 OA
ATOM     24  O   LIG d   1       4.872  80.433 109.857  0.00  0.00    -0.241 OA
ENDBRANCH   3  22
TORSDOF 7
ENDMDL
MODEL 2
REMARK VINA RESULT:      -5.3      1.593      4.941
REMARK  7 active torsions:
REMARK  status: ('A' for Active; 'I' for Inactive)
REMARK    1  A    between atoms: C_2  and  C_3 
REMARK    2  A    between atoms: C_3  and  O_6 
REMARK    3  A    between atoms: C_3  and  C_4 
REMARK    4  A    between atoms: C_7  and  O_6 
REMARK    5  A    between atoms: C_9  and  C_10 
REMARK    6  A    between atoms: N_15  and  C_14 
REMARK    7  A    between atoms: N_20  and  C_19 
REMARK       I    between atoms: C_22  and  N_20 
ROOT
ATOM      1  C   LIG d   1       0.553  81.777 111.773  0.00  0.00     0.161 C 
ATOM      2  C   LIG d   1      -0.702  81.551 112.363  0.00  0.00     0.016 C 
ATOM      3  C   LIG d   1      -1.372  80.307 112.317  0.00  0.00     0.038 C 
ATOM      4  C   LIG d   1      -0.760  79.155 111.802  0.00  0.00     0.028 C 
ATOM      5  C   LIG d   1       0.299  79.451 110.746  0.00  0.00    -0.047 C 
ATOM      6  C   LIG d   1       1.285  80.502 111.305  0.00  0.00     0.091 C 
ENDROOT
BRANCH   1   7
ATOM      7  O   LIG d   1       1.387  82.532 112.673  0.00  0.00    -0.368 OA
BRANCH   7   8
ATOM      8  C   LIG d   1       1.226  83.972 112.636  0.00  0.00     0.119 C 
BRANCH   8   9
ATOM      9  C   LIG d   1       1.413  84.420 111.173  0.00  0.00     0.028 C 
ATOM     10  C   LIG d   1       2.890  84.653 110.815  0.00  0.00     0.006 C 
ENDBRANCH   8   9
BRANCH   8  11
ATOM     11  C   LIG d   1       2.336  84.677 113.421  0.00  0.00     0.028 C 
ATOM     12  C   LIG d   1       3.142  83.716 114.308  0.00  0.00     0.006 C 
ENDBRANCH   8  11
ENDBRANCH   7   8
ENDBRANCH   1   7
BRANCH   6  13
ATOM     13  N   LIG d   1       2.305  80.912 110.304  0.00  0.00    -0.311 N 
ATOM     14  C   LIG d   1       3.581  81.139 110.608  0.00  0.00     0.210 C 
ATOM     15  C   LIG d   1       4.460  81.571 109.430  0.00  0.00     0.109 C 
ATOM     16  O   LIG d   1       4.076  80.993 111.736  0.00  0.00    -0.276 OA
ATOM     17  H   LIG d   1       1.996  81.024 109.358  0.00  0.00     0.149 HD
ENDBRANCH   6  13
BRANCH   5  18
ATOM     18  N   LIG d   1       0.951  78.174 110.398  0.00  0.00     0.381 N 
ATOM     19  H   LIG d   1       0.939  78.048 109.405  0.00  0.00    -0.090 HD
ATOM     20  H   LIG d   1       0.436  77.421 110.818  0.00  0.00    -0.090 HD
ATOM     21  H   LIG d   1       1.891  78.170 110.729  0.00  0.00    -0.090 HD
ENDBRANCH   5  18
BRANCH   3  22
ATOM     22  C   LIG d   1      -2.685  80.217 112.752  0.00  0.00     0.382 C 
ATOM     23  O   LIG d   1      -3.135  79.121 113.164  0.00  0.00    -0.241 OA
ATOM     24  O   LIG d   1      -3.439  81.207 112.696  0.00  0.00    -0.241 OA
ENDBRANCH   3  22
TORSDOF 7
ENDMDL
MODEL 3
REMARK VINA RESULT:      -5.2      4.028      6.998
REMARK  7 active torsions:
REMARK  status: ('A' for Active; 'I' for Inactive)
REMARK    1  A    between atoms: C_2  and  C_3 
REMARK    2  A    between atoms: C_3  and  O_6 
REMARK    3  A    between atoms: C_3  and  C_4 
REMARK    4  A    between atoms: C_7  and  O_6 
REMARK    5  A    between atoms: C_9  and  C_10 
REMARK    6  A    between atoms: N_15  and  C_14 
REMARK    7  A    between atoms: N_20  and  C_19 
REMARK       I    between atoms: C_22  and  N_20 
ROOT
ATOM      1  C   LIG d   1      -1.341  77.518 113.694  0.00  0.00     0.161 C 
ATOM      2  C   LIG d   1      -2.006  78.756 113.674  0.00  0.00     0.016 C 
ATOM      3  C   LIG d   1      -1.842  79.710 112.644  0.00  0.00     0.038 C 
ATOM      4  C   LIG d   1      -1.113  79.427 111.480  0.00  0.00     0.028 C 
ATOM      5  C   LIG d   1      -0.016  78.388 111.689  0.00  0.00    -0.047 C 
ATOM      6  C   LIG d   1      -0.627  77.146 112.377  0.00  0.00     0.091 C 
ENDROOT
BRANCH   1   7
ATOM      7  O   LIG d   1      -2.259  76.476 114.078  0.00  0.00    -0.368 OA
BRANCH   7   8
ATOM      8  C   LIG d   1      -1.773  75.527 115.059  0.00  0.00     0.119 C 
BRANCH   8   9
ATOM      9  C   LIG d   1      -3.002  74.878 115.725  0.00  0.00     0.028 C 
ATOM     10  C   LIG d   1      -3.940  75.916 116.363  0.00  0.00     0.006 C 
ENDBRANCH   8   9
BRANCH   8  11
ATOM     11  C   LIG d   1      -1.023  76.233 116.193  0.00  0.00     0.028 C 
ATOM     12  C   LIG d   1      -0.239  75.259 117.086  0.00  0.00     0.006 C 
ENDBRANCH   8  11
ENDBRANCH   7   8
ENDBRANCH   1   7
BRANCH   6  13
ATOM     13  N   LIG d   1       0.394  76.114 112.695  0.00  0.00    -0.311 N 
ATOM     14  C   LIG d   1       0.754  75.153 111.847  0.00  0.00     0.210 C 
ATOM     15  C   LIG d   1       1.810  74.180 112.382  0.00  0.00     0.109 C 
ATOM     16  O   LIG d   1       0.323  75.033 110.690  0.00  0.00    -0.276 OA
ATOM     17  H   LIG d   1       0.818  76.156 113.602  0.00  0.00     0.149 HD
ENDBRANCH   6  13
BRANCH   5  18
ATOM     18  N   LIG d   1       0.571  78.088 110.370  0.00  0.00     0.381 N 
ATOM     19  H   LIG d   1      -0.096  78.281 109.650  0.00  0.00    -0.090 HD
ATOM     20  H   LIG d   1       0.802  77.111 110.332  0.00  0.00    -0.090 HD
ATOM     21  H   LIG d   1       1.391  78.636 110.229  0.00  0.00    -0.090 HD
ENDBRANCH   5  18
BRANCH   3  22
ATOM     22  C   LIG d   1      -2.379  80.980 112.792  0.00  0.00     0.382 C 
ATOM     23  O   LIG d   1      -1.694  81.989 112.499  0.00  0.00    -0.241 OA
ATOM     24  O   LIG d   1      -3.525  81.131 113.257  0.00  0.00    -0.241 OA
ENDBRANCH   3  22
TORSDOF 7
ENDMDL
MODEL 4
REMARK VINA RESULT:      -5.2      2.436      5.008
REMARK  7 active torsions:
REMARK  status: ('A' for Active; 'I' for Inactive)
REMARK    1  A    between atoms: C_2  and  C_3 
REMARK    2  A    between atoms: C_3  and  O_6 
REMARK    3  A    between atoms: C_3  and  C_4 
REMARK    4  A    between atoms: C_7  and  O_6 
REMARK    5  A    between atoms: C_9  and  C_10 
REMARK    6  A    between atoms: N_15  and  C_14 
REMARK    7  A    between atoms: N_20  and  C_19 
REMARK       I    between atoms: C_22  and  N_20 
ROOT
ATOM      1  C   LIG d   1       0.812  80.176 111.258  0.00  0.00     0.161 C 
ATOM      2  C   LIG d   1      -0.043  79.108 110.938  0.00  0.00     0.016 C 
ATOM      3  C   LIG d   1      -0.707  78.325 111.911  0.00  0.00     0.038 C 
ATOM      4  C   LIG d   1      -0.679  78.655 113.274  0.00  0.00     0.028 C 
ATOM      5  C   LIG d   1       0.576  79.417 113.687  0.00  0.00    -0.047 C 
ATOM      6  C   LIG d   1       0.767  80.620 112.735  0.00  0.00     0.091 C 
ENDROOT
BRANCH   1   7
ATOM      7  O   LIG d   1       0.542  81.294 110.390  0.00  0.00    -0.368 OA
BRANCH   7   8
ATOM      8  C   LIG d   1       1.577  81.620 109.430  0.00  0.00     0.119 C 
BRANCH   8   9
ATOM      9  C   LIG d   1       2.751  80.650 109.667  0.00  0.00     0.028 C 
ATOM     10  C   LIG d   1       4.065  81.384 109.982  0.00  0.00     0.006 C 
ENDBRANCH   8   9
BRANCH   8  11
ATOM     11  C   LIG d   1       2.150  83.018 109.682  0.00  0.00     0.028 C 
ATOM     12  C   LIG d   1       1.069  84.050 110.037  0.00  0.00     0.006 C 
ENDBRANCH   8  11
ENDBRANCH   7   8
ENDBRANCH   1   7
BRANCH   6  13
ATOM     13  N   LIG d   1       2.018  81.372 113.016  0.00  0.00    -0.311 N 
ATOM     14  C   LIG d   1       2.037  82.651 113.389  0.00  0.00     0.210 C 
ATOM     15  C   LIG d   1       3.434  83.239 113.609  0.00  0.00     0.109 C 
ATOM     16  O   LIG d   1       1.028  83.344 113.591  0.00  0.00    -0.276 OA
ATOM     17  H   LIG d   1       2.882  80.877 112.908  0.00  0.00     0.149 HD
ENDBRANCH   6  13
BRANCH   5  18
ATOM     18  N   LIG d   1       0.411  79.817 115.097  0.00  0.00     0.381 N 
ATOM     19  H   LIG d   1       0.043  80.746 115.145  0.00  0.00    -0.090 HD
ATOM     20  H   LIG d   1       1.311  79.810 115.544  0.00  0.00    -0.090 HD
ATOM     21  H   LIG d   1      -0.203  79.184 115.561  0.00  0.00    -0.090 HD
ENDBRANCH   5  18
BRANCH   3  22
ATOM     22  C   LIG d   1      -1.377  77.174 111.525  0.00  0.00     0.382 C 
ATOM     23  O   LIG d   1      -0.736  76.115 111.317  0.00  0.00    -0.241 OA
ATOM     24  O   LIG d   1      -2.608  77.191 111.340  0.00  0.00    -0.241 OA
ENDBRANCH   3  22
TORSDOF 7
ENDMDL
MODEL 5
REMARK VINA RESULT:      -5.2      1.666      4.683
REMARK  7 active torsions:
REMARK  status: ('A' for Active; 'I' for Inactive)
REMARK    1  A    between atoms: C_2  and  C_3 
REMARK    2  A    between atoms: C_3  and  O_6 
REMARK    3  A    between atoms: C_3  and  C_4 
REMARK    4  A    between atoms: C_7  and  O_6 
REMARK    5  A    between atoms: C_9  and  C_10 
REMARK    6  A    between atoms: N_15  and  C_14 
REMARK    7  A    between atoms: N_20  and  C_19 
REMARK       I    between atoms: C_22  and  N_20 
ROOT
ATOM      1  C   LIG d   1       0.082  81.046 111.779  0.00  0.00     0.161 C 
ATOM      2  C   LIG d   1      -1.003  80.293 112.258  0.00  0.00     0.016 C 
ATOM      3  C   LIG d   1      -1.241  78.949 111.887  0.00  0.00     0.038 C 
ATOM      4  C   LIG d   1      -0.319  78.215 111.126  0.00  0.00     0.028 C 
ATOM      5  C   LIG d   1       0.534  79.083 110.207  0.00  0.00    -0.047 C 
ATOM      6  C   LIG d   1       1.159  80.228 111.036  0.00  0.00     0.091 C 
ENDROOT
BRANCH   1   7
ATOM      7  O   LIG d   1       0.676  81.789 112.862  0.00  0.00    -0.368 OA
BRANCH   7   8
ATOM      8  C   LIG d   1       0.925  83.194 112.610  0.00  0.00     0.119 C 
BRANCH   8   9
ATOM      9  C   LIG d   1       1.522  83.797 113.896  0.00  0.00     0.028 C 
ATOM     10  C   LIG d   1       2.788  84.626 113.623  0.00  0.00     0.006 C 
ENDBRANCH   8   9
BRANCH   8  11
ATOM     11  C   LIG d   1      -0.381  83.957 112.373  0.00  0.00     0.028 C 
ATOM     12  C   LIG d   1      -0.442  84.617 110.986  0.00  0.00     0.006 C 
ENDBRANCH   8  11
ENDBRANCH   7   8
ENDBRANCH   1   7
BRANCH   6  13
ATOM     13  N   LIG d   1       1.942  81.173 110.198  0.00  0.00    -0.311 N 
ATOM     14  C   LIG d   1       3.234  81.432 110.396  0.00  0.00     0.210 C 
ATOM     15  C   LIG d   1       3.844  82.452 109.431  0.00  0.00     0.109 C 
ATOM     16  O   LIG d   1       3.939  80.890 111.260  0.00  0.00    -0.276 OA
ATOM     17  H   LIG d   1       1.456  81.634 109.454  0.00  0.00     0.149 HD
ENDBRANCH   6  13
BRANCH   5  18
ATOM     18  N   LIG d   1       1.542  78.208 109.578  0.00  0.00     0.381 N 
ATOM     19  H   LIG d   1       1.655  78.460 108.616  0.00  0.00    -0.090 HD
ATOM     20  H   LIG d   1       1.219  77.258 109.619  0.00  0.00    -0.090 HD
ATOM     21  H   LIG d   1       2.412  78.292 110.055  0.00  0.00    -0.090 HD
ENDBRANCH   5  18
BRANCH   3  22
ATOM     22  C   LIG d   1      -2.433  78.338 112.247  0.00  0.00     0.382 C 
ATOM     23  O   LIG d   1      -2.669  77.161 111.881  0.00  0.00    -0.241 OA
ATOM     24  O   LIG d   1      -3.294  78.964 112.894  0.00  0.00    -0.241 OA
ENDBRANCH   3  22
TORSDOF 7
ENDMDL
MODEL 6
REMARK VINA RESULT:      -4.8      2.034      5.174
REMARK  7 active torsions:
REMARK  status: ('A' for Active; 'I' for Inactive)
REMARK    1  A    between atoms: C_2  and  C_3 
REMARK    2  A    between atoms: C_3  and  O_6 
REMARK    3  A    between atoms: C_3  and  C_4 
REMARK    4  A    between atoms: C_7  and  O_6 
REMARK    5  A    between atoms: C_9  and  C_10 
REMARK    6  A    between atoms: N_15  and  C_14 
REMARK    7  A    between atoms: N_20  and  C_19 
REMARK       I    between atoms: C_22  and  N_20 
ROOT
ATOM      1  C   LIG d   1       0.085  80.939 112.045  0.00  0.00     0.161 C 
ATOM      2  C   LIG d   1      -0.980  80.131 112.474  0.00  0.00     0.016 C 
ATOM      3  C   LIG d   1      -1.231  78.837 111.961  0.00  0.00     0.038 C 
ATOM      4  C   LIG d   1      -0.337  78.201 111.086  0.00  0.00     0.028 C 
ATOM      5  C   LIG d   1       0.480  79.173 110.242  0.00  0.00    -0.047 C 
ATOM      6  C   LIG d   1       1.135  80.219 111.173  0.00  0.00     0.091 C 
ENDROOT
BRANCH   1   7
ATOM      7  O   LIG d   1       0.719  81.557 113.183  0.00  0.00    -0.368 OA
BRANCH   7   8
ATOM      8  C   LIG d   1       1.803  80.812 113.791  0.00  0.00     0.119 C 
BRANCH   8   9
ATOM      9  C   LIG d   1       1.400  80.513 115.248  0.00  0.00     0.028 C 
ATOM     10  C   LIG d   1       0.716  79.143 115.397  0.00  0.00     0.006 C 
ENDBRANCH   8   9
BRANCH   8  11
ATOM     11  C   LIG d   1       3.075  81.660 113.888  0.00  0.00     0.028 C 
ATOM     12  C   LIG d   1       2.871  83.100 113.392  0.00  0.00     0.006 C 
ENDBRANCH   8  11
ENDBRANCH   7   8
ENDBRANCH   1   7
BRANCH   6  13
ATOM     13  N   LIG d   1       1.884  81.258 110.420  0.00  0.00    -0.311 N 
ATOM     14  C   LIG d   1       3.199  81.209 110.214  0.00  0.00     0.210 C 
ATOM     15  C   LIG d   1       3.776  82.392 109.431  0.00  0.00     0.109 C 
ATOM     16  O   LIG d   1       3.938  80.282 110.579  0.00  0.00    -0.276 OA
ATOM     17  H   LIG d   1       1.358  82.030 110.062  0.00  0.00     0.149 HD
ENDBRANCH   6  13
BRANCH   5  18
ATOM     18  N   LIG d   1       1.464  78.382 109.479  0.00  0.00     0.381 N 
ATOM     19  H   LIG d   1       1.357  78.561 108.500  0.00  0.00    -0.090 HD
ATOM     20  H   LIG d   1       1.292  77.405 109.641  0.00  0.00    -0.090 HD
ATOM     21  H   LIG d   1       2.388  78.617 109.767  0.00  0.00    -0.090 HD
ENDBRANCH   5  18
BRANCH   3  22
ATOM     22  C   LIG d   1      -2.407  78.182 112.292  0.00  0.00     0.382 C 
ATOM     23  O   LIG d   1      -2.514  76.948 112.095  0.00  0.00    -0.241 OA
ATOM     24  O   LIG d   1      -3.378  78.818 112.744  0.00  0.00    -0.241 OA
ENDBRANCH   3  22
TORSDOF 7
ENDMDL
MODEL 7
REMARK VINA RESULT:      -4.7      2.710      5.279
REMARK  7 active torsions:
REMARK  status: ('A' for Active; 'I' for Inactive)
REMARK    1  A    between atoms: C_2  and  C_3 
REMARK    2  A    between atoms: C_3  and  O_6 
REMARK    3  A    between atoms: C_3  and  C_4 
REMARK    4  A    between atoms: C_7  and  O_6 
REMARK    5  A    between atoms: C_9  and  C_10 
REMARK    6  A    between atoms: N_15  and  C_14 
REMARK    7  A    between atoms: N_20  and  C_19 
REMARK       I    between atoms: C_22  and  N_20 
ROOT
ATOM      1  C   LIG d   1      -0.432  80.268 112.396  0.00  0.00     0.161 C 
ATOM      2  C   LIG d   1      -1.635  79.594 112.127  0.00  0.00     0.016 C 
ATOM      3  C   LIG d   1      -2.025  78.405 112.785  0.00  0.00     0.038 C 
ATOM      4  C   LIG d   1      -1.304  77.889 113.872  0.00  0.00     0.028 C 
ATOM      5  C   LIG d   1       0.176  78.254 113.845  0.00  0.00    -0.047 C 
ATOM      6  C   LIG d   1       0.314  79.782 113.656  0.00  0.00     0.091 C 
ENDROOT
BRANCH   1   7
ATOM      7  O   LIG d   1      -0.674  81.687 112.474  0.00  0.00    -0.368 OA
BRANCH   7   8
ATOM      8  C   LIG d   1      -0.229  82.472 111.340  0.00  0.00     0.119 C 
BRANCH   8   9
ATOM      9  C   LIG d   1       0.726  81.591 110.513  0.00  0.00     0.028 C 
ATOM     10  C   LIG d   1       2.140  82.189 110.414  0.00  0.00     0.006 C 
ENDBRANCH   8   9
BRANCH   8  11
ATOM     11  C   LIG d   1       0.612  83.671 111.789  0.00  0.00     0.028 C 
ATOM     12  C   LIG d   1      -0.051  84.474 112.919  0.00  0.00     0.006 C 
ENDBRANCH   8  11
ENDBRANCH   7   8
ENDBRANCH   1   7
BRANCH   6  13
ATOM     13  N   LIG d   1       1.731  80.213 113.535  0.00  0.00    -0.311 N 
ATOM     14  C   LIG d   1       2.231  81.275 114.164  0.00  0.00     0.210 C 
ATOM     15  C   LIG d   1       3.711  81.555 113.885  0.00  0.00     0.109 C 
ATOM     16  O   LIG d   1       1.597  81.993 114.952  0.00  0.00    -0.276 OA
ATOM     17  H   LIG d   1       2.324  79.668 112.939  0.00  0.00     0.149 HD
ENDBRANCH   6  13
BRANCH   5  18
ATOM     18  N   LIG d   1       0.778  77.770 115.103  0.00  0.00     0.381 N 
ATOM     19  H   LIG d   1       1.768  77.686 114.994  0.00  0.00    -0.090 HD
ATOM     20  H   LIG d   1       0.405  76.861 115.313  0.00  0.00    -0.090 HD
ATOM     21  H   LIG d   1       0.570  78.402 115.845  0.00  0.00    -0.090 HD
ENDBRANCH   5  18
BRANCH   3  22
ATOM     22  C   LIG d   1      -3.127  77.697 112.330  0.00  0.00     0.382 C 
ATOM     23  O   LIG d   1      -4.023  77.346 113.136  0.00  0.00    -0.241 OA
ATOM     24  O   LIG d   1      -3.216  77.368 111.132  0.00  0.00    -0.241 OA
ENDBRANCH   3  22
TORSDOF 7
ENDMDL
MODEL 8
REMARK VINA RESULT:      -4.6      2.230      3.982
REMARK  7 active torsions:
REMARK  status: ('A' for Active; 'I' for Inactive)
REMARK    1  A    between atoms: C_2  and  C_3 
REMARK    2  A    between atoms: C_3  and  O_6 
REMARK    3  A    between atoms: C_3  and  C_4 
REMARK    4  A    between atoms: C_7  and  O_6 
REMARK    5  A    between atoms: C_9  and  C_10 
REMARK    6  A    between atoms: N_15  and  C_14 
REMARK    7  A    between atoms: N_20  and  C_19 
REMARK       I    between atoms: C_22  and  N_20 
ROOT
ATOM      1  C   LIG d   1       1.344  80.745 111.323  0.00  0.00     0.161 C 
ATOM      2  C   LIG d   1       1.178  82.087 110.945  0.00  0.00     0.016 C 
ATOM      3  C   LIG d   1       0.029  82.848 111.259  0.00  0.00     0.038 C 
ATOM      4  C   LIG d   1      -0.975  82.359 112.109  0.00  0.00     0.028 C 
ATOM      5  C   LIG d   1      -1.089  80.838 112.098  0.00  0.00    -0.047 C 
ATOM      6  C   LIG d   1       0.310  80.228 112.345  0.00  0.00     0.091 C 
ENDROOT
BRANCH   1   7
ATOM      7  O   LIG d   1       2.683  80.538 111.816  0.00  0.00    -0.368 OA
BRANCH   7   8
ATOM      8  C   LIG d   1       3.434  81.733 112.141  0.00  0.00     0.119 C 
BRANCH   8   9
ATOM      9  C   LIG d   1       4.826  81.595 111.494  0.00  0.00     0.028 C 
ATOM     10  C   LIG d   1       4.789  81.807 109.971  0.00  0.00     0.006 C 
ENDBRANCH   8   9
BRANCH   8  11
ATOM     11  C   LIG d   1       3.695  81.836 113.646  0.00  0.00     0.028 C 
ATOM     12  C   LIG d   1       2.943  83.004 114.303  0.00  0.00     0.006 C 
ENDBRANCH   8  11
ENDBRANCH   7   8
ENDBRANCH   1   7
BRANCH   6  13
ATOM     13  N   LIG d   1       0.303  78.744 112.267  0.00  0.00    -0.311 N 
ATOM     14  C   LIG d   1      -0.444  78.059 111.403  0.00  0.00     0.210 C 
ATOM     15  C   LIG d   1      -0.316  76.535 111.504  0.00  0.00     0.109 C 
ATOM     16  O   LIG d   1      -1.176  78.568 110.542  0.00  0.00    -0.276 OA
ATOM     17  H   LIG d   1       0.892  78.251 112.909  0.00  0.00     0.149 HD
ENDBRANCH   6  13
BRANCH   5  18
ATOM     18  N   LIG d   1      -2.075  80.458 113.127  0.00  0.00     0.381 N 
ATOM     19  H   LIG d   1      -1.695  80.624 114.038  0.00  0.00    -0.090 HD
ATOM     20  H   LIG d   1      -2.272  79.476 113.042  0.00  0.00    -0.090 HD
ATOM     21  H   LIG d   1      -2.912  80.984 113.008  0.00  0.00    -0.090 HD
ENDBRANCH   5  18
BRANCH   3  22
ATOM     22  C   LIG d   1      -0.145  84.099 110.688  0.00  0.00     0.382 C 
ATOM     23  O   LIG d   1       0.823  84.676 110.136  0.00  0.00    -0.241 OA
ATOM     24  O   LIG d   1      -1.245  84.678 110.756  0.00  0.00    -0.241 OA
ENDBRANCH   3  22
TORSDOF 7
ENDMDL
MODEL 9
REMARK VINA RESULT:      -4.5      2.446      5.086
REMARK  7 active torsions:
REMARK  status: ('A' for Active; 'I' for Inactive)
REMARK    1  A    between atoms: C_2  and  C_3 
REMARK    2  A    between atoms: C_3  and  O_6 
REMARK    3  A    between atoms: C_3  and  C_4 
REMARK    4  A    between atoms: C_7  and  O_6 
REMARK    5  A    between atoms: C_9  and  C_10 
REMARK    6  A    between atoms: N_15  and  C_14 
REMARK    7  A    between atoms: N_20  and  C_19 
REMARK       I    between atoms: C_22  and  N_20 
ROOT
ATOM      1  C   LIG d   1       0.723  80.089 111.079  0.00  0.00     0.161 C 
ATOM      2  C   LIG d   1      -0.537  79.469 111.047  0.00  0.00     0.016 C 
ATOM      3  C   LIG d   1      -1.233  79.061 112.209  0.00  0.00     0.038 C 
ATOM      4  C   LIG d   1      -0.780  79.385 113.496  0.00  0.00     0.028 C 
ATOM      5  C   LIG d   1       0.732  79.564 113.579  0.00  0.00    -0.047 C 
ATOM      6  C   LIG d   1       1.181  80.551 112.478  0.00  0.00     0.091 C 
ENDROOT
BRANCH   1   7
ATOM      7  O   LIG d   1       0.746  81.195 110.154  0.00  0.00    -0.368 OA
BRANCH   7   8
ATOM      8  C   LIG d   1       1.011  82.499 110.727  0.00  0.00     0.119 C 
BRANCH   8   9
ATOM      9  C   LIG d   1      -0.349  83.186 110.963  0.00  0.00     0.028 C 
ATOM     10  C   LIG d   1      -0.414  83.908 112.319  0.00  0.00     0.006 C 
ENDBRANCH   8   9
BRANCH   8  11
ATOM     11  C   LIG d   1       1.754  83.402 109.738  0.00  0.00     0.028 C 
ATOM     12  C   LIG d   1       2.960  84.114 110.371  0.00  0.00     0.006 C 
ENDBRANCH   8  11
ENDBRANCH   7   8
ENDBRANCH   1   7
BRANCH   6  13
ATOM     13  N   LIG d   1       2.658  80.718 112.435  0.00  0.00    -0.311 N 
ATOM     14  C   LIG d   1       3.310  81.651 113.125  0.00  0.00     0.210 C 
ATOM     15  C   LIG d   1       4.829  81.663 112.922  0.00  0.00     0.109 C 
ATOM     16  O   LIG d   1       2.779  82.450 113.911  0.00  0.00    -0.276 OA
ATOM     17  H   LIG d   1       3.171  80.091 111.846  0.00  0.00     0.149 HD
ENDBRANCH   6  13
BRANCH   5  18
ATOM     18  N   LIG d   1       1.051  80.032 114.941  0.00  0.00     0.381 N 
ATOM     19  H   LIG d   1       0.365  79.692 115.586  0.00  0.00    -0.090 HD
ATOM     20  H   LIG d   1       1.025  81.037 114.954  0.00  0.00    -0.090 HD
ATOM     21  H   LIG d   1       1.956  79.713 115.209  0.00  0.00    -0.090 HD
ENDBRANCH   5  18
BRANCH   3  22
ATOM     22  C   LIG d   1      -2.376  78.286 112.088  0.00  0.00     0.382 C 
ATOM     23  O   LIG d   1      -3.340  78.463 112.872  0.00  0.00    -0.241 OA
ATOM     24  O   LIG d   1      -2.439  77.381 111.234  0.00  0.00    -0.241 OA
ENDBRANCH   3  22
TORSDOF 7
ENDMDL
