MODEL 1
REMARK VINA RESULT:      -6.0      0.000      0.000
REMARK  7 active torsions:
REMARK  status: ('A' for Active; 'I' for Inactive)
REMARK    1  A    between atoms: C_2  and  C_3 
REMARK    2  A    between atoms: C_3  and  O_6 
REMARK    3  A    between atoms: C_3  and  C_4 
REMARK    4  A    between atoms: C_7  and  O_6 
REMARK    5  A    between atoms: C_9  and  C_10 
REMARK    6  A    between atoms: N_15  and  C_14 
REMARK    7  A    between atoms: N_20  and  C_19 
REMARK       I    between atoms: C_22  and  N_20 
ROOT
ATOM      1  C   LIG d   1       0.144  82.789 111.927  0.00  0.00     0.161 C 
ATOM      2  C   LIG d   1      -1.086  82.423 112.499  0.00  0.00     0.016 C 
ATOM      3  C   LIG d   1      -1.685  81.156 112.311  0.00  0.00     0.038 C 
ATOM      4  C   LIG d   1      -1.017  80.110 111.657  0.00  0.00     0.028 C 
ATOM      5  C   LIG d   1       0.006  80.590 110.633  0.00  0.00    -0.047 C 
ATOM      6  C   LIG d   1       0.940  81.623 111.303  0.00  0.00     0.091 C 
ENDROOT
BRANCH   1   7
ATOM      7  O   LIG d   1       0.950  83.480 112.903  0.00  0.00    -0.368 OA
BRANCH   7   8
ATOM      8  C   LIG d   1       0.984  82.897 114.229  0.00  0.00     0.119 C 
BRANCH   8   9
ATOM      9  C   LIG d   1       0.566  83.995 115.227  0.00  0.00     0.028 C 
ATOM     10  C   LIG d   1      -0.296  83.445 116.376  0.00  0.00     0.006 C 
ENDBRANCH   8   9
BRANCH   8  11
ATOM     11  C   LIG d   1       2.410  82.506 114.629  0.00  0.00     0.028 C 
ATOM     12  C   LIG d   1       2.561  81.001 114.899  0.00  0.00     0.006 C 
ENDBRANCH   8  11
ENDBRANCH   7   8
ENDBRANCH   1   7
BRANCH   6  13
ATOM     13  N   LIG d   1       1.918  82.206 110.348  0.00  0.00    -0.311 N 
ATOM     14  C   LIG d   1       3.237  82.151 110.524  0.00  0.00     0.210 C 
ATOM     15  C   LIG d   1       4.065  82.832 109.430  0.00  0.00     0.109 C 
ATOM     16  O   LIG d   1       3.801  81.573 111.466  0.00  0.00    -0.276 OA
ATOM     17  H   LIG d   1       1.547  82.667 109.540  0.00  0.00     0.149 HD
ENDBRANCH   6  13
BRANCH   5  18
ATOM     18  N   LIG d   1       0.723  79.403 110.129  0.00  0.00     0.381 N 
ATOM     19  H   LIG d   1       0.982  79.545 109.174  0.00  0.00    -0.090 HD
ATOM     20  H   LIG d   1       0.109  78.609 110.175  0.00  0.00    -0.090 HD
ATOM     21  H   LIG d   1       1.535  79.237 110.681  0.00  0.00    -0.090 HD
ENDBRANCH   5  18
BRANCH   3  22
ATOM     22  C   LIG d   1      -2.984  80.939 112.745  0.00  0.00     0.382 C 
ATOM     23  O   LIG d   1      -3.240  79.966 113.495  0.00  0.00    -0.241 OA
ATOM     24  O   LIG d   1      -3.910  81.678 112.361  0.00  0.00    -0.241 OA
ENDBRANCH   3  22
TORSDOF 7
ENDMDL
MODEL 2
REMARK VINA RESULT:      -5.3      1.693      4.878
REMARK  7 active torsions:
REMARK  status: ('A' for Active; 'I' for Inactive)
REMARK    1  A    between atoms: C_2  and  C_3 
REMARK    2  A    between atoms: C_3  and  O_6 
REMARK    3  A    between atoms: C_3  and  C_4 
REMARK    4  A    between atoms: C_7  and  O_6 
REMARK    5  A    between atoms: C_9  and  C_10 
REMARK    6  A    between atoms: N_15  and  C_14 
REMARK    7  A    between atoms: N_20  and  C_19 
REMARK       I    between atoms: C_22  and  N_20 
ROOT
ATOM      1  C   LIG d   1       1.280  81.511 112.919  0.00  0.00     0.161 C 
ATOM      2  C   LIG d   1       2.387  82.227 112.434  0.00  0.00     0.016 C 
ATOM      3  C   LIG d   1       2.608  82.483 111.061  0.00  0.00     0.038 C 
ATOM      4  C   LIG d   1       1.651  82.167 110.085  0.00  0.00     0.028 C 
ATOM      5  C   LIG d   1       0.755  80.996 110.472  0.00  0.00    -0.047 C 
ATOM      6  C   LIG d   1       0.169  81.256 111.879  0.00  0.00     0.091 C 
ENDROOT
BRANCH   1   7
ATOM      7  O   LIG d   1       0.738  82.175 114.078  0.00  0.00    -0.368 OA
BRANCH   7   8
ATOM      8  C   LIG d   1      -0.232  83.219 113.818  0.00  0.00     0.119 C 
BRANCH   8   9
ATOM      9  C   LIG d   1       0.479  84.572 114.017  0.00  0.00     0.028 C 
ATOM     10  C   LIG d   1       1.426  84.565 115.228  0.00  0.00     0.006 C 
ENDBRANCH   8   9
BRANCH   8  11
ATOM     11  C   LIG d   1      -1.362  83.199 114.852  0.00  0.00     0.028 C 
ATOM     12  C   LIG d   1      -1.417  81.886 115.649  0.00  0.00     0.006 C 
ENDBRANCH   8  11
ENDBRANCH   7   8
ENDBRANCH   1   7
BRANCH   6  13
ATOM     13  N   LIG d   1      -0.653  80.119 112.369  0.00  0.00    -0.311 N 
ATOM     14  C   LIG d   1      -1.982  80.158 112.453  0.00  0.00     0.210 C 
ATOM     15  C   LIG d   1      -2.632  78.885 113.005  0.00  0.00     0.109 C 
ATOM     16  O   LIG d   1      -2.685  81.114 112.094  0.00  0.00    -0.276 OA
ATOM     17  H   LIG d   1      -0.165  79.292 112.653  0.00  0.00     0.149 HD
ENDBRANCH   6  13
BRANCH   5  18
ATOM     18  N   LIG d   1      -0.281  80.864 109.430  0.00  0.00     0.381 N 
ATOM     19  H   LIG d   1      -0.648  81.766 109.201  0.00  0.00    -0.090 HD
ATOM     20  H   LIG d   1      -1.032  80.300 109.788  0.00  0.00    -0.090 HD
ATOM     21  H   LIG d   1       0.105  80.438 108.617  0.00  0.00    -0.090 HD
ENDBRANCH   5  18
BRANCH   3  22
ATOM     22  C   LIG d   1       3.816  83.025 110.648  0.00  0.00     0.382 C 
ATOM     23  O   LIG d   1       4.488  83.732 111.437  0.00  0.00    -0.241 OA
ATOM     24  O   LIG d   1       4.220  82.853 109.483  0.00  0.00    -0.241 OA
ENDBRANCH   3  22
TORSDOF 7
ENDMDL
MODEL 3
REMARK VINA RESULT:      -5.1      2.664      4.666
REMARK  7 active torsions:
REMARK  status: ('A' for Active; 'I' for Inactive)
REMARK    1  A    between atoms: C_2  and  C_3 
REMARK    2  A    between atoms: C_3  and  O_6 
REMARK    3  A    between atoms: C_3  and  C_4 
REMARK    4  A    between atoms: C_7  and  O_6 
REMARK    5  A    between atoms: C_9  and  C_10 
REMARK    6  A    between atoms: N_15  and  C_14 
REMARK    7  A    between atoms: N_20  and  C_19 
REMARK       I    between atoms: C_22  and  N_20 
ROOT
ATOM      1  C   LIG d   1      -0.648  80.719 111.777  0.00  0.00     0.161 C 
ATOM      2  C   LIG d   1      -1.381  79.522 111.701  0.00  0.00     0.016 C 
ATOM      3  C   LIG d   1      -2.263  79.084 112.715  0.00  0.00     0.038 C 
ATOM      4  C   LIG d   1      -2.590  79.893 113.814  0.00  0.00     0.028 C 
ATOM      5  C   LIG d   1      -1.493  80.886 114.183  0.00  0.00    -0.047 C 
ATOM      6  C   LIG d   1      -1.076  81.668 112.916  0.00  0.00     0.091 C 
ENDROOT
BRANCH   1   7
ATOM      7  O   LIG d   1      -0.698  81.403 110.510  0.00  0.00    -0.368 OA
BRANCH   7   8
ATOM      8  C   LIG d   1       0.515  81.367 109.717  0.00  0.00     0.119 C 
BRANCH   8   9
ATOM      9  C   LIG d   1       1.600  80.676 110.565  0.00  0.00     0.028 C 
ATOM     10  C   LIG d   1       2.907  80.461 109.783  0.00  0.00     0.006 C 
ENDBRANCH   8   9
BRANCH   8  11
ATOM     11  C   LIG d   1       1.047  82.777 109.448  0.00  0.00     0.028 C 
ATOM     12  C   LIG d   1       0.025  83.874 109.786  0.00  0.00     0.006 C 
ENDBRANCH   8  11
ENDBRANCH   7   8
ENDBRANCH   1   7
BRANCH   6  13
ATOM     13  N   LIG d   1       0.052  82.601 113.172  0.00  0.00    -0.311 N 
ATOM     14  C   LIG d   1      -0.115  83.891 113.459  0.00  0.00     0.210 C 
ATOM     15  C   LIG d   1       1.182  84.680 113.667  0.00  0.00     0.109 C 
ATOM     16  O   LIG d   1      -1.214  84.450 113.592  0.00  0.00    -0.276 OA
ATOM     17  H   LIG d   1       0.978  82.224 113.114  0.00  0.00     0.149 HD
ENDBRANCH   6  13
BRANCH   5  18
ATOM     18  N   LIG d   1      -2.019  81.755 115.252  0.00  0.00     0.381 N 
ATOM     19  H   LIG d   1      -1.743  81.399 116.145  0.00  0.00    -0.090 HD
ATOM     20  H   LIG d   1      -3.023  81.752 115.208  0.00  0.00    -0.090 HD
ATOM     21  H   LIG d   1      -1.677  82.684 115.136  0.00  0.00    -0.090 HD
ENDBRANCH   5  18
BRANCH   3  22
ATOM     22  C   LIG d   1      -2.799  77.807 112.655  0.00  0.00     0.382 C 
ATOM     23  O   LIG d   1      -3.898  77.614 112.083  0.00  0.00    -0.241 OA
ATOM     24  O   LIG d   1      -2.218  76.852 113.206  0.00  0.00    -0.241 OA
ENDBRANCH   3  22
TORSDOF 7
ENDMDL
MODEL 4
REMARK VINA RESULT:      -4.8      3.248      5.601
REMARK  7 active torsions:
REMARK  status: ('A' for Active; 'I' for Inactive)
REMARK    1  A    between atoms: C_2  and  C_3 
REMARK    2  A    between atoms: C_3  and  O_6 
REMARK    3  A    between atoms: C_3  and  C_4 
REMARK    4  A    between atoms: C_7  and  O_6 
REMARK    5  A    between atoms: C_9  and  C_10 
REMARK    6  A    between atoms: N_15  and  C_14 
REMARK    7  A    between atoms: N_20  and  C_19 
REMARK       I    between atoms: C_22  and  N_20 
ROOT
ATOM      1  C   LIG d   1      -1.933  80.429 114.521  0.00  0.00     0.161 C 
ATOM      2  C   LIG d   1      -1.897  81.814 114.290  0.00  0.00     0.016 C 
ATOM      3  C   LIG d   1      -1.477  82.388 113.069  0.00  0.00     0.038 C 
ATOM      4  C   LIG d   1      -1.204  81.607 111.936  0.00  0.00     0.028 C 
ATOM      5  C   LIG d   1      -0.741  80.193 112.273  0.00  0.00    -0.047 C 
ATOM      6  C   LIG d   1      -1.746  79.558 113.261  0.00  0.00     0.091 C 
ENDROOT
BRANCH   1   7
ATOM      7  O   LIG d   1      -3.157  80.077 115.196  0.00  0.00    -0.368 OA
BRANCH   7   8
ATOM      8  C   LIG d   1      -3.049  79.813 116.616  0.00  0.00     0.119 C 
BRANCH   8   9
ATOM      9  C   LIG d   1      -3.537  78.371 116.857  0.00  0.00     0.028 C 
ATOM     10  C   LIG d   1      -2.434  77.466 117.431  0.00  0.00     0.006 C 
ENDBRANCH   8   9
BRANCH   8  11
ATOM     11  C   LIG d   1      -3.999  80.703 117.423  0.00  0.00     0.028 C 
ATOM     12  C   LIG d   1      -3.287  81.902 118.069  0.00  0.00     0.006 C 
ENDBRANCH   8  11
ENDBRANCH   7   8
ENDBRANCH   1   7
BRANCH   6  13
ATOM     13  N   LIG d   1      -1.323  78.205 113.708  0.00  0.00    -0.311 N 
ATOM     14  C   LIG d   1      -2.097  77.126 113.612  0.00  0.00     0.210 C 
ATOM     15  C   LIG d   1      -1.475  75.833 114.150  0.00  0.00     0.109 C 
ATOM     16  O   LIG d   1      -3.228  77.110 113.103  0.00  0.00    -0.276 OA
ATOM     17  H   LIG d   1      -0.407  78.121 114.105  0.00  0.00     0.149 HD
ENDBRANCH   6  13
BRANCH   5  18
ATOM     18  N   LIG d   1      -0.626  79.448 111.006  0.00  0.00     0.381 N 
ATOM     19  H   LIG d   1       0.104  79.841 110.446  0.00  0.00    -0.090 HD
ATOM     20  H   LIG d   1      -1.490  79.531 110.500  0.00  0.00    -0.090 HD
ATOM     21  H   LIG d   1      -0.432  78.488 111.191  0.00  0.00    -0.090 HD
ENDBRANCH   5  18
BRANCH   3  22
ATOM     22  C   LIG d   1      -1.286  83.759 112.984  0.00  0.00     0.382 C 
ATOM     23  O   LIG d   1      -1.712  84.509 113.895  0.00  0.00    -0.241 OA
ATOM     24  O   LIG d   1      -0.732  84.260 111.987  0.00  0.00    -0.241 OA
ENDBRANCH   3  22
TORSDOF 7
ENDMDL
MODEL 5
REMARK VINA RESULT:      -4.7      2.361      4.576
REMARK  7 active torsions:
REMARK  status: ('A' for Active; 'I' for Inactive)
REMARK    1  A    between atoms: C_2  and  C_3 
REMARK    2  A    between atoms: C_3  and  O_6 
REMARK    3  A    between atoms: C_3  and  C_4 
REMARK    4  A    between atoms: C_7  and  O_6 
REMARK    5  A    between atoms: C_9  and  C_10 
REMARK    6  A    between atoms: N_15  and  C_14 
REMARK    7  A    between atoms: N_20  and  C_19 
REMARK       I    between atoms: C_22  and  N_20 
ROOT
ATOM      1  C   LIG d   1       0.459  81.793 112.834  0.00  0.00     0.161 C 
ATOM      2  C   LIG d   1      -0.819  81.403 112.399  0.00  0.00     0.016 C 
ATOM      3  C   LIG d   1      -1.989  81.564 113.176  0.00  0.00     0.038 C 
ATOM      4  C   LIG d   1      -1.982  82.270 114.388  0.00  0.00     0.028 C 
ATOM      5  C   LIG d   1      -0.634  82.236 115.101  0.00  0.00    -0.047 C 
ATOM      6  C   LIG d   1       0.470  82.665 114.107  0.00  0.00     0.091 C 
ENDROOT
BRANCH   1   7
ATOM      7  O   LIG d   1       1.157  82.459 111.764  0.00  0.00    -0.368 OA
BRANCH   7   8
ATOM      8  C   LIG d   1       0.601  82.291 110.437  0.00  0.00     0.119 C 
BRANCH   8   9
ATOM      9  C   LIG d   1       1.646  81.541 109.588  0.00  0.00     0.028 C 
ATOM     10  C   LIG d   1       1.356  80.034 109.497  0.00  0.00     0.006 C 
ENDBRANCH   8   9
BRANCH   8  11
ATOM     11  C   LIG d   1       0.404  83.640 109.740  0.00  0.00     0.028 C 
ATOM     12  C   LIG d   1      -0.580  84.557 110.484  0.00  0.00     0.006 C 
ENDBRANCH   8  11
ENDBRANCH   7   8
ENDBRANCH   1   7
BRANCH   6  13
ATOM     13  N   LIG d   1       1.830  82.578 114.700  0.00  0.00    -0.311 N 
ATOM     14  C   LIG d   1       2.411  83.584 115.352  0.00  0.00     0.210 C 
ATOM     15  C   LIG d   1       3.824  83.292 115.866  0.00  0.00     0.109 C 
ATOM     16  O   LIG d   1       1.877  84.680 115.582  0.00  0.00    -0.276 OA
ATOM     17  H   LIG d   1       2.323  81.714 114.587  0.00  0.00     0.149 HD
ENDBRANCH   6  13
BRANCH   5  18
ATOM     18  N   LIG d   1      -0.729  83.123 116.276  0.00  0.00     0.381 N 
ATOM     19  H   LIG d   1      -0.413  84.041 116.035  0.00  0.00    -0.090 HD
ATOM     20  H   LIG d   1      -0.134  82.765 117.002  0.00  0.00    -0.090 HD
ATOM     21  H   LIG d   1      -1.671  83.162 116.598  0.00  0.00    -0.090 HD
ENDBRANCH   5  18
BRANCH   3  22
ATOM     22  C   LIG d   1      -3.176  80.982 112.759  0.00  0.00     0.382 C 
ATOM     23  O   LIG d   1      -4.110  81.701 112.328  0.00  0.00    -0.241 OA
ATOM     24  O   LIG d   1      -3.342  79.751 112.851  0.00  0.00    -0.241 OA
ENDBRANCH   3  22
TORSDOF 7
ENDMDL
MODEL 6
REMARK VINA RESULT:      -4.6      3.373      5.262
REMARK  7 active torsions:
REMARK  status: ('A' for Active; 'I' for Inactive)
REMARK    1  A    between atoms: C_2  and  C_3 
REMARK    2  A    between atoms: C_3  and  O_6 
REMARK    3  A    between atoms: C_3  and  C_4 
REMARK    4  A    between atoms: C_7  and  O_6 
REMARK    5  A    between atoms: C_9  and  C_10 
REMARK    6  A    between atoms: N_15  and  C_14 
REMARK    7  A    between atoms: N_20  and  C_19 
REMARK       I    between atoms: C_22  and  N_20 
ROOT
ATOM      1  C   LIG d   1      -0.670  80.265 114.595  0.00  0.00     0.161 C 
ATOM      2  C   LIG d   1      -0.757  81.523 113.974  0.00  0.00     0.016 C 
ATOM      3  C   LIG d   1      -1.457  81.748 112.766  0.00  0.00     0.038 C 
ATOM      4  C   LIG d   1      -2.250  80.754 112.173  0.00  0.00     0.028 C 
ATOM      5  C   LIG d   1      -1.784  79.337 112.490  0.00  0.00    -0.047 C 
ATOM      6  C   LIG d   1      -1.621  79.194 114.021  0.00  0.00     0.091 C 
ENDROOT
BRANCH   1   7
ATOM      7  O   LIG d   1      -0.873  80.406 116.015  0.00  0.00    -0.368 OA
BRANCH   7   8
ATOM      8  C   LIG d   1      -1.797  81.443 116.427  0.00  0.00     0.119 C 
BRANCH   8   9
ATOM      9  C   LIG d   1      -1.215  82.107 117.689  0.00  0.00     0.028 C 
ATOM     10  C   LIG d   1      -0.439  83.396 117.369  0.00  0.00     0.006 C 
ENDBRANCH   8   9
BRANCH   8  11
ATOM     11  C   LIG d   1      -3.141  80.851 116.863  0.00  0.00     0.028 C 
ATOM     12  C   LIG d   1      -4.155  81.925 117.287  0.00  0.00     0.006 C 
ENDBRANCH   8  11
ENDBRANCH   7   8
ENDBRANCH   1   7
BRANCH   6  13
ATOM     13  N   LIG d   1      -1.087  77.863 114.412  0.00  0.00    -0.311 N 
ATOM     14  C   LIG d   1      -1.861  76.830 114.740  0.00  0.00     0.210 C 
ATOM     15  C   LIG d   1      -1.107  75.555 115.130  0.00  0.00     0.109 C 
ATOM     16  O   LIG d   1      -3.101  76.839 114.713  0.00  0.00    -0.276 OA
ATOM     17  H   LIG d   1      -0.092  77.758 114.430  0.00  0.00     0.149 HD
ENDBRANCH   6  13
BRANCH   5  18
ATOM     18  N   LIG d   1      -2.777  78.404 111.925  0.00  0.00     0.381 N 
ATOM     19  H   LIG d   1      -2.314  77.717 111.364  0.00  0.00    -0.090 HD
ATOM     20  H   LIG d   1      -3.408  78.919 111.336  0.00  0.00    -0.090 HD
ATOM     21  H   LIG d   1      -3.283  77.960 112.658  0.00  0.00    -0.090 HD
ENDBRANCH   5  18
BRANCH   3  22
ATOM     22  C   LIG d   1      -1.336  82.968 112.119  0.00  0.00     0.382 C 
ATOM     23  O   LIG d   1      -1.285  84.029 112.786  0.00  0.00    -0.241 OA
ATOM     24  O   LIG d   1      -1.321  83.024 110.874  0.00  0.00    -0.241 OA
ENDBRANCH   3  22
TORSDOF 7
ENDMDL
MODEL 7
REMARK VINA RESULT:      -4.4      2.325      4.222
REMARK  7 active torsions:
REMARK  status: ('A' for Active; 'I' for Inactive)
REMARK    1  A    between atoms: C_2  and  C_3 
REMARK    2  A    between atoms: C_3  and  O_6 
REMARK    3  A    between atoms: C_3  and  C_4 
REMARK    4  A    between atoms: C_7  and  O_6 
REMARK    5  A    between atoms: C_9  and  C_10 
REMARK    6  A    between atoms: N_15  and  C_14 
REMARK    7  A    between atoms: N_20  and  C_19 
REMARK       I    between atoms: C_22  and  N_20 
ROOT
ATOM      1  C   LIG d   1       0.775  81.306 113.014  0.00  0.00     0.161 C 
ATOM      2  C   LIG d   1      -0.533  80.980 112.617  0.00  0.00     0.016 C 
ATOM      3  C   LIG d   1      -1.689  81.504 113.240  0.00  0.00     0.038 C 
ATOM      4  C   LIG d   1      -1.614  82.512 114.213  0.00  0.00     0.028 C 
ATOM      5  C   LIG d   1      -0.306  82.503 114.996  0.00  0.00    -0.047 C 
ATOM      6  C   LIG d   1       0.876  82.489 113.999  0.00  0.00     0.091 C 
ENDROOT
BRANCH   1   7
ATOM      7  O   LIG d   1       1.592  81.550 111.852  0.00  0.00    -0.368 OA
BRANCH   7   8
ATOM      8  C   LIG d   1       1.681  82.929 111.414  0.00  0.00     0.119 C 
BRANCH   8   9
ATOM      9  C   LIG d   1       0.899  83.045 110.091  0.00  0.00     0.028 C 
ATOM     10  C   LIG d   1      -0.366  83.909 110.232  0.00  0.00     0.006 C 
ENDBRANCH   8   9
BRANCH   8  11
ATOM     11  C   LIG d   1       3.123  83.311 111.068  0.00  0.00     0.028 C 
ATOM     12  C   LIG d   1       3.449  83.120 109.578  0.00  0.00     0.006 C 
ENDBRANCH   8  11
ENDBRANCH   7   8
ENDBRANCH   1   7
BRANCH   6  13
ATOM     13  N   LIG d   1       2.192  82.395 114.682  0.00  0.00    -0.311 N 
ATOM     14  C   LIG d   1       2.488  81.454 115.577  0.00  0.00     0.210 C 
ATOM     15  C   LIG d   1       3.895  81.550 116.175  0.00  0.00     0.109 C 
ATOM     16  O   LIG d   1       1.731  80.529 115.908  0.00  0.00    -0.276 OA
ATOM     17  H   LIG d   1       2.877  83.087 114.449  0.00  0.00     0.149 HD
ENDBRANCH   6  13
BRANCH   5  18
ATOM     18  N   LIG d   1      -0.305  83.687 115.876  0.00  0.00     0.381 N 
ATOM     19  H   LIG d   1      -1.215  83.814 116.273  0.00  0.00    -0.090 HD
ATOM     20  H   LIG d   1      -0.083  84.499 115.329  0.00  0.00    -0.090 HD
ATOM     21  H   LIG d   1       0.368  83.572 116.602  0.00  0.00    -0.090 HD
ENDBRANCH   5  18
BRANCH   3  22
ATOM     22  C   LIG d   1      -2.935  80.989 112.920  0.00  0.00     0.382 C 
ATOM     23  O   LIG d   1      -3.800  81.725 112.388  0.00  0.00    -0.241 OA
ATOM     24  O   LIG d   1      -3.221  79.808 113.197  0.00  0.00    -0.241 OA
ENDBRANCH   3  22
TORSDOF 7
ENDMDL
MODEL 8
REMARK VINA RESULT:      -4.3      4.137      5.517
REMARK  7 active torsions:
REMARK  status: ('A' for Active; 'I' for Inactive)
REMARK    1  A    between atoms: C_2  and  C_3 
REMARK    2  A    between atoms: C_3  and  O_6 
REMARK    3  A    between atoms: C_3  and  C_4 
REMARK    4  A    between atoms: C_7  and  O_6 
REMARK    5  A    between atoms: C_9  and  C_10 
REMARK    6  A    between atoms: N_15  and  C_14 
REMARK    7  A    between atoms: N_20  and  C_19 
REMARK       I    between atoms: C_22  and  N_20 
ROOT
ATOM      1  C   LIG d   1      -1.221  80.371 115.752  0.00  0.00     0.161 C 
ATOM      2  C   LIG d   1      -1.917  81.161 114.822  0.00  0.00     0.016 C 
ATOM      3  C   LIG d   1      -2.444  80.656 113.611  0.00  0.00     0.038 C 
ATOM      4  C   LIG d   1      -2.440  79.285 113.316  0.00  0.00     0.028 C 
ATOM      5  C   LIG d   1      -1.303  78.523 113.989  0.00  0.00    -0.047 C 
ATOM      6  C   LIG d   1      -1.305  78.851 115.499  0.00  0.00     0.091 C 
ENDROOT
BRANCH   1   7
ATOM      7  O   LIG d   1      -1.665  80.682 117.087  0.00  0.00    -0.368 OA
BRANCH   7   8
ATOM      8  C   LIG d   1      -0.726  81.407 117.919  0.00  0.00     0.119 C 
BRANCH   8   9
ATOM      9  C   LIG d   1      -0.770  80.778 119.325  0.00  0.00     0.028 C 
ATOM     10  C   LIG d   1       0.602  80.249 119.774  0.00  0.00     0.006 C 
ENDBRANCH   8   9
BRANCH   8  11
ATOM     11  C   LIG d   1      -1.161  82.863 118.112  0.00  0.00     0.028 C 
ATOM     12  C   LIG d   1       0.023  83.843 118.121  0.00  0.00     0.006 C 
ENDBRANCH   8  11
ENDBRANCH   7   8
ENDBRANCH   1   7
BRANCH   6  13
ATOM     13  N   LIG d   1      -0.172  78.213 116.219  0.00  0.00    -0.311 N 
ATOM     14  C   LIG d   1      -0.318  77.513 117.343  0.00  0.00     0.210 C 
ATOM     15  C   LIG d   1       0.982  76.957 117.932  0.00  0.00     0.109 C 
ATOM     16  O   LIG d   1      -1.404  77.274 117.891  0.00  0.00    -0.276 OA
ATOM     17  H   LIG d   1       0.742  78.330 115.827  0.00  0.00     0.149 HD
ENDBRANCH   6  13
BRANCH   5  18
ATOM     18  N   LIG d   1      -1.500  77.088 113.708  0.00  0.00     0.381 N 
ATOM     19  H   LIG d   1      -0.697  76.721 113.239  0.00  0.00    -0.090 HD
ATOM     20  H   LIG d   1      -2.295  76.982 113.102  0.00  0.00    -0.090 HD
ATOM     21  H   LIG d   1      -1.653  76.593 114.559  0.00  0.00    -0.090 HD
ENDBRANCH   5  18
BRANCH   3  22
ATOM     22  C   LIG d   1      -2.946  81.533 112.662  0.00  0.00     0.382 C 
ATOM     23  O   LIG d   1      -2.173  82.321 112.066  0.00  0.00    -0.241 OA
ATOM     24  O   LIG d   1      -4.168  81.576 112.425  0.00  0.00    -0.241 OA
ENDBRANCH   3  22
TORSDOF 7
ENDMDL
MODEL 9
REMARK VINA RESULT:      -4.3      3.486      6.255
REMARK  7 active torsions:
REMARK  status: ('A' for Active; 'I' for Inactive)
REMARK    1  A    between atoms: C_2  and  C_3 
REMARK    2  A    between atoms: C_3  and  O_6 
REMARK    3  A    between atoms: C_3  and  C_4 
REMARK    4  A    between atoms: C_7  and  O_6 
REMARK    5  A    between atoms: C_9  and  C_10 
REMARK    6  A    between atoms: N_15  and  C_14 
REMARK    7  A    between atoms: N_20  and  C_19 
REMARK       I    between atoms: C_22  and  N_20 
ROOT
ATOM      1  C   LIG d   1      -2.792  81.609 113.918  0.00  0.00     0.161 C 
ATOM      2  C   LIG d   1      -2.148  81.874 112.698  0.00  0.00     0.016 C 
ATOM      3  C   LIG d   1      -0.990  82.677 112.588  0.00  0.00     0.038 C 
ATOM      4  C   LIG d   1      -0.305  83.150 113.717  0.00  0.00     0.028 C 
ATOM      5  C   LIG d   1      -1.200  83.329 114.938  0.00  0.00    -0.047 C 
ATOM      6  C   LIG d   1      -1.995  82.024 115.173  0.00  0.00     0.091 C 
ENDROOT
BRANCH   1   7
ATOM      7  O   LIG d   1      -3.148  80.214 113.990  0.00  0.00    -0.368 OA
BRANCH   7   8
ATOM      8  C   LIG d   1      -2.121  79.318 114.480  0.00  0.00     0.119 C 
BRANCH   8   9
ATOM      9  C   LIG d   1      -1.834  78.291 113.367  0.00  0.00     0.028 C 
ATOM     10  C   LIG d   1      -2.935  78.266 112.293  0.00  0.00     0.006 C 
ENDBRANCH   8   9
BRANCH   8  11
ATOM     11  C   LIG d   1      -2.620  78.496 115.672  0.00  0.00     0.028 C 
ATOM     12  C   LIG d   1      -1.937  77.124 115.777  0.00  0.00     0.006 C 
ENDBRANCH   8  11
ENDBRANCH   7   8
ENDBRANCH   1   7
BRANCH   6  13
ATOM     13  N   LIG d   1      -2.958  82.142 116.299  0.00  0.00    -0.311 N 
ATOM     14  C   LIG d   1      -2.676  81.773 117.547  0.00  0.00     0.210 C 
ATOM     15  C   LIG d   1      -3.818  81.961 118.550  0.00  0.00     0.109 C 
ATOM     16  O   LIG d   1      -1.578  81.338 117.925  0.00  0.00    -0.276 OA
ATOM     17  H   LIG d   1      -3.864  82.514 116.087  0.00  0.00     0.149 HD
ENDBRANCH   6  13
BRANCH   5  18
ATOM     18  N   LIG d   1      -0.335  83.692 116.076  0.00  0.00     0.381 N 
ATOM     19  H   LIG d   1      -0.087  84.659 116.018  0.00  0.00    -0.090 HD
ATOM     20  H   LIG d   1       0.508  83.147 116.030  0.00  0.00    -0.090 HD
ATOM     21  H   LIG d   1      -0.808  83.514 116.935  0.00  0.00    -0.090 HD
ENDBRANCH   5  18
BRANCH   3  22
ATOM     22  C   LIG d   1      -0.528  83.049 111.334  0.00  0.00     0.382 C 
ATOM     23  O   LIG d   1      -1.338  83.437 110.457  0.00  0.00    -0.241 OA
ATOM     24  O   LIG d   1       0.682  82.959 111.054  0.00  0.00    -0.241 OA
ENDBRANCH   3  22
TORSDOF 7
ENDMDL
