MODEL 1
REMARK VINA RESULT:      -5.3      0.000      0.000
REMARK  7 active torsions:
REMARK  status: ('A' for Active; 'I' for Inactive)
REMARK    1  A    between atoms: C_2  and  C_3 
REMARK    2  A    between atoms: C_3  and  O_6 
REMARK    3  A    between atoms: C_3  and  C_4 
REMARK    4  A    between atoms: C_7  and  O_6 
REMARK    5  A    between atoms: C_9  and  C_10 
REMARK    6  A    between atoms: N_15  and  C_14 
REMARK    7  A    between atoms: N_20  and  C_19 
REMARK       I    between atoms: C_22  and  N_20 
ROOT
ATOM      1  C   LIG d   1       0.695  82.645 112.201  0.00  0.00     0.161 C 
ATOM      2  C   LIG d   1      -0.510  82.175 112.751  0.00  0.00     0.016 C 
ATOM      3  C   LIG d   1      -1.039  80.892 112.483  0.00  0.00     0.038 C 
ATOM      4  C   LIG d   1      -0.319  79.928 111.762  0.00  0.00     0.028 C 
ATOM      5  C   LIG d   1       0.670  80.529 110.768  0.00  0.00    -0.047 C 
ATOM      6  C   LIG d   1       1.550  81.567 111.502  0.00  0.00     0.091 C 
ENDROOT
BRANCH   1   7
ATOM      7  O   LIG d   1       1.467  83.315 113.217  0.00  0.00    -0.368 OA
BRANCH   7   8
ATOM      8  C   LIG d   1       2.092  82.463 114.208  0.00  0.00     0.119 C 
BRANCH   8   9
ATOM      9  C   LIG d   1       1.717  83.016 115.597  0.00  0.00     0.028 C 
ATOM     10  C   LIG d   1       1.071  84.410 115.518  0.00  0.00     0.006 C 
ENDBRANCH   8   9
BRANCH   8  11
ATOM     11  C   LIG d   1       3.619  82.552 114.136  0.00  0.00     0.028 C 
ATOM     12  C   LIG d   1       4.110  83.862 113.500  0.00  0.00     0.006 C 
ENDBRANCH   8  11
ENDBRANCH   7   8
ENDBRANCH   1   7
BRANCH   6  13
ATOM     13  N   LIG d   1       2.488  82.264 110.584  0.00  0.00    -0.311 N 
ATOM     14  C   LIG d   1       3.758  81.897 110.416  0.00  0.00     0.210 C 
ATOM     15  C   LIG d   1       4.557  82.764 109.438  0.00  0.00     0.109 C 
ATOM     16  O   LIG d   1       4.288  80.918 110.961  0.00  0.00    -0.276 OA
ATOM     17  H   LIG d   1       2.131  83.051 110.078  0.00  0.00     0.149 HD
ENDBRANCH   6  13
BRANCH   5  18
ATOM     18  N   LIG d   1       1.448  79.419 110.187  0.00  0.00     0.381 N 
ATOM     19  H   LIG d   1       2.410  79.683 110.110  0.00  0.00    -0.090 HD
ATOM     20  H   LIG d   1       1.099  79.225 109.265  0.00  0.00    -0.090 HD
ATOM     21  H   LIG d   1       1.364  78.607 110.759  0.00  0.00    -0.090 HD
ENDBRANCH   5  18
BRANCH   3  22
ATOM     22  C   LIG d   1      -2.321  80.575 112.906  0.00  0.00     0.382 C 
ATOM     23  O   LIG d   1      -3.307  81.189 112.431  0.00  0.00    -0.241 OA
ATOM     24  O   LIG d   1      -2.501  79.715 113.788  0.00  0.00    -0.241 OA
ENDBRANCH   3  22
TORSDOF 7
ENDMDL
MODEL 2
REMARK VINA RESULT:      -5.1      1.629      4.878
REMARK  7 active torsions:
REMARK  status: ('A' for Active; 'I' for Inactive)
REMARK    1  A    between atoms: C_2  and  C_3 
REMARK    2  A    between atoms: C_3  and  O_6 
REMARK    3  A    between atoms: C_3  and  C_4 
REMARK    4  A    between atoms: C_7  and  O_6 
REMARK    5  A    between atoms: C_9  and  C_10 
REMARK    6  A    between atoms: N_15  and  C_14 
REMARK    7  A    between atoms: N_20  and  C_19 
REMARK       I    between atoms: C_22  and  N_20 
ROOT
ATOM      1  C   LIG d   1       1.518  81.234 112.997  0.00  0.00     0.161 C 
ATOM      2  C   LIG d   1       2.647  81.925 112.528  0.00  0.00     0.016 C 
ATOM      3  C   LIG d   1       2.944  82.089 111.155  0.00  0.00     0.038 C 
ATOM      4  C   LIG d   1       2.046  81.701 110.150  0.00  0.00     0.028 C 
ATOM      5  C   LIG d   1       1.134  80.551 110.565  0.00  0.00    -0.047 C 
ATOM      6  C   LIG d   1       0.469  80.900 111.916  0.00  0.00     0.091 C 
ENDROOT
BRANCH   1   7
ATOM      7  O   LIG d   1       0.908  81.971 114.076  0.00  0.00    -0.368 OA
BRANCH   7   8
ATOM      8  C   LIG d   1       1.038  83.412 114.017  0.00  0.00     0.119 C 
BRANCH   8   9
ATOM      9  C   LIG d   1       1.324  83.910 115.447  0.00  0.00     0.028 C 
ATOM     10  C   LIG d   1       2.089  82.874 116.288  0.00  0.00     0.006 C 
ENDBRANCH   8   9
BRANCH   8  11
ATOM     11  C   LIG d   1      -0.282  84.075 113.613  0.00  0.00     0.028 C 
ATOM     12  C   LIG d   1      -0.284  84.559 112.155  0.00  0.00     0.006 C 
ENDBRANCH   8  11
ENDBRANCH   7   8
ENDBRANCH   1   7
BRANCH   6  13
ATOM     13  N   LIG d   1      -0.375  79.792 112.436  0.00  0.00    -0.311 N 
ATOM     14  C   LIG d   1      -1.685  79.905 112.644  0.00  0.00     0.210 C 
ATOM     15  C   LIG d   1      -2.361  78.649 113.203  0.00  0.00     0.109 C 
ATOM     16  O   LIG d   1      -2.358  80.915 112.390  0.00  0.00    -0.276 OA
ATOM     17  H   LIG d   1       0.084  78.926 112.639  0.00  0.00     0.149 HD
ENDBRANCH   6  13
BRANCH   5  18
ATOM     18  N   LIG d   1       0.159  80.341 109.478  0.00  0.00     0.381 N 
ATOM     19  H   LIG d   1       0.140  81.143 108.881  0.00  0.00    -0.090 HD
ATOM     20  H   LIG d   1      -0.755  80.224 109.879  0.00  0.00    -0.090 HD
ATOM     21  H   LIG d   1       0.405  79.531 108.952  0.00  0.00    -0.090 HD
ENDBRANCH   5  18
BRANCH   3  22
ATOM     22  C   LIG d   1       4.171  82.613 110.775  0.00  0.00     0.382 C 
ATOM     23  O   LIG d   1       4.801  82.101 109.818  0.00  0.00    -0.241 OA
ATOM     24  O   LIG d   1       4.676  83.561 111.405  0.00  0.00    -0.241 OA
ENDBRANCH   3  22
TORSDOF 7
ENDMDL
MODEL 3
REMARK VINA RESULT:      -4.8      4.686      6.897
REMARK  7 active torsions:
REMARK  status: ('A' for Active; 'I' for Inactive)
REMARK    1  A    between atoms: C_2  and  C_3 
REMARK    2  A    between atoms: C_3  and  O_6 
REMARK    3  A    between atoms: C_3  and  C_4 
REMARK    4  A    between atoms: C_7  and  O_6 
REMARK    5  A    between atoms: C_9  and  C_10 
REMARK    6  A    between atoms: N_15  and  C_14 
REMARK    7  A    between atoms: N_20  and  C_19 
REMARK       I    between atoms: C_22  and  N_20 
ROOT
ATOM      1  C   LIG d   1      -0.927  77.627 114.691  0.00  0.00     0.161 C 
ATOM      2  C   LIG d   1      -2.080  76.982 114.215  0.00  0.00     0.016 C 
ATOM      3  C   LIG d   1      -2.954  76.240 115.042  0.00  0.00     0.038 C 
ATOM      4  C   LIG d   1      -2.815  76.220 116.438  0.00  0.00     0.028 C 
ATOM      5  C   LIG d   1      -1.380  76.439 116.907  0.00  0.00    -0.047 C 
ATOM      6  C   LIG d   1      -0.819  77.709 116.228  0.00  0.00     0.091 C 
ENDROOT
BRANCH   1   7
ATOM      7  O   LIG d   1      -0.829  78.943 114.111  0.00  0.00    -0.368 OA
BRANCH   7   8
ATOM      8  C   LIG d   1      -1.705  79.212 112.989  0.00  0.00     0.119 C 
BRANCH   8   9
ATOM      9  C   LIG d   1      -0.840  79.204 111.714  0.00  0.00     0.028 C 
ATOM     10  C   LIG d   1      -1.232  78.074 110.746  0.00  0.00     0.006 C 
ENDBRANCH   8   9
BRANCH   8  11
ATOM     11  C   LIG d   1      -2.296  80.623 113.068  0.00  0.00     0.028 C 
ATOM     12  C   LIG d   1      -1.268  81.719 112.745  0.00  0.00     0.006 C 
ENDBRANCH   8  11
ENDBRANCH   7   8
ENDBRANCH   1   7
BRANCH   6  13
ATOM     13  N   LIG d   1       0.608  77.949 116.566  0.00  0.00    -0.311 N 
ATOM     14  C   LIG d   1       1.002  78.658 117.623  0.00  0.00     0.210 C 
ATOM     15  C   LIG d   1       2.519  78.801 117.777  0.00  0.00     0.109 C 
ATOM     16  O   LIG d   1       0.239  79.156 118.464  0.00  0.00    -0.276 OA
ATOM     17  H   LIG d   1       1.295  77.555 115.953  0.00  0.00     0.149 HD
ENDBRANCH   6  13
BRANCH   5  18
ATOM     18  N   LIG d   1      -1.401  76.531 118.379  0.00  0.00     0.381 N 
ATOM     19  H   LIG d   1      -1.619  75.637 118.771  0.00  0.00    -0.090 HD
ATOM     20  H   LIG d   1      -2.118  77.179 118.653  0.00  0.00    -0.090 HD
ATOM     21  H   LIG d   1      -0.516  76.842 118.713  0.00  0.00    -0.090 HD
ENDBRANCH   5  18
BRANCH   3  22
ATOM     22  C   LIG d   1      -3.959  75.476 114.470  0.00  0.00     0.382 C 
ATOM     23  O   LIG d   1      -4.360  74.435 115.045  0.00  0.00    -0.241 OA
ATOM     24  O   LIG d   1      -4.439  75.789 113.364  0.00  0.00    -0.241 OA
ENDBRANCH   3  22
TORSDOF 7
ENDMDL
MODEL 4
REMARK VINA RESULT:      -4.4      1.568      4.698
REMARK  7 active torsions:
REMARK  status: ('A' for Active; 'I' for Inactive)
REMARK    1  A    between atoms: C_2  and  C_3 
REMARK    2  A    between atoms: C_3  and  O_6 
REMARK    3  A    between atoms: C_3  and  C_4 
REMARK    4  A    between atoms: C_7  and  O_6 
REMARK    5  A    between atoms: C_9  and  C_10 
REMARK    6  A    between atoms: N_15  and  C_14 
REMARK    7  A    between atoms: N_20  and  C_19 
REMARK       I    between atoms: C_22  and  N_20 
ROOT
ATOM      1  C   LIG d   1       1.984  81.629 112.762  0.00  0.00     0.161 C 
ATOM      2  C   LIG d   1       3.032  82.228 112.043  0.00  0.00     0.016 C 
ATOM      3  C   LIG d   1       3.091  82.253 110.630  0.00  0.00     0.038 C 
ATOM      4  C   LIG d   1       2.024  81.808 109.835  0.00  0.00     0.028 C 
ATOM      5  C   LIG d   1       1.171  80.739 110.509  0.00  0.00    -0.047 C 
ATOM      6  C   LIG d   1       0.757  81.238 111.912  0.00  0.00     0.091 C 
ENDROOT
BRANCH   1   7
ATOM      7  O   LIG d   1       1.587  82.486 113.851  0.00  0.00    -0.368 OA
BRANCH   7   8
ATOM      8  C   LIG d   1       1.994  82.063 115.176  0.00  0.00     0.119 C 
BRANCH   8   9
ATOM      9  C   LIG d   1       1.982  83.308 116.083  0.00  0.00     0.028 C 
ATOM     10  C   LIG d   1       1.114  84.442 115.512  0.00  0.00     0.006 C 
ENDBRANCH   8   9
BRANCH   8  11
ATOM     11  C   LIG d   1       3.445  81.571 115.182  0.00  0.00     0.028 C 
ATOM     12  C   LIG d   1       4.435  82.644 115.662  0.00  0.00     0.006 C 
ENDBRANCH   8  11
ENDBRANCH   7   8
ENDBRANCH   1   7
BRANCH   6  13
ATOM     13  N   LIG d   1      -0.010  80.218 112.673  0.00  0.00    -0.311 N 
ATOM     14  C   LIG d   1      -1.341  80.180 112.713  0.00  0.00     0.210 C 
ATOM     15  C   LIG d   1      -1.931  79.058 113.573  0.00  0.00     0.109 C 
ATOM     16  O   LIG d   1      -2.089  80.950 112.093  0.00  0.00    -0.276 OA
ATOM     17  H   LIG d   1       0.518  79.535 113.181  0.00  0.00     0.149 HD
ENDBRANCH   6  13
BRANCH   5  18
ATOM     18  N   LIG d   1       0.019  80.468 109.629  0.00  0.00     0.381 N 
ATOM     19  H   LIG d   1      -0.311  81.324 109.229  0.00  0.00    -0.090 HD
ATOM     20  H   LIG d   1      -0.722  80.069 110.177  0.00  0.00    -0.090 HD
ATOM     21  H   LIG d   1       0.284  79.836 108.906  0.00  0.00    -0.090 HD
ENDBRANCH   5  18
BRANCH   3  22
ATOM     22  C   LIG d   1       4.246  82.689 109.999  0.00  0.00     0.382 C 
ATOM     23  O   LIG d   1       4.514  83.914 109.959  0.00  0.00    -0.241 OA
ATOM     24  O   LIG d   1       5.001  81.877 109.430  0.00  0.00    -0.241 OA
ENDBRANCH   3  22
TORSDOF 7
ENDMDL
MODEL 5
REMARK VINA RESULT:      -4.2      1.770      2.156
REMARK  7 active torsions:
REMARK  status: ('A' for Active; 'I' for Inactive)
REMARK    1  A    between atoms: C_2  and  C_3 
REMARK    2  A    between atoms: C_3  and  O_6 
REMARK    3  A    between atoms: C_3  and  C_4 
REMARK    4  A    between atoms: C_7  and  O_6 
REMARK    5  A    between atoms: C_9  and  C_10 
REMARK    6  A    between atoms: N_15  and  C_14 
REMARK    7  A    between atoms: N_20  and  C_19 
REMARK       I    between atoms: C_22  and  N_20 
ROOT
ATOM      1  C   LIG d   1       0.061  80.690 112.714  0.00  0.00     0.161 C 
ATOM      2  C   LIG d   1      -0.794  79.868 113.467  0.00  0.00     0.016 C 
ATOM      3  C   LIG d   1      -1.442  78.728 112.938  0.00  0.00     0.038 C 
ATOM      4  C   LIG d   1      -1.158  78.243 111.653  0.00  0.00     0.028 C 
ATOM      5  C   LIG d   1      -0.687  79.326 110.687  0.00  0.00    -0.047 C 
ATOM      6  C   LIG d   1       0.470  80.114 111.343  0.00  0.00     0.091 C 
ENDROOT
BRANCH   1   7
ATOM      7  O   LIG d   1       1.231  81.018 113.489  0.00  0.00    -0.368 OA
BRANCH   7   8
ATOM      8  C   LIG d   1       1.140  82.210 114.308  0.00  0.00     0.119 C 
BRANCH   8   9
ATOM      9  C   LIG d   1       0.892  83.402 113.363  0.00  0.00     0.028 C 
ATOM     10  C   LIG d   1      -0.380  84.185 113.729  0.00  0.00     0.006 C 
ENDBRANCH   8   9
BRANCH   8  11
ATOM     11  C   LIG d   1       2.472  82.512 115.001  0.00  0.00     0.028 C 
ATOM     12  C   LIG d   1       3.653  81.747 114.383  0.00  0.00     0.006 C 
ENDBRANCH   8  11
ENDBRANCH   7   8
ENDBRANCH   1   7
BRANCH   6  13
ATOM     13  N   LIG d   1       0.933  81.246 110.499  0.00  0.00    -0.311 N 
ATOM     14  C   LIG d   1       2.218  81.552 110.323  0.00  0.00     0.210 C 
ATOM     15  C   LIG d   1       2.477  82.770 109.431  0.00  0.00     0.109 C 
ATOM     16  O   LIG d   1       3.168  80.910 110.795  0.00  0.00    -0.276 OA
ATOM     17  H   LIG d   1       0.229  81.801 110.053  0.00  0.00     0.149 HD
ENDBRANCH   6  13
BRANCH   5  18
ATOM     18  N   LIG d   1      -0.296  78.662 109.430  0.00  0.00     0.381 N 
ATOM     19  H   LIG d   1      -0.988  78.831 108.728  0.00  0.00    -0.090 HD
ATOM     20  H   LIG d   1      -0.243  77.671 109.588  0.00  0.00    -0.090 HD
ATOM     21  H   LIG d   1       0.589  79.004 109.125  0.00  0.00    -0.090 HD
ENDBRANCH   5  18
BRANCH   3  22
ATOM     22  C   LIG d   1      -2.417  78.084 113.685  0.00  0.00     0.382 C 
ATOM     23  O   LIG d   1      -3.071  77.140 113.180  0.00  0.00    -0.241 OA
ATOM     24  O   LIG d   1      -2.680  78.463 114.842  0.00  0.00    -0.241 OA
ENDBRANCH   3  22
TORSDOF 7
ENDMDL
MODEL 6
REMARK VINA RESULT:      -4.0      2.741      5.313
REMARK  7 active torsions:
REMARK  status: ('A' for Active; 'I' for Inactive)
REMARK    1  A    between atoms: C_2  and  C_3 
REMARK    2  A    between atoms: C_3  and  O_6 
REMARK    3  A    between atoms: C_3  and  C_4 
REMARK    4  A    between atoms: C_7  and  O_6 
REMARK    5  A    between atoms: C_9  and  C_10 
REMARK    6  A    between atoms: N_15  and  C_14 
REMARK    7  A    between atoms: N_20  and  C_19 
REMARK       I    between atoms: C_22  and  N_20 
ROOT
ATOM      1  C   LIG d   1       0.134  82.232 113.385  0.00  0.00     0.161 C 
ATOM      2  C   LIG d   1      -0.097  82.806 112.124  0.00  0.00     0.016 C 
ATOM      3  C   LIG d   1       0.787  83.726 111.515  0.00  0.00     0.038 C 
ATOM      4  C   LIG d   1       2.045  84.021 112.062  0.00  0.00     0.028 C 
ATOM      5  C   LIG d   1       2.100  83.854 113.577  0.00  0.00    -0.047 C 
ATOM      6  C   LIG d   1       1.553  82.456 113.948  0.00  0.00     0.091 C 
ENDROOT
BRANCH   1   7
ATOM      7  O   LIG d   1      -0.173  80.824 113.345  0.00  0.00    -0.368 OA
BRANCH   7   8
ATOM      8  C   LIG d   1      -0.984  80.380 112.229  0.00  0.00     0.119 C 
BRANCH   8   9
ATOM      9  C   LIG d   1      -2.230  79.685 112.811  0.00  0.00     0.028 C 
ATOM     10  C   LIG d   1      -2.528  78.343 112.122  0.00  0.00     0.006 C 
ENDBRANCH   8   9
BRANCH   8  11
ATOM     11  C   LIG d   1      -0.264  79.305 111.410  0.00  0.00     0.028 C 
ATOM     12  C   LIG d   1       0.523  79.886 110.225  0.00  0.00     0.006 C 
ENDBRANCH   8  11
ENDBRANCH   7   8
ENDBRANCH   1   7
BRANCH   6  13
ATOM     13  N   LIG d   1       1.493  82.242 115.418  0.00  0.00    -0.311 N 
ATOM     14  C   LIG d   1       2.477  81.679 116.117  0.00  0.00     0.210 C 
ATOM     15  C   LIG d   1       2.203  81.536 117.618  0.00  0.00     0.109 C 
ATOM     16  O   LIG d   1       3.563  81.314 115.643  0.00  0.00    -0.276 OA
ATOM     17  H   LIG d   1       0.660  82.538 115.888  0.00  0.00     0.149 HD
ENDBRANCH   6  13
BRANCH   5  18
ATOM     18  N   LIG d   1       3.499  84.058 113.998  0.00  0.00     0.381 N 
ATOM     19  H   LIG d   1       3.908  84.798 113.463  0.00  0.00    -0.090 HD
ATOM     20  H   LIG d   1       4.018  83.216 113.820  0.00  0.00    -0.090 HD
ATOM     21  H   LIG d   1       3.534  84.280 114.968  0.00  0.00    -0.090 HD
ENDBRANCH   5  18
BRANCH   3  22
ATOM     22  C   LIG d   1       0.398  84.393 110.363  0.00  0.00     0.382 C 
ATOM     23  O   LIG d   1      -0.810  84.679 110.182  0.00  0.00    -0.241 OA
ATOM     24  O   LIG d   1       1.233  84.672 109.482  0.00  0.00    -0.241 OA
ENDBRANCH   3  22
TORSDOF 7
ENDMDL
MODEL 7
REMARK VINA RESULT:      -4.0      2.339      6.082
REMARK  7 active torsions:
REMARK  status: ('A' for Active; 'I' for Inactive)
REMARK    1  A    between atoms: C_2  and  C_3 
REMARK    2  A    between atoms: C_3  and  O_6 
REMARK    3  A    between atoms: C_3  and  C_4 
REMARK    4  A    between atoms: C_7  and  O_6 
REMARK    5  A    between atoms: C_9  and  C_10 
REMARK    6  A    between atoms: N_15  and  C_14 
REMARK    7  A    between atoms: N_20  and  C_19 
REMARK       I    between atoms: C_22  and  N_20 
ROOT
ATOM      1  C   LIG d   1       0.834  81.982 110.589  0.00  0.00     0.161 C 
ATOM      2  C   LIG d   1       2.095  82.555 110.354  0.00  0.00     0.016 C 
ATOM      3  C   LIG d   1       3.011  82.869 111.384  0.00  0.00     0.038 C 
ATOM      4  C   LIG d   1       2.788  82.488 112.716  0.00  0.00     0.028 C 
ATOM      5  C   LIG d   1       1.311  82.361 113.070  0.00  0.00    -0.047 C 
ATOM      6  C   LIG d   1       0.619  81.458 112.024  0.00  0.00     0.091 C 
ENDROOT
BRANCH   1   7
ATOM      7  O   LIG d   1       0.588  80.934 109.630  0.00  0.00    -0.368 OA
BRANCH   7   8
ATOM      8  C   LIG d   1       0.676  79.578 110.133  0.00  0.00     0.119 C 
BRANCH   8   9
ATOM      9  C   LIG d   1       1.868  78.900 109.430  0.00  0.00     0.028 C 
ATOM     10  C   LIG d   1       3.208  79.575 109.766  0.00  0.00     0.006 C 
ENDBRANCH   8   9
BRANCH   8  11
ATOM     11  C   LIG d   1      -0.552  78.755 109.732  0.00  0.00     0.028 C 
ATOM     12  C   LIG d   1      -0.816  77.577 110.683  0.00  0.00     0.006 C 
ENDBRANCH   8  11
ENDBRANCH   7   8
ENDBRANCH   1   7
BRANCH   6  13
ATOM     13  N   LIG d   1      -0.846  81.349 112.248  0.00  0.00    -0.311 N 
ATOM     14  C   LIG d   1      -1.406  80.390 112.984  0.00  0.00     0.210 C 
ATOM     15  C   LIG d   1      -2.934  80.450 113.070  0.00  0.00     0.109 C 
ATOM     16  O   LIG d   1      -0.779  79.515 113.601  0.00  0.00    -0.276 OA
ATOM     17  H   LIG d   1      -1.427  82.037 111.811  0.00  0.00     0.149 HD
ENDBRANCH   6  13
BRANCH   5  18
ATOM     18  N   LIG d   1       1.226  81.827 114.443  0.00  0.00     0.381 N 
ATOM     19  H   LIG d   1       1.129  82.579 115.094  0.00  0.00    -0.090 HD
ATOM     20  H   LIG d   1       2.076  81.335 114.653  0.00  0.00    -0.090 HD
ATOM     21  H   LIG d   1       0.448  81.209 114.520  0.00  0.00    -0.090 HD
ENDBRANCH   5  18
BRANCH   3  22
ATOM     22  C   LIG d   1       4.148  83.607 111.092  0.00  0.00     0.382 C 
ATOM     23  O   LIG d   1       4.373  84.680 111.701  0.00  0.00    -0.241 OA
ATOM     24  O   LIG d   1       4.929  83.235 110.195  0.00  0.00    -0.241 OA
ENDBRANCH   3  22
TORSDOF 7
ENDMDL
MODEL 8
REMARK VINA RESULT:      -3.8      5.948      7.676
REMARK  7 active torsions:
REMARK  status: ('A' for Active; 'I' for Inactive)
REMARK    1  A    between atoms: C_2  and  C_3 
REMARK    2  A    between atoms: C_3  and  O_6 
REMARK    3  A    between atoms: C_3  and  C_4 
REMARK    4  A    between atoms: C_7  and  O_6 
REMARK    5  A    between atoms: C_9  and  C_10 
REMARK    6  A    between atoms: N_15  and  C_14 
REMARK    7  A    between atoms: N_20  and  C_19 
REMARK       I    between atoms: C_22  and  N_20 
ROOT
ATOM      1  C   LIG d   1      -0.286  77.173 116.313  0.00  0.00     0.161 C 
ATOM      2  C   LIG d   1      -0.708  77.765 115.111  0.00  0.00     0.016 C 
ATOM      3  C   LIG d   1      -1.786  77.276 114.339  0.00  0.00     0.038 C 
ATOM      4  C   LIG d   1      -2.618  76.243 114.797  0.00  0.00     0.028 C 
ATOM      5  C   LIG d   1      -1.923  75.290 115.763  0.00  0.00    -0.047 C 
ATOM      6  C   LIG d   1      -1.251  76.114 116.885  0.00  0.00     0.091 C 
ENDROOT
BRANCH   1   7
ATOM      7  O   LIG d   1      -0.024  78.195 117.295  0.00  0.00    -0.368 OA
BRANCH   7   8
ATOM      8  C   LIG d   1       1.347  78.654 117.387  0.00  0.00     0.119 C 
BRANCH   8   9
ATOM      9  C   LIG d   1       2.201  77.468 117.875  0.00  0.00     0.028 C 
ATOM     10  C   LIG d   1       3.708  77.722 117.706  0.00  0.00     0.006 C 
ENDBRANCH   8   9
BRANCH   8  11
ATOM     11  C   LIG d   1       1.502  79.735 118.462  0.00  0.00     0.028 C 
ATOM     12  C   LIG d   1       0.342  79.743 119.470  0.00  0.00     0.006 C 
ENDBRANCH   8  11
ENDBRANCH   7   8
ENDBRANCH   1   7
BRANCH   6  13
ATOM     13  N   LIG d   1      -0.478  75.263 117.828  0.00  0.00    -0.311 N 
ATOM     14  C   LIG d   1      -0.447  75.468 119.143  0.00  0.00     0.210 C 
ATOM     15  C   LIG d   1       0.428  74.487 119.930  0.00  0.00     0.109 C 
ATOM     16  O   LIG d   1      -1.088  76.348 119.737  0.00  0.00    -0.276 OA
ATOM     17  H   LIG d   1       0.046  74.506 117.434  0.00  0.00     0.149 HD
ENDBRANCH   6  13
BRANCH   5  18
ATOM     18  N   LIG d   1      -2.940  74.347 116.268  0.00  0.00     0.381 N 
ATOM     19  H   LIG d   1      -2.804  74.195 117.247  0.00  0.00    -0.090 HD
ATOM     20  H   LIG d   1      -2.832  73.468 115.794  0.00  0.00    -0.090 HD
ATOM     21  H   LIG d   1      -3.853  74.711 116.105  0.00  0.00    -0.090 HD
ENDBRANCH   5  18
BRANCH   3  22
ATOM     22  C   LIG d   1      -2.017  77.795 113.074  0.00  0.00     0.382 C 
ATOM     23  O   LIG d   1      -2.688  78.847 112.941  0.00  0.00    -0.241 OA
ATOM     24  O   LIG d   1      -1.601  77.200 112.061  0.00  0.00    -0.241 OA
ENDBRANCH   3  22
TORSDOF 7
ENDMDL
MODEL 9
REMARK VINA RESULT:      -3.7      2.574      4.512
REMARK  7 active torsions:
REMARK  status: ('A' for Active; 'I' for Inactive)
REMARK    1  A    between atoms: C_2  and  C_3 
REMARK    2  A    between atoms: C_3  and  O_6 
REMARK    3  A    between atoms: C_3  and  C_4 
REMARK    4  A    between atoms: C_7  and  O_6 
REMARK    5  A    between atoms: C_9  and  C_10 
REMARK    6  A    between atoms: N_15  and  C_14 
REMARK    7  A    between atoms: N_20  and  C_19 
REMARK       I    between atoms: C_22  and  N_20 
ROOT
ATOM      1  C   LIG d   1       2.537  83.106 112.444  0.00  0.00     0.161 C 
ATOM      2  C   LIG d   1       3.182  82.117 111.683  0.00  0.00     0.016 C 
ATOM      3  C   LIG d   1       2.739  81.704 110.405  0.00  0.00     0.038 C 
ATOM      4  C   LIG d   1       1.700  82.365 109.733  0.00  0.00     0.028 C 
ATOM      5  C   LIG d   1       0.699  83.032 110.670  0.00  0.00    -0.047 C 
ATOM      6  C   LIG d   1       1.468  83.915 111.679  0.00  0.00     0.091 C 
ENDROOT
BRANCH   1   7
ATOM      7  O   LIG d   1       3.515  83.991 113.025  0.00  0.00    -0.368 OA
BRANCH   7   8
ATOM      8  C   LIG d   1       3.991  83.636 114.346  0.00  0.00     0.119 C 
BRANCH   8   9
ATOM      9  C   LIG d   1       2.941  84.125 115.363  0.00  0.00     0.028 C 
ATOM     10  C   LIG d   1       2.217  82.963 116.064  0.00  0.00     0.006 C 
ENDBRANCH   8   9
BRANCH   8  11
ATOM     11  C   LIG d   1       5.277  84.390 114.697  0.00  0.00     0.028 C 
ATOM     12  C   LIG d   1       5.480  84.549 116.212  0.00  0.00     0.006 C 
ENDBRANCH   8  11
ENDBRANCH   7   8
ENDBRANCH   1   7
BRANCH   6  13
ATOM     13  N   LIG d   1       0.571  84.538 112.686  0.00  0.00    -0.311 N 
ATOM     14  C   LIG d   1      -0.222  83.838 113.496  0.00  0.00     0.210 C 
ATOM     15  C   LIG d   1      -1.081  84.678 114.445  0.00  0.00     0.109 C 
ATOM     16  O   LIG d   1      -0.271  82.599 113.540  0.00  0.00    -0.276 OA
ATOM     17  H   LIG d   1       0.570  85.538 112.740  0.00  0.00     0.149 HD
ENDBRANCH   6  13
BRANCH   5  18
ATOM     18  N   LIG d   1      -0.249  83.797 109.838  0.00  0.00     0.381 N 
ATOM     19  H   LIG d   1       0.166  84.664 109.562  0.00  0.00    -0.090 HD
ATOM     20  H   LIG d   1      -1.070  83.999 110.382  0.00  0.00    -0.090 HD
ATOM     21  H   LIG d   1      -0.498  83.268 109.031  0.00  0.00    -0.090 HD
ENDBRANCH   5  18
BRANCH   3  22
ATOM     22  C   LIG d   1       3.311  80.594 109.805  0.00  0.00     0.382 C 
ATOM     23  O   LIG d   1       2.646  79.538 109.675  0.00  0.00    -0.241 OA
ATOM     24  O   LIG d   1       4.499  80.620 109.430  0.00  0.00    -0.241 OA
ENDBRANCH   3  22
TORSDOF 7
ENDMDL
