MODEL 1
REMARK VINA RESULT:      -5.1      0.000      0.000
REMARK  7 active torsions:
REMARK  status: ('A' for Active; 'I' for Inactive)
REMARK    1  A    between atoms: C_2  and  C_3 
REMARK    2  A    between atoms: C_3  and  O_6 
REMARK    3  A    between atoms: C_3  and  C_4 
REMARK    4  A    between atoms: C_7  and  O_6 
REMARK    5  A    between atoms: C_9  and  C_10 
REMARK    6  A    between atoms: N_15  and  C_14 
REMARK    7  A    between atoms: N_20  and  C_19 
REMARK       I    between atoms: C_22  and  N_20 
ROOT
ATOM      1  C   LIG d   1      -0.227  80.400 111.747  0.00  0.00     0.161 C 
ATOM      2  C   LIG d   1      -1.278  79.541 111.382  0.00  0.00     0.016 C 
ATOM      3  C   LIG d   1      -2.137  78.921 112.318  0.00  0.00     0.038 C 
ATOM      4  C   LIG d   1      -2.099  79.239 113.684  0.00  0.00     0.028 C 
ATOM      5  C   LIG d   1      -0.729  79.714 114.157  0.00  0.00    -0.047 C 
ATOM      6  C   LIG d   1      -0.240  80.846 113.224  0.00  0.00     0.091 C 
ENDROOT
BRANCH   1   7
ATOM      7  O   LIG d   1      -0.211  81.549 110.877  0.00  0.00    -0.368 OA
BRANCH   7   8
ATOM      8  C   LIG d   1       0.821  81.563 109.860  0.00  0.00     0.119 C 
BRANCH   8   9
ATOM      9  C   LIG d   1       1.873  80.508 110.253  0.00  0.00     0.028 C 
ATOM     10  C   LIG d   1       3.271  81.117 110.450  0.00  0.00     0.006 C 
ENDBRANCH   8   9
BRANCH   8  11
ATOM     11  C   LIG d   1       1.572  82.898 109.847  0.00  0.00     0.028 C 
ATOM     12  C   LIG d   1       0.635  84.110 109.977  0.00  0.00     0.006 C 
ENDBRANCH   8  11
ENDBRANCH   7   8
ENDBRANCH   1   7
BRANCH   6  13
ATOM     13  N   LIG d   1       1.130  81.310 113.566  0.00  0.00    -0.311 N 
ATOM     14  C   LIG d   1       1.475  82.595 113.621  0.00  0.00     0.210 C 
ATOM     15  C   LIG d   1       2.944  82.855 113.973  0.00  0.00     0.109 C 
ATOM     16  O   LIG d   1       0.698  83.545 113.444  0.00  0.00    -0.276 OA
ATOM     17  H   LIG d   1       1.816  80.606 113.755  0.00  0.00     0.149 HD
ENDBRANCH   6  13
BRANCH   5  18
ATOM     18  N   LIG d   1      -0.866  80.142 115.562  0.00  0.00     0.381 N 
ATOM     19  H   LIG d   1      -1.501  79.534 116.041  0.00  0.00    -0.090 HD
ATOM     20  H   LIG d   1      -1.244  81.073 115.583  0.00  0.00    -0.090 HD
ATOM     21  H   LIG d   1       0.023  80.126 116.012  0.00  0.00    -0.090 HD
ENDBRANCH   5  18
BRANCH   3  22
ATOM     22  C   LIG d   1      -3.022  77.941 111.895  0.00  0.00     0.382 C 
ATOM     23  O   LIG d   1      -3.907  77.516 112.676  0.00  0.00    -0.241 OA
ATOM     24  O   LIG d   1      -2.918  77.445 110.757  0.00  0.00    -0.241 OA
ENDBRANCH   3  22
TORSDOF 7
ENDMDL
MODEL 2
REMARK VINA RESULT:      -4.8      2.576      6.156
REMARK  7 active torsions:
REMARK  status: ('A' for Active; 'I' for Inactive)
REMARK    1  A    between atoms: C_2  and  C_3 
REMARK    2  A    between atoms: C_3  and  O_6 
REMARK    3  A    between atoms: C_3  and  C_4 
REMARK    4  A    between atoms: C_7  and  O_6 
REMARK    5  A    between atoms: C_9  and  C_10 
REMARK    6  A    between atoms: N_15  and  C_14 
REMARK    7  A    between atoms: N_20  and  C_19 
REMARK       I    between atoms: C_22  and  N_20 
ROOT
ATOM      1  C   LIG d   1       1.825  82.095 112.805  0.00  0.00     0.161 C 
ATOM      2  C   LIG d   1       2.851  82.821 112.179  0.00  0.00     0.016 C 
ATOM      3  C   LIG d   1       2.957  82.968 110.777  0.00  0.00     0.038 C 
ATOM      4  C   LIG d   1       1.950  82.523 109.907  0.00  0.00     0.028 C 
ATOM      5  C   LIG d   1       1.152  81.346 110.457  0.00  0.00    -0.047 C 
ATOM      6  C   LIG d   1       0.657  81.696 111.879  0.00  0.00     0.091 C 
ENDROOT
BRANCH   1   7
ATOM      7  O   LIG d   1       1.333  82.828 113.944  0.00  0.00    -0.368 OA
BRANCH   7   8
ATOM      8  C   LIG d   1       2.323  83.224 114.925  0.00  0.00     0.119 C 
BRANCH   8   9
ATOM      9  C   LIG d   1       2.315  82.165 116.045  0.00  0.00     0.028 C 
ATOM     10  C   LIG d   1       3.448  81.137 115.888  0.00  0.00     0.006 C 
ENDBRANCH   8   9
BRANCH   8  11
ATOM     11  C   LIG d   1       1.938  84.539 115.607  0.00  0.00     0.028 C 
ATOM     12  C   LIG d   1       1.579  84.358 117.091  0.00  0.00     0.006 C 
ENDBRANCH   8  11
ENDBRANCH   7   8
ENDBRANCH   1   7
BRANCH   6  13
ATOM     13  N   LIG d   1      -0.062  80.566 112.523  0.00  0.00    -0.311 N 
ATOM     14  C   LIG d   1      -1.389  80.479 112.581  0.00  0.00     0.210 C 
ATOM     15  C   LIG d   1      -1.926  79.242 113.308  0.00  0.00     0.109 C 
ATOM     16  O   LIG d   1      -2.174  81.293 112.071  0.00  0.00    -0.276 OA
ATOM     17  H   LIG d   1       0.498  79.845 112.936  0.00  0.00     0.149 HD
ENDBRANCH   6  13
BRANCH   5  18
ATOM     18  N   LIG d   1       0.052  81.073 109.513  0.00  0.00     0.381 N 
ATOM     19  H   LIG d   1      -0.772  81.562 109.802  0.00  0.00    -0.090 HD
ATOM     20  H   LIG d   1      -0.147  80.088 109.521  0.00  0.00    -0.090 HD
ATOM     21  H   LIG d   1       0.312  81.359 108.595  0.00  0.00    -0.090 HD
ENDBRANCH   5  18
BRANCH   3  22
ATOM     22  C   LIG d   1       4.098  83.533 110.229  0.00  0.00     0.382 C 
ATOM     23  O   LIG d   1       4.804  82.870 109.430  0.00  0.00    -0.241 OA
ATOM     24  O   LIG d   1       4.456  84.680 110.557  0.00  0.00    -0.241 OA
ENDBRANCH   3  22
TORSDOF 7
ENDMDL
MODEL 3
REMARK VINA RESULT:      -4.4      2.886      5.311
REMARK  7 active torsions:
REMARK  status: ('A' for Active; 'I' for Inactive)
REMARK    1  A    between atoms: C_2  and  C_3 
REMARK    2  A    between atoms: C_3  and  O_6 
REMARK    3  A    between atoms: C_3  and  C_4 
REMARK    4  A    between atoms: C_7  and  O_6 
REMARK    5  A    between atoms: C_9  and  C_10 
REMARK    6  A    between atoms: N_15  and  C_14 
REMARK    7  A    between atoms: N_20  and  C_19 
REMARK       I    between atoms: C_22  and  N_20 
ROOT
ATOM      1  C   LIG d   1      -1.616  79.801 114.685  0.00  0.00     0.161 C 
ATOM      2  C   LIG d   1      -2.204  78.583 115.066  0.00  0.00     0.016 C 
ATOM      3  C   LIG d   1      -2.509  77.547 114.154  0.00  0.00     0.038 C 
ATOM      4  C   LIG d   1      -2.106  77.598 112.811  0.00  0.00     0.028 C 
ATOM      5  C   LIG d   1      -1.960  79.019 112.276  0.00  0.00    -0.047 C 
ATOM      6  C   LIG d   1      -1.067  79.830 113.243  0.00  0.00     0.091 C 
ENDROOT
BRANCH   1   7
ATOM      7  O   LIG d   1      -0.581  80.158 115.622  0.00  0.00    -0.368 OA
BRANCH   7   8
ATOM      8  C   LIG d   1      -0.627  79.491 116.907  0.00  0.00     0.119 C 
BRANCH   8   9
ATOM      9  C   LIG d   1      -0.984  80.552 117.967  0.00  0.00     0.028 C 
ATOM     10  C   LIG d   1      -2.457  80.474 118.401  0.00  0.00     0.006 C 
ENDBRANCH   8   9
BRANCH   8  11
ATOM     11  C   LIG d   1       0.753  78.963 117.311  0.00  0.00     0.028 C 
ATOM     12  C   LIG d   1       0.703  78.044 118.541  0.00  0.00     0.006 C 
ENDBRANCH   8  11
ENDBRANCH   7   8
ENDBRANCH   1   7
BRANCH   6  13
ATOM     13  N   LIG d   1      -0.942  81.255 112.838  0.00  0.00    -0.311 N 
ATOM     14  C   LIG d   1       0.048  81.716 112.075  0.00  0.00     0.210 C 
ATOM     15  C   LIG d   1      -0.001  83.221 111.793  0.00  0.00     0.109 C 
ATOM     16  O   LIG d   1       0.943  81.016 111.579  0.00  0.00    -0.276 OA
ATOM     17  H   LIG d   1      -1.644  81.887 113.171  0.00  0.00     0.149 HD
ENDBRANCH   6  13
BRANCH   5  18
ATOM     18  N   LIG d   1      -1.403  78.927 110.914  0.00  0.00     0.381 N 
ATOM     19  H   LIG d   1      -2.144  78.804 110.253  0.00  0.00    -0.090 HD
ATOM     20  H   LIG d   1      -0.799  78.126 110.863  0.00  0.00    -0.090 HD
ATOM     21  H   LIG d   1      -0.890  79.754 110.699  0.00  0.00    -0.090 HD
ENDBRANCH   5  18
BRANCH   3  22
ATOM     22  C   LIG d   1      -3.261  76.461 114.574  0.00  0.00     0.382 C 
ATOM     23  O   LIG d   1      -4.440  76.319 114.168  0.00  0.00    -0.241 OA
ATOM     24  O   LIG d   1      -2.792  75.645 115.390  0.00  0.00    -0.241 OA
ENDBRANCH   3  22
TORSDOF 7
ENDMDL
MODEL 4
REMARK VINA RESULT:      -4.3      4.157      7.432
REMARK  7 active torsions:
REMARK  status: ('A' for Active; 'I' for Inactive)
REMARK    1  A    between atoms: C_2  and  C_3 
REMARK    2  A    between atoms: C_3  and  O_6 
REMARK    3  A    between atoms: C_3  and  C_4 
REMARK    4  A    between atoms: C_7  and  O_6 
REMARK    5  A    between atoms: C_9  and  C_10 
REMARK    6  A    between atoms: N_15  and  C_14 
REMARK    7  A    between atoms: N_20  and  C_19 
REMARK       I    between atoms: C_22  and  N_20 
ROOT
ATOM      1  C   LIG d   1      -2.726  79.026 116.312  0.00  0.00     0.161 C 
ATOM      2  C   LIG d   1      -2.909  79.957 115.276  0.00  0.00     0.016 C 
ATOM      3  C   LIG d   1      -2.467  79.743 113.950  0.00  0.00     0.038 C 
ATOM      4  C   LIG d   1      -1.942  78.511 113.533  0.00  0.00     0.028 C 
ATOM      5  C   LIG d   1      -1.277  77.725 114.658  0.00  0.00    -0.047 C 
ATOM      6  C   LIG d   1      -2.255  77.631 115.851  0.00  0.00     0.091 C 
ENDROOT
BRANCH   1   7
ATOM      7  O   LIG d   1      -3.935  78.915 117.089  0.00  0.00    -0.368 OA
BRANCH   7   8
ATOM      8  C   LIG d   1      -3.967  79.665 118.328  0.00  0.00     0.119 C 
BRANCH   8   9
ATOM      9  C   LIG d   1      -2.518  80.071 118.661  0.00  0.00     0.028 C 
ATOM     10  C   LIG d   1      -2.427  81.485 119.258  0.00  0.00     0.006 C 
ENDBRANCH   8   9
BRANCH   8  11
ATOM     11  C   LIG d   1      -4.421  78.788 119.499  0.00  0.00     0.028 C 
ATOM     12  C   LIG d   1      -4.440  77.291 119.150  0.00  0.00     0.006 C 
ENDBRANCH   8  11
ENDBRANCH   7   8
ENDBRANCH   1   7
BRANCH   6  13
ATOM     13  N   LIG d   1      -1.651  76.949 117.026  0.00  0.00    -0.311 N 
ATOM     14  C   LIG d   1      -1.761  75.641 117.252  0.00  0.00     0.210 C 
ATOM     15  C   LIG d   1      -1.081  75.146 118.532  0.00  0.00     0.109 C 
ATOM     16  O   LIG d   1      -2.330  74.839 116.496  0.00  0.00    -0.276 OA
ATOM     17  H   LIG d   1      -1.145  77.521 117.674  0.00  0.00     0.149 HD
ENDBRANCH   6  13
BRANCH   5  18
ATOM     18  N   LIG d   1      -0.897  76.406 114.116  0.00  0.00     0.381 N 
ATOM     19  H   LIG d   1      -0.471  76.519 113.218  0.00  0.00    -0.090 HD
ATOM     20  H   LIG d   1      -1.727  75.850 114.004  0.00  0.00    -0.090 HD
ATOM     21  H   LIG d   1      -0.265  75.951 114.737  0.00  0.00    -0.090 HD
ENDBRANCH   5  18
BRANCH   3  22
ATOM     22  C   LIG d   1      -2.512  80.783 113.034  0.00  0.00     0.382 C 
ATOM     23  O   LIG d   1      -1.719  80.798 112.063  0.00  0.00    -0.241 OA
ATOM     24  O   LIG d   1      -3.306  81.730 113.192  0.00  0.00    -0.241 OA
ENDBRANCH   3  22
TORSDOF 7
ENDMDL
MODEL 5
REMARK VINA RESULT:      -4.2      2.659      6.445
REMARK  7 active torsions:
REMARK  status: ('A' for Active; 'I' for Inactive)
REMARK    1  A    between atoms: C_2  and  C_3 
REMARK    2  A    between atoms: C_3  and  O_6 
REMARK    3  A    between atoms: C_3  and  C_4 
REMARK    4  A    between atoms: C_7  and  O_6 
REMARK    5  A    between atoms: C_9  and  C_10 
REMARK    6  A    between atoms: N_15  and  C_14 
REMARK    7  A    between atoms: N_20  and  C_19 
REMARK       I    between atoms: C_22  and  N_20 
ROOT
ATOM      1  C   LIG d   1       1.393  81.328 113.768  0.00  0.00     0.161 C 
ATOM      2  C   LIG d   1       2.457  82.236 113.638  0.00  0.00     0.016 C 
ATOM      3  C   LIG d   1       2.633  83.073 112.512  0.00  0.00     0.038 C 
ATOM      4  C   LIG d   1       1.665  83.167 111.500  0.00  0.00     0.028 C 
ATOM      5  C   LIG d   1       0.828  81.903 111.343  0.00  0.00    -0.047 C 
ATOM      6  C   LIG d   1       0.268  81.497 112.725  0.00  0.00     0.091 C 
ENDROOT
BRANCH   1   7
ATOM      7  O   LIG d   1       0.853  81.396 115.102  0.00  0.00    -0.368 OA
BRANCH   7   8
ATOM      8  C   LIG d   1       1.618  80.725 116.134  0.00  0.00     0.119 C 
BRANCH   8   9
ATOM      9  C   LIG d   1       0.632  79.886 116.970  0.00  0.00     0.028 C 
ATOM     10  C   LIG d   1      -0.603  79.456 116.162  0.00  0.00     0.006 C 
ENDBRANCH   8   9
BRANCH   8  11
ATOM     11  C   LIG d   1       2.230  81.728 117.116  0.00  0.00     0.028 C 
ATOM     12  C   LIG d   1       2.095  81.286 118.581  0.00  0.00     0.006 C 
ENDBRANCH   8  11
ENDBRANCH   7   8
ENDBRANCH   1   7
BRANCH   6  13
ATOM     13  N   LIG d   1      -0.494  80.222 112.676  0.00  0.00    -0.311 N 
ATOM     14  C   LIG d   1      -1.817  80.163 112.530  0.00  0.00     0.210 C 
ATOM     15  C   LIG d   1      -2.405  78.749 112.524  0.00  0.00     0.109 C 
ATOM     16  O   LIG d   1      -2.555  81.147 112.372  0.00  0.00    -0.276 OA
ATOM     17  H   LIG d   1       0.030  79.373 112.765  0.00  0.00     0.149 HD
ENDBRANCH   6  13
BRANCH   5  18
ATOM     18  N   LIG d   1      -0.227  82.187 110.352  0.00  0.00     0.381 N 
ATOM     19  H   LIG d   1      -0.741  81.351 110.154  0.00  0.00    -0.090 HD
ATOM     20  H   LIG d   1       0.203  82.502 109.500  0.00  0.00    -0.090 HD
ATOM     21  H   LIG d   1      -0.843  82.889 110.701  0.00  0.00    -0.090 HD
ENDBRANCH   5  18
BRANCH   3  22
ATOM     22  C   LIG d   1       3.806  83.798 112.371  0.00  0.00     0.382 C 
ATOM     23  O   LIG d   1       4.103  84.680 113.212  0.00  0.00    -0.241 OA
ATOM     24  O   LIG d   1       4.549  83.612 111.388  0.00  0.00    -0.241 OA
ENDBRANCH   3  22
TORSDOF 7
ENDMDL
MODEL 6
REMARK VINA RESULT:      -4.1      4.184      6.921
REMARK  7 active torsions:
REMARK  status: ('A' for Active; 'I' for Inactive)
REMARK    1  A    between atoms: C_2  and  C_3 
REMARK    2  A    between atoms: C_3  and  O_6 
REMARK    3  A    between atoms: C_3  and  C_4 
REMARK    4  A    between atoms: C_7  and  O_6 
REMARK    5  A    between atoms: C_9  and  C_10 
REMARK    6  A    between atoms: N_15  and  C_14 
REMARK    7  A    between atoms: N_20  and  C_19 
REMARK       I    between atoms: C_22  and  N_20 
ROOT
ATOM      1  C   LIG d   1      -2.898  77.718 116.210  0.00  0.00     0.161 C 
ATOM      2  C   LIG d   1      -3.138  77.334 114.880  0.00  0.00     0.016 C 
ATOM      3  C   LIG d   1      -2.387  77.815 113.783  0.00  0.00     0.038 C 
ATOM      4  C   LIG d   1      -1.239  78.602 113.959  0.00  0.00     0.028 C 
ATOM      5  C   LIG d   1      -1.258  79.423 115.244  0.00  0.00    -0.047 C 
ATOM      6  C   LIG d   1      -1.579  78.488 116.432  0.00  0.00     0.091 C 
ENDROOT
BRANCH   1   7
ATOM      7  O   LIG d   1      -2.954  76.562 117.070  0.00  0.00    -0.368 OA
BRANCH   7   8
ATOM      8  C   LIG d   1      -1.828  75.654 116.992  0.00  0.00     0.119 C 
BRANCH   8   9
ATOM      9  C   LIG d   1      -2.388  74.245 116.718  0.00  0.00     0.028 C 
ATOM     10  C   LIG d   1      -3.919  74.185 116.852  0.00  0.00     0.006 C 
ENDBRANCH   8   9
BRANCH   8  11
ATOM     11  C   LIG d   1      -1.104  75.548 118.337  0.00  0.00     0.028 C 
ATOM     12  C   LIG d   1      -1.990  75.954 119.525  0.00  0.00     0.006 C 
ENDBRANCH   8  11
ENDBRANCH   7   8
ENDBRANCH   1   7
BRANCH   6  13
ATOM     13  N   LIG d   1      -1.700  79.225 117.717  0.00  0.00    -0.311 N 
ATOM     14  C   LIG d   1      -0.704  79.340 118.593  0.00  0.00     0.210 C 
ATOM     15  C   LIG d   1      -1.047  80.125 119.863  0.00  0.00     0.109 C 
ATOM     16  O   LIG d   1       0.441  78.894 118.425  0.00  0.00    -0.276 OA
ATOM     17  H   LIG d   1      -2.586  79.645 117.920  0.00  0.00     0.149 HD
ENDBRANCH   6  13
BRANCH   5  18
ATOM     18  N   LIG d   1       0.054  80.086 115.369  0.00  0.00     0.381 N 
ATOM     19  H   LIG d   1       0.009  80.795 116.074  0.00  0.00    -0.090 HD
ATOM     20  H   LIG d   1       0.280  80.526 114.494  0.00  0.00    -0.090 HD
ATOM     21  H   LIG d   1       0.753  79.417 115.603  0.00  0.00    -0.090 HD
ENDBRANCH   5  18
BRANCH   3  22
ATOM     22  C   LIG d   1      -2.806  77.542 112.490  0.00  0.00     0.382 C 
ATOM     23  O   LIG d   1      -3.957  77.878 112.120  0.00  0.00    -0.241 OA
ATOM     24  O   LIG d   1      -2.065  76.925 111.702  0.00  0.00    -0.241 OA
ENDBRANCH   3  22
TORSDOF 7
ENDMDL
MODEL 7
REMARK VINA RESULT:      -4.1      4.082      6.428
REMARK  7 active torsions:
REMARK  status: ('A' for Active; 'I' for Inactive)
REMARK    1  A    between atoms: C_2  and  C_3 
REMARK    2  A    between atoms: C_3  and  O_6 
REMARK    3  A    between atoms: C_3  and  C_4 
REMARK    4  A    between atoms: C_7  and  O_6 
REMARK    5  A    between atoms: C_9  and  C_10 
REMARK    6  A    between atoms: N_15  and  C_14 
REMARK    7  A    between atoms: N_20  and  C_19 
REMARK       I    between atoms: C_22  and  N_20 
ROOT
ATOM      1  C   LIG d   1      -2.014  78.616 116.979  0.00  0.00     0.161 C 
ATOM      2  C   LIG d   1      -2.801  77.781 116.169  0.00  0.00     0.016 C 
ATOM      3  C   LIG d   1      -2.686  77.730 114.761  0.00  0.00     0.038 C 
ATOM      4  C   LIG d   1      -1.664  78.404 114.075  0.00  0.00     0.028 C 
ATOM      5  C   LIG d   1      -1.169  79.651 114.801  0.00  0.00    -0.047 C 
ATOM      6  C   LIG d   1      -0.819  79.277 116.259  0.00  0.00     0.091 C 
ENDROOT
BRANCH   1   7
ATOM      7  O   LIG d   1      -1.561  77.888 118.137  0.00  0.00    -0.368 OA
BRANCH   7   8
ATOM      8  C   LIG d   1      -0.604  76.828 117.889  0.00  0.00     0.119 C 
BRANCH   8   9
ATOM      9  C   LIG d   1      -1.164  75.541 118.527  0.00  0.00     0.028 C 
ATOM     10  C   LIG d   1      -1.739  74.571 117.482  0.00  0.00     0.006 C 
ENDBRANCH   8   9
BRANCH   8  11
ATOM     11  C   LIG d   1       0.721  77.094 118.609  0.00  0.00     0.028 C 
ATOM     12  C   LIG d   1       1.142  75.937 119.529  0.00  0.00     0.006 C 
ENDBRANCH   8  11
ENDBRANCH   7   8
ENDBRANCH   1   7
BRANCH   6  13
ATOM     13  N   LIG d   1      -0.406  80.456 117.063  0.00  0.00    -0.311 N 
ATOM     14  C   LIG d   1       0.866  80.801 117.258  0.00  0.00     0.210 C 
ATOM     15  C   LIG d   1       1.072  82.040 118.135  0.00  0.00     0.109 C 
ATOM     16  O   LIG d   1       1.841  80.218 116.761  0.00  0.00    -0.276 OA
ATOM     17  H   LIG d   1      -1.134  81.004 117.478  0.00  0.00     0.149 HD
ENDBRANCH   6  13
BRANCH   5  18
ATOM     18  N   LIG d   1      -0.015  80.176 114.046  0.00  0.00     0.381 N 
ATOM     19  H   LIG d   1       0.106  79.651 113.203  0.00  0.00    -0.090 HD
ATOM     20  H   LIG d   1       0.814  80.071 114.605  0.00  0.00    -0.090 HD
ATOM     21  H   LIG d   1      -0.159  81.138 113.830  0.00  0.00    -0.090 HD
ENDBRANCH   5  18
BRANCH   3  22
ATOM     22  C   LIG d   1      -3.624  77.028 114.019  0.00  0.00     0.382 C 
ATOM     23  O   LIG d   1      -4.127  75.975 114.480  0.00  0.00    -0.241 OA
ATOM     24  O   LIG d   1      -3.942  77.411 112.878  0.00  0.00    -0.241 OA
ENDBRANCH   3  22
TORSDOF 7
ENDMDL
MODEL 8
REMARK VINA RESULT:      -4.0      4.157      7.401
REMARK  7 active torsions:
REMARK  status: ('A' for Active; 'I' for Inactive)
REMARK    1  A    between atoms: C_2  and  C_3 
REMARK    2  A    between atoms: C_3  and  O_6 
REMARK    3  A    between atoms: C_3  and  C_4 
REMARK    4  A    between atoms: C_7  and  O_6 
REMARK    5  A    between atoms: C_9  and  C_10 
REMARK    6  A    between atoms: N_15  and  C_14 
REMARK    7  A    between atoms: N_20  and  C_19 
REMARK       I    between atoms: C_22  and  N_20 
ROOT
ATOM      1  C   LIG d   1      -0.834  76.950 115.256  0.00  0.00     0.161 C 
ATOM      2  C   LIG d   1      -0.436  77.333 116.548  0.00  0.00     0.016 C 
ATOM      3  C   LIG d   1      -0.547  78.655 117.036  0.00  0.00     0.038 C 
ATOM      4  C   LIG d   1      -1.207  79.660 116.312  0.00  0.00     0.028 C 
ATOM      5  C   LIG d   1      -1.172  79.442 114.804  0.00  0.00    -0.047 C 
ATOM      6  C   LIG d   1      -1.658  78.008 114.492  0.00  0.00     0.091 C 
ENDROOT
BRANCH   1   7
ATOM      7  O   LIG d   1      -1.553  75.702 115.316  0.00  0.00    -0.368 OA
BRANCH   7   8
ATOM      8  C   LIG d   1      -2.394  75.506 116.479  0.00  0.00     0.119 C 
BRANCH   8   9
ATOM      9  C   LIG d   1      -1.831  74.303 117.260  0.00  0.00     0.028 C 
ATOM     10  C   LIG d   1      -1.801  74.549 118.777  0.00  0.00     0.006 C 
ENDBRANCH   8   9
BRANCH   8  11
ATOM     11  C   LIG d   1      -3.815  75.101 116.078  0.00  0.00     0.028 C 
ATOM     12  C   LIG d   1      -4.440  76.059 115.051  0.00  0.00     0.006 C 
ENDBRANCH   8  11
ENDBRANCH   7   8
ENDBRANCH   1   7
BRANCH   6  13
ATOM     13  N   LIG d   1      -1.575  77.683 113.045  0.00  0.00    -0.311 N 
ATOM     14  C   LIG d   1      -2.573  77.895 112.188  0.00  0.00     0.210 C 
ATOM     15  C   LIG d   1      -2.286  77.470 110.744  0.00  0.00     0.109 C 
ATOM     16  O   LIG d   1      -3.656  78.423 112.480  0.00  0.00    -0.276 OA
ATOM     17  H   LIG d   1      -0.720  77.279 112.716  0.00  0.00     0.149 HD
ENDBRANCH   6  13
BRANCH   5  18
ATOM     18  N   LIG d   1      -2.012  80.484 114.183  0.00  0.00     0.381 N 
ATOM     19  H   LIG d   1      -2.905  80.101 113.943  0.00  0.00    -0.090 HD
ATOM     20  H   LIG d   1      -1.567  80.800 113.340  0.00  0.00    -0.090 HD
ATOM     21  H   LIG d   1      -2.128  81.248 114.813  0.00  0.00    -0.090 HD
ENDBRANCH   5  18
BRANCH   3  22
ATOM     22  C   LIG d   1       0.042  78.993 118.245  0.00  0.00     0.382 C 
ATOM     23  O   LIG d   1      -0.606  78.875 119.313  0.00  0.00    -0.241 OA
ATOM     24  O   LIG d   1       1.198  79.456 118.277  0.00  0.00    -0.241 OA
ENDBRANCH   3  22
TORSDOF 7
ENDMDL
MODEL 9
REMARK VINA RESULT:      -4.0      3.951      6.359
REMARK  7 active torsions:
REMARK  status: ('A' for Active; 'I' for Inactive)
REMARK    1  A    between atoms: C_2  and  C_3 
REMARK    2  A    between atoms: C_3  and  O_6 
REMARK    3  A    between atoms: C_3  and  C_4 
REMARK    4  A    between atoms: C_7  and  O_6 
REMARK    5  A    between atoms: C_9  and  C_10 
REMARK    6  A    between atoms: N_15  and  C_14 
REMARK    7  A    between atoms: N_20  and  C_19 
REMARK       I    between atoms: C_22  and  N_20 
ROOT
ATOM      1  C   LIG d   1      -2.025  77.635 114.886  0.00  0.00     0.161 C 
ATOM      2  C   LIG d   1      -1.939  77.035 113.619  0.00  0.00     0.016 C 
ATOM      3  C   LIG d   1      -2.086  77.750 112.408  0.00  0.00     0.038 C 
ATOM      4  C   LIG d   1      -2.180  79.150 112.380  0.00  0.00     0.028 C 
ATOM      5  C   LIG d   1      -2.777  79.742 113.652  0.00  0.00    -0.047 C 
ATOM      6  C   LIG d   1      -2.016  79.178 114.874  0.00  0.00     0.091 C 
ENDROOT
BRANCH   1   7
ATOM      7  O   LIG d   1      -0.973  77.135 115.736  0.00  0.00    -0.368 OA
BRANCH   7   8
ATOM      8  C   LIG d   1      -1.376  76.194 116.762  0.00  0.00     0.119 C 
BRANCH   8   9
ATOM      9  C   LIG d   1      -2.915  76.124 116.747  0.00  0.00     0.028 C 
ATOM     10  C   LIG d   1      -3.436  74.682 116.622  0.00  0.00     0.006 C 
ENDBRANCH   8   9
BRANCH   8  11
ATOM     11  C   LIG d   1      -1.007  76.702 118.159  0.00  0.00     0.028 C 
ATOM     12  C   LIG d   1      -0.518  75.581 119.090  0.00  0.00     0.006 C 
ENDBRANCH   8  11
ENDBRANCH   7   8
ENDBRANCH   1   7
BRANCH   6  13
ATOM     13  N   LIG d   1      -2.591  79.641 116.163  0.00  0.00    -0.311 N 
ATOM     14  C   LIG d   1      -1.862  80.184 117.138  0.00  0.00     0.210 C 
ATOM     15  C   LIG d   1      -2.650  80.574 118.393  0.00  0.00     0.109 C 
ATOM     16  O   LIG d   1      -0.644  80.407 117.070  0.00  0.00    -0.276 OA
ATOM     17  H   LIG d   1      -3.577  79.526 116.291  0.00  0.00     0.149 HD
ENDBRANCH   6  13
BRANCH   5  18
ATOM     18  N   LIG d   1      -2.688  81.211 113.544  0.00  0.00     0.381 N 
ATOM     19  H   LIG d   1      -3.112  81.635 114.345  0.00  0.00    -0.090 HD
ATOM     20  H   LIG d   1      -3.192  81.507 112.726  0.00  0.00    -0.090 HD
ATOM     21  H   LIG d   1      -1.735  81.491 113.476  0.00  0.00    -0.090 HD
ENDBRANCH   5  18
BRANCH   3  22
ATOM     22  C   LIG d   1      -2.181  77.060 111.209  0.00  0.00     0.382 C 
ATOM     23  O   LIG d   1      -1.455  76.057 111.004  0.00  0.00    -0.241 OA
ATOM     24  O   LIG d   1      -2.951  77.453 110.313  0.00  0.00    -0.241 OA
ENDBRANCH   3  22
TORSDOF 7
ENDMDL
