MODEL 1
REMARK VINA RESULT:      -5.6      0.000      0.000
REMARK  7 active torsions:
REMARK  status: ('A' for Active; 'I' for Inactive)
REMARK    1  A    between atoms: C_2  and  C_3 
REMARK    2  A    between atoms: C_3  and  O_6 
REMARK    3  A    between atoms: C_3  and  C_4 
REMARK    4  A    between atoms: C_7  and  O_6 
REMARK    5  A    between atoms: C_9  and  C_10 
REMARK    6  A    between atoms: N_15  and  C_14 
REMARK    7  A    between atoms: N_20  and  C_19 
REMARK       I    between atoms: C_22  and  N_20 
ROOT
ATOM      1  C   LIG d   1       1.202  80.688 111.103  0.00  0.00     0.161 C 
ATOM      2  C   LIG d   1       0.389  79.640 110.642  0.00  0.00     0.016 C 
ATOM      3  C   LIG d   1      -0.343  78.788 111.501  0.00  0.00     0.038 C 
ATOM      4  C   LIG d   1      -0.431  79.023 112.881  0.00  0.00     0.028 C 
ATOM      5  C   LIG d   1       0.776  79.763 113.447  0.00  0.00    -0.047 C 
ATOM      6  C   LIG d   1       1.031  81.030 112.598  0.00  0.00     0.091 C 
ENDROOT
BRANCH   1   7
ATOM      7  O   LIG d   1       0.992  81.862 110.294  0.00  0.00    -0.368 OA
BRANCH   7   8
ATOM      8  C   LIG d   1       2.090  82.246 109.431  0.00  0.00     0.119 C 
BRANCH   8   9
ATOM      9  C   LIG d   1       3.256  81.277 109.705  0.00  0.00     0.028 C 
ATOM     10  C   LIG d   1       4.541  82.009 110.126  0.00  0.00     0.006 C 
ENDBRANCH   8   9
BRANCH   8  11
ATOM     11  C   LIG d   1       2.624  83.635 109.793  0.00  0.00     0.028 C 
ATOM     12  C   LIG d   1       1.504  84.659 110.039  0.00  0.00     0.006 C 
ENDBRANCH   8  11
ENDBRANCH   7   8
ENDBRANCH   1   7
BRANCH   6  13
ATOM     13  N   LIG d   1       2.246  81.768 113.033  0.00  0.00    -0.311 N 
ATOM     14  C   LIG d   1       2.225  83.032 113.453  0.00  0.00     0.210 C 
ATOM     15  C   LIG d   1       3.592  83.609 113.835  0.00  0.00     0.109 C 
ATOM     16  O   LIG d   1       1.200  83.719 113.576  0.00  0.00    -0.276 OA
ATOM     17  H   LIG d   1       3.117  81.276 112.995  0.00  0.00     0.149 HD
ENDBRANCH   6  13
BRANCH   5  18
ATOM     18  N   LIG d   1       0.491  80.063 114.863  0.00  0.00     0.381 N 
ATOM     19  H   LIG d   1       1.006  79.439 115.452  0.00  0.00    -0.090 HD
ATOM     20  H   LIG d   1      -0.489  79.923 115.034  0.00  0.00    -0.090 HD
ATOM     21  H   LIG d   1       0.740  81.006 115.068  0.00  0.00    -0.090 HD
ENDBRANCH   5  18
BRANCH   3  22
ATOM     22  C   LIG d   1      -0.966  77.662 110.984  0.00  0.00     0.382 C 
ATOM     23  O   LIG d   1      -2.218  77.582 110.983  0.00  0.00    -0.241 OA
ATOM     24  O   LIG d   1      -0.290  76.706 110.559  0.00  0.00    -0.241 OA
ENDBRANCH   3  22
TORSDOF 7
ENDMDL
MODEL 2
REMARK VINA RESULT:      -5.5      2.111      3.378
REMARK  7 active torsions:
REMARK  status: ('A' for Active; 'I' for Inactive)
REMARK    1  A    between atoms: C_2  and  C_3 
REMARK    2  A    between atoms: C_3  and  O_6 
REMARK    3  A    between atoms: C_3  and  C_4 
REMARK    4  A    between atoms: C_7  and  O_6 
REMARK    5  A    between atoms: C_9  and  C_10 
REMARK    6  A    between atoms: N_15  and  C_14 
REMARK    7  A    between atoms: N_20  and  C_19 
REMARK       I    between atoms: C_22  and  N_20 
ROOT
ATOM      1  C   LIG d   1       0.480  81.105 111.568  0.00  0.00     0.161 C 
ATOM      2  C   LIG d   1      -0.711  80.532 112.046  0.00  0.00     0.016 C 
ATOM      3  C   LIG d   1      -1.086  79.193 111.794  0.00  0.00     0.038 C 
ATOM      4  C   LIG d   1      -0.217  78.284 111.171  0.00  0.00     0.028 C 
ATOM      5  C   LIG d   1       0.782  78.950 110.230  0.00  0.00    -0.047 C 
ATOM      6  C   LIG d   1       1.492  80.098 110.982  0.00  0.00     0.091 C 
ENDROOT
BRANCH   1   7
ATOM      7  O   LIG d   1       1.098  81.887 112.610  0.00  0.00    -0.368 OA
BRANCH   7   8
ATOM      8  C   LIG d   1       0.927  83.322 112.515  0.00  0.00     0.119 C 
BRANCH   8   9
ATOM      9  C   LIG d   1       0.636  83.658 111.040  0.00  0.00     0.028 C 
ATOM     10  C   LIG d   1      -0.553  84.621 110.881  0.00  0.00     0.006 C 
ENDBRANCH   8   9
BRANCH   8  11
ATOM     11  C   LIG d   1       2.227  84.061 112.850  0.00  0.00     0.028 C 
ATOM     12  C   LIG d   1       2.945  84.598 111.602  0.00  0.00     0.006 C 
ENDBRANCH   8  11
ENDBRANCH   7   8
ENDBRANCH   1   7
BRANCH   6  13
ATOM     13  N   LIG d   1       2.425  80.856 110.108  0.00  0.00    -0.311 N 
ATOM     14  C   LIG d   1       3.660  81.195 110.474  0.00  0.00     0.210 C 
ATOM     15  C   LIG d   1       4.448  81.992 109.430  0.00  0.00     0.109 C 
ATOM     16  O   LIG d   1       4.189  80.882 111.551  0.00  0.00    -0.276 OA
ATOM     17  H   LIG d   1       2.088  81.123 109.204  0.00  0.00     0.149 HD
ENDBRANCH   6  13
BRANCH   5  18
ATOM     18  N   LIG d   1       1.711  77.907 109.757  0.00  0.00     0.381 N 
ATOM     19  H   LIG d   1       1.312  77.002 109.910  0.00  0.00    -0.090 HD
ATOM     20  H   LIG d   1       2.565  77.969 110.284  0.00  0.00    -0.090 HD
ATOM     21  H   LIG d   1       1.902  78.034 108.787  0.00  0.00    -0.090 HD
ENDBRANCH   5  18
BRANCH   3  22
ATOM     22  C   LIG d   1      -2.359  78.760 112.132  0.00  0.00     0.382 C 
ATOM     23  O   LIG d   1      -2.960  77.943 111.394  0.00  0.00    -0.241 OA
ATOM     24  O   LIG d   1      -2.932  79.210 113.142  0.00  0.00    -0.241 OA
ENDBRANCH   3  22
TORSDOF 7
ENDMDL
MODEL 3
REMARK VINA RESULT:      -5.2      2.362      4.768
REMARK  7 active torsions:
REMARK  status: ('A' for Active; 'I' for Inactive)
REMARK    1  A    between atoms: C_2  and  C_3 
REMARK    2  A    between atoms: C_3  and  O_6 
REMARK    3  A    between atoms: C_3  and  C_4 
REMARK    4  A    between atoms: C_7  and  O_6 
REMARK    5  A    between atoms: C_9  and  C_10 
REMARK    6  A    between atoms: N_15  and  C_14 
REMARK    7  A    between atoms: N_20  and  C_19 
REMARK       I    between atoms: C_22  and  N_20 
ROOT
ATOM      1  C   LIG d   1       1.603  80.982 112.438  0.00  0.00     0.161 C 
ATOM      2  C   LIG d   1       2.726  81.385 111.696  0.00  0.00     0.016 C 
ATOM      3  C   LIG d   1       2.871  81.143 110.311  0.00  0.00     0.038 C 
ATOM      4  C   LIG d   1       1.829  80.611 109.538  0.00  0.00     0.028 C 
ATOM      5  C   LIG d   1       0.874  79.729 110.335  0.00  0.00    -0.047 C 
ATOM      6  C   LIG d   1       0.408  80.500 111.591  0.00  0.00     0.091 C 
ENDROOT
BRANCH   1   7
ATOM      7  O   LIG d   1       1.195  82.045 113.322  0.00  0.00    -0.368 OA
BRANCH   7   8
ATOM      8  C   LIG d   1       1.285  83.389 112.787  0.00  0.00     0.119 C 
BRANCH   8   9
ATOM      9  C   LIG d   1       1.813  84.300 113.913  0.00  0.00     0.028 C 
ATOM     10  C   LIG d   1       3.337  84.196 114.086  0.00  0.00     0.006 C 
ENDBRANCH   8   9
BRANCH   8  11
ATOM     11  C   LIG d   1      -0.098  83.942 112.432  0.00  0.00     0.028 C 
ATOM     12  C   LIG d   1      -0.337  84.022 110.916  0.00  0.00     0.006 C 
ENDBRANCH   8  11
ENDBRANCH   7   8
ENDBRANCH   1   7
BRANCH   6  13
ATOM     13  N   LIG d   1      -0.464  79.677 112.470  0.00  0.00    -0.311 N 
ATOM     14  C   LIG d   1      -1.681  80.056 112.857  0.00  0.00     0.210 C 
ATOM     15  C   LIG d   1      -2.402  79.068 113.779  0.00  0.00     0.109 C 
ATOM     16  O   LIG d   1      -2.244  81.101 112.498  0.00  0.00    -0.276 OA
ATOM     17  H   LIG d   1      -0.098  78.799 112.782  0.00  0.00     0.149 HD
ENDBRANCH   6  13
BRANCH   5  18
ATOM     18  N   LIG d   1      -0.238  79.354 109.440  0.00  0.00     0.381 N 
ATOM     19  H   LIG d   1      -0.604  80.172 108.994  0.00  0.00    -0.090 HD
ATOM     20  H   LIG d   1      -0.971  78.940 109.989  0.00  0.00    -0.090 HD
ATOM     21  H   LIG d   1       0.080  78.706 108.754  0.00  0.00    -0.090 HD
ENDBRANCH   5  18
BRANCH   3  22
ATOM     22  C   LIG d   1       4.086  81.398 109.692  0.00  0.00     0.382 C 
ATOM     23  O   LIG d   1       4.868  80.451 109.433  0.00  0.00    -0.241 OA
ATOM     24  O   LIG d   1       4.429  82.566 109.430  0.00  0.00    -0.241 OA
ENDBRANCH   3  22
TORSDOF 7
ENDMDL
MODEL 4
REMARK VINA RESULT:      -5.0      2.158      5.081
REMARK  7 active torsions:
REMARK  status: ('A' for Active; 'I' for Inactive)
REMARK    1  A    between atoms: C_2  and  C_3 
REMARK    2  A    between atoms: C_3  and  O_6 
REMARK    3  A    between atoms: C_3  and  C_4 
REMARK    4  A    between atoms: C_7  and  O_6 
REMARK    5  A    between atoms: C_9  and  C_10 
REMARK    6  A    between atoms: N_15  and  C_14 
REMARK    7  A    between atoms: N_20  and  C_19 
REMARK       I    between atoms: C_22  and  N_20 
ROOT
ATOM      1  C   LIG d   1       0.066  80.996 111.922  0.00  0.00     0.161 C 
ATOM      2  C   LIG d   1       1.129  81.606 111.235  0.00  0.00     0.016 C 
ATOM      3  C   LIG d   1       2.434  81.720 111.765  0.00  0.00     0.038 C 
ATOM      4  C   LIG d   1       2.805  81.094 112.964  0.00  0.00     0.028 C 
ATOM      5  C   LIG d   1       1.642  80.899 113.931  0.00  0.00    -0.047 C 
ATOM      6  C   LIG d   1       0.478  80.209 113.183  0.00  0.00     0.091 C 
ENDROOT
BRANCH   1   7
ATOM      7  O   LIG d   1      -0.675  80.148 111.022  0.00  0.00    -0.368 OA
BRANCH   7   8
ATOM      8  C   LIG d   1      -0.167  78.802 110.851  0.00  0.00     0.119 C 
BRANCH   8   9
ATOM      9  C   LIG d   1       0.420  78.705 109.430  0.00  0.00     0.028 C 
ATOM     10  C   LIG d   1       1.958  78.688 109.430  0.00  0.00     0.006 C 
ENDBRANCH   8   9
BRANCH   8  11
ATOM     11  C   LIG d   1      -1.298  77.770 110.894  0.00  0.00     0.028 C 
ATOM     12  C   LIG d   1      -2.566  78.303 111.581  0.00  0.00     0.006 C 
ENDBRANCH   8  11
ENDBRANCH   7   8
ENDBRANCH   1   7
BRANCH   6  13
ATOM     13  N   LIG d   1      -0.731  80.057 114.034  0.00  0.00    -0.311 N 
ATOM     14  C   LIG d   1      -1.022  78.942 114.701  0.00  0.00     0.210 C 
ATOM     15  C   LIG d   1      -2.327  78.990 115.502  0.00  0.00     0.109 C 
ATOM     16  O   LIG d   1      -0.308  77.928 114.731  0.00  0.00    -0.276 OA
ATOM     17  H   LIG d   1      -1.350  80.842 114.091  0.00  0.00     0.149 HD
ENDBRANCH   6  13
BRANCH   5  18
ATOM     18  N   LIG d   1       2.141  80.114 115.075  0.00  0.00     0.381 N 
ATOM     19  H   LIG d   1       1.506  80.196 115.844  0.00  0.00    -0.090 HD
ATOM     20  H   LIG d   1       3.031  80.484 115.360  0.00  0.00    -0.090 HD
ATOM     21  H   LIG d   1       2.238  79.157 114.816  0.00  0.00    -0.090 HD
ENDBRANCH   5  18
BRANCH   3  22
ATOM     22  C   LIG d   1       3.375  82.502 111.112  0.00  0.00     0.382 C 
ATOM     23  O   LIG d   1       4.444  82.812 111.691  0.00  0.00    -0.241 OA
ATOM     24  O   LIG d   1       3.149  82.939 109.967  0.00  0.00    -0.241 OA
ENDBRANCH   3  22
TORSDOF 7
ENDMDL
MODEL 5
REMARK VINA RESULT:      -4.8      1.849      2.082
REMARK  7 active torsions:
REMARK  status: ('A' for Active; 'I' for Inactive)
REMARK    1  A    between atoms: C_2  and  C_3 
REMARK    2  A    between atoms: C_3  and  O_6 
REMARK    3  A    between atoms: C_3  and  C_4 
REMARK    4  A    between atoms: C_7  and  O_6 
REMARK    5  A    between atoms: C_9  and  C_10 
REMARK    6  A    between atoms: N_15  and  C_14 
REMARK    7  A    between atoms: N_20  and  C_19 
REMARK       I    between atoms: C_22  and  N_20 
ROOT
ATOM      1  C   LIG d   1       2.187  80.439 112.360  0.00  0.00     0.161 C 
ATOM      2  C   LIG d   1       1.285  80.034 111.363  0.00  0.00     0.016 C 
ATOM      3  C   LIG d   1      -0.014  79.549 111.638  0.00  0.00     0.038 C 
ATOM      4  C   LIG d   1      -0.557  79.577 112.932  0.00  0.00     0.028 C 
ATOM      5  C   LIG d   1       0.495  79.505 114.032  0.00  0.00    -0.047 C 
ATOM      6  C   LIG d   1       1.572  80.582 113.769  0.00  0.00     0.091 C 
ENDROOT
BRANCH   1   7
ATOM      7  O   LIG d   1       2.831  81.668 111.968  0.00  0.00    -0.368 OA
BRANCH   7   8
ATOM      8  C   LIG d   1       2.056  82.550 111.119  0.00  0.00     0.119 C 
BRANCH   8   9
ATOM      9  C   LIG d   1       3.028  83.196 110.113  0.00  0.00     0.028 C 
ATOM     10  C   LIG d   1       4.271  82.328 109.858  0.00  0.00     0.006 C 
ENDBRANCH   8   9
BRANCH   8  11
ATOM     11  C   LIG d   1       1.466  83.716 111.919  0.00  0.00     0.028 C 
ATOM     12  C   LIG d   1       2.343  84.123 113.113  0.00  0.00     0.006 C 
ENDBRANCH   8  11
ENDBRANCH   7   8
ENDBRANCH   1   7
BRANCH   6  13
ATOM     13  N   LIG d   1       2.684  80.525 114.753  0.00  0.00    -0.311 N 
ATOM     14  C   LIG d   1       2.746  81.298 115.835  0.00  0.00     0.210 C 
ATOM     15  C   LIG d   1       3.989  81.092 116.707  0.00  0.00     0.109 C 
ATOM     16  O   LIG d   1       1.874  82.113 116.173  0.00  0.00    -0.276 OA
ATOM     17  H   LIG d   1       3.419  79.869 114.572  0.00  0.00     0.149 HD
ENDBRANCH   6  13
BRANCH   5  18
ATOM     18  N   LIG d   1      -0.196  79.683 115.323  0.00  0.00     0.381 N 
ATOM     19  H   LIG d   1      -1.060  79.178 115.317  0.00  0.00    -0.090 HD
ATOM     20  H   LIG d   1      -0.402  80.658 115.450  0.00  0.00    -0.090 HD
ATOM     21  H   LIG d   1       0.381  79.358 116.067  0.00  0.00    -0.090 HD
ENDBRANCH   5  18
BRANCH   3  22
ATOM     22  C   LIG d   1      -0.770  78.990 110.619  0.00  0.00     0.382 C 
ATOM     23  O   LIG d   1      -1.660  78.147 110.888  0.00  0.00    -0.241 OA
ATOM     24  O   LIG d   1      -0.543  79.285 109.430  0.00  0.00    -0.241 OA
ENDBRANCH   3  22
TORSDOF 7
ENDMDL
MODEL 6
REMARK VINA RESULT:      -4.7      2.463      5.372
REMARK  7 active torsions:
REMARK  status: ('A' for Active; 'I' for Inactive)
REMARK    1  A    between atoms: C_2  and  C_3 
REMARK    2  A    between atoms: C_3  and  O_6 
REMARK    3  A    between atoms: C_3  and  C_4 
REMARK    4  A    between atoms: C_7  and  O_6 
REMARK    5  A    between atoms: C_9  and  C_10 
REMARK    6  A    between atoms: N_15  and  C_14 
REMARK    7  A    between atoms: N_20  and  C_19 
REMARK       I    between atoms: C_22  and  N_20 
ROOT
ATOM      1  C   LIG d   1       1.926  80.582 112.553  0.00  0.00     0.161 C 
ATOM      2  C   LIG d   1       2.905  81.319 111.866  0.00  0.00     0.016 C 
ATOM      3  C   LIG d   1       2.851  81.578 110.477  0.00  0.00     0.038 C 
ATOM      4  C   LIG d   1       1.729  81.245 109.704  0.00  0.00     0.028 C 
ATOM      5  C   LIG d   1       0.946  80.058 110.252  0.00  0.00    -0.047 C 
ATOM      6  C   LIG d   1       0.639  80.306 111.747  0.00  0.00     0.091 C 
ENDROOT
BRANCH   1   7
ATOM      7  O   LIG d   1       1.606  81.236 113.798  0.00  0.00    -0.368 OA
BRANCH   7   8
ATOM      8  C   LIG d   1       2.723  81.507 114.680  0.00  0.00     0.119 C 
BRANCH   8   9
ATOM      9  C   LIG d   1       2.582  80.580 115.903  0.00  0.00     0.028 C 
ATOM     10  C   LIG d   1       3.940  80.235 116.538  0.00  0.00     0.006 C 
ENDBRANCH   8   9
BRANCH   8  11
ATOM     11  C   LIG d   1       2.658  82.930 115.241  0.00  0.00     0.028 C 
ATOM     12  C   LIG d   1       3.589  83.905 114.503  0.00  0.00     0.006 C 
ENDBRANCH   8  11
ENDBRANCH   7   8
ENDBRANCH   1   7
BRANCH   6  13
ATOM     13  N   LIG d   1      -0.052  79.155 112.383  0.00  0.00    -0.311 N 
ATOM     14  C   LIG d   1      -1.373  79.091 112.545  0.00  0.00     0.210 C 
ATOM     15  C   LIG d   1      -1.878  77.824 113.242  0.00  0.00     0.109 C 
ATOM     16  O   LIG d   1      -2.176  79.948 112.148  0.00  0.00    -0.276 OA
ATOM     17  H   LIG d   1       0.521  78.400 112.706  0.00  0.00     0.149 HD
ENDBRANCH   6  13
BRANCH   5  18
ATOM     18  N   LIG d   1      -0.270  79.907 109.430  0.00  0.00     0.381 N 
ATOM     19  H   LIG d   1      -0.660  80.808 109.235  0.00  0.00    -0.090 HD
ATOM     20  H   LIG d   1      -0.948  79.375 109.946  0.00  0.00    -0.090 HD
ATOM     21  H   LIG d   1      -0.049  79.441 108.578  0.00  0.00    -0.090 HD
ENDBRANCH   5  18
BRANCH   3  22
ATOM     22  C   LIG d   1       3.946  82.142 109.841  0.00  0.00     0.382 C 
ATOM     23  O   LIG d   1       3.943  83.363 109.552  0.00  0.00    -0.241 OA
ATOM     24  O   LIG d   1       4.919  81.437 109.512  0.00  0.00    -0.241 OA
ENDBRANCH   3  22
TORSDOF 7
ENDMDL
MODEL 7
REMARK VINA RESULT:      -4.7      2.203      3.057
REMARK  7 active torsions:
REMARK  status: ('A' for Active; 'I' for Inactive)
REMARK    1  A    between atoms: C_2  and  C_3 
REMARK    2  A    between atoms: C_3  and  O_6 
REMARK    3  A    between atoms: C_3  and  C_4 
REMARK    4  A    between atoms: C_7  and  O_6 
REMARK    5  A    between atoms: C_9  and  C_10 
REMARK    6  A    between atoms: N_15  and  C_14 
REMARK    7  A    between atoms: N_20  and  C_19 
REMARK       I    between atoms: C_22  and  N_20 
ROOT
ATOM      1  C   LIG d   1       0.385  80.024 113.069  0.00  0.00     0.161 C 
ATOM      2  C   LIG d   1      -0.687  79.545 112.298  0.00  0.00     0.016 C 
ATOM      3  C   LIG d   1      -1.628  78.603 112.773  0.00  0.00     0.038 C 
ATOM      4  C   LIG d   1      -1.649  78.187 114.113  0.00  0.00     0.028 C 
ATOM      5  C   LIG d   1      -0.285  78.258 114.790  0.00  0.00    -0.047 C 
ATOM      6  C   LIG d   1       0.313  79.666 114.568  0.00  0.00     0.091 C 
ENDROOT
BRANCH   1   7
ATOM      7  O   LIG d   1       0.510  81.450 112.900  0.00  0.00    -0.368 OA
BRANCH   7   8
ATOM      8  C   LIG d   1       1.707  81.909 112.226  0.00  0.00     0.119 C 
BRANCH   8   9
ATOM      9  C   LIG d   1       1.269  82.581 110.910  0.00  0.00     0.028 C 
ATOM     10  C   LIG d   1      -0.013  83.414 111.076  0.00  0.00     0.006 C 
ENDBRANCH   8   9
BRANCH   8  11
ATOM     11  C   LIG d   1       2.595  80.734 111.805  0.00  0.00     0.028 C 
ATOM     12  C   LIG d   1       3.738  81.157 110.869  0.00  0.00     0.006 C 
ENDBRANCH   8  11
ENDBRANCH   7   8
ENDBRANCH   1   7
BRANCH   6  13
ATOM     13  N   LIG d   1       1.684  79.794 115.127  0.00  0.00    -0.311 N 
ATOM     14  C   LIG d   1       1.944  80.334 116.317  0.00  0.00     0.210 C 
ATOM     15  C   LIG d   1       3.428  80.387 116.694  0.00  0.00     0.109 C 
ATOM     16  O   LIG d   1       1.083  80.745 117.110  0.00  0.00    -0.276 OA
ATOM     17  H   LIG d   1       2.440  79.457 114.564  0.00  0.00     0.149 HD
ENDBRANCH   6  13
BRANCH   5  18
ATOM     18  N   LIG d   1      -0.477  77.929 116.216  0.00  0.00     0.381 N 
ATOM     19  H   LIG d   1      -1.454  77.911 116.430  0.00  0.00    -0.090 HD
ATOM     20  H   LIG d   1      -0.045  78.644 116.775  0.00  0.00    -0.090 HD
ATOM     21  H   LIG d   1      -0.068  77.044 116.420  0.00  0.00    -0.090 HD
ENDBRANCH   5  18
BRANCH   3  22
ATOM     22  C   LIG d   1      -2.538  78.036 111.893  0.00  0.00     0.382 C 
ATOM     23  O   LIG d   1      -3.740  77.911 112.229  0.00  0.00    -0.241 OA
ATOM     24  O   LIG d   1      -2.162  77.608 110.785  0.00  0.00    -0.241 OA
ENDBRANCH   3  22
TORSDOF 7
ENDMDL
MODEL 8
REMARK VINA RESULT:      -4.7      1.616      4.853
REMARK  7 active torsions:
REMARK  status: ('A' for Active; 'I' for Inactive)
REMARK    1  A    between atoms: C_2  and  C_3 
REMARK    2  A    between atoms: C_3  and  O_6 
REMARK    3  A    between atoms: C_3  and  C_4 
REMARK    4  A    between atoms: C_7  and  O_6 
REMARK    5  A    between atoms: C_9  and  C_10 
REMARK    6  A    between atoms: N_15  and  C_14 
REMARK    7  A    between atoms: N_20  and  C_19 
REMARK       I    between atoms: C_22  and  N_20 
ROOT
ATOM      1  C   LIG d   1       0.640  81.202 111.880  0.00  0.00     0.161 C 
ATOM      2  C   LIG d   1       1.546  81.881 112.711  0.00  0.00     0.016 C 
ATOM      3  C   LIG d   1       1.937  81.410 113.986  0.00  0.00     0.038 C 
ATOM      4  C   LIG d   1       1.562  80.142 114.454  0.00  0.00     0.028 C 
ATOM      5  C   LIG d   1       0.246  79.644 113.867  0.00  0.00    -0.047 C 
ATOM      6  C   LIG d   1       0.307  79.763 112.327  0.00  0.00     0.091 C 
ENDROOT
BRANCH   1   7
ATOM      7  O   LIG d   1       1.126  81.205 110.523  0.00  0.00    -0.368 OA
BRANCH   7   8
ATOM      8  C   LIG d   1       2.396  81.865 110.302  0.00  0.00     0.119 C 
BRANCH   8   9
ATOM      9  C   LIG d   1       2.119  83.139 109.479  0.00  0.00     0.028 C 
ATOM     10  C   LIG d   1       2.729  84.396 110.121  0.00  0.00     0.006 C 
ENDBRANCH   8   9
BRANCH   8  11
ATOM     11  C   LIG d   1       3.323  81.013 109.430  0.00  0.00     0.028 C 
ATOM     12  C   LIG d   1       4.798  81.427 109.547  0.00  0.00     0.006 C 
ENDBRANCH   8  11
ENDBRANCH   7   8
ENDBRANCH   1   7
BRANCH   6  13
ATOM     13  N   LIG d   1      -0.973  79.376 111.677  0.00  0.00    -0.311 N 
ATOM     14  C   LIG d   1      -1.234  78.141 111.252  0.00  0.00     0.210 C 
ATOM     15  C   LIG d   1      -2.605  77.961 110.592  0.00  0.00     0.109 C 
ATOM     16  O   LIG d   1      -0.474  77.170 111.387  0.00  0.00    -0.276 OA
ATOM     17  H   LIG d   1      -1.659  80.095 111.556  0.00  0.00     0.149 HD
ENDBRANCH   6  13
BRANCH   5  18
ATOM     18  N   LIG d   1       0.046  78.259 114.332  0.00  0.00     0.381 N 
ATOM     19  H   LIG d   1      -0.439  78.262 115.208  0.00  0.00    -0.090 HD
ATOM     20  H   LIG d   1       0.943  77.829 114.470  0.00  0.00    -0.090 HD
ATOM     21  H   LIG d   1      -0.477  77.745 113.658  0.00  0.00    -0.090 HD
ENDBRANCH   5  18
BRANCH   3  22
ATOM     22  C   LIG d   1       2.681  82.228 114.823  0.00  0.00     0.382 C 
ATOM     23  O   LIG d   1       3.662  81.759 115.448  0.00  0.00    -0.241 OA
ATOM     24  O   LIG d   1       2.355  83.418 114.995  0.00  0.00    -0.241 OA
ENDBRANCH   3  22
TORSDOF 7
ENDMDL
MODEL 9
REMARK VINA RESULT:      -4.6      2.387      3.901
REMARK  7 active torsions:
REMARK  status: ('A' for Active; 'I' for Inactive)
REMARK    1  A    between atoms: C_2  and  C_3 
REMARK    2  A    between atoms: C_3  and  O_6 
REMARK    3  A    between atoms: C_3  and  C_4 
REMARK    4  A    between atoms: C_7  and  O_6 
REMARK    5  A    between atoms: C_9  and  C_10 
REMARK    6  A    between atoms: N_15  and  C_14 
REMARK    7  A    between atoms: N_20  and  C_19 
REMARK       I    between atoms: C_22  and  N_20 
ROOT
ATOM      1  C   LIG d   1       0.429  80.363 112.771  0.00  0.00     0.161 C 
ATOM      2  C   LIG d   1       1.264  79.946 111.721  0.00  0.00     0.016 C 
ATOM      3  C   LIG d   1       0.850  79.056 110.703  0.00  0.00     0.038 C 
ATOM      4  C   LIG d   1      -0.483  78.637 110.582  0.00  0.00     0.028 C 
ATOM      5  C   LIG d   1      -1.239  78.630 111.907  0.00  0.00    -0.047 C 
ATOM      6  C   LIG d   1      -1.062  80.004 112.593  0.00  0.00     0.091 C 
ENDROOT
BRANCH   1   7
ATOM      7  O   LIG d   1       0.580  81.780 112.983  0.00  0.00    -0.368 OA
BRANCH   7   8
ATOM      8  C   LIG d   1       1.254  82.514 111.931  0.00  0.00     0.119 C 
BRANCH   8   9
ATOM      9  C   LIG d   1       2.350  83.371 112.593  0.00  0.00     0.028 C 
ATOM     10  C   LIG d   1       2.457  83.120 114.107  0.00  0.00     0.006 C 
ENDBRANCH   8   9
BRANCH   8  11
ATOM     11  C   LIG d   1       0.310  83.514 111.257  0.00  0.00     0.028 C 
ATOM     12  C   LIG d   1      -0.628  84.213 112.253  0.00  0.00     0.006 C 
ENDBRANCH   8  11
ENDBRANCH   7   8
ENDBRANCH   1   7
BRANCH   6  13
ATOM     13  N   LIG d   1      -1.699  80.054 113.934  0.00  0.00    -0.311 N 
ATOM     14  C   LIG d   1      -1.486  79.142 114.882  0.00  0.00     0.210 C 
ATOM     15  C   LIG d   1      -2.259  79.371 116.185  0.00  0.00     0.109 C 
ATOM     16  O   LIG d   1      -0.706  78.184 114.779  0.00  0.00    -0.276 OA
ATOM     17  H   LIG d   1      -2.324  80.815 114.114  0.00  0.00     0.149 HD
ENDBRANCH   6  13
BRANCH   5  18
ATOM     18  N   LIG d   1      -2.648  78.307 111.614  0.00  0.00     0.381 N 
ATOM     19  H   LIG d   1      -2.717  77.368 111.275  0.00  0.00    -0.090 HD
ATOM     20  H   LIG d   1      -2.981  78.927 110.897  0.00  0.00    -0.090 HD
ATOM     21  H   LIG d   1      -3.200  78.413 112.437  0.00  0.00    -0.090 HD
ENDBRANCH   5  18
BRANCH   3  22
ATOM     22  C   LIG d   1       1.785  78.544 109.816  0.00  0.00     0.382 C 
ATOM     23  O   LIG d   1       1.696  77.353 109.431  0.00  0.00    -0.241 OA
ATOM     24  O   LIG d   1       2.740  79.244 109.432  0.00  0.00    -0.241 OA
ENDBRANCH   3  22
TORSDOF 7
ENDMDL
