MODEL 1
REMARK VINA RESULT:      -5.2      0.000      0.000
REMARK  7 active torsions:
REMARK  status: ('A' for Active; 'I' for Inactive)
REMARK    1  A    between atoms: C_2  and  C_3 
REMARK    2  A    between atoms: C_3  and  O_6 
REMARK    3  A    between atoms: C_3  and  C_4 
REMARK    4  A    between atoms: C_7  and  O_6 
REMARK    5  A    between atoms: C_9  and  C_10 
REMARK    6  A    between atoms: N_15  and  C_14 
REMARK    7  A    between atoms: N_20  and  C_19 
REMARK       I    between atoms: C_22  and  N_20 
ROOT
ATOM      1  C   LIG d   1       0.073  83.385 112.566  0.00  0.00     0.161 C 
ATOM      2  C   LIG d   1      -1.142  82.881 113.061  0.00  0.00     0.016 C 
ATOM      3  C   LIG d   1      -1.621  81.583 112.772  0.00  0.00     0.038 C 
ATOM      4  C   LIG d   1      -0.841  80.640 112.087  0.00  0.00     0.028 C 
ATOM      5  C   LIG d   1       0.175  81.268 111.139  0.00  0.00    -0.047 C 
ATOM      6  C   LIG d   1       0.990  82.332 111.909  0.00  0.00     0.091 C 
ENDROOT
BRANCH   1   7
ATOM      7  O   LIG d   1       0.778  84.078 113.615  0.00  0.00    -0.368 OA
BRANCH   7   8
ATOM      8  C   LIG d   1       1.276  83.257 114.699  0.00  0.00     0.119 C 
BRANCH   8   9
ATOM      9  C   LIG d   1       0.727  83.844 116.014  0.00  0.00     0.028 C 
ATOM     10  C   LIG d   1      -0.303  82.920 116.685  0.00  0.00     0.006 C 
ENDBRANCH   8   9
BRANCH   8  11
ATOM     11  C   LIG d   1       2.800  83.353 114.817  0.00  0.00     0.028 C 
ATOM     12  C   LIG d   1       3.374  84.596 114.117  0.00  0.00     0.006 C 
ENDBRANCH   8  11
ENDBRANCH   7   8
ENDBRANCH   1   7
BRANCH   6  13
ATOM     13  N   LIG d   1       1.950  83.054 111.034  0.00  0.00    -0.311 N 
ATOM     14  C   LIG d   1       3.241  82.740 110.946  0.00  0.00     0.210 C 
ATOM     15  C   LIG d   1       4.058  83.625 110.000  0.00  0.00     0.109 C 
ATOM     16  O   LIG d   1       3.780  81.793 111.537  0.00  0.00    -0.276 OA
ATOM     17  H   LIG d   1       1.590  83.817 110.495  0.00  0.00     0.149 HD
ENDBRANCH   6  13
BRANCH   5  18
ATOM     18  N   LIG d   1       1.011  80.180 110.597  0.00  0.00     0.381 N 
ATOM     19  H   LIG d   1       0.715  79.955 109.669  0.00  0.00    -0.090 HD
ATOM     20  H   LIG d   1       0.894  79.363 111.172  0.00  0.00    -0.090 HD
ATOM     21  H   LIG d   1       1.968  80.456 110.591  0.00  0.00    -0.090 HD
ENDBRANCH   5  18
BRANCH   3  22
ATOM     22  C   LIG d   1      -2.912  81.231 113.136  0.00  0.00     0.382 C 
ATOM     23  O   LIG d   1      -3.892  81.716 112.520  0.00  0.00    -0.241 OA
ATOM     24  O   LIG d   1      -3.110  80.468 114.100  0.00  0.00    -0.241 OA
ENDBRANCH   3  22
TORSDOF 7
ENDMDL
MODEL 2
REMARK VINA RESULT:      -5.0      2.592      4.497
REMARK  7 active torsions:
REMARK  status: ('A' for Active; 'I' for Inactive)
REMARK    1  A    between atoms: C_2  and  C_3 
REMARK    2  A    between atoms: C_3  and  O_6 
REMARK    3  A    between atoms: C_3  and  C_4 
REMARK    4  A    between atoms: C_7  and  O_6 
REMARK    5  A    between atoms: C_9  and  C_10 
REMARK    6  A    between atoms: N_15  and  C_14 
REMARK    7  A    between atoms: N_20  and  C_19 
REMARK       I    between atoms: C_22  and  N_20 
ROOT
ATOM      1  C   LIG d   1      -0.315  81.039 111.502  0.00  0.00     0.161 C 
ATOM      2  C   LIG d   1      -1.076  79.897 111.203  0.00  0.00     0.016 C 
ATOM      3  C   LIG d   1      -2.085  79.389 112.053  0.00  0.00     0.038 C 
ATOM      4  C   LIG d   1      -2.508  80.082 113.197  0.00  0.00     0.028 C 
ATOM      5  C   LIG d   1      -1.427  80.970 113.802  0.00  0.00    -0.047 C 
ATOM      6  C   LIG d   1      -0.839  81.871 112.692  0.00  0.00     0.091 C 
ENDROOT
BRANCH   1   7
ATOM      7  O   LIG d   1      -0.193  81.866 110.328  0.00  0.00    -0.368 OA
BRANCH   7   8
ATOM      8  C   LIG d   1       1.098  81.853 109.671  0.00  0.00     0.119 C 
BRANCH   8   9
ATOM      9  C   LIG d   1       2.091  81.150 110.616  0.00  0.00     0.028 C 
ATOM     10  C   LIG d   1       3.544  81.254 110.122  0.00  0.00     0.006 C 
ENDBRANCH   8   9
BRANCH   8  11
ATOM     11  C   LIG d   1       1.645  83.272 109.490  0.00  0.00     0.028 C 
ATOM     12  C   LIG d   1       0.605  84.357 109.810  0.00  0.00     0.006 C 
ENDBRANCH   8  11
ENDBRANCH   7   8
ENDBRANCH   1   7
BRANCH   6  13
ATOM     13  N   LIG d   1       0.284  82.713 113.181  0.00  0.00    -0.311 N 
ATOM     14  C   LIG d   1       0.144  83.990 113.534  0.00  0.00     0.210 C 
ATOM     15  C   LIG d   1       1.433  84.680 113.990  0.00  0.00     0.109 C 
ATOM     16  O   LIG d   1      -0.932  84.607 113.543  0.00  0.00    -0.276 OA
ATOM     17  H   LIG d   1       1.187  82.283 113.235  0.00  0.00     0.149 HD
ENDBRANCH   6  13
BRANCH   5  18
ATOM     18  N   LIG d   1      -2.043  81.736 114.902  0.00  0.00     0.381 N 
ATOM     19  H   LIG d   1      -2.507  82.543 114.535  0.00  0.00    -0.090 HD
ATOM     20  H   LIG d   1      -1.320  82.046 115.527  0.00  0.00    -0.090 HD
ATOM     21  H   LIG d   1      -2.694  81.164 115.393  0.00  0.00    -0.090 HD
ENDBRANCH   5  18
BRANCH   3  22
ATOM     22  C   LIG d   1      -2.654  78.154 111.783  0.00  0.00     0.382 C 
ATOM     23  O   LIG d   1      -3.375  77.594 112.643  0.00  0.00    -0.241 OA
ATOM     24  O   LIG d   1      -2.421  77.573 110.706  0.00  0.00    -0.241 OA
ENDBRANCH   3  22
TORSDOF 7
ENDMDL
MODEL 3
REMARK VINA RESULT:      -4.8      2.169      3.175
REMARK  7 active torsions:
REMARK  status: ('A' for Active; 'I' for Inactive)
REMARK    1  A    between atoms: C_2  and  C_3 
REMARK    2  A    between atoms: C_3  and  O_6 
REMARK    3  A    between atoms: C_3  and  C_4 
REMARK    4  A    between atoms: C_7  and  O_6 
REMARK    5  A    between atoms: C_9  and  C_10 
REMARK    6  A    between atoms: N_15  and  C_14 
REMARK    7  A    between atoms: N_20  and  C_19 
REMARK       I    between atoms: C_22  and  N_20 
ROOT
ATOM      1  C   LIG d   1      -1.320  81.017 112.077  0.00  0.00     0.161 C 
ATOM      2  C   LIG d   1      -2.240  80.056 112.526  0.00  0.00     0.016 C 
ATOM      3  C   LIG d   1      -2.312  78.744 112.006  0.00  0.00     0.038 C 
ATOM      4  C   LIG d   1      -1.360  78.253 111.099  0.00  0.00     0.028 C 
ATOM      5  C   LIG d   1      -0.721  79.342 110.243  0.00  0.00    -0.047 C 
ATOM      6  C   LIG d   1      -0.202  80.467 111.168  0.00  0.00     0.091 C 
ENDROOT
BRANCH   1   7
ATOM      7  O   LIG d   1      -0.752  81.714 113.204  0.00  0.00    -0.368 OA
BRANCH   7   8
ATOM      8  C   LIG d   1      -1.278  83.038 113.466  0.00  0.00     0.119 C 
BRANCH   8   9
ATOM      9  C   LIG d   1      -0.183  84.054 113.088  0.00  0.00     0.028 C 
ATOM     10  C   LIG d   1       1.165  83.743 113.759  0.00  0.00     0.006 C 
ENDBRANCH   8   9
BRANCH   8  11
ATOM     11  C   LIG d   1      -1.529  83.251 114.962  0.00  0.00     0.028 C 
ATOM     12  C   LIG d   1      -2.949  82.849 115.391  0.00  0.00     0.006 C 
ENDBRANCH   8  11
ENDBRANCH   7   8
ENDBRANCH   1   7
BRANCH   6  13
ATOM     13  N   LIG d   1       0.363  81.611 110.406  0.00  0.00    -0.311 N 
ATOM     14  C   LIG d   1       1.632  82.004 110.506  0.00  0.00     0.210 C 
ATOM     15  C   LIG d   1       2.002  83.218 109.649  0.00  0.00     0.109 C 
ATOM     16  O   LIG d   1       2.493  81.443 111.200  0.00  0.00    -0.276 OA
ATOM     17  H   LIG d   1      -0.259  82.104 109.795  0.00  0.00     0.149 HD
ENDBRANCH   6  13
BRANCH   5  18
ATOM     18  N   LIG d   1       0.346  78.711 109.444  0.00  0.00     0.381 N 
ATOM     19  H   LIG d   1       0.584  77.823 109.837  0.00  0.00    -0.090 HD
ATOM     20  H   LIG d   1       1.162  79.297 109.471  0.00  0.00    -0.090 HD
ATOM     21  H   LIG d   1       0.043  78.595 108.502  0.00  0.00    -0.090 HD
ENDBRANCH   5  18
BRANCH   3  22
ATOM     22  C   LIG d   1      -3.368  77.919 112.362  0.00  0.00     0.382 C 
ATOM     23  O   LIG d   1      -4.388  77.857 111.634  0.00  0.00    -0.241 OA
ATOM     24  O   LIG d   1      -3.332  77.271 113.425  0.00  0.00    -0.241 OA
ENDBRANCH   3  22
TORSDOF 7
ENDMDL
MODEL 4
REMARK VINA RESULT:      -4.7      4.036      6.586
REMARK  7 active torsions:
REMARK  status: ('A' for Active; 'I' for Inactive)
REMARK    1  A    between atoms: C_2  and  C_3 
REMARK    2  A    between atoms: C_3  and  O_6 
REMARK    3  A    between atoms: C_3  and  C_4 
REMARK    4  A    between atoms: C_7  and  O_6 
REMARK    5  A    between atoms: C_9  and  C_10 
REMARK    6  A    between atoms: N_15  and  C_14 
REMARK    7  A    between atoms: N_20  and  C_19 
REMARK       I    between atoms: C_22  and  N_20 
ROOT
ATOM      1  C   LIG d   1      -2.774  79.497 115.328  0.00  0.00     0.161 C 
ATOM      2  C   LIG d   1      -2.692  80.813 114.844  0.00  0.00     0.016 C 
ATOM      3  C   LIG d   1      -2.275  81.135 113.531  0.00  0.00     0.038 C 
ATOM      4  C   LIG d   1      -2.055  80.147 112.560  0.00  0.00     0.028 C 
ATOM      5  C   LIG d   1      -1.638  78.803 113.147  0.00  0.00    -0.047 C 
ATOM      6  C   LIG d   1      -2.645  78.402 114.249  0.00  0.00     0.091 C 
ENDROOT
BRANCH   1   7
ATOM      7  O   LIG d   1      -3.996  79.326 116.072  0.00  0.00    -0.368 OA
BRANCH   7   8
ATOM      8  C   LIG d   1      -3.853  79.169 117.505  0.00  0.00     0.119 C 
BRANCH   8   9
ATOM      9  C   LIG d   1      -4.072  80.552 118.147  0.00  0.00     0.028 C 
ATOM     10  C   LIG d   1      -2.855  81.020 118.963  0.00  0.00     0.006 C 
ENDBRANCH   8   9
BRANCH   8  11
ATOM     11  C   LIG d   1      -2.424  78.769 117.882  0.00  0.00     0.028 C 
ATOM     12  C   LIG d   1      -2.345  77.375 118.526  0.00  0.00     0.006 C 
ENDBRANCH   8  11
ENDBRANCH   7   8
ENDBRANCH   1   7
BRANCH   6  13
ATOM     13  N   LIG d   1      -2.263  77.139 114.934  0.00  0.00    -0.311 N 
ATOM     14  C   LIG d   1      -2.992  76.025 114.878  0.00  0.00     0.210 C 
ATOM     15  C   LIG d   1      -2.428  74.843 115.672  0.00  0.00     0.109 C 
ATOM     16  O   LIG d   1      -4.035  75.895 114.220  0.00  0.00    -0.276 OA
ATOM     17  H   LIG d   1      -1.415  77.146 115.465  0.00  0.00     0.149 HD
ENDBRANCH   6  13
BRANCH   5  18
ATOM     18  N   LIG d   1      -1.576  77.831 112.039  0.00  0.00     0.381 N 
ATOM     19  H   LIG d   1      -2.403  77.903 111.480  0.00  0.00    -0.090 HD
ATOM     20  H   LIG d   1      -1.534  76.903 112.421  0.00  0.00    -0.090 HD
ATOM     21  H   LIG d   1      -0.772  78.005 111.478  0.00  0.00    -0.090 HD
ENDBRANCH   5  18
BRANCH   3  22
ATOM     22  C   LIG d   1      -2.036  82.457 113.191  0.00  0.00     0.382 C 
ATOM     23  O   LIG d   1      -2.025  83.342 114.081  0.00  0.00    -0.241 OA
ATOM     24  O   LIG d   1      -1.874  82.784 112.000  0.00  0.00    -0.241 OA
ENDBRANCH   3  22
TORSDOF 7
ENDMDL
MODEL 5
REMARK VINA RESULT:      -4.7      1.725      4.821
REMARK  7 active torsions:
REMARK  status: ('A' for Active; 'I' for Inactive)
REMARK    1  A    between atoms: C_2  and  C_3 
REMARK    2  A    between atoms: C_3  and  O_6 
REMARK    3  A    between atoms: C_3  and  C_4 
REMARK    4  A    between atoms: C_7  and  O_6 
REMARK    5  A    between atoms: C_9  and  C_10 
REMARK    6  A    between atoms: N_15  and  C_14 
REMARK    7  A    between atoms: N_20  and  C_19 
REMARK       I    between atoms: C_22  and  N_20 
ROOT
ATOM      1  C   LIG d   1       1.652  81.815 112.681  0.00  0.00     0.161 C 
ATOM      2  C   LIG d   1       2.873  81.989 112.009  0.00  0.00     0.016 C 
ATOM      3  C   LIG d   1       3.043  81.738 110.628  0.00  0.00     0.038 C 
ATOM      4  C   LIG d   1       1.959  81.439 109.789  0.00  0.00     0.028 C 
ATOM      5  C   LIG d   1       0.801  80.762 110.515  0.00  0.00    -0.047 C 
ATOM      6  C   LIG d   1       0.432  81.598 111.762  0.00  0.00     0.091 C 
ENDROOT
BRANCH   1   7
ATOM      7  O   LIG d   1       1.420  82.929 113.566  0.00  0.00    -0.368 OA
BRANCH   7   8
ATOM      8  C   LIG d   1       1.678  82.691 114.972  0.00  0.00     0.119 C 
BRANCH   8   9
ATOM      9  C   LIG d   1       0.314  82.554 115.676  0.00  0.00     0.028 C 
ATOM     10  C   LIG d   1      -0.609  83.755 115.407  0.00  0.00     0.006 C 
ENDBRANCH   8   9
BRANCH   8  11
ATOM     11  C   LIG d   1       2.353  83.899 115.627  0.00  0.00     0.028 C 
ATOM     12  C   LIG d   1       3.879  83.746 115.729  0.00  0.00     0.006 C 
ENDBRANCH   8  11
ENDBRANCH   7   8
ENDBRANCH   1   7
BRANCH   6  13
ATOM     13  N   LIG d   1      -0.636  80.961 112.575  0.00  0.00    -0.311 N 
ATOM     14  C   LIG d   1      -1.840  81.501 112.756  0.00  0.00     0.210 C 
ATOM     15  C   LIG d   1      -2.786  80.689 113.647  0.00  0.00     0.109 C 
ATOM     16  O   LIG d   1      -2.225  82.560 112.238  0.00  0.00    -0.276 OA
ATOM     17  H   LIG d   1      -0.419  80.084 113.007  0.00  0.00     0.149 HD
ENDBRANCH   6  13
BRANCH   5  18
ATOM     18  N   LIG d   1      -0.312  80.633 109.555  0.00  0.00     0.381 N 
ATOM     19  H   LIG d   1      -0.112  79.904 108.900  0.00  0.00    -0.090 HD
ATOM     20  H   LIG d   1      -0.406  81.496 109.048  0.00  0.00    -0.090 HD
ATOM     21  H   LIG d   1      -1.159  80.431 110.040  0.00  0.00    -0.090 HD
ENDBRANCH   5  18
BRANCH   3  22
ATOM     22  C   LIG d   1       4.317  81.745 110.079  0.00  0.00     0.382 C 
ATOM     23  O   LIG d   1       4.912  80.663 109.862  0.00  0.00    -0.241 OA
ATOM     24  O   LIG d   1       4.895  82.822 109.840  0.00  0.00    -0.241 OA
ENDBRANCH   3  22
TORSDOF 7
ENDMDL
MODEL 6
REMARK VINA RESULT:      -4.7      2.973      4.157
REMARK  7 active torsions:
REMARK  status: ('A' for Active; 'I' for Inactive)
REMARK    1  A    between atoms: C_2  and  C_3 
REMARK    2  A    between atoms: C_3  and  O_6 
REMARK    3  A    between atoms: C_3  and  C_4 
REMARK    4  A    between atoms: C_7  and  O_6 
REMARK    5  A    between atoms: C_9  and  C_10 
REMARK    6  A    between atoms: N_15  and  C_14 
REMARK    7  A    between atoms: N_20  and  C_19 
REMARK       I    between atoms: C_22  and  N_20 
ROOT
ATOM      1  C   LIG d   1      -2.204  80.560 113.982  0.00  0.00     0.161 C 
ATOM      2  C   LIG d   1      -2.589  79.283 114.425  0.00  0.00     0.016 C 
ATOM      3  C   LIG d   1      -2.491  78.120 113.628  0.00  0.00     0.038 C 
ATOM      4  C   LIG d   1      -1.855  78.130 112.377  0.00  0.00     0.028 C 
ATOM      5  C   LIG d   1      -1.908  79.486 111.682  0.00  0.00    -0.047 C 
ATOM      6  C   LIG d   1      -1.406  80.572 112.662  0.00  0.00     0.091 C 
ENDROOT
BRANCH   1   7
ATOM      7  O   LIG d   1      -1.467  81.235 115.020  0.00  0.00    -0.368 OA
BRANCH   7   8
ATOM      8  C   LIG d   1      -2.241  81.700 116.153  0.00  0.00     0.119 C 
BRANCH   8   9
ATOM      9  C   LIG d   1      -2.920  83.020 115.740  0.00  0.00     0.028 C 
ATOM     10  C   LIG d   1      -1.909  84.162 115.538  0.00  0.00     0.006 C 
ENDBRANCH   8   9
BRANCH   8  11
ATOM     11  C   LIG d   1      -1.337  82.061 117.335  0.00  0.00     0.028 C 
ATOM     12  C   LIG d   1      -1.659  81.251 118.601  0.00  0.00     0.006 C 
ENDBRANCH   8  11
ENDBRANCH   7   8
ENDBRANCH   1   7
BRANCH   6  13
ATOM     13  N   LIG d   1      -1.504  81.940 112.090  0.00  0.00    -0.311 N 
ATOM     14  C   LIG d   1      -0.490  82.556 111.484  0.00  0.00     0.210 C 
ATOM     15  C   LIG d   1      -0.798  83.971 110.984  0.00  0.00     0.109 C 
ATOM     16  O   LIG d   1       0.626  82.052 111.284  0.00  0.00    -0.276 OA
ATOM     17  H   LIG d   1      -2.383  82.410 112.180  0.00  0.00     0.149 HD
ENDBRANCH   6  13
BRANCH   5  18
ATOM     18  N   LIG d   1      -1.091  79.391 110.457  0.00  0.00     0.381 N 
ATOM     19  H   LIG d   1      -0.152  79.674 110.653  0.00  0.00    -0.090 HD
ATOM     20  H   LIG d   1      -1.470  80.013 109.765  0.00  0.00    -0.090 HD
ATOM     21  H   LIG d   1      -1.099  78.456 110.114  0.00  0.00    -0.090 HD
ENDBRANCH   5  18
BRANCH   3  22
ATOM     22  C   LIG d   1      -3.068  76.937 114.064  0.00  0.00     0.382 C 
ATOM     23  O   LIG d   1      -2.417  76.156 114.799  0.00  0.00    -0.241 OA
ATOM     24  O   LIG d   1      -4.214  76.620 113.695  0.00  0.00    -0.241 OA
ENDBRANCH   3  22
TORSDOF 7
ENDMDL
MODEL 7
REMARK VINA RESULT:      -4.7      1.819      5.018
REMARK  7 active torsions:
REMARK  status: ('A' for Active; 'I' for Inactive)
REMARK    1  A    between atoms: C_2  and  C_3 
REMARK    2  A    between atoms: C_3  and  O_6 
REMARK    3  A    between atoms: C_3  and  C_4 
REMARK    4  A    between atoms: C_7  and  O_6 
REMARK    5  A    between atoms: C_9  and  C_10 
REMARK    6  A    between atoms: N_15  and  C_14 
REMARK    7  A    between atoms: N_20  and  C_19 
REMARK       I    between atoms: C_22  and  N_20 
ROOT
ATOM      1  C   LIG d   1       0.895  81.684 113.311  0.00  0.00     0.161 C 
ATOM      2  C   LIG d   1       1.896  82.605 112.959  0.00  0.00     0.016 C 
ATOM      3  C   LIG d   1       2.184  82.970 111.624  0.00  0.00     0.038 C 
ATOM      4  C   LIG d   1       1.383  82.550 110.552  0.00  0.00     0.028 C 
ATOM      5  C   LIG d   1       0.676  81.223 110.807  0.00  0.00    -0.047 C 
ATOM      6  C   LIG d   1      -0.062  81.300 112.163  0.00  0.00     0.091 C 
ENDROOT
BRANCH   1   7
ATOM      7  O   LIG d   1       0.149  82.180 114.440  0.00  0.00    -0.368 OA
BRANCH   7   8
ATOM      8  C   LIG d   1      -0.911  83.121 114.140  0.00  0.00     0.119 C 
BRANCH   8   9
ATOM      9  C   LIG d   1      -0.439  84.513 114.603  0.00  0.00     0.028 C 
ATOM     10  C   LIG d   1       0.399  84.450 115.891  0.00  0.00     0.006 C 
ENDBRANCH   8   9
BRANCH   8  11
ATOM     11  C   LIG d   1      -2.168  82.825 114.962  0.00  0.00     0.028 C 
ATOM     12  C   LIG d   1      -2.010  81.595 115.870  0.00  0.00     0.006 C 
ENDBRANCH   8  11
ENDBRANCH   7   8
ENDBRANCH   1   7
BRANCH   6  13
ATOM     13  N   LIG d   1      -0.711  80.014 112.530  0.00  0.00    -0.311 N 
ATOM     14  C   LIG d   1      -2.031  79.851 112.594  0.00  0.00     0.210 C 
ATOM     15  C   LIG d   1      -2.490  78.450 113.011  0.00  0.00     0.109 C 
ATOM     16  O   LIG d   1      -2.866  80.725 112.315  0.00  0.00    -0.276 OA
ATOM     17  H   LIG d   1      -0.108  79.243 112.741  0.00  0.00     0.149 HD
ENDBRANCH   6  13
BRANCH   5  18
ATOM     18  N   LIG d   1      -0.229  80.973 109.669  0.00  0.00     0.381 N 
ATOM     19  H   LIG d   1      -1.176  80.944 109.990  0.00  0.00    -0.090 HD
ATOM     20  H   LIG d   1      -0.005  80.081 109.265  0.00  0.00    -0.090 HD
ATOM     21  H   LIG d   1      -0.124  81.691 108.986  0.00  0.00    -0.090 HD
ENDBRANCH   5  18
BRANCH   3  22
ATOM     22  C   LIG d   1       3.308  83.733 111.347  0.00  0.00     0.382 C 
ATOM     23  O   LIG d   1       4.225  83.831 112.198  0.00  0.00    -0.241 OA
ATOM     24  O   LIG d   1       3.397  84.360 110.274  0.00  0.00    -0.241 OA
ENDBRANCH   3  22
TORSDOF 7
ENDMDL
MODEL 8
REMARK VINA RESULT:      -4.4      2.810      4.748
REMARK  7 active torsions:
REMARK  status: ('A' for Active; 'I' for Inactive)
REMARK    1  A    between atoms: C_2  and  C_3 
REMARK    2  A    between atoms: C_3  and  O_6 
REMARK    3  A    between atoms: C_3  and  C_4 
REMARK    4  A    between atoms: C_7  and  O_6 
REMARK    5  A    between atoms: C_9  and  C_10 
REMARK    6  A    between atoms: N_15  and  C_14 
REMARK    7  A    between atoms: N_20  and  C_19 
REMARK       I    between atoms: C_22  and  N_20 
ROOT
ATOM      1  C   LIG d   1      -1.992  81.731 112.789  0.00  0.00     0.161 C 
ATOM      2  C   LIG d   1      -1.720  82.647 113.819  0.00  0.00     0.016 C 
ATOM      3  C   LIG d   1      -1.118  82.282 115.045  0.00  0.00     0.038 C 
ATOM      4  C   LIG d   1      -0.608  80.995 115.267  0.00  0.00     0.028 C 
ATOM      5  C   LIG d   1      -1.314  79.915 114.453  0.00  0.00    -0.047 C 
ATOM      6  C   LIG d   1      -1.342  80.344 112.968  0.00  0.00     0.091 C 
ENDROOT
BRANCH   1   7
ATOM      7  O   LIG d   1      -1.619  82.299 111.518  0.00  0.00    -0.368 OA
BRANCH   7   8
ATOM      8  C   LIG d   1      -0.461  83.171 111.525  0.00  0.00     0.119 C 
BRANCH   8   9
ATOM      9  C   LIG d   1      -0.776  84.367 110.606  0.00  0.00     0.028 C 
ATOM     10  C   LIG d   1       0.374  84.679 109.634  0.00  0.00     0.006 C 
ENDBRANCH   8   9
BRANCH   8  11
ATOM     11  C   LIG d   1       0.756  82.486 110.896  0.00  0.00     0.028 C 
ATOM     12  C   LIG d   1       1.801  82.053 111.937  0.00  0.00     0.006 C 
ENDBRANCH   8  11
ENDBRANCH   7   8
ENDBRANCH   1   7
BRANCH   6  13
ATOM     13  N   LIG d   1      -2.089  79.383 112.115  0.00  0.00    -0.311 N 
ATOM     14  C   LIG d   1      -1.605  78.880 110.981  0.00  0.00     0.210 C 
ATOM     15  C   LIG d   1      -2.547  77.922 110.245  0.00  0.00     0.109 C 
ATOM     16  O   LIG d   1      -0.473  79.112 110.530  0.00  0.00    -0.276 OA
ATOM     17  H   LIG d   1      -3.004  79.116 112.422  0.00  0.00     0.149 HD
ENDBRANCH   6  13
BRANCH   5  18
ATOM     18  N   LIG d   1      -0.593  78.647 114.676  0.00  0.00     0.381 N 
ATOM     19  H   LIG d   1      -1.121  78.061 115.291  0.00  0.00    -0.090 HD
ATOM     20  H   LIG d   1       0.290  78.847 115.111  0.00  0.00    -0.090 HD
ATOM     21  H   LIG d   1      -0.446  78.182 113.807  0.00  0.00    -0.090 HD
ENDBRANCH   5  18
BRANCH   3  22
ATOM     22  C   LIG d   1      -1.059  83.202 116.082  0.00  0.00     0.382 C 
ATOM     23  O   LIG d   1      -1.562  84.342 115.938  0.00  0.00    -0.241 OA
ATOM     24  O   LIG d   1      -0.470  82.921 117.142  0.00  0.00    -0.241 OA
ENDBRANCH   3  22
TORSDOF 7
ENDMDL
MODEL 9
REMARK VINA RESULT:      -4.4      3.191      6.080
REMARK  7 active torsions:
REMARK  status: ('A' for Active; 'I' for Inactive)
REMARK    1  A    between atoms: C_2  and  C_3 
REMARK    2  A    between atoms: C_3  and  O_6 
REMARK    3  A    between atoms: C_3  and  C_4 
REMARK    4  A    between atoms: C_7  and  O_6 
REMARK    5  A    between atoms: C_9  and  C_10 
REMARK    6  A    between atoms: N_15  and  C_14 
REMARK    7  A    between atoms: N_20  and  C_19 
REMARK       I    between atoms: C_22  and  N_20 
ROOT
ATOM      1  C   LIG d   1      -2.096  81.019 114.050  0.00  0.00     0.161 C 
ATOM      2  C   LIG d   1      -1.883  81.636 112.806  0.00  0.00     0.016 C 
ATOM      3  C   LIG d   1      -0.630  82.146 112.395  0.00  0.00     0.038 C 
ATOM      4  C   LIG d   1       0.538  81.937 113.143  0.00  0.00     0.028 C 
ATOM      5  C   LIG d   1       0.277  81.764 114.636  0.00  0.00    -0.047 C 
ATOM      6  C   LIG d   1      -0.810  80.683 114.833  0.00  0.00     0.091 C 
ENDROOT
BRANCH   1   7
ATOM      7  O   LIG d   1      -2.902  79.837 113.877  0.00  0.00    -0.368 OA
BRANCH   7   8
ATOM      8  C   LIG d   1      -2.229  78.684 113.313  0.00  0.00     0.119 C 
BRANCH   8   9
ATOM      9  C   LIG d   1      -2.903  78.369 111.964  0.00  0.00     0.028 C 
ATOM     10  C   LIG d   1      -1.905  78.376 110.793  0.00  0.00     0.006 C 
ENDBRANCH   8   9
BRANCH   8  11
ATOM     11  C   LIG d   1      -2.444  77.437 114.175  0.00  0.00     0.028 C 
ATOM     12  C   LIG d   1      -3.334  77.704 115.399  0.00  0.00     0.006 C 
ENDBRANCH   8  11
ENDBRANCH   7   8
ENDBRANCH   1   7
BRANCH   6  13
ATOM     13  N   LIG d   1      -1.186  80.511 116.261  0.00  0.00    -0.311 N 
ATOM     14  C   LIG d   1      -0.670  79.566 117.046  0.00  0.00     0.210 C 
ATOM     15  C   LIG d   1      -1.210  79.551 118.480  0.00  0.00     0.109 C 
ATOM     16  O   LIG d   1       0.206  78.759 116.700  0.00  0.00    -0.276 OA
ATOM     17  H   LIG d   1      -1.868  81.142 116.633  0.00  0.00     0.149 HD
ENDBRANCH   6  13
BRANCH   5  18
ATOM     18  N   LIG d   1       1.560  81.416 115.275  0.00  0.00     0.381 N 
ATOM     19  H   LIG d   1       2.159  82.218 115.291  0.00  0.00    -0.090 HD
ATOM     20  H   LIG d   1       2.009  80.698 114.734  0.00  0.00    -0.090 HD
ATOM     21  H   LIG d   1       1.402  81.092 116.204  0.00  0.00    -0.090 HD
ENDBRANCH   5  18
BRANCH   3  22
ATOM     22  C   LIG d   1      -0.544  82.910 111.240  0.00  0.00     0.382 C 
ATOM     23  O   LIG d   1      -1.473  83.697 110.939  0.00  0.00    -0.241 OA
ATOM     24  O   LIG d   1       0.430  82.788 110.474  0.00  0.00    -0.241 OA
ENDBRANCH   3  22
TORSDOF 7
ENDMDL
