MODEL 1
REMARK VINA RESULT:      -6.5      0.000      0.000
REMARK  7 active torsions:
REMARK  status: ('A' for Active; 'I' for Inactive)
REMARK    1  A    between atoms: C_2  and  C_3 
REMARK    2  A    between atoms: C_3  and  O_6 
REMARK    3  A    between atoms: C_3  and  C_4 
REMARK    4  A    between atoms: C_7  and  O_6 
REMARK    5  A    between atoms: C_9  and  C_10 
REMARK    6  A    between atoms: N_15  and  C_14 
REMARK    7  A    between atoms: N_20  and  C_19 
REMARK       I    between atoms: C_22  and  N_20 
ROOT
ATOM      1  C   LIG d   1       0.436  82.894 111.630  0.00  0.00     0.161 C 
ATOM      2  C   LIG d   1      -0.793  82.545 112.215  0.00  0.00     0.016 C 
ATOM      3  C   LIG d   1      -1.332  81.239 112.173  0.00  0.00     0.038 C 
ATOM      4  C   LIG d   1      -0.602  80.152 111.670  0.00  0.00     0.028 C 
ATOM      5  C   LIG d   1       0.428  80.548 110.618  0.00  0.00    -0.047 C 
ATOM      6  C   LIG d   1       1.298  81.698 111.175  0.00  0.00     0.091 C 
ENDROOT
BRANCH   1   7
ATOM      7  O   LIG d   1       1.183  83.736 112.530  0.00  0.00    -0.368 OA
BRANCH   7   8
ATOM      8  C   LIG d   1       1.018  85.164 112.351  0.00  0.00     0.119 C 
BRANCH   8   9
ATOM      9  C   LIG d   1       0.860  85.426 110.841  0.00  0.00     0.028 C 
ATOM     10  C   LIG d   1      -0.370  86.294 110.522  0.00  0.00     0.006 C 
ENDBRANCH   8   9
BRANCH   8  11
ATOM     11  C   LIG d   1       2.280  85.927 112.765  0.00  0.00     0.028 C 
ATOM     12  C   LIG d   1       3.304  86.048 111.625  0.00  0.00     0.006 C 
ENDBRANCH   8  11
ENDBRANCH   7   8
ENDBRANCH   1   7
BRANCH   6  13
ATOM     13  N   LIG d   1       2.276  82.203 110.177  0.00  0.00    -0.311 N 
ATOM     14  C   LIG d   1       3.536  82.514 110.479  0.00  0.00     0.210 C 
ATOM     15  C   LIG d   1       4.371  83.036 109.305  0.00  0.00     0.109 C 
ATOM     16  O   LIG d   1       4.049  82.378 111.599  0.00  0.00    -0.276 OA
ATOM     17  H   LIG d   1       1.953  82.314 109.236  0.00  0.00     0.149 HD
ENDBRANCH   6  13
BRANCH   5  18
ATOM     18  N   LIG d   1       1.208  79.342 110.282  0.00  0.00     0.381 N 
ATOM     19  H   LIG d   1       1.148  78.680 111.030  0.00  0.00    -0.090 HD
ATOM     20  H   LIG d   1       2.173  79.601 110.168  0.00  0.00    -0.090 HD
ATOM     21  H   LIG d   1       0.864  78.936 109.440  0.00  0.00    -0.090 HD
ENDBRANCH   5  18
BRANCH   3  22
ATOM     22  C   LIG d   1      -2.632  81.018 112.601  0.00  0.00     0.382 C 
ATOM     23  O   LIG d   1      -3.105  79.856 112.596  0.00  0.00    -0.241 OA
ATOM     24  O   LIG d   1      -3.353  81.972 112.950  0.00  0.00    -0.241 OA
ENDBRANCH   3  22
TORSDOF 7
ENDMDL
MODEL 2
REMARK VINA RESULT:      -6.0      2.034      4.695
REMARK  7 active torsions:
REMARK  status: ('A' for Active; 'I' for Inactive)
REMARK    1  A    between atoms: C_2  and  C_3 
REMARK    2  A    between atoms: C_3  and  O_6 
REMARK    3  A    between atoms: C_3  and  C_4 
REMARK    4  A    between atoms: C_7  and  O_6 
REMARK    5  A    between atoms: C_9  and  C_10 
REMARK    6  A    between atoms: N_15  and  C_14 
REMARK    7  A    between atoms: N_20  and  C_19 
REMARK       I    between atoms: C_22  and  N_20 
ROOT
ATOM      1  C   LIG d   1       1.229  82.084 112.411  0.00  0.00     0.161 C 
ATOM      2  C   LIG d   1       2.197  81.700 111.469  0.00  0.00     0.016 C 
ATOM      3  C   LIG d   1       1.989  80.681 110.511  0.00  0.00     0.038 C 
ATOM      4  C   LIG d   1       0.736  80.076 110.332  0.00  0.00     0.028 C 
ATOM      5  C   LIG d   1      -0.122  80.076 111.593  0.00  0.00    -0.047 C 
ATOM      6  C   LIG d   1      -0.182  81.513 112.159  0.00  0.00     0.091 C 
ENDROOT
BRANCH   1   7
ATOM      7  O   LIG d   1       1.178  83.522 112.501  0.00  0.00    -0.368 OA
BRANCH   7   8
ATOM      8  C   LIG d   1       0.251  84.185 111.607  0.00  0.00     0.119 C 
BRANCH   8   9
ATOM      9  C   LIG d   1       1.083  84.914 110.534  0.00  0.00     0.028 C 
ATOM     10  C   LIG d   1       0.203  85.638 109.501  0.00  0.00     0.006 C 
ENDBRANCH   8   9
BRANCH   8  11
ATOM     11  C   LIG d   1      -0.532  85.285 112.331  0.00  0.00     0.028 C 
ATOM     12  C   LIG d   1      -0.458  85.160 113.861  0.00  0.00     0.006 C 
ENDBRANCH   8  11
ENDBRANCH   7   8
ENDBRANCH   1   7
BRANCH   6  13
ATOM     13  N   LIG d   1      -0.933  81.587 113.440  0.00  0.00    -0.311 N 
ATOM     14  C   LIG d   1      -2.246  81.800 113.509  0.00  0.00     0.210 C 
ATOM     15  C   LIG d   1      -2.818  81.860 114.929  0.00  0.00     0.109 C 
ATOM     16  O   LIG d   1      -2.996  81.913 112.528  0.00  0.00    -0.276 OA
ATOM     17  H   LIG d   1      -0.407  81.475 114.284  0.00  0.00     0.149 HD
ENDBRANCH   6  13
BRANCH   5  18
ATOM     18  N   LIG d   1      -1.449  79.542 111.229  0.00  0.00     0.381 N 
ATOM     19  H   LIG d   1      -2.092  80.296 111.093  0.00  0.00    -0.090 HD
ATOM     20  H   LIG d   1      -1.787  78.972 111.984  0.00  0.00    -0.090 HD
ATOM     21  H   LIG d   1      -1.381  78.999 110.397  0.00  0.00    -0.090 HD
ENDBRANCH   5  18
BRANCH   3  22
ATOM     22  C   LIG d   1       3.053  80.229 109.747  0.00  0.00     0.382 C 
ATOM     23  O   LIG d   1       3.900  81.043 109.307  0.00  0.00    -0.241 OA
ATOM     24  O   LIG d   1       3.154  79.022 109.454  0.00  0.00    -0.241 OA
ENDBRANCH   3  22
TORSDOF 7
ENDMDL
MODEL 3
REMARK VINA RESULT:      -5.7      2.066      4.703
REMARK  7 active torsions:
REMARK  status: ('A' for Active; 'I' for Inactive)
REMARK    1  A    between atoms: C_2  and  C_3 
REMARK    2  A    between atoms: C_3  and  O_6 
REMARK    3  A    between atoms: C_3  and  C_4 
REMARK    4  A    between atoms: C_7  and  O_6 
REMARK    5  A    between atoms: C_9  and  C_10 
REMARK    6  A    between atoms: N_15  and  C_14 
REMARK    7  A    between atoms: N_20  and  C_19 
REMARK       I    between atoms: C_22  and  N_20 
ROOT
ATOM      1  C   LIG d   1       1.086  82.324 112.206  0.00  0.00     0.161 C 
ATOM      2  C   LIG d   1       2.080  81.907 111.305  0.00  0.00     0.016 C 
ATOM      3  C   LIG d   1       1.945  80.776 110.467  0.00  0.00     0.038 C 
ATOM      4  C   LIG d   1       0.738  80.069 110.364  0.00  0.00     0.028 C 
ATOM      5  C   LIG d   1      -0.119  80.148 111.623  0.00  0.00    -0.047 C 
ATOM      6  C   LIG d   1      -0.281  81.631 112.028  0.00  0.00     0.091 C 
ENDROOT
BRANCH   1   7
ATOM      7  O   LIG d   1       0.935  83.756 112.138  0.00  0.00    -0.368 OA
BRANCH   7   8
ATOM      8  C   LIG d   1       1.291  84.492 113.334  0.00  0.00     0.119 C 
BRANCH   8   9
ATOM      9  C   LIG d   1       0.034  85.251 113.802  0.00  0.00     0.028 C 
ATOM     10  C   LIG d   1      -0.404  84.844 115.218  0.00  0.00     0.006 C 
ENDBRANCH   8   9
BRANCH   8  11
ATOM     11  C   LIG d   1       2.331  85.575 113.033  0.00  0.00     0.028 C 
ATOM     12  C   LIG d   1       2.506  85.830 111.527  0.00  0.00     0.006 C 
ENDBRANCH   8  11
ENDBRANCH   7   8
ENDBRANCH   1   7
BRANCH   6  13
ATOM     13  N   LIG d   1      -1.036  81.792 113.298  0.00  0.00    -0.311 N 
ATOM     14  C   LIG d   1      -2.363  81.889 113.355  0.00  0.00     0.210 C 
ATOM     15  C   LIG d   1      -2.938  82.071 114.763  0.00  0.00     0.109 C 
ATOM     16  O   LIG d   1      -3.120  81.810 112.376  0.00  0.00    -0.276 OA
ATOM     17  H   LIG d   1      -0.502  81.834 114.144  0.00  0.00     0.149 HD
ENDBRANCH   6  13
BRANCH   5  18
ATOM     18  N   LIG d   1      -1.404  79.485 111.329  0.00  0.00     0.381 N 
ATOM     19  H   LIG d   1      -1.541  79.435 110.340  0.00  0.00    -0.090 HD
ATOM     20  H   LIG d   1      -2.149  80.032 111.723  0.00  0.00    -0.090 HD
ATOM     21  H   LIG d   1      -1.412  78.569 111.720  0.00  0.00    -0.090 HD
ENDBRANCH   5  18
BRANCH   3  22
ATOM     22  C   LIG d   1       3.040  80.318 109.749  0.00  0.00     0.382 C 
ATOM     23  O   LIG d   1       3.884  81.134 109.306  0.00  0.00    -0.241 OA
ATOM     24  O   LIG d   1       3.170  79.105 109.501  0.00  0.00    -0.241 OA
ENDBRANCH   3  22
TORSDOF 7
ENDMDL
MODEL 4
REMARK VINA RESULT:      -5.7      3.367      6.592
REMARK  7 active torsions:
REMARK  status: ('A' for Active; 'I' for Inactive)
REMARK    1  A    between atoms: C_2  and  C_3 
REMARK    2  A    between atoms: C_3  and  O_6 
REMARK    3  A    between atoms: C_3  and  C_4 
REMARK    4  A    between atoms: C_7  and  O_6 
REMARK    5  A    between atoms: C_9  and  C_10 
REMARK    6  A    between atoms: N_15  and  C_14 
REMARK    7  A    between atoms: N_20  and  C_19 
REMARK       I    between atoms: C_22  and  N_20 
ROOT
ATOM      1  C   LIG d   1       3.117  86.009 112.252  0.00  0.00     0.161 C 
ATOM      2  C   LIG d   1       3.694  87.278 112.425  0.00  0.00     0.016 C 
ATOM      3  C   LIG d   1       3.822  87.909 113.684  0.00  0.00     0.038 C 
ATOM      4  C   LIG d   1       3.517  87.245 114.881  0.00  0.00     0.028 C 
ATOM      5  C   LIG d   1       2.462  86.156 114.718  0.00  0.00    -0.047 C 
ATOM      6  C   LIG d   1       2.879  85.223 113.559  0.00  0.00     0.091 C 
ENDROOT
BRANCH   1   7
ATOM      7  O   LIG d   1       3.913  85.231 111.337  0.00  0.00    -0.368 OA
BRANCH   7   8
ATOM      8  C   LIG d   1       3.322  84.972 110.040  0.00  0.00     0.119 C 
BRANCH   8   9
ATOM      9  C   LIG d   1       1.886  85.528 110.066  0.00  0.00     0.028 C 
ATOM     10  C   LIG d   1       0.841  84.478 109.652  0.00  0.00     0.006 C 
ENDBRANCH   8   9
BRANCH   8  11
ATOM     11  C   LIG d   1       3.170  83.469 109.787  0.00  0.00     0.028 C 
ATOM     12  C   LIG d   1       4.473  82.811 109.305  0.00  0.00     0.006 C 
ENDBRANCH   8  11
ENDBRANCH   7   8
ENDBRANCH   1   7
BRANCH   6  13
ATOM     13  N   LIG d   1       1.860  84.178 113.276  0.00  0.00    -0.311 N 
ATOM     14  C   LIG d   1       2.143  82.879 113.205  0.00  0.00     0.210 C 
ATOM     15  C   LIG d   1       0.949  81.974 112.884  0.00  0.00     0.109 C 
ATOM     16  O   LIG d   1       3.262  82.386 113.410  0.00  0.00    -0.276 OA
ATOM     17  H   LIG d   1       0.920  84.487 113.129  0.00  0.00     0.149 HD
ENDBRANCH   6  13
BRANCH   5  18
ATOM     18  N   LIG d   1       2.341  85.455 116.010  0.00  0.00     0.381 N 
ATOM     19  H   LIG d   1       1.584  84.802 115.972  0.00  0.00    -0.090 HD
ATOM     20  H   LIG d   1       2.140  86.129 116.728  0.00  0.00    -0.090 HD
ATOM     21  H   LIG d   1       3.190  84.978 116.220  0.00  0.00    -0.090 HD
ENDBRANCH   5  18
BRANCH   3  22
ATOM     22  C   LIG d   1       4.223  89.235 113.750  0.00  0.00     0.382 C 
ATOM     23  O   LIG d   1       3.981  89.913 114.778  0.00  0.00    -0.241 OA
ATOM     24  O   LIG d   1       4.784  89.775 112.778  0.00  0.00    -0.241 OA
ENDBRANCH   3  22
TORSDOF 7
ENDMDL
MODEL 5
REMARK VINA RESULT:      -5.5      2.743      5.527
REMARK  7 active torsions:
REMARK  status: ('A' for Active; 'I' for Inactive)
REMARK    1  A    between atoms: C_2  and  C_3 
REMARK    2  A    between atoms: C_3  and  O_6 
REMARK    3  A    between atoms: C_3  and  C_4 
REMARK    4  A    between atoms: C_7  and  O_6 
REMARK    5  A    between atoms: C_9  and  C_10 
REMARK    6  A    between atoms: N_15  and  C_14 
REMARK    7  A    between atoms: N_20  and  C_19 
REMARK       I    between atoms: C_22  and  N_20 
ROOT
ATOM      1  C   LIG d   1       0.942  83.957 113.419  0.00  0.00     0.161 C 
ATOM      2  C   LIG d   1       1.698  85.074 113.025  0.00  0.00     0.016 C 
ATOM      3  C   LIG d   1       1.887  85.449 111.675  0.00  0.00     0.038 C 
ATOM      4  C   LIG d   1       1.204  84.814 110.627  0.00  0.00     0.028 C 
ATOM      5  C   LIG d   1       0.830  83.368 110.936  0.00  0.00    -0.047 C 
ATOM      6  C   LIG d   1       0.098  83.319 112.297  0.00  0.00     0.091 C 
ENDROOT
BRANCH   1   7
ATOM      7  O   LIG d   1       0.105  84.305 114.540  0.00  0.00    -0.368 OA
BRANCH   7   8
ATOM      8  C   LIG d   1       0.613  83.951 115.850  0.00  0.00     0.119 C 
BRANCH   8   9
ATOM      9  C   LIG d   1      -0.357  82.920 116.459  0.00  0.00     0.028 C 
ATOM     10  C   LIG d   1      -1.748  82.965 115.805  0.00  0.00     0.006 C 
ENDBRANCH   8   9
BRANCH   8  11
ATOM     11  C   LIG d   1       0.582  85.150 116.802  0.00  0.00     0.028 C 
ATOM     12  C   LIG d   1       1.843  86.022 116.703  0.00  0.00     0.006 C 
ENDBRANCH   8  11
ENDBRANCH   7   8
ENDBRANCH   1   7
BRANCH   6  13
ATOM     13  N   LIG d   1      -0.229  81.930 112.714  0.00  0.00    -0.311 N 
ATOM     14  C   LIG d   1      -1.418  81.365 112.513  0.00  0.00     0.210 C 
ATOM     15  C   LIG d   1      -1.550  79.933 113.039  0.00  0.00     0.109 C 
ATOM     16  O   LIG d   1      -2.365  81.903 111.920  0.00  0.00    -0.276 OA
ATOM     17  H   LIG d   1       0.493  81.411 113.175  0.00  0.00     0.149 HD
ENDBRANCH   6  13
BRANCH   5  18
ATOM     18  N   LIG d   1       0.005  82.873 109.817  0.00  0.00     0.381 N 
ATOM     19  H   LIG d   1       0.565  82.315 109.205  0.00  0.00    -0.090 HD
ATOM     20  H   LIG d   1      -0.343  83.659 109.297  0.00  0.00    -0.090 HD
ATOM     21  H   LIG d   1      -0.756  82.334 110.168  0.00  0.00    -0.090 HD
ENDBRANCH   5  18
BRANCH   3  22
ATOM     22  C   LIG d   1       2.800  86.444 111.360  0.00  0.00     0.382 C 
ATOM     23  O   LIG d   1       3.912  86.140 110.866  0.00  0.00    -0.241 OA
ATOM     24  O   LIG d   1       2.542  87.638 111.603  0.00  0.00    -0.241 OA
ENDBRANCH   3  22
TORSDOF 7
ENDMDL
MODEL 6
REMARK VINA RESULT:      -5.5      2.830      3.803
REMARK  7 active torsions:
REMARK  status: ('A' for Active; 'I' for Inactive)
REMARK    1  A    between atoms: C_2  and  C_3 
REMARK    2  A    between atoms: C_3  and  O_6 
REMARK    3  A    between atoms: C_3  and  C_4 
REMARK    4  A    between atoms: C_7  and  O_6 
REMARK    5  A    between atoms: C_9  and  C_10 
REMARK    6  A    between atoms: N_15  and  C_14 
REMARK    7  A    between atoms: N_20  and  C_19 
REMARK       I    between atoms: C_22  and  N_20 
ROOT
ATOM      1  C   LIG d   1       0.554  84.325 112.654  0.00  0.00     0.161 C 
ATOM      2  C   LIG d   1      -0.451  83.463 112.185  0.00  0.00     0.016 C 
ATOM      3  C   LIG d   1      -1.162  82.570 113.018  0.00  0.00     0.038 C 
ATOM      4  C   LIG d   1      -1.019  82.585 114.414  0.00  0.00     0.028 C 
ATOM      5  C   LIG d   1       0.346  83.083 114.877  0.00  0.00    -0.047 C 
ATOM      6  C   LIG d   1       0.647  84.434 114.190  0.00  0.00     0.091 C 
ENDROOT
BRANCH   1   7
ATOM      7  O   LIG d   1       0.392  85.631 112.067  0.00  0.00    -0.368 OA
BRANCH   7   8
ATOM      8  C   LIG d   1       1.364  86.003 111.059  0.00  0.00     0.119 C 
BRANCH   8   9
ATOM      9  C   LIG d   1       0.704  85.800 109.682  0.00  0.00     0.028 C 
ATOM     10  C   LIG d   1      -0.814  86.048 109.717  0.00  0.00     0.006 C 
ENDBRANCH   8   9
BRANCH   8  11
ATOM     11  C   LIG d   1       2.570  85.059 111.074  0.00  0.00     0.028 C 
ATOM     12  C   LIG d   1       3.912  85.807 111.114  0.00  0.00     0.006 C 
ENDBRANCH   8  11
ENDBRANCH   7   8
ENDBRANCH   1   7
BRANCH   6  13
ATOM     13  N   LIG d   1       2.000  84.951 114.524  0.00  0.00    -0.311 N 
ATOM     14  C   LIG d   1       2.228  86.197 114.935  0.00  0.00     0.210 C 
ATOM     15  C   LIG d   1       3.699  86.529 115.206  0.00  0.00     0.109 C 
ATOM     16  O   LIG d   1       1.349  87.048 115.133  0.00  0.00    -0.276 OA
ATOM     17  H   LIG d   1       2.768  84.317 114.421  0.00  0.00     0.149 HD
ENDBRANCH   6  13
BRANCH   5  18
ATOM     18  N   LIG d   1       0.310  83.177 116.349  0.00  0.00     0.381 N 
ATOM     19  H   LIG d   1       0.270  84.138 116.626  0.00  0.00    -0.090 HD
ATOM     20  H   LIG d   1       1.153  82.776 116.721  0.00  0.00    -0.090 HD
ATOM     21  H   LIG d   1      -0.483  82.689 116.703  0.00  0.00    -0.090 HD
ENDBRANCH   5  18
BRANCH   3  22
ATOM     22  C   LIG d   1      -1.999  81.620 112.452  0.00  0.00     0.382 C 
ATOM     23  O   LIG d   1      -3.244  81.747 112.546  0.00  0.00    -0.241 OA
ATOM     24  O   LIG d   1      -1.525  80.616 111.888  0.00  0.00    -0.241 OA
ENDBRANCH   3  22
TORSDOF 7
ENDMDL
MODEL 7
REMARK VINA RESULT:      -5.4      2.603      5.704
REMARK  7 active torsions:
REMARK  status: ('A' for Active; 'I' for Inactive)
REMARK    1  A    between atoms: C_2  and  C_3 
REMARK    2  A    between atoms: C_3  and  O_6 
REMARK    3  A    between atoms: C_3  and  C_4 
REMARK    4  A    between atoms: C_7  and  O_6 
REMARK    5  A    between atoms: C_9  and  C_10 
REMARK    6  A    between atoms: N_15  and  C_14 
REMARK    7  A    between atoms: N_20  and  C_19 
REMARK       I    between atoms: C_22  and  N_20 
ROOT
ATOM      1  C   LIG d   1       1.585  84.467 112.740  0.00  0.00     0.161 C 
ATOM      2  C   LIG d   1       2.066  85.694 113.226  0.00  0.00     0.016 C 
ATOM      3  C   LIG d   1       3.093  86.433 112.594  0.00  0.00     0.038 C 
ATOM      4  C   LIG d   1       3.607  86.066 111.341  0.00  0.00     0.028 C 
ATOM      5  C   LIG d   1       3.508  84.570 111.060  0.00  0.00    -0.047 C 
ATOM      6  C   LIG d   1       2.056  84.107 111.315  0.00  0.00     0.091 C 
ENDROOT
BRANCH   1   7
ATOM      7  O   LIG d   1       0.146  84.444 112.812  0.00  0.00    -0.368 OA
BRANCH   7   8
ATOM      8  C   LIG d   1      -0.426  83.610 113.850  0.00  0.00     0.119 C 
BRANCH   8   9
ATOM      9  C   LIG d   1      -0.942  84.543 114.962  0.00  0.00     0.028 C 
ATOM     10  C   LIG d   1      -0.055  84.505 116.218  0.00  0.00     0.006 C 
ENDBRANCH   8   9
BRANCH   8  11
ATOM     11  C   LIG d   1       0.642  82.737 114.516  0.00  0.00     0.028 C 
ATOM     12  C   LIG d   1       0.429  81.236 114.260  0.00  0.00     0.006 C 
ENDBRANCH   8  11
ENDBRANCH   7   8
ENDBRANCH   1   7
BRANCH   6  13
ATOM     13  N   LIG d   1       1.891  82.639 111.145  0.00  0.00    -0.311 N 
ATOM     14  C   LIG d   1       0.824  82.083 110.575  0.00  0.00     0.210 C 
ATOM     15  C   LIG d   1       0.846  80.552 110.517  0.00  0.00     0.109 C 
ATOM     16  O   LIG d   1      -0.124  82.713 110.082  0.00  0.00    -0.276 OA
ATOM     17  H   LIG d   1       2.628  82.055 111.488  0.00  0.00     0.149 HD
ENDBRANCH   6  13
BRANCH   5  18
ATOM     18  N   LIG d   1       3.951  84.347 109.671  0.00  0.00     0.381 N 
ATOM     19  H   LIG d   1       4.379  85.178 109.315  0.00  0.00    -0.090 HD
ATOM     20  H   LIG d   1       3.149  84.138 109.104  0.00  0.00    -0.090 HD
ATOM     21  H   LIG d   1       4.598  83.591 109.637  0.00  0.00    -0.090 HD
ENDBRANCH   5  18
BRANCH   3  22
ATOM     22  C   LIG d   1       3.645  87.531 113.236  0.00  0.00     0.382 C 
ATOM     23  O   LIG d   1       3.494  88.680 112.754  0.00  0.00    -0.241 OA
ATOM     24  O   LIG d   1       4.328  87.383 114.267  0.00  0.00    -0.241 OA
ENDBRANCH   3  22
TORSDOF 7
ENDMDL
MODEL 8
REMARK VINA RESULT:      -5.4      2.223      3.923
REMARK  7 active torsions:
REMARK  status: ('A' for Active; 'I' for Inactive)
REMARK    1  A    between atoms: C_2  and  C_3 
REMARK    2  A    between atoms: C_3  and  O_6 
REMARK    3  A    between atoms: C_3  and  C_4 
REMARK    4  A    between atoms: C_7  and  O_6 
REMARK    5  A    between atoms: C_9  and  C_10 
REMARK    6  A    between atoms: N_15  and  C_14 
REMARK    7  A    between atoms: N_20  and  C_19 
REMARK       I    between atoms: C_22  and  N_20 
ROOT
ATOM      1  C   LIG d   1       1.125  82.231 112.081  0.00  0.00     0.161 C 
ATOM      2  C   LIG d   1       0.149  81.249 111.846  0.00  0.00     0.016 C 
ATOM      3  C   LIG d   1      -1.140  81.278 112.426  0.00  0.00     0.038 C 
ATOM      4  C   LIG d   1      -1.596  82.380 113.166  0.00  0.00     0.028 C 
ATOM      5  C   LIG d   1      -0.474  83.157 113.846  0.00  0.00    -0.047 C 
ATOM      6  C   LIG d   1       0.609  83.497 112.797  0.00  0.00     0.091 C 
ENDROOT
BRANCH   1   7
ATOM      7  O   LIG d   1       1.772  82.584 110.843  0.00  0.00    -0.368 OA
BRANCH   7   8
ATOM      8  C   LIG d   1       3.102  82.046 110.642  0.00  0.00     0.119 C 
BRANCH   8   9
ATOM      9  C   LIG d   1       4.045  83.234 110.370  0.00  0.00     0.028 C 
ATOM     10  C   LIG d   1       3.327  84.409 109.685  0.00  0.00     0.006 C 
ENDBRANCH   8   9
BRANCH   8  11
ATOM     11  C   LIG d   1       3.168  81.179 109.382  0.00  0.00     0.028 C 
ATOM     12  C   LIG d   1       2.996  79.681 109.680  0.00  0.00     0.006 C 
ENDBRANCH   8  11
ENDBRANCH   7   8
ENDBRANCH   1   7
BRANCH   6  13
ATOM     13  N   LIG d   1       1.782  84.185 113.396  0.00  0.00    -0.311 N 
ATOM     14  C   LIG d   1       2.166  85.413 113.053  0.00  0.00     0.210 C 
ATOM     15  C   LIG d   1       3.414  85.927 113.778  0.00  0.00     0.109 C 
ATOM     16  O   LIG d   1       1.573  86.138 112.240  0.00  0.00    -0.276 OA
ATOM     17  H   LIG d   1       2.303  83.681 114.087  0.00  0.00     0.149 HD
ENDBRANCH   6  13
BRANCH   5  18
ATOM     18  N   LIG d   1      -1.074  84.354 114.466  0.00  0.00     0.381 N 
ATOM     19  H   LIG d   1      -1.800  84.080 115.098  0.00  0.00    -0.090 HD
ATOM     20  H   LIG d   1      -1.482  84.924 113.746  0.00  0.00    -0.090 HD
ATOM     21  H   LIG d   1      -0.377  84.871 114.954  0.00  0.00    -0.090 HD
ENDBRANCH   5  18
BRANCH   3  22
ATOM     22  C   LIG d   1      -1.976  80.179 112.300  0.00  0.00     0.382 C 
ATOM     23  O   LIG d   1      -1.641  79.217 111.566  0.00  0.00    -0.241 OA
ATOM     24  O   LIG d   1      -3.080  80.155 112.876  0.00  0.00    -0.241 OA
ENDBRANCH   3  22
TORSDOF 7
ENDMDL
MODEL 9
REMARK VINA RESULT:      -5.3      2.575      4.226
REMARK  7 active torsions:
REMARK  status: ('A' for Active; 'I' for Inactive)
REMARK    1  A    between atoms: C_2  and  C_3 
REMARK    2  A    between atoms: C_3  and  O_6 
REMARK    3  A    between atoms: C_3  and  C_4 
REMARK    4  A    between atoms: C_7  and  O_6 
REMARK    5  A    between atoms: C_9  and  C_10 
REMARK    6  A    between atoms: N_15  and  C_14 
REMARK    7  A    between atoms: N_20  and  C_19 
REMARK       I    between atoms: C_22  and  N_20 
ROOT
ATOM      1  C   LIG d   1       1.798  83.282 112.799  0.00  0.00     0.161 C 
ATOM      2  C   LIG d   1       0.633  82.590 112.427  0.00  0.00     0.016 C 
ATOM      3  C   LIG d   1      -0.662  82.960 112.855  0.00  0.00     0.038 C 
ATOM      4  C   LIG d   1      -0.898  84.146 113.567  0.00  0.00     0.028 C 
ATOM      5  C   LIG d   1       0.300  84.605 114.392  0.00  0.00    -0.047 C 
ATOM      6  C   LIG d   1       1.550  84.643 113.484  0.00  0.00     0.091 C 
ENDROOT
BRANCH   1   7
ATOM      7  O   LIG d   1       2.656  83.447 111.653  0.00  0.00    -0.368 OA
BRANCH   7   8
ATOM      8  C   LIG d   1       1.991  83.561 110.371  0.00  0.00     0.119 C 
BRANCH   8   9
ATOM      9  C   LIG d   1       2.879  82.860 109.325  0.00  0.00     0.028 C 
ATOM     10  C   LIG d   1       4.368  83.206 109.493  0.00  0.00     0.006 C 
ENDBRANCH   8   9
BRANCH   8  11
ATOM     11  C   LIG d   1       1.905  85.021 109.916  0.00  0.00     0.028 C 
ATOM     12  C   LIG d   1       0.476  85.445 109.542  0.00  0.00     0.006 C 
ENDBRANCH   8  11
ENDBRANCH   7   8
ENDBRANCH   1   7
BRANCH   6  13
ATOM     13  N   LIG d   1       2.783  85.001 114.232  0.00  0.00    -0.311 N 
ATOM     14  C   LIG d   1       3.220  86.251 114.371  0.00  0.00     0.210 C 
ATOM     15  C   LIG d   1       4.523  86.398 115.163  0.00  0.00     0.109 C 
ATOM     16  O   LIG d   1       2.634  87.256 113.940  0.00  0.00    -0.276 OA
ATOM     17  H   LIG d   1       3.303  84.249 114.641  0.00  0.00     0.149 HD
ENDBRANCH   6  13
BRANCH   5  18
ATOM     18  N   LIG d   1      -0.035  85.920 114.970  0.00  0.00     0.381 N 
ATOM     19  H   LIG d   1      -0.521  85.796 115.836  0.00  0.00    -0.090 HD
ATOM     20  H   LIG d   1      -0.642  86.409 114.335  0.00  0.00    -0.090 HD
ATOM     21  H   LIG d   1       0.796  86.448 115.120  0.00  0.00    -0.090 HD
ENDBRANCH   5  18
BRANCH   3  22
ATOM     22  C   LIG d   1      -1.735  82.118 112.605  0.00  0.00     0.382 C 
ATOM     23  O   LIG d   1      -1.723  81.369 111.599  0.00  0.00    -0.241 OA
ATOM     24  O   LIG d   1      -2.735  82.130 113.348  0.00  0.00    -0.241 OA
ENDBRANCH   3  22
TORSDOF 7
ENDMDL
