MODEL 1
REMARK VINA RESULT:      -5.7      0.000      0.000
REMARK  7 active torsions:
REMARK  status: ('A' for Active; 'I' for Inactive)
REMARK    1  A    between atoms: C_2  and  C_3 
REMARK    2  A    between atoms: C_3  and  O_6 
REMARK    3  A    between atoms: C_3  and  C_4 
REMARK    4  A    between atoms: C_7  and  O_6 
REMARK    5  A    between atoms: C_9  and  C_10 
REMARK    6  A    between atoms: N_15  and  C_14 
REMARK    7  A    between atoms: N_20  and  C_19 
REMARK       I    between atoms: C_22  and  N_20 
ROOT
ATOM      1  C   LIG d   1       0.911  81.919 112.329  0.00  0.00     0.161 C 
ATOM      2  C   LIG d   1       1.994  82.456 111.613  0.00  0.00     0.016 C 
ATOM      3  C   LIG d   1       2.213  82.215 110.237  0.00  0.00     0.038 C 
ATOM      4  C   LIG d   1       1.275  81.538 109.444  0.00  0.00     0.028 C 
ATOM      5  C   LIG d   1       0.421  80.548 110.229  0.00  0.00    -0.047 C 
ATOM      6  C   LIG d   1      -0.183  81.269 111.456  0.00  0.00     0.091 C 
ENDROOT
BRANCH   1   7
ATOM      7  O   LIG d   1       0.338  82.930 113.180  0.00  0.00    -0.368 OA
BRANCH   7   8
ATOM      8  C   LIG d   1       0.727  84.297 112.897  0.00  0.00     0.119 C 
BRANCH   8   9
ATOM      9  C   LIG d   1       1.312  84.890 114.194  0.00  0.00     0.028 C 
ATOM     10  C   LIG d   1       2.179  86.133 113.931  0.00  0.00     0.006 C 
ENDBRANCH   8   9
BRANCH   8  11
ATOM     11  C   LIG d   1      -0.490  85.166 112.568  0.00  0.00     0.028 C 
ATOM     12  C   LIG d   1      -0.503  85.645 111.107  0.00  0.00     0.006 C 
ENDBRANCH   8  11
ENDBRANCH   7   8
ENDBRANCH   1   7
BRANCH   6  13
ATOM     13  N   LIG d   1      -0.965  80.351 112.325  0.00  0.00    -0.311 N 
ATOM     14  C   LIG d   1      -2.210  80.604 112.725  0.00  0.00     0.210 C 
ATOM     15  C   LIG d   1      -2.826  79.535 113.633  0.00  0.00     0.109 C 
ATOM     16  O   LIG d   1      -2.873  81.596 112.388  0.00  0.00    -0.276 OA
ATOM     17  H   LIG d   1      -0.514  79.507 112.619  0.00  0.00     0.149 HD
ENDBRANCH   6  13
BRANCH   5  18
ATOM     18  N   LIG d   1      -0.603  80.016 109.310  0.00  0.00     0.381 N 
ATOM     19  H   LIG d   1      -0.330  80.188 108.363  0.00  0.00    -0.090 HD
ATOM     20  H   LIG d   1      -1.471  80.493 109.479  0.00  0.00    -0.090 HD
ATOM     21  H   LIG d   1      -0.719  79.038 109.458  0.00  0.00    -0.090 HD
ENDBRANCH   5  18
BRANCH   3  22
ATOM     22  C   LIG d   1       3.402  82.620 109.650  0.00  0.00     0.382 C 
ATOM     23  O   LIG d   1       4.254  81.765 109.305  0.00  0.00    -0.241 OA
ATOM     24  O   LIG d   1       3.653  83.831 109.500  0.00  0.00    -0.241 OA
ENDBRANCH   3  22
TORSDOF 7
ENDMDL
MODEL 2
REMARK VINA RESULT:      -5.6     21.500     24.836
REMARK  7 active torsions:
REMARK  status: ('A' for Active; 'I' for Inactive)
REMARK    1  A    between atoms: C_2  and  C_3 
REMARK    2  A    between atoms: C_3  and  O_6 
REMARK    3  A    between atoms: C_3  and  C_4 
REMARK    4  A    between atoms: C_7  and  O_6 
REMARK    5  A    between atoms: C_9  and  C_10 
REMARK    6  A    between atoms: N_15  and  C_14 
REMARK    7  A    between atoms: N_20  and  C_19 
REMARK       I    between atoms: C_22  and  N_20 
ROOT
ATOM      1  C   LIG d   1     -16.706  65.418 114.047  0.00  0.00     0.161 C 
ATOM      2  C   LIG d   1     -16.285  66.249 112.996  0.00  0.00     0.016 C 
ATOM      3  C   LIG d   1     -15.565  67.450 113.193  0.00  0.00     0.038 C 
ATOM      4  C   LIG d   1     -15.084  67.826 114.456  0.00  0.00     0.028 C 
ATOM      5  C   LIG d   1     -15.917  67.279 115.610  0.00  0.00    -0.047 C 
ATOM      6  C   LIG d   1     -16.094  65.755 115.423  0.00  0.00     0.091 C 
ENDROOT
BRANCH   1   7
ATOM      7  O   LIG d   1     -16.455  64.039 113.711  0.00  0.00    -0.368 OA
BRANCH   7   8
ATOM      8  C   LIG d   1     -17.623  63.225 113.445  0.00  0.00     0.119 C 
BRANCH   8   9
ATOM      9  C   LIG d   1     -18.853  64.152 113.486  0.00  0.00     0.028 C 
ATOM     10  C   LIG d   1     -19.945  63.722 112.492  0.00  0.00     0.006 C 
ENDBRANCH   8   9
BRANCH   8  11
ATOM     11  C   LIG d   1     -17.852  62.198 114.559  0.00  0.00     0.028 C 
ATOM     12  C   LIG d   1     -18.017  60.767 114.025  0.00  0.00     0.006 C 
ENDBRANCH   8  11
ENDBRANCH   7   8
ENDBRANCH   1   7
BRANCH   6  13
ATOM     13  N   LIG d   1     -16.968  65.154 116.464  0.00  0.00    -0.311 N 
ATOM     14  C   LIG d   1     -16.547  64.239 117.336  0.00  0.00     0.210 C 
ATOM     15  C   LIG d   1     -17.615  63.737 118.312  0.00  0.00     0.109 C 
ATOM     16  O   LIG d   1     -15.382  63.820 117.414  0.00  0.00    -0.276 OA
ATOM     17  H   LIG d   1     -17.921  65.460 116.492  0.00  0.00     0.149 HD
ENDBRANCH   6  13
BRANCH   5  18
ATOM     18  N   LIG d   1     -15.226  67.632 116.865  0.00  0.00     0.381 N 
ATOM     19  H   LIG d   1     -15.890  67.963 117.536  0.00  0.00    -0.090 HD
ATOM     20  H   LIG d   1     -14.571  68.371 116.678  0.00  0.00    -0.090 HD
ATOM     21  H   LIG d   1     -14.747  66.836 117.225  0.00  0.00    -0.090 HD
ENDBRANCH   5  18
BRANCH   3  22
ATOM     22  C   LIG d   1     -15.355  68.308 112.125  0.00  0.00     0.382 C 
ATOM     23  O   LIG d   1     -15.153  69.529 112.332  0.00  0.00    -0.241 OA
ATOM     24  O   LIG d   1     -15.409  67.886 110.954  0.00  0.00    -0.241 OA
ENDBRANCH   3  22
TORSDOF 7
ENDMDL
MODEL 3
REMARK VINA RESULT:      -5.6      4.470      7.062
REMARK  7 active torsions:
REMARK  status: ('A' for Active; 'I' for Inactive)
REMARK    1  A    between atoms: C_2  and  C_3 
REMARK    2  A    between atoms: C_3  and  O_6 
REMARK    3  A    between atoms: C_3  and  C_4 
REMARK    4  A    between atoms: C_7  and  O_6 
REMARK    5  A    between atoms: C_9  and  C_10 
REMARK    6  A    between atoms: N_15  and  C_14 
REMARK    7  A    between atoms: N_20  and  C_19 
REMARK       I    between atoms: C_22  and  N_20 
ROOT
ATOM      1  C   LIG d   1       3.791  85.933 113.470  0.00  0.00     0.161 C 
ATOM      2  C   LIG d   1       4.320  87.171 113.069  0.00  0.00     0.016 C 
ATOM      3  C   LIG d   1       4.885  88.104 113.969  0.00  0.00     0.038 C 
ATOM      4  C   LIG d   1       5.097  87.796 115.321  0.00  0.00     0.028 C 
ATOM      5  C   LIG d   1       4.122  86.758 115.866  0.00  0.00    -0.047 C 
ATOM      6  C   LIG d   1       4.115  85.532 114.925  0.00  0.00     0.091 C 
ENDROOT
BRANCH   1   7
ATOM      7  O   LIG d   1       4.219  84.901 112.559  0.00  0.00    -0.368 OA
BRANCH   7   8
ATOM      8  C   LIG d   1       3.865  85.093 111.168  0.00  0.00     0.119 C 
BRANCH   8   9
ATOM      9  C   LIG d   1       2.342  84.887 111.045  0.00  0.00     0.028 C 
ATOM     10  C   LIG d   1       1.628  86.122 110.468  0.00  0.00     0.006 C 
ENDBRANCH   8   9
BRANCH   8  11
ATOM     11  C   LIG d   1       4.492  84.015 110.279  0.00  0.00     0.028 C 
ATOM     12  C   LIG d   1       3.509  82.888 109.924  0.00  0.00     0.006 C 
ENDBRANCH   8  11
ENDBRANCH   7   8
ENDBRANCH   1   7
BRANCH   6  13
ATOM     13  N   LIG d   1       3.125  84.505 115.339  0.00  0.00    -0.311 N 
ATOM     14  C   LIG d   1       3.408  83.510 116.178  0.00  0.00     0.210 C 
ATOM     15  C   LIG d   1       2.248  82.549 116.457  0.00  0.00     0.109 C 
ATOM     16  O   LIG d   1       4.501  83.350 116.742  0.00  0.00    -0.276 OA
ATOM     17  H   LIG d   1       2.204  84.577 114.953  0.00  0.00     0.149 HD
ENDBRANCH   6  13
BRANCH   5  18
ATOM     18  N   LIG d   1       4.543  86.430 117.241  0.00  0.00     0.381 N 
ATOM     19  H   LIG d   1       4.860  85.482 117.281  0.00  0.00    -0.090 HD
ATOM     20  H   LIG d   1       3.752  86.524 117.854  0.00  0.00    -0.090 HD
ATOM     21  H   LIG d   1       5.272  87.044 117.530  0.00  0.00    -0.090 HD
ENDBRANCH   5  18
BRANCH   3  22
ATOM     22  C   LIG d   1       5.207  89.378 113.525  0.00  0.00     0.382 C 
ATOM     23  O   LIG d   1       4.330  90.276 113.506  0.00  0.00    -0.241 OA
ATOM     24  O   LIG d   1       6.351  89.629 113.102  0.00  0.00    -0.241 OA
ENDBRANCH   3  22
TORSDOF 7
ENDMDL
MODEL 4
REMARK VINA RESULT:      -5.3     20.845     23.287
REMARK  7 active torsions:
REMARK  status: ('A' for Active; 'I' for Inactive)
REMARK    1  A    between atoms: C_2  and  C_3 
REMARK    2  A    between atoms: C_3  and  O_6 
REMARK    3  A    between atoms: C_3  and  C_4 
REMARK    4  A    between atoms: C_7  and  O_6 
REMARK    5  A    between atoms: C_9  and  C_10 
REMARK    6  A    between atoms: N_15  and  C_14 
REMARK    7  A    between atoms: N_20  and  C_19 
REMARK       I    between atoms: C_22  and  N_20 
ROOT
ATOM      1  C   LIG d   1     -15.309  67.446 115.354  0.00  0.00     0.161 C 
ATOM      2  C   LIG d   1     -15.024  68.415 114.377  0.00  0.00     0.016 C 
ATOM      3  C   LIG d   1     -15.354  68.262 113.011  0.00  0.00     0.038 C 
ATOM      4  C   LIG d   1     -16.131  67.189 112.551  0.00  0.00     0.028 C 
ATOM      5  C   LIG d   1     -16.006  65.937 113.413  0.00  0.00    -0.047 C 
ATOM      6  C   LIG d   1     -16.255  66.318 114.890  0.00  0.00     0.091 C 
ENDROOT
BRANCH   1   7
ATOM      7  O   LIG d   1     -15.831  68.083 116.537  0.00  0.00    -0.368 OA
BRANCH   7   8
ATOM      8  C   LIG d   1     -16.094  67.214 117.665  0.00  0.00     0.119 C 
BRANCH   8   9
ATOM      9  C   LIG d   1     -17.232  67.852 118.485  0.00  0.00     0.028 C 
ATOM     10  C   LIG d   1     -18.534  67.036 118.415  0.00  0.00     0.006 C 
ENDBRANCH   8   9
BRANCH   8  11
ATOM     11  C   LIG d   1     -14.894  67.155 118.615  0.00  0.00     0.028 C 
ATOM     12  C   LIG d   1     -15.013  66.031 119.656  0.00  0.00     0.006 C 
ENDBRANCH   8  11
ENDBRANCH   7   8
ENDBRANCH   1   7
BRANCH   6  13
ATOM     13  N   LIG d   1     -16.069  65.168 115.812  0.00  0.00    -0.311 N 
ATOM     14  C   LIG d   1     -17.056  64.348 116.170  0.00  0.00     0.210 C 
ATOM     15  C   LIG d   1     -16.652  63.237 117.145  0.00  0.00     0.109 C 
ATOM     16  O   LIG d   1     -18.219  64.415 115.747  0.00  0.00    -0.276 OA
ATOM     17  H   LIG d   1     -15.148  65.020 116.178  0.00  0.00     0.149 HD
ENDBRANCH   6  13
BRANCH   5  18
ATOM     18  N   LIG d   1     -16.971  64.945 112.902  0.00  0.00     0.381 N 
ATOM     19  H   LIG d   1     -17.725  64.840 113.551  0.00  0.00    -0.090 HD
ATOM     20  H   LIG d   1     -16.507  64.058 112.810  0.00  0.00    -0.090 HD
ATOM     21  H   LIG d   1     -17.323  65.237 112.017  0.00  0.00    -0.090 HD
ENDBRANCH   5  18
BRANCH   3  22
ATOM     22  C   LIG d   1     -14.870  69.170 112.081  0.00  0.00     0.382 C 
ATOM     23  O   LIG d   1     -13.637  69.248 111.864  0.00  0.00    -0.241 OA
ATOM     24  O   LIG d   1     -15.647  69.944 111.490  0.00  0.00    -0.241 OA
ENDBRANCH   3  22
TORSDOF 7
ENDMDL
MODEL 5
REMARK VINA RESULT:      -5.2     11.053     13.050
REMARK  7 active torsions:
REMARK  status: ('A' for Active; 'I' for Inactive)
REMARK    1  A    between atoms: C_2  and  C_3 
REMARK    2  A    between atoms: C_3  and  O_6 
REMARK    3  A    between atoms: C_3  and  C_4 
REMARK    4  A    between atoms: C_7  and  O_6 
REMARK    5  A    between atoms: C_9  and  C_10 
REMARK    6  A    between atoms: N_15  and  C_14 
REMARK    7  A    between atoms: N_20  and  C_19 
REMARK       I    between atoms: C_22  and  N_20 
ROOT
ATOM      1  C   LIG d   1      -8.201  77.225 117.431  0.00  0.00     0.161 C 
ATOM      2  C   LIG d   1      -7.973  78.602 117.590  0.00  0.00     0.016 C 
ATOM      3  C   LIG d   1      -8.875  79.469 118.249  0.00  0.00     0.038 C 
ATOM      4  C   LIG d   1     -10.003  78.987 118.931  0.00  0.00     0.028 C 
ATOM      5  C   LIG d   1     -10.535  77.674 118.368  0.00  0.00    -0.047 C 
ATOM      6  C   LIG d   1      -9.371  76.662 118.265  0.00  0.00     0.091 C 
ENDROOT
BRANCH   1   7
ATOM      7  O   LIG d   1      -6.990  76.494 117.710  0.00  0.00    -0.368 OA
BRANCH   7   8
ATOM      8  C   LIG d   1      -6.071  76.336 116.601  0.00  0.00     0.119 C 
BRANCH   8   9
ATOM      9  C   LIG d   1      -6.788  75.502 115.522  0.00  0.00     0.028 C 
ATOM     10  C   LIG d   1      -6.790  73.998 115.847  0.00  0.00     0.006 C 
ENDBRANCH   8   9
BRANCH   8  11
ATOM     11  C   LIG d   1      -4.847  75.509 117.006  0.00  0.00     0.028 C 
ATOM     12  C   LIG d   1      -4.110  76.092 118.223  0.00  0.00     0.006 C 
ENDBRANCH   8  11
ENDBRANCH   7   8
ENDBRANCH   1   7
BRANCH   6  13
ATOM     13  N   LIG d   1      -9.789  75.378 117.644  0.00  0.00    -0.311 N 
ATOM     14  C   LIG d   1      -9.709  74.203 118.267  0.00  0.00     0.210 C 
ATOM     15  C   LIG d   1     -10.173  73.000 117.439  0.00  0.00     0.109 C 
ATOM     16  O   LIG d   1      -9.327  74.047 119.436  0.00  0.00    -0.276 OA
ATOM     17  H   LIG d   1     -10.140  75.417 116.708  0.00  0.00     0.149 HD
ENDBRANCH   6  13
BRANCH   5  18
ATOM     18  N   LIG d   1     -11.622  77.216 119.255  0.00  0.00     0.381 N 
ATOM     19  H   LIG d   1     -11.425  77.485 120.198  0.00  0.00    -0.090 HD
ATOM     20  H   LIG d   1     -11.672  76.213 119.217  0.00  0.00    -0.090 HD
ATOM     21  H   LIG d   1     -12.489  77.611 118.963  0.00  0.00    -0.090 HD
ENDBRANCH   5  18
BRANCH   3  22
ATOM     22  C   LIG d   1      -8.674  80.840 118.196  0.00  0.00     0.382 C 
ATOM     23  O   LIG d   1      -9.181  81.582 119.071  0.00  0.00    -0.241 OA
ATOM     24  O   LIG d   1      -8.029  81.348 117.260  0.00  0.00    -0.241 OA
ENDBRANCH   3  22
TORSDOF 7
ENDMDL
MODEL 6
REMARK VINA RESULT:      -5.2     10.191     12.727
REMARK  7 active torsions:
REMARK  status: ('A' for Active; 'I' for Inactive)
REMARK    1  A    between atoms: C_2  and  C_3 
REMARK    2  A    between atoms: C_3  and  O_6 
REMARK    3  A    between atoms: C_3  and  C_4 
REMARK    4  A    between atoms: C_7  and  O_6 
REMARK    5  A    between atoms: C_9  and  C_10 
REMARK    6  A    between atoms: N_15  and  C_14 
REMARK    7  A    between atoms: N_20  and  C_19 
REMARK       I    between atoms: C_22  and  N_20 
ROOT
ATOM      1  C   LIG d   1      -8.126  75.924 117.453  0.00  0.00     0.161 C 
ATOM      2  C   LIG d   1      -7.484  75.406 116.316  0.00  0.00     0.016 C 
ATOM      3  C   LIG d   1      -6.221  75.852 115.865  0.00  0.00     0.038 C 
ATOM      4  C   LIG d   1      -5.440  76.746 116.611  0.00  0.00     0.028 C 
ATOM      5  C   LIG d   1      -6.263  77.672 117.501  0.00  0.00    -0.047 C 
ATOM      6  C   LIG d   1      -7.240  76.821 118.343  0.00  0.00     0.091 C 
ENDROOT
BRANCH   1   7
ATOM      7  O   LIG d   1      -8.688  74.848 118.230  0.00  0.00    -0.368 OA
BRANCH   7   8
ATOM      8  C   LIG d   1     -10.135  74.806 118.308  0.00  0.00     0.119 C 
BRANCH   8   9
ATOM      9  C   LIG d   1     -10.605  73.565 117.525  0.00  0.00     0.028 C 
ATOM     10  C   LIG d   1      -9.622  72.389 117.643  0.00  0.00     0.006 C 
ENDBRANCH   8   9
BRANCH   8  11
ATOM     11  C   LIG d   1     -10.766  76.003 117.589  0.00  0.00     0.028 C 
ATOM     12  C   LIG d   1     -11.865  76.684 118.419  0.00  0.00     0.006 C 
ENDBRANCH   8  11
ENDBRANCH   7   8
ENDBRANCH   1   7
BRANCH   6  13
ATOM     13  N   LIG d   1      -8.142  77.655 119.180  0.00  0.00    -0.311 N 
ATOM     14  C   LIG d   1      -8.640  78.824 118.780  0.00  0.00     0.210 C 
ATOM     15  C   LIG d   1      -9.533  79.531 119.805  0.00  0.00     0.109 C 
ATOM     16  O   LIG d   1      -8.454  79.327 117.662  0.00  0.00    -0.276 OA
ATOM     17  H   LIG d   1      -8.370  77.307 120.091  0.00  0.00     0.149 HD
ENDBRANCH   6  13
BRANCH   5  18
ATOM     18  N   LIG d   1      -5.321  78.454 118.323  0.00  0.00     0.381 N 
ATOM     19  H   LIG d   1      -5.632  79.403 118.385  0.00  0.00    -0.090 HD
ATOM     20  H   LIG d   1      -4.419  78.447 117.880  0.00  0.00    -0.090 HD
ATOM     21  H   LIG d   1      -5.254  78.059 119.235  0.00  0.00    -0.090 HD
ENDBRANCH   5  18
BRANCH   3  22
ATOM     22  C   LIG d   1      -5.744  75.431 114.632  0.00  0.00     0.382 C 
ATOM     23  O   LIG d   1      -4.910  74.496 114.569  0.00  0.00    -0.241 OA
ATOM     24  O   LIG d   1      -6.103  76.005 113.587  0.00  0.00    -0.241 OA
ENDBRANCH   3  22
TORSDOF 7
ENDMDL
MODEL 7
REMARK VINA RESULT:      -5.2     10.603     13.645
REMARK  7 active torsions:
REMARK  status: ('A' for Active; 'I' for Inactive)
REMARK    1  A    between atoms: C_2  and  C_3 
REMARK    2  A    between atoms: C_3  and  O_6 
REMARK    3  A    between atoms: C_3  and  C_4 
REMARK    4  A    between atoms: C_7  and  O_6 
REMARK    5  A    between atoms: C_9  and  C_10 
REMARK    6  A    between atoms: N_15  and  C_14 
REMARK    7  A    between atoms: N_20  and  C_19 
REMARK       I    between atoms: C_22  and  N_20 
ROOT
ATOM      1  C   LIG d   1      -8.265  75.993 117.885  0.00  0.00     0.161 C 
ATOM      2  C   LIG d   1      -9.298  76.840 118.321  0.00  0.00     0.016 C 
ATOM      3  C   LIG d   1      -9.177  78.248 118.380  0.00  0.00     0.038 C 
ATOM      4  C   LIG d   1      -8.060  78.918 117.861  0.00  0.00     0.028 C 
ATOM      5  C   LIG d   1      -6.788  78.078 117.875  0.00  0.00    -0.047 C 
ATOM      6  C   LIG d   1      -7.080  76.714 117.210  0.00  0.00     0.091 C 
ENDROOT
BRANCH   1   7
ATOM      7  O   LIG d   1      -8.800  74.981 117.010  0.00  0.00    -0.368 OA
BRANCH   7   8
ATOM      8  C   LIG d   1      -8.828  73.632 117.538  0.00  0.00     0.119 C 
BRANCH   8   9
ATOM      9  C   LIG d   1      -8.310  72.691 116.433  0.00  0.00     0.028 C 
ATOM     10  C   LIG d   1      -8.963  71.300 116.492  0.00  0.00     0.006 C 
ENDBRANCH   8   9
BRANCH   8  11
ATOM     11  C   LIG d   1     -10.262  73.173 117.821  0.00  0.00     0.028 C 
ATOM     12  C   LIG d   1     -11.317  74.092 117.187  0.00  0.00     0.006 C 
ENDBRANCH   8  11
ENDBRANCH   7   8
ENDBRANCH   1   7
BRANCH   6  13
ATOM     13  N   LIG d   1      -5.910  75.798 117.258  0.00  0.00    -0.311 N 
ATOM     14  C   LIG d   1      -5.369  75.243 116.175  0.00  0.00     0.210 C 
ATOM     15  C   LIG d   1      -4.182  74.314 116.449  0.00  0.00     0.109 C 
ATOM     16  O   LIG d   1      -5.738  75.456 115.011  0.00  0.00    -0.276 OA
ATOM     17  H   LIG d   1      -5.527  75.594 118.160  0.00  0.00     0.149 HD
ENDBRANCH   6  13
BRANCH   5  18
ATOM     18  N   LIG d   1      -5.738  78.847 117.182  0.00  0.00     0.381 N 
ATOM     19  H   LIG d   1      -6.156  79.483 116.533  0.00  0.00    -0.090 HD
ATOM     20  H   LIG d   1      -5.154  78.210 116.667  0.00  0.00    -0.090 HD
ATOM     21  H   LIG d   1      -5.189  79.350 117.844  0.00  0.00    -0.090 HD
ENDBRANCH   5  18
BRANCH   3  22
ATOM     22  C   LIG d   1     -10.165  78.996 119.001  0.00  0.00     0.382 C 
ATOM     23  O   LIG d   1      -9.878  80.097 119.530  0.00  0.00    -0.241 OA
ATOM     24  O   LIG d   1     -11.331  78.565 119.077  0.00  0.00    -0.241 OA
ENDBRANCH   3  22
TORSDOF 7
ENDMDL
MODEL 8
REMARK VINA RESULT:      -5.1     22.115     24.309
REMARK  7 active torsions:
REMARK  status: ('A' for Active; 'I' for Inactive)
REMARK    1  A    between atoms: C_2  and  C_3 
REMARK    2  A    between atoms: C_3  and  O_6 
REMARK    3  A    between atoms: C_3  and  C_4 
REMARK    4  A    between atoms: C_7  and  O_6 
REMARK    5  A    between atoms: C_9  and  C_10 
REMARK    6  A    between atoms: N_15  and  C_14 
REMARK    7  A    between atoms: N_20  and  C_19 
REMARK       I    between atoms: C_22  and  N_20 
ROOT
ATOM      1  C   LIG d   1     -15.796  65.635 116.004  0.00  0.00     0.161 C 
ATOM      2  C   LIG d   1     -15.535  66.787 115.245  0.00  0.00     0.016 C 
ATOM      3  C   LIG d   1     -15.889  66.919 113.882  0.00  0.00     0.038 C 
ATOM      4  C   LIG d   1     -16.669  65.958 113.223  0.00  0.00     0.028 C 
ATOM      5  C   LIG d   1     -16.522  64.556 113.804  0.00  0.00    -0.047 C 
ATOM      6  C   LIG d   1     -16.745  64.620 115.332  0.00  0.00     0.091 C 
ENDROOT
BRANCH   1   7
ATOM      7  O   LIG d   1     -16.299  66.008 117.302  0.00  0.00    -0.368 OA
BRANCH   7   8
ATOM      8  C   LIG d   1     -15.900  67.313 117.789  0.00  0.00     0.119 C 
BRANCH   8   9
ATOM      9  C   LIG d   1     -14.905  67.090 118.944  0.00  0.00     0.028 C 
ATOM     10  C   LIG d   1     -15.040  65.694 119.575  0.00  0.00     0.006 C 
ENDBRANCH   8   9
BRANCH   8  11
ATOM     11  C   LIG d   1     -17.082  68.061 118.411  0.00  0.00     0.028 C 
ATOM     12  C   LIG d   1     -18.379  67.237 118.406  0.00  0.00     0.006 C 
ENDBRANCH   8  11
ENDBRANCH   7   8
ENDBRANCH   1   7
BRANCH   6  13
ATOM     13  N   LIG d   1     -16.536  63.304 115.992  0.00  0.00    -0.311 N 
ATOM     14  C   LIG d   1     -17.469  62.693 116.720  0.00  0.00     0.210 C 
ATOM     15  C   LIG d   1     -17.040  61.354 117.328  0.00  0.00     0.109 C 
ATOM     16  O   LIG d   1     -18.621  63.118 116.895  0.00  0.00    -0.276 OA
ATOM     17  H   LIG d   1     -15.640  62.874 115.876  0.00  0.00     0.149 HD
ENDBRANCH   6  13
BRANCH   5  18
ATOM     18  N   LIG d   1     -17.491  63.683 113.114  0.00  0.00     0.381 N 
ATOM     19  H   LIG d   1     -18.348  63.654 113.630  0.00  0.00    -0.090 HD
ATOM     20  H   LIG d   1     -17.117  62.752 113.072  0.00  0.00    -0.090 HD
ATOM     21  H   LIG d   1     -17.661  64.023 112.193  0.00  0.00    -0.090 HD
ENDBRANCH   5  18
BRANCH   3  22
ATOM     22  C   LIG d   1     -15.427  68.005 113.154  0.00  0.00     0.382 C 
ATOM     23  O   LIG d   1     -15.412  67.958 111.900  0.00  0.00    -0.241 OA
ATOM     24  O   LIG d   1     -14.983  69.013 113.735  0.00  0.00    -0.241 OA
ENDBRANCH   3  22
TORSDOF 7
ENDMDL
MODEL 9
REMARK VINA RESULT:      -5.1     23.864     26.608
REMARK  7 active torsions:
REMARK  status: ('A' for Active; 'I' for Inactive)
REMARK    1  A    between atoms: C_2  and  C_3 
REMARK    2  A    between atoms: C_3  and  O_6 
REMARK    3  A    between atoms: C_3  and  C_4 
REMARK    4  A    between atoms: C_7  and  O_6 
REMARK    5  A    between atoms: C_9  and  C_10 
REMARK    6  A    between atoms: N_15  and  C_14 
REMARK    7  A    between atoms: N_20  and  C_19 
REMARK       I    between atoms: C_22  and  N_20 
ROOT
ATOM      1  C   LIG d   1     -25.735  85.951 113.260  0.00  0.00     0.161 C 
ATOM      2  C   LIG d   1     -24.630  86.810 113.375  0.00  0.00     0.016 C 
ATOM      3  C   LIG d   1     -23.340  86.374 113.757  0.00  0.00     0.038 C 
ATOM      4  C   LIG d   1     -23.032  85.013 113.904  0.00  0.00     0.028 C 
ATOM      5  C   LIG d   1     -24.234  84.157 114.290  0.00  0.00    -0.047 C 
ATOM      6  C   LIG d   1     -25.392  84.447 113.307  0.00  0.00     0.091 C 
ENDROOT
BRANCH   1   7
ATOM      7  O   LIG d   1     -26.470  86.259 112.059  0.00  0.00    -0.368 OA
BRANCH   7   8
ATOM      8  C   LIG d   1     -27.235  87.489 112.078  0.00  0.00     0.119 C 
BRANCH   8   9
ATOM      9  C   LIG d   1     -28.676  87.145 111.654  0.00  0.00     0.028 C 
ATOM     10  C   LIG d   1     -28.739  85.917 110.731  0.00  0.00     0.006 C 
ENDBRANCH   8   9
BRANCH   8  11
ATOM     11  C   LIG d   1     -26.727  88.477 111.024  0.00  0.00     0.028 C 
ATOM     12  C   LIG d   1     -27.034  89.940 111.381  0.00  0.00     0.006 C 
ENDBRANCH   8  11
ENDBRANCH   7   8
ENDBRANCH   1   7
BRANCH   6  13
ATOM     13  N   LIG d   1     -26.634  83.713 113.664  0.00  0.00    -0.311 N 
ATOM     14  C   LIG d   1     -27.352  83.017 112.785  0.00  0.00     0.210 C 
ATOM     15  C   LIG d   1     -28.609  82.353 113.357  0.00  0.00     0.109 C 
ATOM     16  O   LIG d   1     -27.050  82.858 111.592  0.00  0.00    -0.276 OA
ATOM     17  H   LIG d   1     -26.935  83.762 114.618  0.00  0.00     0.149 HD
ENDBRANCH   6  13
BRANCH   5  18
ATOM     18  N   LIG d   1     -23.801  82.747 114.273  0.00  0.00     0.381 N 
ATOM     19  H   LIG d   1     -22.873  82.682 113.904  0.00  0.00    -0.090 HD
ATOM     20  H   LIG d   1     -24.416  82.225 113.674  0.00  0.00    -0.090 HD
ATOM     21  H   LIG d   1     -23.826  82.372 115.196  0.00  0.00    -0.090 HD
ENDBRANCH   5  18
BRANCH   3  22
ATOM     22  C   LIG d   1     -22.353  87.307 114.035  0.00  0.00     0.382 C 
ATOM     23  O   LIG d   1     -22.604  88.280 114.787  0.00  0.00    -0.241 OA
ATOM     24  O   LIG d   1     -21.228  87.212 113.509  0.00  0.00    -0.241 OA
ENDBRANCH   3  22
TORSDOF 7
ENDMDL
