MODEL 1
REMARK VINA RESULT:      -5.8      0.000      0.000
REMARK  7 active torsions:
REMARK  status: ('A' for Active; 'I' for Inactive)
REMARK    1  A    between atoms: C_2  and  C_3 
REMARK    2  A    between atoms: C_3  and  O_6 
REMARK    3  A    between atoms: C_3  and  C_4 
REMARK    4  A    between atoms: C_7  and  O_6 
REMARK    5  A    between atoms: C_9  and  C_10 
REMARK    6  A    between atoms: N_15  and  C_14 
REMARK    7  A    between atoms: N_20  and  C_19 
REMARK       I    between atoms: C_22  and  N_20 
ROOT
ATOM      1  C   LIG d   1       1.461  81.926 112.498  0.00  0.00     0.161 C 
ATOM      2  C   LIG d   1       2.490  82.592 111.812  0.00  0.00     0.016 C 
ATOM      3  C   LIG d   1       2.603  82.608 110.403  0.00  0.00     0.038 C 
ATOM      4  C   LIG d   1       1.601  82.083 109.573  0.00  0.00     0.028 C 
ATOM      5  C   LIG d   1       0.800  80.961 110.226  0.00  0.00    -0.047 C 
ATOM      6  C   LIG d   1       0.298  81.442 111.607  0.00  0.00     0.091 C 
ENDROOT
BRANCH   1   7
ATOM      7  O   LIG d   1       0.963  82.761 113.562  0.00  0.00    -0.368 OA
BRANCH   7   8
ATOM      8  C   LIG d   1       1.319  84.164 113.491  0.00  0.00     0.119 C 
BRANCH   8   9
ATOM      9  C   LIG d   1       1.901  84.563 114.861  0.00  0.00     0.028 C 
ATOM     10  C   LIG d   1       3.436  84.485 114.893  0.00  0.00     0.006 C 
ENDBRANCH   8   9
BRANCH   8  11
ATOM     11  C   LIG d   1       0.081  85.045 113.304  0.00  0.00     0.028 C 
ATOM     12  C   LIG d   1      -0.447  85.031 111.860  0.00  0.00     0.006 C 
ENDBRANCH   8  11
ENDBRANCH   7   8
ENDBRANCH   1   7
BRANCH   6  13
ATOM     13  N   LIG d   1      -0.424  80.376 112.350  0.00  0.00    -0.311 N 
ATOM     14  C   LIG d   1      -1.727  80.425 112.621  0.00  0.00     0.210 C 
ATOM     15  C   LIG d   1      -2.267  79.232 113.415  0.00  0.00     0.109 C 
ATOM     16  O   LIG d   1      -2.492  81.328 112.252  0.00  0.00    -0.276 OA
ATOM     17  H   LIG d   1       0.115  79.591 112.660  0.00  0.00     0.149 HD
ENDBRANCH   6  13
BRANCH   5  18
ATOM     18  N   LIG d   1      -0.295  80.602 109.306  0.00  0.00     0.381 N 
ATOM     19  H   LIG d   1      -1.156  80.993 109.634  0.00  0.00    -0.090 HD
ATOM     20  H   LIG d   1      -0.390  79.602 109.288  0.00  0.00    -0.090 HD
ATOM     21  H   LIG d   1      -0.097  80.940 108.390  0.00  0.00    -0.090 HD
ENDBRANCH   5  18
BRANCH   3  22
ATOM     22  C   LIG d   1       3.747  83.120 109.810  0.00  0.00     0.382 C 
ATOM     23  O   LIG d   1       4.612  82.342 109.342  0.00  0.00    -0.241 OA
ATOM     24  O   LIG d   1       3.946  84.349 109.778  0.00  0.00    -0.241 OA
ENDBRANCH   3  22
TORSDOF 7
ENDMDL
MODEL 2
REMARK VINA RESULT:      -5.8      2.635      5.442
REMARK  7 active torsions:
REMARK  status: ('A' for Active; 'I' for Inactive)
REMARK    1  A    between atoms: C_2  and  C_3 
REMARK    2  A    between atoms: C_3  and  O_6 
REMARK    3  A    between atoms: C_3  and  C_4 
REMARK    4  A    between atoms: C_7  and  O_6 
REMARK    5  A    between atoms: C_9  and  C_10 
REMARK    6  A    between atoms: N_15  and  C_14 
REMARK    7  A    between atoms: N_20  and  C_19 
REMARK       I    between atoms: C_22  and  N_20 
ROOT
ATOM      1  C   LIG d   1       2.164  83.207 112.844  0.00  0.00     0.161 C 
ATOM      2  C   LIG d   1       1.383  82.160 112.326  0.00  0.00     0.016 C 
ATOM      3  C   LIG d   1       0.009  82.292 112.021  0.00  0.00     0.038 C 
ATOM      4  C   LIG d   1      -0.647  83.531 112.072  0.00  0.00     0.028 C 
ATOM      5  C   LIG d   1      -0.027  84.503 113.070  0.00  0.00    -0.047 C 
ATOM      6  C   LIG d   1       1.493  84.596 112.802  0.00  0.00     0.091 C 
ENDROOT
BRANCH   1   7
ATOM      7  O   LIG d   1       3.438  83.245 112.172  0.00  0.00    -0.368 OA
BRANCH   7   8
ATOM      8  C   LIG d   1       3.424  82.918 110.761  0.00  0.00     0.119 C 
BRANCH   8   9
ATOM      9  C   LIG d   1       4.777  82.261 110.425  0.00  0.00     0.028 C 
ATOM     10  C   LIG d   1       4.612  80.933 109.666  0.00  0.00     0.006 C 
ENDBRANCH   8   9
BRANCH   8  11
ATOM     11  C   LIG d   1       3.361  84.181 109.897  0.00  0.00     0.028 C 
ATOM     12  C   LIG d   1       1.963  84.432 109.310  0.00  0.00     0.006 C 
ENDBRANCH   8  11
ENDBRANCH   7   8
ENDBRANCH   1   7
BRANCH   6  13
ATOM     13  N   LIG d   1       2.191  85.462 113.788  0.00  0.00    -0.311 N 
ATOM     14  C   LIG d   1       2.404  86.763 113.600  0.00  0.00     0.210 C 
ATOM     15  C   LIG d   1       3.159  87.465 114.733  0.00  0.00     0.109 C 
ATOM     16  O   LIG d   1       2.010  87.409 112.617  0.00  0.00    -0.276 OA
ATOM     17  H   LIG d   1       2.516  85.026 114.629  0.00  0.00     0.149 HD
ENDBRANCH   6  13
BRANCH   5  18
ATOM     18  N   LIG d   1      -0.720  85.797 112.921  0.00  0.00     0.381 N 
ATOM     19  H   LIG d   1      -1.393  85.906 113.653  0.00  0.00    -0.090 HD
ATOM     20  H   LIG d   1      -1.205  85.807 112.042  0.00  0.00    -0.090 HD
ATOM     21  H   LIG d   1      -0.060  86.543 112.953  0.00  0.00    -0.090 HD
ENDBRANCH   5  18
BRANCH   3  22
ATOM     22  C   LIG d   1      -0.734  81.167 111.697  0.00  0.00     0.382 C 
ATOM     23  O   LIG d   1      -0.495  80.541 110.636  0.00  0.00    -0.241 OA
ATOM     24  O   LIG d   1      -1.670  80.795 112.430  0.00  0.00    -0.241 OA
ENDBRANCH   3  22
TORSDOF 7
ENDMDL
MODEL 3
REMARK VINA RESULT:      -5.7      2.730      4.786
REMARK  7 active torsions:
REMARK  status: ('A' for Active; 'I' for Inactive)
REMARK    1  A    between atoms: C_2  and  C_3 
REMARK    2  A    between atoms: C_3  and  O_6 
REMARK    3  A    between atoms: C_3  and  C_4 
REMARK    4  A    between atoms: C_7  and  O_6 
REMARK    5  A    between atoms: C_9  and  C_10 
REMARK    6  A    between atoms: N_15  and  C_14 
REMARK    7  A    between atoms: N_20  and  C_19 
REMARK       I    between atoms: C_22  and  N_20 
ROOT
ATOM      1  C   LIG d   1       2.258  84.468 110.142  0.00  0.00     0.161 C 
ATOM      2  C   LIG d   1       1.160  85.317 110.357  0.00  0.00     0.016 C 
ATOM      3  C   LIG d   1      -0.099  84.862 110.812  0.00  0.00     0.038 C 
ATOM      4  C   LIG d   1      -0.301  83.539 111.231  0.00  0.00     0.028 C 
ATOM      5  C   LIG d   1       0.633  82.540 110.556  0.00  0.00    -0.047 C 
ATOM      6  C   LIG d   1       2.089  83.039 110.700  0.00  0.00     0.091 C 
ENDROOT
BRANCH   1   7
ATOM      7  O   LIG d   1       3.455  85.073 110.671  0.00  0.00    -0.368 OA
BRANCH   7   8
ATOM      8  C   LIG d   1       3.288  85.879 111.863  0.00  0.00     0.119 C 
BRANCH   8   9
ATOM      9  C   LIG d   1       4.363  86.984 111.829  0.00  0.00     0.028 C 
ATOM     10  C   LIG d   1       4.124  88.068 112.893  0.00  0.00     0.006 C 
ENDBRANCH   8   9
BRANCH   8  11
ATOM     11  C   LIG d   1       3.580  85.069 113.129  0.00  0.00     0.028 C 
ATOM     12  C   LIG d   1       2.326  84.826 113.983  0.00  0.00     0.006 C 
ENDBRANCH   8  11
ENDBRANCH   7   8
ENDBRANCH   1   7
BRANCH   6  13
ATOM     13  N   LIG d   1       3.060  82.163 109.994  0.00  0.00    -0.311 N 
ATOM     14  C   LIG d   1       4.189  81.725 110.548  0.00  0.00     0.210 C 
ATOM     15  C   LIG d   1       5.058  80.850 109.639  0.00  0.00     0.109 C 
ATOM     16  O   LIG d   1       4.539  81.952 111.716  0.00  0.00    -0.276 OA
ATOM     17  H   LIG d   1       2.840  81.904 109.052  0.00  0.00     0.149 HD
ENDBRANCH   6  13
BRANCH   5  18
ATOM     18  N   LIG d   1       0.408  81.225 111.184  0.00  0.00     0.381 N 
ATOM     19  H   LIG d   1       0.608  80.497 110.528  0.00  0.00    -0.090 HD
ATOM     20  H   LIG d   1      -0.559  81.152 111.450  0.00  0.00    -0.090 HD
ATOM     21  H   LIG d   1       0.989  81.126 111.988  0.00  0.00    -0.090 HD
ENDBRANCH   5  18
BRANCH   3  22
ATOM     22  C   LIG d   1      -1.183  85.727 110.814  0.00  0.00     0.382 C 
ATOM     23  O   LIG d   1      -1.765  86.005 109.739  0.00  0.00    -0.241 OA
ATOM     24  O   LIG d   1      -1.557  86.268 111.872  0.00  0.00    -0.241 OA
ENDBRANCH   3  22
TORSDOF 7
ENDMDL
MODEL 4
REMARK VINA RESULT:      -5.6      2.977      5.525
REMARK  7 active torsions:
REMARK  status: ('A' for Active; 'I' for Inactive)
REMARK    1  A    between atoms: C_2  and  C_3 
REMARK    2  A    between atoms: C_3  and  O_6 
REMARK    3  A    between atoms: C_3  and  C_4 
REMARK    4  A    between atoms: C_7  and  O_6 
REMARK    5  A    between atoms: C_9  and  C_10 
REMARK    6  A    between atoms: N_15  and  C_14 
REMARK    7  A    between atoms: N_20  and  C_19 
REMARK       I    between atoms: C_22  and  N_20 
ROOT
ATOM      1  C   LIG d   1       1.882  84.232 113.432  0.00  0.00     0.161 C 
ATOM      2  C   LIG d   1       1.002  83.182 113.121  0.00  0.00     0.016 C 
ATOM      3  C   LIG d   1       0.322  83.076 111.885  0.00  0.00     0.038 C 
ATOM      4  C   LIG d   1       0.594  83.939 110.814  0.00  0.00     0.028 C 
ATOM      5  C   LIG d   1       1.098  85.310 111.252  0.00  0.00    -0.047 C 
ATOM      6  C   LIG d   1       2.276  85.121 112.235  0.00  0.00     0.091 C 
ENDROOT
BRANCH   1   7
ATOM      7  O   LIG d   1       3.060  83.707 114.076  0.00  0.00    -0.368 OA
BRANCH   7   8
ATOM      8  C   LIG d   1       3.501  82.400 113.632  0.00  0.00     0.119 C 
BRANCH   8   9
ATOM      9  C   LIG d   1       4.079  81.666 114.857  0.00  0.00     0.028 C 
ATOM     10  C   LIG d   1       3.598  82.272 116.186  0.00  0.00     0.006 C 
ENDBRANCH   8   9
BRANCH   8  11
ATOM     11  C   LIG d   1       4.663  82.512 112.640  0.00  0.00     0.028 C 
ATOM     12  C   LIG d   1       4.255  82.152 111.203  0.00  0.00     0.006 C 
ENDBRANCH   8  11
ENDBRANCH   7   8
ENDBRANCH   1   7
BRANCH   6  13
ATOM     13  N   LIG d   1       2.774  86.412 112.778  0.00  0.00    -0.311 N 
ATOM     14  C   LIG d   1       3.810  87.073 112.265  0.00  0.00     0.210 C 
ATOM     15  C   LIG d   1       4.170  88.374 112.989  0.00  0.00     0.109 C 
ATOM     16  O   LIG d   1       4.445  86.722 111.259  0.00  0.00    -0.276 OA
ATOM     17  H   LIG d   1       2.297  86.785 113.575  0.00  0.00     0.149 HD
ENDBRANCH   6  13
BRANCH   5  18
ATOM     18  N   LIG d   1       1.472  86.058 110.037  0.00  0.00     0.381 N 
ATOM     19  H   LIG d   1       1.897  86.927 110.291  0.00  0.00    -0.090 HD
ATOM     20  H   LIG d   1       0.641  86.256 109.508  0.00  0.00    -0.090 HD
ATOM     21  H   LIG d   1       2.105  85.519 109.487  0.00  0.00    -0.090 HD
ENDBRANCH   5  18
BRANCH   3  22
ATOM     22  C   LIG d   1      -0.672  82.123 111.727  0.00  0.00     0.382 C 
ATOM     23  O   LIG d   1      -0.513  81.181 110.913  0.00  0.00    -0.241 OA
ATOM     24  O   LIG d   1      -1.743  82.217 112.355  0.00  0.00    -0.241 OA
ENDBRANCH   3  22
TORSDOF 7
ENDMDL
MODEL 5
REMARK VINA RESULT:      -5.5      3.040      4.549
REMARK  7 active torsions:
REMARK  status: ('A' for Active; 'I' for Inactive)
REMARK    1  A    between atoms: C_2  and  C_3 
REMARK    2  A    between atoms: C_3  and  O_6 
REMARK    3  A    between atoms: C_3  and  C_4 
REMARK    4  A    between atoms: C_7  and  O_6 
REMARK    5  A    between atoms: C_9  and  C_10 
REMARK    6  A    between atoms: N_15  and  C_14 
REMARK    7  A    between atoms: N_20  and  C_19 
REMARK       I    between atoms: C_22  and  N_20 
ROOT
ATOM      1  C   LIG d   1       2.869  84.314 111.874  0.00  0.00     0.161 C 
ATOM      2  C   LIG d   1       3.285  85.519 112.464  0.00  0.00     0.016 C 
ATOM      3  C   LIG d   1       2.667  86.765 112.208  0.00  0.00     0.038 C 
ATOM      4  C   LIG d   1       1.487  86.866 111.457  0.00  0.00     0.028 C 
ATOM      5  C   LIG d   1       1.324  85.749 110.432  0.00  0.00    -0.047 C 
ATOM      6  C   LIG d   1       1.515  84.387 111.139  0.00  0.00     0.091 C 
ENDROOT
BRANCH   1   7
ATOM      7  O   LIG d   1       2.845  83.268 112.866  0.00  0.00    -0.368 OA
BRANCH   7   8
ATOM      8  C   LIG d   1       3.740  82.152 112.637  0.00  0.00     0.119 C 
BRANCH   8   9
ATOM      9  C   LIG d   1       4.593  81.975 113.909  0.00  0.00     0.028 C 
ATOM     10  C   LIG d   1       4.012  82.732 115.115  0.00  0.00     0.006 C 
ENDBRANCH   8   9
BRANCH   8  11
ATOM     11  C   LIG d   1       4.740  82.460 111.519  0.00  0.00     0.028 C 
ATOM     12  C   LIG d   1       4.610  81.502 110.323  0.00  0.00     0.006 C 
ENDBRANCH   8  11
ENDBRANCH   7   8
ENDBRANCH   1   7
BRANCH   6  13
ATOM     13  N   LIG d   1       1.454  83.244 110.192  0.00  0.00    -0.311 N 
ATOM     14  C   LIG d   1       0.739  82.143 110.417  0.00  0.00     0.210 C 
ATOM     15  C   LIG d   1       0.832  81.076 109.321  0.00  0.00     0.109 C 
ATOM     16  O   LIG d   1       0.011  81.962 111.404  0.00  0.00    -0.276 OA
ATOM     17  H   LIG d   1       1.991  83.320 109.350  0.00  0.00     0.149 HD
ENDBRANCH   6  13
BRANCH   5  18
ATOM     18  N   LIG d   1      -0.009  85.899 109.817  0.00  0.00     0.381 N 
ATOM     19  H   LIG d   1      -0.000  85.519 108.892  0.00  0.00    -0.090 HD
ATOM     20  H   LIG d   1      -0.229  86.877 109.754  0.00  0.00    -0.090 HD
ATOM     21  H   LIG d   1      -0.694  85.432 110.370  0.00  0.00    -0.090 HD
ENDBRANCH   5  18
BRANCH   3  22
ATOM     22  C   LIG d   1       3.254  87.931 112.675  0.00  0.00     0.382 C 
ATOM     23  O   LIG d   1       2.612  88.695 113.436  0.00  0.00    -0.241 OA
ATOM     24  O   LIG d   1       4.400  88.252 112.309  0.00  0.00    -0.241 OA
ENDBRANCH   3  22
TORSDOF 7
ENDMDL
MODEL 6
REMARK VINA RESULT:      -5.3      2.733      3.841
REMARK  7 active torsions:
REMARK  status: ('A' for Active; 'I' for Inactive)
REMARK    1  A    between atoms: C_2  and  C_3 
REMARK    2  A    between atoms: C_3  and  O_6 
REMARK    3  A    between atoms: C_3  and  C_4 
REMARK    4  A    between atoms: C_7  and  O_6 
REMARK    5  A    between atoms: C_9  and  C_10 
REMARK    6  A    between atoms: N_15  and  C_14 
REMARK    7  A    between atoms: N_20  and  C_19 
REMARK       I    between atoms: C_22  and  N_20 
ROOT
ATOM      1  C   LIG d   1       2.924  83.922 111.784  0.00  0.00     0.161 C 
ATOM      2  C   LIG d   1       3.298  85.211 112.198  0.00  0.00     0.016 C 
ATOM      3  C   LIG d   1       2.585  86.379 111.843  0.00  0.00     0.038 C 
ATOM      4  C   LIG d   1       1.355  86.322 111.171  0.00  0.00     0.028 C 
ATOM      5  C   LIG d   1       1.199  85.081 110.298  0.00  0.00    -0.047 C 
ATOM      6  C   LIG d   1       1.523  83.829 111.144  0.00  0.00     0.091 C 
ENDROOT
BRANCH   1   7
ATOM      7  O   LIG d   1       3.031  83.004 112.890  0.00  0.00    -0.368 OA
BRANCH   7   8
ATOM      8  C   LIG d   1       3.265  83.597 114.191  0.00  0.00     0.119 C 
BRANCH   8   9
ATOM      9  C   LIG d   1       4.223  82.667 114.960  0.00  0.00     0.028 C 
ATOM     10  C   LIG d   1       3.474  81.643 115.830  0.00  0.00     0.006 C 
ENDBRANCH   8   9
BRANCH   8  11
ATOM     11  C   LIG d   1       1.981  83.636 115.025  0.00  0.00     0.028 C 
ATOM     12  C   LIG d   1       1.600  85.058 115.467  0.00  0.00     0.006 C 
ENDBRANCH   8  11
ENDBRANCH   7   8
ENDBRANCH   1   7
BRANCH   6  13
ATOM     13  N   LIG d   1       1.476  82.577 110.344  0.00  0.00    -0.311 N 
ATOM     14  C   LIG d   1       0.433  81.749 110.339  0.00  0.00     0.210 C 
ATOM     15  C   LIG d   1       0.599  80.505 109.460  0.00  0.00     0.109 C 
ATOM     16  O   LIG d   1      -0.628  81.944 110.952  0.00  0.00    -0.276 OA
ATOM     17  H   LIG d   1       2.282  82.358 109.792  0.00  0.00     0.149 HD
ENDBRANCH   6  13
BRANCH   5  18
ATOM     18  N   LIG d   1      -0.178  85.080 109.768  0.00  0.00     0.381 N 
ATOM     19  H   LIG d   1      -0.831  84.997 110.521  0.00  0.00    -0.090 HD
ATOM     20  H   LIG d   1      -0.292  84.287 109.162  0.00  0.00    -0.090 HD
ATOM     21  H   LIG d   1      -0.348  85.921 109.261  0.00  0.00    -0.090 HD
ENDBRANCH   5  18
BRANCH   3  22
ATOM     22  C   LIG d   1       3.124  87.625 112.126  0.00  0.00     0.382 C 
ATOM     23  O   LIG d   1       4.347  87.836 111.943  0.00  0.00    -0.241 OA
ATOM     24  O   LIG d   1       2.410  88.528 112.605  0.00  0.00    -0.241 OA
ENDBRANCH   3  22
TORSDOF 7
ENDMDL
MODEL 7
REMARK VINA RESULT:      -5.3      3.497      5.566
REMARK  7 active torsions:
REMARK  status: ('A' for Active; 'I' for Inactive)
REMARK    1  A    between atoms: C_2  and  C_3 
REMARK    2  A    between atoms: C_3  and  O_6 
REMARK    3  A    between atoms: C_3  and  C_4 
REMARK    4  A    between atoms: C_7  and  O_6 
REMARK    5  A    between atoms: C_9  and  C_10 
REMARK    6  A    between atoms: N_15  and  C_14 
REMARK    7  A    between atoms: N_20  and  C_19 
REMARK       I    between atoms: C_22  and  N_20 
ROOT
ATOM      1  C   LIG d   1       2.784  85.975 112.139  0.00  0.00     0.161 C 
ATOM      2  C   LIG d   1       3.696  86.995 112.459  0.00  0.00     0.016 C 
ATOM      3  C   LIG d   1       3.747  87.625 113.723  0.00  0.00     0.038 C 
ATOM      4  C   LIG d   1       2.985  87.170 114.810  0.00  0.00     0.028 C 
ATOM      5  C   LIG d   1       1.692  86.477 114.395  0.00  0.00    -0.047 C 
ATOM      6  C   LIG d   1       2.020  85.390 113.346  0.00  0.00     0.091 C 
ENDROOT
BRANCH   1   7
ATOM      7  O   LIG d   1       3.457  84.926 111.416  0.00  0.00    -0.368 OA
BRANCH   7   8
ATOM      8  C   LIG d   1       2.692  84.283 110.367  0.00  0.00     0.119 C 
BRANCH   8   9
ATOM      9  C   LIG d   1       3.692  83.570 109.436  0.00  0.00     0.028 C 
ATOM     10  C   LIG d   1       4.659  82.654 110.205  0.00  0.00     0.006 C 
ENDBRANCH   8   9
BRANCH   8  11
ATOM     11  C   LIG d   1       1.981  85.313 109.484  0.00  0.00     0.028 C 
ATOM     12  C   LIG d   1       0.484  85.013 109.306  0.00  0.00     0.006 C 
ENDBRANCH   8  11
ENDBRANCH   7   8
ENDBRANCH   1   7
BRANCH   6  13
ATOM     13  N   LIG d   1       0.800  84.720 112.824  0.00  0.00    -0.311 N 
ATOM     14  C   LIG d   1       0.565  83.416 112.961  0.00  0.00     0.210 C 
ATOM     15  C   LIG d   1      -0.743  82.926 112.331  0.00  0.00     0.109 C 
ATOM     16  O   LIG d   1       1.299  82.625 113.572  0.00  0.00    -0.276 OA
ATOM     17  H   LIG d   1       0.136  85.293 112.341  0.00  0.00     0.149 HD
ENDBRANCH   6  13
BRANCH   5  18
ATOM     18  N   LIG d   1       1.066  85.933 115.615  0.00  0.00     0.381 N 
ATOM     19  H   LIG d   1       0.072  86.032 115.559  0.00  0.00    -0.090 HD
ATOM     20  H   LIG d   1       1.391  86.458 116.408  0.00  0.00    -0.090 HD
ATOM     21  H   LIG d   1       1.307  84.972 115.722  0.00  0.00    -0.090 HD
ENDBRANCH   5  18
BRANCH   3  22
ATOM     22  C   LIG d   1       4.540  88.749 113.899  0.00  0.00     0.382 C 
ATOM     23  O   LIG d   1       4.651  89.589 112.974  0.00  0.00    -0.241 OA
ATOM     24  O   LIG d   1       5.180  88.912 114.955  0.00  0.00    -0.241 OA
ENDBRANCH   3  22
TORSDOF 7
ENDMDL
MODEL 8
REMARK VINA RESULT:      -5.1      3.671      6.269
REMARK  7 active torsions:
REMARK  status: ('A' for Active; 'I' for Inactive)
REMARK    1  A    between atoms: C_2  and  C_3 
REMARK    2  A    between atoms: C_3  and  O_6 
REMARK    3  A    between atoms: C_3  and  C_4 
REMARK    4  A    between atoms: C_7  and  O_6 
REMARK    5  A    between atoms: C_9  and  C_10 
REMARK    6  A    between atoms: N_15  and  C_14 
REMARK    7  A    between atoms: N_20  and  C_19 
REMARK       I    between atoms: C_22  and  N_20 
ROOT
ATOM      1  C   LIG d   1       3.455  84.638 113.114  0.00  0.00     0.161 C 
ATOM      2  C   LIG d   1       3.407  85.961 112.645  0.00  0.00     0.016 C 
ATOM      3  C   LIG d   1       3.596  87.090 113.476  0.00  0.00     0.038 C 
ATOM      4  C   LIG d   1       3.998  86.966 114.814  0.00  0.00     0.028 C 
ATOM      5  C   LIG d   1       3.567  85.652 115.457  0.00  0.00    -0.047 C 
ATOM      6  C   LIG d   1       4.003  84.481 114.548  0.00  0.00     0.091 C 
ENDROOT
BRANCH   1   7
ATOM      7  O   LIG d   1       4.210  83.821 112.197  0.00  0.00    -0.368 OA
BRANCH   7   8
ATOM      8  C   LIG d   1       3.493  83.342 111.033  0.00  0.00     0.119 C 
BRANCH   8   9
ATOM      9  C   LIG d   1       2.844  81.996 111.411  0.00  0.00     0.028 C 
ATOM     10  C   LIG d   1       1.345  81.952 111.072  0.00  0.00     0.006 C 
ENDBRANCH   8   9
BRANCH   8  11
ATOM     11  C   LIG d   1       4.451  83.021 109.882  0.00  0.00     0.028 C 
ATOM     12  C   LIG d   1       4.875  81.544 109.854  0.00  0.00     0.006 C 
ENDBRANCH   8  11
ENDBRANCH   7   8
ENDBRANCH   1   7
BRANCH   6  13
ATOM     13  N   LIG d   1       3.546  83.163 115.062  0.00  0.00    -0.311 N 
ATOM     14  C   LIG d   1       4.273  82.402 115.878  0.00  0.00     0.210 C 
ATOM     15  C   LIG d   1       3.623  81.072 116.272  0.00  0.00     0.109 C 
ATOM     16  O   LIG d   1       5.381  82.716 116.338  0.00  0.00    -0.276 OA
ATOM     17  H   LIG d   1       2.644  82.846 114.764  0.00  0.00     0.149 HD
ENDBRANCH   6  13
BRANCH   5  18
ATOM     18  N   LIG d   1       4.169  85.596 116.803  0.00  0.00     0.381 N 
ATOM     19  H   LIG d   1       3.793  84.819 117.309  0.00  0.00    -0.090 HD
ATOM     20  H   LIG d   1       3.936  86.438 117.298  0.00  0.00    -0.090 HD
ATOM     21  H   LIG d   1       5.158  85.507 116.730  0.00  0.00    -0.090 HD
ENDBRANCH   5  18
BRANCH   3  22
ATOM     22  C   LIG d   1       3.342  88.359 112.979  0.00  0.00     0.382 C 
ATOM     23  O   LIG d   1       2.226  88.622 112.470  0.00  0.00    -0.241 OA
ATOM     24  O   LIG d   1       4.231  89.232 112.993  0.00  0.00    -0.241 OA
ENDBRANCH   3  22
TORSDOF 7
ENDMDL
MODEL 9
REMARK VINA RESULT:      -5.1     23.951     26.617
REMARK  7 active torsions:
REMARK  status: ('A' for Active; 'I' for Inactive)
REMARK    1  A    between atoms: C_2  and  C_3 
REMARK    2  A    between atoms: C_3  and  O_6 
REMARK    3  A    between atoms: C_3  and  C_4 
REMARK    4  A    between atoms: C_7  and  O_6 
REMARK    5  A    between atoms: C_9  and  C_10 
REMARK    6  A    between atoms: N_15  and  C_14 
REMARK    7  A    between atoms: N_20  and  C_19 
REMARK       I    between atoms: C_22  and  N_20 
ROOT
ATOM      1  C   LIG d   1     -25.489  85.131 114.305  0.00  0.00     0.161 C 
ATOM      2  C   LIG d   1     -24.559  86.182 114.241  0.00  0.00     0.016 C 
ATOM      3  C   LIG d   1     -23.305  86.073 113.597  0.00  0.00     0.038 C 
ATOM      4  C   LIG d   1     -22.956  84.945 112.838  0.00  0.00     0.028 C 
ATOM      5  C   LIG d   1     -23.652  83.668 113.297  0.00  0.00    -0.047 C 
ATOM      6  C   LIG d   1     -25.173  83.931 113.388  0.00  0.00     0.091 C 
ENDROOT
BRANCH   1   7
ATOM      7  O   LIG d   1     -26.813  85.633 114.035  0.00  0.00    -0.368 OA
BRANCH   7   8
ATOM      8  C   LIG d   1     -26.885  86.868 113.282  0.00  0.00     0.119 C 
BRANCH   8   9
ATOM      9  C   LIG d   1     -28.072  87.679 113.836  0.00  0.00     0.028 C 
ATOM     10  C   LIG d   1     -28.046  89.147 113.377  0.00  0.00     0.006 C 
ENDBRANCH   8   9
BRANCH   8  11
ATOM     11  C   LIG d   1     -27.223  86.606 111.812  0.00  0.00     0.028 C 
ATOM     12  C   LIG d   1     -26.023  86.824 110.876  0.00  0.00     0.006 C 
ENDBRANCH   8  11
ENDBRANCH   7   8
ENDBRANCH   1   7
BRANCH   6  13
ATOM     13  N   LIG d   1     -25.920  82.757 113.910  0.00  0.00    -0.311 N 
ATOM     14  C   LIG d   1     -26.444  81.814 113.129  0.00  0.00     0.210 C 
ATOM     15  C   LIG d   1     -27.192  80.701 113.870  0.00  0.00     0.109 C 
ATOM     16  O   LIG d   1     -26.332  81.777 111.894  0.00  0.00    -0.276 OA
ATOM     17  H   LIG d   1     -26.031  82.692 114.903  0.00  0.00     0.149 HD
ENDBRANCH   6  13
BRANCH   5  18
ATOM     18  N   LIG d   1     -23.306  82.603 112.337  0.00  0.00     0.381 N 
ATOM     19  H   LIG d   1     -22.441  82.822 111.885  0.00  0.00    -0.090 HD
ATOM     20  H   LIG d   1     -24.024  82.552 111.635  0.00  0.00    -0.090 HD
ATOM     21  H   LIG d   1     -23.230  81.729 112.809  0.00  0.00    -0.090 HD
ENDBRANCH   5  18
BRANCH   3  22
ATOM     22  C   LIG d   1     -22.367  87.084 113.742  0.00  0.00     0.382 C 
ATOM     23  O   LIG d   1     -22.570  88.014 114.560  0.00  0.00    -0.241 OA
ATOM     24  O   LIG d   1     -21.343  87.102 113.034  0.00  0.00    -0.241 OA
ENDBRANCH   3  22
TORSDOF 7
ENDMDL
