MODEL 1
REMARK VINA RESULT:      -5.2      0.000      0.000
REMARK  7 active torsions:
REMARK  status: ('A' for Active; 'I' for Inactive)
REMARK    1  A    between atoms: C_2  and  C_3 
REMARK    2  A    between atoms: C_3  and  O_6 
REMARK    3  A    between atoms: C_3  and  C_4 
REMARK    4  A    between atoms: C_7  and  O_6 
REMARK    5  A    between atoms: C_9  and  C_10 
REMARK    6  A    between atoms: N_15  and  C_14 
REMARK    7  A    between atoms: N_20  and  C_19 
REMARK       I    between atoms: C_22  and  N_20 
ROOT
ATOM      1  C   LIG d   1      -0.226  80.891 111.960  0.00  0.00     0.161 C 
ATOM      2  C   LIG d   1      -0.975  79.709 111.837  0.00  0.00     0.016 C 
ATOM      3  C   LIG d   1      -1.749  79.165 112.888  0.00  0.00     0.038 C 
ATOM      4  C   LIG d   1      -1.949  79.853 114.094  0.00  0.00     0.028 C 
ATOM      5  C   LIG d   1      -0.808  80.801 114.446  0.00  0.00    -0.047 C 
ATOM      6  C   LIG d   1      -0.520  81.713 113.232  0.00  0.00     0.091 C 
ENDROOT
BRANCH   1   7
ATOM      7  O   LIG d   1      -0.403  81.706 110.784  0.00  0.00    -0.368 OA
BRANCH   7   8
ATOM      8  C   LIG d   1       0.716  81.750 109.865  0.00  0.00     0.119 C 
BRANCH   8   9
ATOM      9  C   LIG d   1       1.789  80.778 110.395  0.00  0.00     0.028 C 
ATOM     10  C   LIG d   1       2.013  79.582 109.454  0.00  0.00     0.006 C 
ENDBRANCH   8   9
BRANCH   8  11
ATOM     11  C   LIG d   1       1.383  83.129 109.864  0.00  0.00     0.028 C 
ATOM     12  C   LIG d   1       2.848  83.082 110.327  0.00  0.00     0.006 C 
ENDBRANCH   8  11
ENDBRANCH   7   8
ENDBRANCH   1   7
BRANCH   6  13
ATOM     13  N   LIG d   1       0.639  82.615 113.462  0.00  0.00    -0.311 N 
ATOM     14  C   LIG d   1       0.571  83.940 113.344  0.00  0.00     0.210 C 
ATOM     15  C   LIG d   1       1.887  84.680 113.606  0.00  0.00     0.109 C 
ATOM     16  O   LIG d   1      -0.461  84.575 113.079  0.00  0.00    -0.276 OA
ATOM     17  H   LIG d   1       1.508  82.186 113.712  0.00  0.00     0.149 HD
ENDBRANCH   6  13
BRANCH   5  18
ATOM     18  N   LIG d   1      -1.208  81.552 115.651  0.00  0.00     0.381 N 
ATOM     19  H   LIG d   1      -1.046  82.529 115.511  0.00  0.00    -0.090 HD
ATOM     20  H   LIG d   1      -0.646  81.247 116.426  0.00  0.00    -0.090 HD
ATOM     21  H   LIG d   1      -2.172  81.392 115.848  0.00  0.00    -0.090 HD
ENDBRANCH   5  18
BRANCH   3  22
ATOM     22  C   LIG d   1      -2.302  77.901 112.751  0.00  0.00     0.382 C 
ATOM     23  O   LIG d   1      -1.840  76.940 113.413  0.00  0.00    -0.241 OA
ATOM     24  O   LIG d   1      -3.227  77.699 111.942  0.00  0.00    -0.241 OA
ENDBRANCH   3  22
TORSDOF 7
ENDMDL
MODEL 2
REMARK VINA RESULT:      -5.0      2.832      6.522
REMARK  7 active torsions:
REMARK  status: ('A' for Active; 'I' for Inactive)
REMARK    1  A    between atoms: C_2  and  C_3 
REMARK    2  A    between atoms: C_3  and  O_6 
REMARK    3  A    between atoms: C_3  and  C_4 
REMARK    4  A    between atoms: C_7  and  O_6 
REMARK    5  A    between atoms: C_9  and  C_10 
REMARK    6  A    between atoms: N_15  and  C_14 
REMARK    7  A    between atoms: N_20  and  C_19 
REMARK       I    between atoms: C_22  and  N_20 
ROOT
ATOM      1  C   LIG d   1      -0.687  80.067 114.807  0.00  0.00     0.161 C 
ATOM      2  C   LIG d   1      -0.696  81.304 114.141  0.00  0.00     0.016 C 
ATOM      3  C   LIG d   1      -1.171  81.473 112.820  0.00  0.00     0.038 C 
ATOM      4  C   LIG d   1      -1.814  80.438 112.125  0.00  0.00     0.028 C 
ATOM      5  C   LIG d   1      -1.373  79.047 112.567  0.00  0.00    -0.047 C 
ATOM      6  C   LIG d   1      -1.486  78.949 114.105  0.00  0.00     0.091 C 
ENDROOT
BRANCH   1   7
ATOM      7  O   LIG d   1      -1.148  80.238 116.162  0.00  0.00    -0.368 OA
BRANCH   7   8
ATOM      8  C   LIG d   1      -1.943  81.421 116.420  0.00  0.00     0.119 C 
BRANCH   8   9
ATOM      9  C   LIG d   1      -1.426  82.050 117.728  0.00  0.00     0.028 C 
ATOM     10  C   LIG d   1      -0.371  83.141 117.478  0.00  0.00     0.006 C 
ENDBRANCH   8   9
BRANCH   8  11
ATOM     11  C   LIG d   1      -3.406  81.060 116.694  0.00  0.00     0.028 C 
ATOM     12  C   LIG d   1      -3.796  81.233 118.170  0.00  0.00     0.006 C 
ENDBRANCH   8  11
ENDBRANCH   7   8
ENDBRANCH   1   7
BRANCH   6  13
ATOM     13  N   LIG d   1      -0.994  77.648 114.628  0.00  0.00    -0.311 N 
ATOM     14  C   LIG d   1      -1.769  76.574 114.771  0.00  0.00     0.210 C 
ATOM     15  C   LIG d   1      -1.067  75.341 115.346  0.00  0.00     0.109 C 
ATOM     16  O   LIG d   1      -2.965  76.517 114.444  0.00  0.00    -0.276 OA
ATOM     17  H   LIG d   1      -0.028  77.597 114.888  0.00  0.00     0.149 HD
ENDBRANCH   6  13
BRANCH   5  18
ATOM     18  N   LIG d   1      -2.219  78.066 111.861  0.00  0.00     0.381 N 
ATOM     19  H   LIG d   1      -1.682  77.252 111.641  0.00  0.00    -0.090 HD
ATOM     20  H   LIG d   1      -2.541  78.474 111.001  0.00  0.00    -0.090 HD
ATOM     21  H   LIG d   1      -2.997  77.815 112.430  0.00  0.00    -0.090 HD
ENDBRANCH   5  18
BRANCH   3  22
ATOM     22  C   LIG d   1      -0.969  82.679 112.167  0.00  0.00     0.382 C 
ATOM     23  O   LIG d   1      -1.002  83.755 112.812  0.00  0.00    -0.241 OA
ATOM     24  O   LIG d   1      -0.799  82.709 110.933  0.00  0.00    -0.241 OA
ENDBRANCH   3  22
TORSDOF 7
ENDMDL
MODEL 3
REMARK VINA RESULT:      -5.0      2.519      6.083
REMARK  7 active torsions:
REMARK  status: ('A' for Active; 'I' for Inactive)
REMARK    1  A    between atoms: C_2  and  C_3 
REMARK    2  A    between atoms: C_3  and  O_6 
REMARK    3  A    between atoms: C_3  and  C_4 
REMARK    4  A    between atoms: C_7  and  O_6 
REMARK    5  A    between atoms: C_9  and  C_10 
REMARK    6  A    between atoms: N_15  and  C_14 
REMARK    7  A    between atoms: N_20  and  C_19 
REMARK       I    between atoms: C_22  and  N_20 
ROOT
ATOM      1  C   LIG d   1       0.396  82.009 113.125  0.00  0.00     0.161 C 
ATOM      2  C   LIG d   1       1.204  82.977 112.506  0.00  0.00     0.016 C 
ATOM      3  C   LIG d   1       1.554  82.938 111.137  0.00  0.00     0.038 C 
ATOM      4  C   LIG d   1       0.992  82.004 110.254  0.00  0.00     0.028 C 
ATOM      5  C   LIG d   1       0.568  80.706 110.934  0.00  0.00    -0.047 C 
ATOM      6  C   LIG d   1      -0.318  81.045 112.154  0.00  0.00     0.091 C 
ENDROOT
BRANCH   1   7
ATOM      7  O   LIG d   1      -0.563  82.653 113.987  0.00  0.00    -0.368 OA
BRANCH   7   8
ATOM      8  C   LIG d   1      -0.376  82.453 115.410  0.00  0.00     0.119 C 
BRANCH   8   9
ATOM      9  C   LIG d   1      -1.676  81.839 115.966  0.00  0.00     0.028 C 
ATOM     10  C   LIG d   1      -2.926  82.628 115.543  0.00  0.00     0.006 C 
ENDBRANCH   8   9
BRANCH   8  11
ATOM     11  C   LIG d   1      -0.213  83.788 116.143  0.00  0.00     0.028 C 
ATOM     12  C   LIG d   1       0.717  83.688 117.362  0.00  0.00     0.006 C 
ENDBRANCH   8  11
ENDBRANCH   7   8
ENDBRANCH   1   7
BRANCH   6  13
ATOM     13  N   LIG d   1      -0.706  79.836 112.926  0.00  0.00    -0.311 N 
ATOM     14  C   LIG d   1      -1.971  79.494 113.165  0.00  0.00     0.210 C 
ATOM     15  C   LIG d   1      -2.150  78.220 113.997  0.00  0.00     0.109 C 
ATOM     16  O   LIG d   1      -2.962  80.107 112.740  0.00  0.00    -0.276 OA
ATOM     17  H   LIG d   1       0.035  79.264 113.281  0.00  0.00     0.149 HD
ENDBRANCH   6  13
BRANCH   5  18
ATOM     18  N   LIG d   1      -0.125  79.882 109.927  0.00  0.00     0.381 N 
ATOM     19  H   LIG d   1      -1.027  79.616 110.269  0.00  0.00    -0.090 HD
ATOM     20  H   LIG d   1       0.410  79.046 109.766  0.00  0.00    -0.090 HD
ATOM     21  H   LIG d   1      -0.222  80.391 109.076  0.00  0.00    -0.090 HD
ENDBRANCH   5  18
BRANCH   3  22
ATOM     22  C   LIG d   1       2.508  83.816 110.646  0.00  0.00     0.382 C 
ATOM     23  O   LIG d   1       2.463  84.187 109.448  0.00  0.00    -0.241 OA
ATOM     24  O   LIG d   1       3.440  84.208 111.374  0.00  0.00    -0.241 OA
ENDBRANCH   3  22
TORSDOF 7
ENDMDL
MODEL 4
REMARK VINA RESULT:      -5.0      3.094      6.936
REMARK  7 active torsions:
REMARK  status: ('A' for Active; 'I' for Inactive)
REMARK    1  A    between atoms: C_2  and  C_3 
REMARK    2  A    between atoms: C_3  and  O_6 
REMARK    3  A    between atoms: C_3  and  C_4 
REMARK    4  A    between atoms: C_7  and  O_6 
REMARK    5  A    between atoms: C_9  and  C_10 
REMARK    6  A    between atoms: N_15  and  C_14 
REMARK    7  A    between atoms: N_20  and  C_19 
REMARK       I    between atoms: C_22  and  N_20 
ROOT
ATOM      1  C   LIG d   1      -2.451  80.233 114.873  0.00  0.00     0.161 C 
ATOM      2  C   LIG d   1      -2.102  81.385 114.148  0.00  0.00     0.016 C 
ATOM      3  C   LIG d   1      -1.621  81.351 112.819  0.00  0.00     0.038 C 
ATOM      4  C   LIG d   1      -1.598  80.166 112.068  0.00  0.00     0.028 C 
ATOM      5  C   LIG d   1      -1.464  78.910 112.922  0.00  0.00    -0.047 C 
ATOM      6  C   LIG d   1      -2.539  78.942 114.033  0.00  0.00     0.091 C 
ENDROOT
BRANCH   1   7
ATOM      7  O   LIG d   1      -3.688  80.457 115.579  0.00  0.00    -0.368 OA
BRANCH   7   8
ATOM      8  C   LIG d   1      -3.655  80.231 117.010  0.00  0.00     0.119 C 
BRANCH   8   9
ATOM      9  C   LIG d   1      -5.092  79.905 117.460  0.00  0.00     0.028 C 
ATOM     10  C   LIG d   1      -5.610  78.587 116.860  0.00  0.00     0.006 C 
ENDBRANCH   8   9
BRANCH   8  11
ATOM     11  C   LIG d   1      -3.272  81.506 117.766  0.00  0.00     0.028 C 
ATOM     12  C   LIG d   1      -1.797  81.523 118.198  0.00  0.00     0.006 C 
ENDBRANCH   8  11
ENDBRANCH   7   8
ENDBRANCH   1   7
BRANCH   6  13
ATOM     13  N   LIG d   1      -2.424  77.790 114.966  0.00  0.00    -0.311 N 
ATOM     14  C   LIG d   1      -3.173  76.693 114.871  0.00  0.00     0.210 C 
ATOM     15  C   LIG d   1      -2.908  75.634 115.946  0.00  0.00     0.109 C 
ATOM     16  O   LIG d   1      -4.010  76.482 113.980  0.00  0.00    -0.276 OA
ATOM     17  H   LIG d   1      -1.748  77.864 115.700  0.00  0.00     0.149 HD
ENDBRANCH   6  13
BRANCH   5  18
ATOM     18  N   LIG d   1      -1.593  77.746 112.026  0.00  0.00     0.381 N 
ATOM     19  H   LIG d   1      -1.493  76.901 112.552  0.00  0.00    -0.090 HD
ATOM     20  H   LIG d   1      -0.858  77.780 111.342  0.00  0.00    -0.090 HD
ATOM     21  H   LIG d   1      -2.480  77.761 111.573  0.00  0.00    -0.090 HD
ENDBRANCH   5  18
BRANCH   3  22
ATOM     22  C   LIG d   1      -1.117  82.507 112.241  0.00  0.00     0.382 C 
ATOM     23  O   LIG d   1      -1.082  83.573 112.901  0.00  0.00    -0.241 OA
ATOM     24  O   LIG d   1      -0.739  82.506 111.054  0.00  0.00    -0.241 OA
ENDBRANCH   3  22
TORSDOF 7
ENDMDL
MODEL 5
REMARK VINA RESULT:      -5.0      2.568      4.748
REMARK  7 active torsions:
REMARK  status: ('A' for Active; 'I' for Inactive)
REMARK    1  A    between atoms: C_2  and  C_3 
REMARK    2  A    between atoms: C_3  and  O_6 
REMARK    3  A    between atoms: C_3  and  C_4 
REMARK    4  A    between atoms: C_7  and  O_6 
REMARK    5  A    between atoms: C_9  and  C_10 
REMARK    6  A    between atoms: N_15  and  C_14 
REMARK    7  A    between atoms: N_20  and  C_19 
REMARK       I    between atoms: C_22  and  N_20 
ROOT
ATOM      1  C   LIG d   1      -1.892  80.614 114.481  0.00  0.00     0.161 C 
ATOM      2  C   LIG d   1      -2.398  79.382 114.927  0.00  0.00     0.016 C 
ATOM      3  C   LIG d   1      -2.400  78.209 114.138  0.00  0.00     0.038 C 
ATOM      4  C   LIG d   1      -1.754  78.152 112.894  0.00  0.00     0.028 C 
ATOM      5  C   LIG d   1      -1.673  79.502 112.191  0.00  0.00    -0.047 C 
ATOM      6  C   LIG d   1      -1.083  80.543 113.169  0.00  0.00     0.091 C 
ENDROOT
BRANCH   1   7
ATOM      7  O   LIG d   1      -1.106  81.225 115.523  0.00  0.00    -0.368 OA
BRANCH   7   8
ATOM      8  C   LIG d   1      -1.820  82.098 116.432  0.00  0.00     0.119 C 
BRANCH   8   9
ATOM      9  C   LIG d   1      -2.437  83.234 115.594  0.00  0.00     0.028 C 
ATOM     10  C   LIG d   1      -1.465  84.409 115.392  0.00  0.00     0.006 C 
ENDBRANCH   8   9
BRANCH   8  11
ATOM     11  C   LIG d   1      -0.864  82.788 117.409  0.00  0.00     0.028 C 
ATOM     12  C   LIG d   1      -0.584  81.945 118.664  0.00  0.00     0.006 C 
ENDBRANCH   8  11
ENDBRANCH   7   8
ENDBRANCH   1   7
BRANCH   6  13
ATOM     13  N   LIG d   1      -1.047  81.911 112.589  0.00  0.00    -0.311 N 
ATOM     14  C   LIG d   1       0.062  82.643 112.506  0.00  0.00     0.210 C 
ATOM     15  C   LIG d   1      -0.126  84.034 111.891  0.00  0.00     0.109 C 
ATOM     16  O   LIG d   1       1.190  82.261 112.853  0.00  0.00    -0.276 OA
ATOM     17  H   LIG d   1      -1.912  82.287 112.253  0.00  0.00     0.149 HD
ENDBRANCH   6  13
BRANCH   5  18
ATOM     18  N   LIG d   1      -0.857  79.324 110.975  0.00  0.00     0.381 N 
ATOM     19  H   LIG d   1      -0.850  78.359 110.710  0.00  0.00    -0.090 HD
ATOM     20  H   LIG d   1       0.088  79.602 111.174  0.00  0.00    -0.090 HD
ATOM     21  H   LIG d   1      -1.224  79.877 110.233  0.00  0.00    -0.090 HD
ENDBRANCH   5  18
BRANCH   3  22
ATOM     22  C   LIG d   1      -3.089  77.087 114.574  0.00  0.00     0.382 C 
ATOM     23  O   LIG d   1      -4.053  76.644 113.905  0.00  0.00    -0.241 OA
ATOM     24  O   LIG d   1      -2.787  76.540 115.651  0.00  0.00    -0.241 OA
ENDBRANCH   3  22
TORSDOF 7
ENDMDL
MODEL 6
REMARK VINA RESULT:      -4.8      3.619      7.462
REMARK  7 active torsions:
REMARK  status: ('A' for Active; 'I' for Inactive)
REMARK    1  A    between atoms: C_2  and  C_3 
REMARK    2  A    between atoms: C_3  and  O_6 
REMARK    3  A    between atoms: C_3  and  C_4 
REMARK    4  A    between atoms: C_7  and  O_6 
REMARK    5  A    between atoms: C_9  and  C_10 
REMARK    6  A    between atoms: N_15  and  C_14 
REMARK    7  A    between atoms: N_20  and  C_19 
REMARK       I    between atoms: C_22  and  N_20 
ROOT
ATOM      1  C   LIG d   1      -2.657  79.090 115.436  0.00  0.00     0.161 C 
ATOM      2  C   LIG d   1      -2.647  80.396 114.920  0.00  0.00     0.016 C 
ATOM      3  C   LIG d   1      -2.267  80.705 113.593  0.00  0.00     0.038 C 
ATOM      4  C   LIG d   1      -2.014  79.706 112.642  0.00  0.00     0.028 C 
ATOM      5  C   LIG d   1      -1.523  78.398 113.254  0.00  0.00    -0.047 C 
ATOM      6  C   LIG d   1      -2.492  77.976 114.381  0.00  0.00     0.091 C 
ENDROOT
BRANCH   1   7
ATOM      7  O   LIG d   1      -3.858  78.878 116.205  0.00  0.00    -0.368 OA
BRANCH   7   8
ATOM      8  C   LIG d   1      -4.346  80.019 116.952  0.00  0.00     0.119 C 
BRANCH   8   9
ATOM      9  C   LIG d   1      -3.710  79.962 118.354  0.00  0.00     0.028 C 
ATOM     10  C   LIG d   1      -2.763  81.145 118.617  0.00  0.00     0.006 C 
ENDBRANCH   8   9
BRANCH   8  11
ATOM     11  C   LIG d   1      -5.857  79.926 117.188  0.00  0.00     0.028 C 
ATOM     12  C   LIG d   1      -6.539  81.302 117.233  0.00  0.00     0.006 C 
ENDBRANCH   8  11
ENDBRANCH   7   8
ENDBRANCH   1   7
BRANCH   6  13
ATOM     13  N   LIG d   1      -2.039  76.750 115.089  0.00  0.00    -0.311 N 
ATOM     14  C   LIG d   1      -2.781  75.650 115.198  0.00  0.00     0.210 C 
ATOM     15  C   LIG d   1      -2.132  74.507 115.985  0.00  0.00     0.109 C 
ATOM     16  O   LIG d   1      -3.903  75.500 114.690  0.00  0.00    -0.276 OA
ATOM     17  H   LIG d   1      -1.128  76.773 115.504  0.00  0.00     0.149 HD
ENDBRANCH   6  13
BRANCH   5  18
ATOM     18  N   LIG d   1      -1.432  77.404 112.167  0.00  0.00     0.381 N 
ATOM     19  H   LIG d   1      -2.350  77.166 111.849  0.00  0.00    -0.090 HD
ATOM     20  H   LIG d   1      -0.995  76.572 112.523  0.00  0.00    -0.090 HD
ATOM     21  H   LIG d   1      -0.896  77.773 111.412  0.00  0.00    -0.090 HD
ENDBRANCH   5  18
BRANCH   3  22
ATOM     22  C   LIG d   1      -2.097  82.029 113.218  0.00  0.00     0.382 C 
ATOM     23  O   LIG d   1      -1.929  82.322 112.010  0.00  0.00    -0.241 OA
ATOM     24  O   LIG d   1      -2.066  82.931 114.078  0.00  0.00    -0.241 OA
ENDBRANCH   3  22
TORSDOF 7
ENDMDL
MODEL 7
REMARK VINA RESULT:      -4.7      2.412      4.278
REMARK  7 active torsions:
REMARK  status: ('A' for Active; 'I' for Inactive)
REMARK    1  A    between atoms: C_2  and  C_3 
REMARK    2  A    between atoms: C_3  and  O_6 
REMARK    3  A    between atoms: C_3  and  C_4 
REMARK    4  A    between atoms: C_7  and  O_6 
REMARK    5  A    between atoms: C_9  and  C_10 
REMARK    6  A    between atoms: N_15  and  C_14 
REMARK    7  A    between atoms: N_20  and  C_19 
REMARK       I    between atoms: C_22  and  N_20 
ROOT
ATOM      1  C   LIG d   1      -1.607  82.294 113.598  0.00  0.00     0.161 C 
ATOM      2  C   LIG d   1      -2.182  81.417 114.532  0.00  0.00     0.016 C 
ATOM      3  C   LIG d   1      -2.224  80.014 114.360  0.00  0.00     0.038 C 
ATOM      4  C   LIG d   1      -1.554  79.376 113.305  0.00  0.00     0.028 C 
ATOM      5  C   LIG d   1      -1.392  80.257 112.071  0.00  0.00    -0.047 C 
ATOM      6  C   LIG d   1      -0.773  81.608 112.496  0.00  0.00     0.091 C 
ENDROOT
BRANCH   1   7
ATOM      7  O   LIG d   1      -0.814  83.285 114.282  0.00  0.00    -0.368 OA
BRANCH   7   8
ATOM      8  C   LIG d   1      -0.001  82.803 115.381  0.00  0.00     0.119 C 
BRANCH   8   9
ATOM      9  C   LIG d   1      -0.366  83.635 116.626  0.00  0.00     0.028 C 
ATOM     10  C   LIG d   1      -0.490  82.771 117.892  0.00  0.00     0.006 C 
ENDBRANCH   8   9
BRANCH   8  11
ATOM     11  C   LIG d   1       1.486  83.075 115.133  0.00  0.00     0.028 C 
ATOM     12  C   LIG d   1       2.288  81.793 114.860  0.00  0.00     0.006 C 
ENDBRANCH   8  11
ENDBRANCH   7   8
ENDBRANCH   1   7
BRANCH   6  13
ATOM     13  N   LIG d   1      -0.657  82.561 111.361  0.00  0.00    -0.311 N 
ATOM     14  C   LIG d   1       0.479  83.171 111.029  0.00  0.00     0.210 C 
ATOM     15  C   LIG d   1       0.374  84.129 109.839  0.00  0.00     0.109 C 
ATOM     16  O   LIG d   1       1.571  82.985 111.587  0.00  0.00    -0.276 OA
ATOM     17  H   LIG d   1      -1.488  82.746 110.834  0.00  0.00     0.149 HD
ENDBRANCH   6  13
BRANCH   5  18
ATOM     18  N   LIG d   1      -0.558  79.518 111.103  0.00  0.00     0.381 N 
ATOM     19  H   LIG d   1      -0.467  80.049 110.260  0.00  0.00    -0.090 HD
ATOM     20  H   LIG d   1      -1.011  78.649 110.881  0.00  0.00    -0.090 HD
ATOM     21  H   LIG d   1       0.342  79.342 111.493  0.00  0.00    -0.090 HD
ENDBRANCH   5  18
BRANCH   3  22
ATOM     22  C   LIG d   1      -2.977  79.237 115.228  0.00  0.00     0.382 C 
ATOM     23  O   LIG d   1      -3.352  78.092 114.878  0.00  0.00    -0.241 OA
ATOM     24  O   LIG d   1      -3.323  79.684 116.338  0.00  0.00    -0.241 OA
ENDBRANCH   3  22
TORSDOF 7
ENDMDL
MODEL 8
REMARK VINA RESULT:      -4.6      4.243      7.209
REMARK  7 active torsions:
REMARK  status: ('A' for Active; 'I' for Inactive)
REMARK    1  A    between atoms: C_2  and  C_3 
REMARK    2  A    between atoms: C_3  and  O_6 
REMARK    3  A    between atoms: C_3  and  C_4 
REMARK    4  A    between atoms: C_7  and  O_6 
REMARK    5  A    between atoms: C_9  and  C_10 
REMARK    6  A    between atoms: N_15  and  C_14 
REMARK    7  A    between atoms: N_20  and  C_19 
REMARK       I    between atoms: C_22  and  N_20 
ROOT
ATOM      1  C   LIG d   1      -1.545  76.265 115.183  0.00  0.00     0.161 C 
ATOM      2  C   LIG d   1      -1.390  75.385 116.267  0.00  0.00     0.016 C 
ATOM      3  C   LIG d   1      -0.834  75.769 117.509  0.00  0.00     0.038 C 
ATOM      4  C   LIG d   1      -0.531  77.107 117.803  0.00  0.00     0.028 C 
ATOM      5  C   LIG d   1      -0.200  77.939 116.569  0.00  0.00    -0.047 C 
ATOM      6  C   LIG d   1      -1.323  77.754 115.523  0.00  0.00     0.091 C 
ENDROOT
BRANCH   1   7
ATOM      7  O   LIG d   1      -2.841  76.076 114.581  0.00  0.00    -0.368 OA
BRANCH   7   8
ATOM      8  C   LIG d   1      -3.907  75.674 115.476  0.00  0.00     0.119 C 
BRANCH   8   9
ATOM      9  C   LIG d   1      -4.921  74.859 114.651  0.00  0.00     0.028 C 
ATOM     10  C   LIG d   1      -5.908  75.755 113.883  0.00  0.00     0.006 C 
ENDBRANCH   8   9
BRANCH   8  11
ATOM     11  C   LIG d   1      -4.686  76.887 115.994  0.00  0.00     0.028 C 
ATOM     12  C   LIG d   1      -4.890  76.858 117.517  0.00  0.00     0.006 C 
ENDBRANCH   8  11
ENDBRANCH   7   8
ENDBRANCH   1   7
BRANCH   6  13
ATOM     13  N   LIG d   1      -1.037  78.468 114.251  0.00  0.00    -0.311 N 
ATOM     14  C   LIG d   1      -1.835  79.404 113.740  0.00  0.00     0.210 C 
ATOM     15  C   LIG d   1      -1.363  79.999 112.410  0.00  0.00     0.109 C 
ATOM     16  O   LIG d   1      -2.871  79.820 114.278  0.00  0.00    -0.276 OA
ATOM     17  H   LIG d   1      -0.199  78.214 113.765  0.00  0.00     0.149 HD
ENDBRANCH   6  13
BRANCH   5  18
ATOM     18  N   LIG d   1      -0.041  79.339 117.005  0.00  0.00     0.381 N 
ATOM     19  H   LIG d   1       0.852  79.685 116.716  0.00  0.00    -0.090 HD
ATOM     20  H   LIG d   1      -0.083  79.374 118.008  0.00  0.00    -0.090 HD
ATOM     21  H   LIG d   1      -0.765  79.902 116.616  0.00  0.00    -0.090 HD
ENDBRANCH   5  18
BRANCH   3  22
ATOM     22  C   LIG d   1      -0.537  74.802 118.458  0.00  0.00     0.382 C 
ATOM     23  O   LIG d   1      -1.465  74.180 119.030  0.00  0.00    -0.241 OA
ATOM     24  O   LIG d   1       0.644  74.576 118.781  0.00  0.00    -0.241 OA
ENDBRANCH   3  22
TORSDOF 7
ENDMDL
MODEL 9
REMARK VINA RESULT:      -4.4      4.113      8.019
REMARK  7 active torsions:
REMARK  status: ('A' for Active; 'I' for Inactive)
REMARK    1  A    between atoms: C_2  and  C_3 
REMARK    2  A    between atoms: C_3  and  O_6 
REMARK    3  A    between atoms: C_3  and  C_4 
REMARK    4  A    between atoms: C_7  and  O_6 
REMARK    5  A    between atoms: C_9  and  C_10 
REMARK    6  A    between atoms: N_15  and  C_14 
REMARK    7  A    between atoms: N_20  and  C_19 
REMARK       I    between atoms: C_22  and  N_20 
ROOT
ATOM      1  C   LIG d   1      -3.439  78.832 116.064  0.00  0.00     0.161 C 
ATOM      2  C   LIG d   1      -3.111  80.107 115.576  0.00  0.00     0.016 C 
ATOM      3  C   LIG d   1      -2.147  80.330 114.565  0.00  0.00     0.038 C 
ATOM      4  C   LIG d   1      -1.551  79.271 113.864  0.00  0.00     0.028 C 
ATOM      5  C   LIG d   1      -1.477  77.977 114.667  0.00  0.00    -0.047 C 
ATOM      6  C   LIG d   1      -2.880  77.658 115.234  0.00  0.00     0.091 C 
ENDROOT
BRANCH   1   7
ATOM      7  O   LIG d   1      -4.869  78.714 116.200  0.00  0.00    -0.368 OA
BRANCH   7   8
ATOM      8  C   LIG d   1      -5.415  79.039 117.502  0.00  0.00     0.119 C 
BRANCH   8   9
ATOM      9  C   LIG d   1      -6.309  77.861 117.936  0.00  0.00     0.028 C 
ATOM     10  C   LIG d   1      -6.659  76.928 116.765  0.00  0.00     0.006 C 
ENDBRANCH   8   9
BRANCH   8  11
ATOM     11  C   LIG d   1      -6.347  80.251 117.429  0.00  0.00     0.028 C 
ATOM     12  C   LIG d   1      -5.812  81.463 118.208  0.00  0.00     0.006 C 
ENDBRANCH   8  11
ENDBRANCH   7   8
ENDBRANCH   1   7
BRANCH   6  13
ATOM     13  N   LIG d   1      -2.879  76.452 116.103  0.00  0.00    -0.311 N 
ATOM     14  C   LIG d   1      -3.499  75.318 115.783  0.00  0.00     0.210 C 
ATOM     15  C   LIG d   1      -3.390  74.204 116.829  0.00  0.00     0.109 C 
ATOM     16  O   LIG d   1      -4.102  75.117 114.718  0.00  0.00    -0.276 OA
ATOM     17  H   LIG d   1      -2.387  76.517 116.972  0.00  0.00     0.149 HD
ENDBRANCH   6  13
BRANCH   5  18
ATOM     18  N   LIG d   1      -0.962  76.925 113.771  0.00  0.00     0.381 N 
ATOM     19  H   LIG d   1      -0.738  76.107 114.303  0.00  0.00    -0.090 HD
ATOM     20  H   LIG d   1      -0.122  77.255 113.331  0.00  0.00    -0.090 HD
ATOM     21  H   LIG d   1      -1.644  76.703 113.079  0.00  0.00    -0.090 HD
ENDBRANCH   5  18
BRANCH   3  22
ATOM     22  C   LIG d   1      -1.741  81.623 114.275  0.00  0.00     0.382 C 
ATOM     23  O   LIG d   1      -0.797  82.143 114.918  0.00  0.00    -0.241 OA
ATOM     24  O   LIG d   1      -2.336  82.293 113.409  0.00  0.00    -0.241 OA
ENDBRANCH   3  22
TORSDOF 7
ENDMDL
