MODEL 1
REMARK VINA RESULT:      -5.1      0.000      0.000
REMARK  7 active torsions:
REMARK  status: ('A' for Active; 'I' for Inactive)
REMARK    1  A    between atoms: C_2  and  C_3 
REMARK    2  A    between atoms: C_3  and  O_6 
REMARK    3  A    between atoms: C_3  and  C_4 
REMARK    4  A    between atoms: C_7  and  O_6 
REMARK    5  A    between atoms: C_9  and  C_10 
REMARK    6  A    between atoms: N_15  and  C_14 
REMARK    7  A    between atoms: N_20  and  C_19 
REMARK       I    between atoms: C_22  and  N_20 
ROOT
ATOM      1  C   LIG d   1      -2.539  77.712 116.325  0.00  0.00     0.161 C 
ATOM      2  C   LIG d   1      -2.883  78.516 115.226  0.00  0.00     0.016 C 
ATOM      3  C   LIG d   1      -2.297  78.380 113.947  0.00  0.00     0.038 C 
ATOM      4  C   LIG d   1      -1.429  77.322 113.638  0.00  0.00     0.028 C 
ATOM      5  C   LIG d   1      -0.667  76.791 114.848  0.00  0.00    -0.047 C 
ATOM      6  C   LIG d   1      -1.675  76.481 115.979  0.00  0.00     0.091 C 
ENDROOT
BRANCH   1   7
ATOM      7  O   LIG d   1      -3.731  77.306 117.026  0.00  0.00    -0.368 OA
BRANCH   7   8
ATOM      8  C   LIG d   1      -4.948  77.262 116.242  0.00  0.00     0.119 C 
BRANCH   8   9
ATOM      9  C   LIG d   1      -6.054  77.949 117.065  0.00  0.00     0.028 C 
ATOM     10  C   LIG d   1      -5.808  79.458 117.235  0.00  0.00     0.006 C 
ENDBRANCH   8   9
BRANCH   8  11
ATOM     11  C   LIG d   1      -5.428  75.821 116.040  0.00  0.00     0.028 C 
ATOM     12  C   LIG d   1      -5.134  75.288 114.629  0.00  0.00     0.006 C 
ENDBRANCH   8  11
ENDBRANCH   7   8
ENDBRANCH   1   7
BRANCH   6  13
ATOM     13  N   LIG d   1      -1.005  76.036 117.229  0.00  0.00    -0.311 N 
ATOM     14  C   LIG d   1      -1.378  74.958 117.916  0.00  0.00     0.210 C 
ATOM     15  C   LIG d   1      -0.566  74.689 119.187  0.00  0.00     0.109 C 
ATOM     16  O   LIG d   1      -2.282  74.180 117.577  0.00  0.00    -0.276 OA
ATOM     17  H   LIG d   1      -0.241  76.591 117.559  0.00  0.00     0.149 HD
ENDBRANCH   6  13
BRANCH   5  18
ATOM     18  N   LIG d   1       0.094  75.605 114.411  0.00  0.00     0.381 N 
ATOM     19  H   LIG d   1       0.533  75.174 115.200  0.00  0.00    -0.090 HD
ATOM     20  H   LIG d   1       0.812  75.898 113.772  0.00  0.00    -0.090 HD
ATOM     21  H   LIG d   1      -0.515  74.955 113.964  0.00  0.00    -0.090 HD
ENDBRANCH   5  18
BRANCH   3  22
ATOM     22  C   LIG d   1      -2.548  79.332 112.971  0.00  0.00     0.382 C 
ATOM     23  O   LIG d   1      -2.090  79.178 111.812  0.00  0.00    -0.241 OA
ATOM     24  O   LIG d   1      -3.188  80.364 113.245  0.00  0.00    -0.241 OA
ENDBRANCH   3  22
TORSDOF 7
ENDMDL
MODEL 2
REMARK VINA RESULT:      -5.1      1.536      2.065
REMARK  7 active torsions:
REMARK  status: ('A' for Active; 'I' for Inactive)
REMARK    1  A    between atoms: C_2  and  C_3 
REMARK    2  A    between atoms: C_3  and  O_6 
REMARK    3  A    between atoms: C_3  and  C_4 
REMARK    4  A    between atoms: C_7  and  O_6 
REMARK    5  A    between atoms: C_9  and  C_10 
REMARK    6  A    between atoms: N_15  and  C_14 
REMARK    7  A    between atoms: N_20  and  C_19 
REMARK       I    between atoms: C_22  and  N_20 
ROOT
ATOM      1  C   LIG d   1      -2.996  76.921 115.236  0.00  0.00     0.161 C 
ATOM      2  C   LIG d   1      -3.159  77.754 114.116  0.00  0.00     0.016 C 
ATOM      3  C   LIG d   1      -2.171  78.662 113.671  0.00  0.00     0.038 C 
ATOM      4  C   LIG d   1      -0.884  78.690 114.230  0.00  0.00     0.028 C 
ATOM      5  C   LIG d   1      -0.844  78.224 115.681  0.00  0.00    -0.047 C 
ATOM      6  C   LIG d   1      -1.557  76.857 115.790  0.00  0.00     0.091 C 
ENDROOT
BRANCH   1   7
ATOM      7  O   LIG d   1      -3.475  75.595 114.932  0.00  0.00    -0.368 OA
BRANCH   7   8
ATOM      8  C   LIG d   1      -4.593  75.125 115.724  0.00  0.00     0.119 C 
BRANCH   8   9
ATOM      9  C   LIG d   1      -5.728  74.757 114.749  0.00  0.00     0.028 C 
ATOM     10  C   LIG d   1      -6.711  75.919 114.527  0.00  0.00     0.006 C 
ENDBRANCH   8   9
BRANCH   8  11
ATOM     11  C   LIG d   1      -5.161  76.242 116.605  0.00  0.00     0.028 C 
ATOM     12  C   LIG d   1      -5.106  75.904 118.103  0.00  0.00     0.006 C 
ENDBRANCH   8  11
ENDBRANCH   7   8
ENDBRANCH   1   7
BRANCH   6  13
ATOM     13  N   LIG d   1      -1.637  76.369 117.192  0.00  0.00    -0.311 N 
ATOM     14  C   LIG d   1      -1.389  75.109 117.544  0.00  0.00     0.210 C 
ATOM     15  C   LIG d   1      -1.548  74.813 119.039  0.00  0.00     0.109 C 
ATOM     16  O   LIG d   1      -1.022  74.216 116.766  0.00  0.00    -0.276 OA
ATOM     17  H   LIG d   1      -1.897  77.035 117.892  0.00  0.00     0.149 HD
ENDBRANCH   6  13
BRANCH   5  18
ATOM     18  N   LIG d   1       0.572  78.172 116.093  0.00  0.00     0.381 N 
ATOM     19  H   LIG d   1       0.668  77.593 116.903  0.00  0.00    -0.090 HD
ATOM     20  H   LIG d   1       0.875  79.100 116.332  0.00  0.00    -0.090 HD
ATOM     21  H   LIG d   1       1.130  77.812 115.351  0.00  0.00    -0.090 HD
ENDBRANCH   5  18
BRANCH   3  22
ATOM     22  C   LIG d   1      -2.480  79.583 112.682  0.00  0.00     0.382 C 
ATOM     23  O   LIG d   1      -2.014  79.441 111.526  0.00  0.00    -0.241 OA
ATOM     24  O   LIG d   1      -3.181  80.578 112.942  0.00  0.00    -0.241 OA
ENDBRANCH   3  22
TORSDOF 7
ENDMDL
MODEL 3
REMARK VINA RESULT:      -4.9      1.769      5.040
REMARK  7 active torsions:
REMARK  status: ('A' for Active; 'I' for Inactive)
REMARK    1  A    between atoms: C_2  and  C_3 
REMARK    2  A    between atoms: C_3  and  O_6 
REMARK    3  A    between atoms: C_3  and  C_4 
REMARK    4  A    between atoms: C_7  and  O_6 
REMARK    5  A    between atoms: C_9  and  C_10 
REMARK    6  A    between atoms: N_15  and  C_14 
REMARK    7  A    between atoms: N_20  and  C_19 
REMARK       I    between atoms: C_22  and  N_20 
ROOT
ATOM      1  C   LIG d   1      -2.499  75.754 115.022  0.00  0.00     0.161 C 
ATOM      2  C   LIG d   1      -2.211  75.161 116.263  0.00  0.00     0.016 C 
ATOM      3  C   LIG d   1      -1.324  75.725 117.208  0.00  0.00     0.038 C 
ATOM      4  C   LIG d   1      -0.776  77.005 117.039  0.00  0.00     0.028 C 
ATOM      5  C   LIG d   1      -0.640  77.417 115.577  0.00  0.00    -0.047 C 
ATOM      6  C   LIG d   1      -1.997  77.205 114.867  0.00  0.00     0.091 C 
ENDROOT
BRANCH   1   7
ATOM      7  O   LIG d   1      -3.915  75.684 114.764  0.00  0.00    -0.368 OA
BRANCH   7   8
ATOM      8  C   LIG d   1      -4.767  75.510 115.923  0.00  0.00     0.119 C 
BRANCH   8   9
ATOM      9  C   LIG d   1      -5.847  74.476 115.552  0.00  0.00     0.028 C 
ATOM     10  C   LIG d   1      -6.813  74.194 116.715  0.00  0.00     0.006 C 
ENDBRANCH   8   9
BRANCH   8  11
ATOM     11  C   LIG d   1      -5.532  76.796 116.250  0.00  0.00     0.028 C 
ATOM     12  C   LIG d   1      -4.799  77.683 117.269  0.00  0.00     0.006 C 
ENDBRANCH   8  11
ENDBRANCH   7   8
ENDBRANCH   1   7
BRANCH   6  13
ATOM     13  N   LIG d   1      -1.929  77.505 113.413  0.00  0.00    -0.311 N 
ATOM     14  C   LIG d   1      -2.334  78.657 112.883  0.00  0.00     0.210 C 
ATOM     15  C   LIG d   1      -2.196  78.752 111.360  0.00  0.00     0.109 C 
ATOM     16  O   LIG d   1      -2.766  79.621 113.532  0.00  0.00    -0.276 OA
ATOM     17  H   LIG d   1      -1.563  76.789 112.817  0.00  0.00     0.149 HD
ENDBRANCH   6  13
BRANCH   5  18
ATOM     18  N   LIG d   1      -0.187  78.821 115.550  0.00  0.00     0.381 N 
ATOM     19  H   LIG d   1      -0.016  79.140 116.483  0.00  0.00    -0.090 HD
ATOM     20  H   LIG d   1      -0.913  79.389 115.150  0.00  0.00    -0.090 HD
ATOM     21  H   LIG d   1       0.644  78.901 115.006  0.00  0.00    -0.090 HD
ENDBRANCH   5  18
BRANCH   3  22
ATOM     22  C   LIG d   1      -0.945  74.988 118.320  0.00  0.00     0.382 C 
ATOM     23  O   LIG d   1       0.218  75.100 118.780  0.00  0.00    -0.241 OA
ATOM     24  O   LIG d   1      -1.736  74.180 118.842  0.00  0.00    -0.241 OA
ENDBRANCH   3  22
TORSDOF 7
ENDMDL
MODEL 4
REMARK VINA RESULT:      -4.5      1.109      1.836
REMARK  7 active torsions:
REMARK  status: ('A' for Active; 'I' for Inactive)
REMARK    1  A    between atoms: C_2  and  C_3 
REMARK    2  A    between atoms: C_3  and  O_6 
REMARK    3  A    between atoms: C_3  and  C_4 
REMARK    4  A    between atoms: C_7  and  O_6 
REMARK    5  A    between atoms: C_9  and  C_10 
REMARK    6  A    between atoms: N_15  and  C_14 
REMARK    7  A    between atoms: N_20  and  C_19 
REMARK       I    between atoms: C_22  and  N_20 
ROOT
ATOM      1  C   LIG d   1      -2.364  77.661 116.278  0.00  0.00     0.161 C 
ATOM      2  C   LIG d   1      -2.730  78.474 115.192  0.00  0.00     0.016 C 
ATOM      3  C   LIG d   1      -2.205  78.313 113.889  0.00  0.00     0.038 C 
ATOM      4  C   LIG d   1      -1.388  77.225 113.548  0.00  0.00     0.028 C 
ATOM      5  C   LIG d   1      -0.592  76.672 114.725  0.00  0.00    -0.047 C 
ATOM      6  C   LIG d   1      -1.559  76.400 115.900  0.00  0.00     0.091 C 
ENDROOT
BRANCH   1   7
ATOM      7  O   LIG d   1      -3.537  77.298 117.034  0.00  0.00    -0.368 OA
BRANCH   7   8
ATOM      8  C   LIG d   1      -4.397  78.392 117.440  0.00  0.00     0.119 C 
BRANCH   8   9
ATOM      9  C   LIG d   1      -4.438  78.400 118.981  0.00  0.00     0.028 C 
ATOM     10  C   LIG d   1      -3.749  77.168 119.593  0.00  0.00     0.006 C 
ENDBRANCH   8   9
BRANCH   8  11
ATOM     11  C   LIG d   1      -5.844  78.158 116.997  0.00  0.00     0.028 C 
ATOM     12  C   LIG d   1      -6.791  79.286 117.435  0.00  0.00     0.006 C 
ENDBRANCH   8  11
ENDBRANCH   7   8
ENDBRANCH   1   7
BRANCH   6  13
ATOM     13  N   LIG d   1      -0.850  75.936 117.122  0.00  0.00    -0.311 N 
ATOM     14  C   LIG d   1      -1.255  74.901 117.855  0.00  0.00     0.210 C 
ATOM     15  C   LIG d   1      -0.392  74.603 119.085  0.00  0.00     0.109 C 
ATOM     16  O   LIG d   1      -2.228  74.180 117.586  0.00  0.00    -0.276 OA
ATOM     17  H   LIG d   1      -0.032  76.445 117.395  0.00  0.00     0.149 HD
ENDBRANCH   6  13
BRANCH   5  18
ATOM     18  N   LIG d   1       0.108  75.460 114.260  0.00  0.00     0.381 N 
ATOM     19  H   LIG d   1       0.591  75.034 115.026  0.00  0.00    -0.090 HD
ATOM     20  H   LIG d   1       0.786  75.723 113.567  0.00  0.00    -0.090 HD
ATOM     21  H   LIG d   1      -0.545  74.818 113.870  0.00  0.00    -0.090 HD
ENDBRANCH   5  18
BRANCH   3  22
ATOM     22  C   LIG d   1      -2.466  79.271 112.921  0.00  0.00     0.382 C 
ATOM     23  O   LIG d   1      -3.108  80.306 113.220  0.00  0.00    -0.241 OA
ATOM     24  O   LIG d   1      -2.106  79.091 111.742  0.00  0.00    -0.241 OA
ENDBRANCH   3  22
TORSDOF 7
ENDMDL
MODEL 5
REMARK VINA RESULT:      -4.4      2.531      4.814
REMARK  7 active torsions:
REMARK  status: ('A' for Active; 'I' for Inactive)
REMARK    1  A    between atoms: C_2  and  C_3 
REMARK    2  A    between atoms: C_3  and  O_6 
REMARK    3  A    between atoms: C_3  and  C_4 
REMARK    4  A    between atoms: C_7  and  O_6 
REMARK    5  A    between atoms: C_9  and  C_10 
REMARK    6  A    between atoms: N_15  and  C_14 
REMARK    7  A    between atoms: N_20  and  C_19 
REMARK       I    between atoms: C_22  and  N_20 
ROOT
ATOM      1  C   LIG d   1      -2.583  78.409 115.687  0.00  0.00     0.161 C 
ATOM      2  C   LIG d   1      -1.261  78.665 116.089  0.00  0.00     0.016 C 
ATOM      3  C   LIG d   1      -0.406  77.675 116.625  0.00  0.00     0.038 C 
ATOM      4  C   LIG d   1      -0.767  76.320 116.655  0.00  0.00     0.028 C 
ATOM      5  C   LIG d   1      -2.274  76.096 116.728  0.00  0.00    -0.047 C 
ATOM      6  C   LIG d   1      -2.957  76.914 115.608  0.00  0.00     0.091 C 
ENDROOT
BRANCH   1   7
ATOM      7  O   LIG d   1      -2.844  79.058 114.427  0.00  0.00    -0.368 OA
BRANCH   7   8
ATOM      8  C   LIG d   1      -2.071  78.588 113.295  0.00  0.00     0.119 C 
BRANCH   8   9
ATOM      9  C   LIG d   1      -1.526  79.827 112.559  0.00  0.00     0.028 C 
ATOM     10  C   LIG d   1       0.008  79.919 112.620  0.00  0.00     0.006 C 
ENDBRANCH   8   9
BRANCH   8  11
ATOM     11  C   LIG d   1      -2.958  77.867 112.275  0.00  0.00     0.028 C 
ATOM     12  C   LIG d   1      -2.516  78.113 110.824  0.00  0.00     0.006 C 
ENDBRANCH   8  11
ENDBRANCH   7   8
ENDBRANCH   1   7
BRANCH   6  13
ATOM     13  N   LIG d   1      -4.439  76.818 115.660  0.00  0.00    -0.311 N 
ATOM     14  C   LIG d   1      -5.141  75.928 114.962  0.00  0.00     0.210 C 
ATOM     15  C   LIG d   1      -6.660  76.013 115.146  0.00  0.00     0.109 C 
ATOM     16  O   LIG d   1      -4.649  75.054 114.232  0.00  0.00    -0.276 OA
ATOM     17  H   LIG d   1      -4.918  77.469 116.252  0.00  0.00     0.149 HD
ENDBRANCH   6  13
BRANCH   5  18
ATOM     18  N   LIG d   1      -2.515  74.645 116.613  0.00  0.00     0.381 N 
ATOM     19  H   LIG d   1      -2.786  74.276 117.502  0.00  0.00    -0.090 HD
ATOM     20  H   LIG d   1      -1.661  74.195 116.331  0.00  0.00    -0.090 HD
ATOM     21  H   LIG d   1      -3.229  74.470 115.940  0.00  0.00    -0.090 HD
ENDBRANCH   5  18
BRANCH   3  22
ATOM     22  C   LIG d   1       0.812  78.045 117.176  0.00  0.00     0.382 C 
ATOM     23  O   LIG d   1       1.186  79.241 117.125  0.00  0.00    -0.241 OA
ATOM     24  O   LIG d   1       1.561  77.189 117.684  0.00  0.00    -0.241 OA
ENDBRANCH   3  22
TORSDOF 7
ENDMDL
MODEL 6
REMARK VINA RESULT:      -4.3      2.100      2.653
REMARK  7 active torsions:
REMARK  status: ('A' for Active; 'I' for Inactive)
REMARK    1  A    between atoms: C_2  and  C_3 
REMARK    2  A    between atoms: C_3  and  O_6 
REMARK    3  A    between atoms: C_3  and  C_4 
REMARK    4  A    between atoms: C_7  and  O_6 
REMARK    5  A    between atoms: C_9  and  C_10 
REMARK    6  A    between atoms: N_15  and  C_14 
REMARK    7  A    between atoms: N_20  and  C_19 
REMARK       I    between atoms: C_22  and  N_20 
ROOT
ATOM      1  C   LIG d   1      -2.796  77.276 115.026  0.00  0.00     0.161 C 
ATOM      2  C   LIG d   1      -2.997  77.393 113.641  0.00  0.00     0.016 C 
ATOM      3  C   LIG d   1      -2.117  78.092 112.783  0.00  0.00     0.038 C 
ATOM      4  C   LIG d   1      -0.889  78.598 113.233  0.00  0.00     0.028 C 
ATOM      5  C   LIG d   1      -0.883  78.942 114.719  0.00  0.00    -0.047 C 
ATOM      6  C   LIG d   1      -1.404  77.726 115.518  0.00  0.00     0.091 C 
ENDROOT
BRANCH   1   7
ATOM      7  O   LIG d   1      -3.063  75.923 115.446  0.00  0.00    -0.368 OA
BRANCH   7   8
ATOM      8  C   LIG d   1      -4.031  75.766 116.513  0.00  0.00     0.119 C 
BRANCH   8   9
ATOM      9  C   LIG d   1      -3.801  74.381 117.147  0.00  0.00     0.028 C 
ATOM     10  C   LIG d   1      -2.839  74.436 118.346  0.00  0.00     0.006 C 
ENDBRANCH   8   9
BRANCH   8  11
ATOM     11  C   LIG d   1      -5.461  75.730 115.967  0.00  0.00     0.028 C 
ATOM     12  C   LIG d   1      -5.612  74.802 114.752  0.00  0.00     0.006 C 
ENDBRANCH   8  11
ENDBRANCH   7   8
ENDBRANCH   1   7
BRANCH   6  13
ATOM     13  N   LIG d   1      -1.511  78.007 116.973  0.00  0.00    -0.311 N 
ATOM     14  C   LIG d   1      -0.787  77.376 117.897  0.00  0.00     0.210 C 
ATOM     15  C   LIG d   1      -1.067  77.804 119.341  0.00  0.00     0.109 C 
ATOM     16  O   LIG d   1       0.083  76.526 117.655  0.00  0.00    -0.276 OA
ATOM     17  H   LIG d   1      -2.170  78.705 117.256  0.00  0.00     0.149 HD
ENDBRANCH   6  13
BRANCH   5  18
ATOM     18  N   LIG d   1       0.494  79.326 115.082  0.00  0.00     0.381 N 
ATOM     19  H   LIG d   1       0.771  80.130 114.557  0.00  0.00    -0.090 HD
ATOM     20  H   LIG d   1       1.114  78.569 114.852  0.00  0.00    -0.090 HD
ATOM     21  H   LIG d   1       0.547  79.522 116.058  0.00  0.00    -0.090 HD
ENDBRANCH   5  18
BRANCH   3  22
ATOM     22  C   LIG d   1      -2.483  78.326 111.466  0.00  0.00     0.382 C 
ATOM     23  O   LIG d   1      -3.418  77.669 110.949  0.00  0.00    -0.241 OA
ATOM     24  O   LIG d   1      -1.861  79.156 110.776  0.00  0.00    -0.241 OA
ENDBRANCH   3  22
TORSDOF 7
ENDMDL
MODEL 7
REMARK VINA RESULT:      -4.2      2.554      3.737
REMARK  7 active torsions:
REMARK  status: ('A' for Active; 'I' for Inactive)
REMARK    1  A    between atoms: C_2  and  C_3 
REMARK    2  A    between atoms: C_3  and  O_6 
REMARK    3  A    between atoms: C_3  and  C_4 
REMARK    4  A    between atoms: C_7  and  O_6 
REMARK    5  A    between atoms: C_9  and  C_10 
REMARK    6  A    between atoms: N_15  and  C_14 
REMARK    7  A    between atoms: N_20  and  C_19 
REMARK       I    between atoms: C_22  and  N_20 
ROOT
ATOM      1  C   LIG d   1      -3.404  77.757 116.927  0.00  0.00     0.161 C 
ATOM      2  C   LIG d   1      -2.355  78.614 117.298  0.00  0.00     0.016 C 
ATOM      3  C   LIG d   1      -0.991  78.318 117.073  0.00  0.00     0.038 C 
ATOM      4  C   LIG d   1      -0.589  77.205 116.321  0.00  0.00     0.028 C 
ATOM      5  C   LIG d   1      -1.586  76.052 116.363  0.00  0.00    -0.047 C 
ATOM      6  C   LIG d   1      -2.990  76.590 116.006  0.00  0.00     0.091 C 
ENDROOT
BRANCH   1   7
ATOM      7  O   LIG d   1      -4.468  78.519 116.323  0.00  0.00    -0.368 OA
BRANCH   7   8
ATOM      8  C   LIG d   1      -5.748  78.475 117.001  0.00  0.00     0.119 C 
BRANCH   8   9
ATOM      9  C   LIG d   1      -6.134  79.924 117.355  0.00  0.00     0.028 C 
ATOM     10  C   LIG d   1      -5.787  80.285 118.810  0.00  0.00     0.006 C 
ENDBRANCH   8   9
BRANCH   8  11
ATOM     11  C   LIG d   1      -5.643  77.743 118.342  0.00  0.00     0.028 C 
ATOM     12  C   LIG d   1      -6.655  76.595 118.475  0.00  0.00     0.006 C 
ENDBRANCH   8  11
ENDBRANCH   7   8
ENDBRANCH   1   7
BRANCH   6  13
ATOM     13  N   LIG d   1      -4.041  75.543 116.106  0.00  0.00    -0.311 N 
ATOM     14  C   LIG d   1      -4.914  75.285 115.134  0.00  0.00     0.210 C 
ATOM     15  C   LIG d   1      -5.926  74.180 115.450  0.00  0.00     0.109 C 
ATOM     16  O   LIG d   1      -4.926  75.845 114.027  0.00  0.00    -0.276 OA
ATOM     17  H   LIG d   1      -4.083  75.020 116.958  0.00  0.00     0.149 HD
ENDBRANCH   6  13
BRANCH   5  18
ATOM     18  N   LIG d   1      -1.109  75.015 115.429  0.00  0.00     0.381 N 
ATOM     19  H   LIG d   1      -1.644  74.178 115.549  0.00  0.00    -0.090 HD
ATOM     20  H   LIG d   1      -0.148  74.807 115.637  0.00  0.00    -0.090 HD
ATOM     21  H   LIG d   1      -1.191  75.338 114.490  0.00  0.00    -0.090 HD
ENDBRANCH   5  18
BRANCH   3  22
ATOM     22  C   LIG d   1      -0.012  79.120 117.639  0.00  0.00     0.382 C 
ATOM     23  O   LIG d   1       0.676  78.689 118.596  0.00  0.00    -0.241 OA
ATOM     24  O   LIG d   1       0.163  80.285 117.233  0.00  0.00    -0.241 OA
ENDBRANCH   3  22
TORSDOF 7
ENDMDL
MODEL 8
REMARK VINA RESULT:      -4.1      2.677      5.182
REMARK  7 active torsions:
REMARK  status: ('A' for Active; 'I' for Inactive)
REMARK    1  A    between atoms: C_2  and  C_3 
REMARK    2  A    between atoms: C_3  and  O_6 
REMARK    3  A    between atoms: C_3  and  C_4 
REMARK    4  A    between atoms: C_7  and  O_6 
REMARK    5  A    between atoms: C_9  and  C_10 
REMARK    6  A    between atoms: N_15  and  C_14 
REMARK    7  A    between atoms: N_20  and  C_19 
REMARK       I    between atoms: C_22  and  N_20 
ROOT
ATOM      1  C   LIG d   1      -1.084  77.759 114.630  0.00  0.00     0.161 C 
ATOM      2  C   LIG d   1      -2.334  77.200 114.316  0.00  0.00     0.016 C 
ATOM      3  C   LIG d   1      -3.379  77.051 115.257  0.00  0.00     0.038 C 
ATOM      4  C   LIG d   1      -3.297  77.594 116.548  0.00  0.00     0.028 C 
ATOM      5  C   LIG d   1      -1.867  77.719 117.063  0.00  0.00    -0.047 C 
ATOM      6  C   LIG d   1      -1.015  78.458 116.004  0.00  0.00     0.091 C 
ENDROOT
BRANCH   1   7
ATOM      7  O   LIG d   1      -0.679  78.665 113.586  0.00  0.00    -0.368 OA
BRANCH   7   8
ATOM      8  C   LIG d   1      -1.703  79.037 112.631  0.00  0.00     0.119 C 
BRANCH   8   9
ATOM      9  C   LIG d   1      -1.318  78.416 111.274  0.00  0.00     0.028 C 
ATOM     10  C   LIG d   1      -2.547  77.986 110.456  0.00  0.00     0.006 C 
ENDBRANCH   8   9
BRANCH   8  11
ATOM     11  C   LIG d   1      -1.721  80.550 112.394  0.00  0.00     0.028 C 
ATOM     12  C   LIG d   1      -0.503  81.042 111.595  0.00  0.00     0.006 C 
ENDBRANCH   8  11
ENDBRANCH   7   8
ENDBRANCH   1   7
BRANCH   6  13
ATOM     13  N   LIG d   1       0.417  78.548 116.391  0.00  0.00    -0.311 N 
ATOM     14  C   LIG d   1       0.935  79.587 117.043  0.00  0.00     0.210 C 
ATOM     15  C   LIG d   1       2.437  79.488 117.327  0.00  0.00     0.109 C 
ATOM     16  O   LIG d   1       0.288  80.567 117.442  0.00  0.00    -0.276 OA
ATOM     17  H   LIG d   1       1.008  77.782 116.135  0.00  0.00     0.149 HD
ENDBRANCH   6  13
BRANCH   5  18
ATOM     18  N   LIG d   1      -1.919  78.425 118.357  0.00  0.00     0.381 N 
ATOM     19  H   LIG d   1      -2.110  79.395 118.207  0.00  0.00    -0.090 HD
ATOM     20  H   LIG d   1      -1.023  78.346 118.807  0.00  0.00    -0.090 HD
ATOM     21  H   LIG d   1      -2.625  78.025 118.935  0.00  0.00    -0.090 HD
ENDBRANCH   5  18
BRANCH   3  22
ATOM     22  C   LIG d   1      -4.507  76.318 114.922  0.00  0.00     0.382 C 
ATOM     23  O   LIG d   1      -5.649  76.769 115.183  0.00  0.00    -0.241 OA
ATOM     24  O   LIG d   1      -4.397  75.192 114.402  0.00  0.00    -0.241 OA
ENDBRANCH   3  22
TORSDOF 7
ENDMDL
MODEL 9
REMARK VINA RESULT:      -4.0      2.793      4.650
REMARK  7 active torsions:
REMARK  status: ('A' for Active; 'I' for Inactive)
REMARK    1  A    between atoms: C_2  and  C_3 
REMARK    2  A    between atoms: C_3  and  O_6 
REMARK    3  A    between atoms: C_3  and  C_4 
REMARK    4  A    between atoms: C_7  and  O_6 
REMARK    5  A    between atoms: C_9  and  C_10 
REMARK    6  A    between atoms: N_15  and  C_14 
REMARK    7  A    between atoms: N_20  and  C_19 
REMARK       I    between atoms: C_22  and  N_20 
ROOT
ATOM      1  C   LIG d   1      -0.999  78.450 114.168  0.00  0.00     0.161 C 
ATOM      2  C   LIG d   1      -0.257  79.344 113.379  0.00  0.00     0.016 C 
ATOM      3  C   LIG d   1      -0.638  79.730 112.073  0.00  0.00     0.038 C 
ATOM      4  C   LIG d   1      -1.875  79.362 111.523  0.00  0.00     0.028 C 
ATOM      5  C   LIG d   1      -2.423  78.054 112.084  0.00  0.00    -0.047 C 
ATOM      6  C   LIG d   1      -2.407  78.125 113.628  0.00  0.00     0.091 C 
ENDROOT
BRANCH   1   7
ATOM      7  O   LIG d   1      -1.083  78.944 115.520  0.00  0.00    -0.368 OA
BRANCH   7   8
ATOM      8  C   LIG d   1      -0.118  78.405 116.457  0.00  0.00     0.119 C 
BRANCH   8   9
ATOM      9  C   LIG d   1      -0.876  77.461 117.410  0.00  0.00     0.028 C 
ATOM     10  C   LIG d   1      -0.628  75.978 117.087  0.00  0.00     0.006 C 
ENDBRANCH   8   9
BRANCH   8  11
ATOM     11  C   LIG d   1       0.464  79.504 117.351  0.00  0.00     0.028 C 
ATOM     12  C   LIG d   1       1.631  80.255 116.691  0.00  0.00     0.006 C 
ENDBRANCH   8  11
ENDBRANCH   7   8
ENDBRANCH   1   7
BRANCH   6  13
ATOM     13  N   LIG d   1      -2.848  76.853 114.258  0.00  0.00    -0.311 N 
ATOM     14  C   LIG d   1      -3.803  76.787 115.184  0.00  0.00     0.210 C 
ATOM     15  C   LIG d   1      -4.090  75.380 115.717  0.00  0.00     0.109 C 
ATOM     16  O   LIG d   1      -4.462  77.755 115.591  0.00  0.00    -0.276 OA
ATOM     17  H   LIG d   1      -2.388  76.014 113.963  0.00  0.00     0.149 HD
ENDBRANCH   6  13
BRANCH   5  18
ATOM     18  N   LIG d   1      -3.775  77.862 111.527  0.00  0.00     0.381 N 
ATOM     19  H   LIG d   1      -4.165  78.747 111.271  0.00  0.00    -0.090 HD
ATOM     20  H   LIG d   1      -4.361  77.452 112.232  0.00  0.00    -0.090 HD
ATOM     21  H   LIG d   1      -3.734  77.266 110.730  0.00  0.00    -0.090 HD
ENDBRANCH   5  18
BRANCH   3  22
ATOM     22  C   LIG d   1       0.241  80.461 111.288  0.00  0.00     0.382 C 
ATOM     23  O   LIG d   1       1.472  80.422 111.524  0.00  0.00    -0.241 OA
ATOM     24  O   LIG d   1      -0.186  81.193 110.376  0.00  0.00    -0.241 OA
ENDBRANCH   3  22
TORSDOF 7
ENDMDL
