MODEL 1
REMARK VINA RESULT:      -5.0      0.000      0.000
REMARK  7 active torsions:
REMARK  status: ('A' for Active; 'I' for Inactive)
REMARK    1  A    between atoms: C_2  and  C_3 
REMARK    2  A    between atoms: C_3  and  O_6 
REMARK    3  A    between atoms: C_3  and  C_4 
REMARK    4  A    between atoms: C_7  and  O_6 
REMARK    5  A    between atoms: C_9  and  C_10 
REMARK    6  A    between atoms: N_15  and  C_14 
REMARK    7  A    between atoms: N_20  and  C_19 
REMARK       I    between atoms: C_22  and  N_20 
ROOT
ATOM      1  C   LIG d   1      -2.453  78.326 114.948  0.00  0.00     0.161 C 
ATOM      2  C   LIG d   1      -2.803  79.550 114.353  0.00  0.00     0.016 C 
ATOM      3  C   LIG d   1      -2.543  79.859 112.998  0.00  0.00     0.038 C 
ATOM      4  C   LIG d   1      -2.048  78.900 112.101  0.00  0.00     0.028 C 
ATOM      5  C   LIG d   1      -1.213  77.815 112.773  0.00  0.00    -0.047 C 
ATOM      6  C   LIG d   1      -2.014  77.228 113.957  0.00  0.00     0.091 C 
ENDROOT
BRANCH   1   7
ATOM      7  O   LIG d   1      -3.540  77.855 115.769  0.00  0.00    -0.368 OA
BRANCH   7   8
ATOM      8  C   LIG d   1      -3.344  77.951 117.202  0.00  0.00     0.119 C 
BRANCH   8   9
ATOM      9  C   LIG d   1      -3.758  76.600 117.817  0.00  0.00     0.028 C 
ATOM     10  C   LIG d   1      -2.662  76.004 118.716  0.00  0.00     0.006 C 
ENDBRANCH   8   9
BRANCH   8  11
ATOM     11  C   LIG d   1      -4.285  78.986 117.825  0.00  0.00     0.028 C 
ATOM     12  C   LIG d   1      -3.815  79.463 119.208  0.00  0.00     0.006 C 
ENDBRANCH   8  11
ENDBRANCH   7   8
ENDBRANCH   1   7
BRANCH   6  13
ATOM     13  N   LIG d   1      -1.236  76.218 114.721  0.00  0.00    -0.311 N 
ATOM     14  C   LIG d   1      -1.753  75.070 115.156  0.00  0.00     0.210 C 
ATOM     15  C   LIG d   1      -0.784  74.180 115.941  0.00  0.00     0.109 C 
ATOM     16  O   LIG d   1      -2.913  74.689 114.938  0.00  0.00    -0.276 OA
ATOM     17  H   LIG d   1      -0.278  76.432 114.916  0.00  0.00     0.149 HD
ENDBRANCH   6  13
BRANCH   5  18
ATOM     18  N   LIG d   1      -0.879  76.811 111.746  0.00  0.00     0.381 N 
ATOM     19  H   LIG d   1      -0.890  77.235 110.840  0.00  0.00    -0.090 HD
ATOM     20  H   LIG d   1      -1.573  76.085 111.763  0.00  0.00    -0.090 HD
ATOM     21  H   LIG d   1       0.021  76.424 111.928  0.00  0.00    -0.090 HD
ENDBRANCH   5  18
BRANCH   3  22
ATOM     22  C   LIG d   1      -2.741  81.152 112.537  0.00  0.00     0.382 C 
ATOM     23  O   LIG d   1      -1.773  81.813 112.090  0.00  0.00    -0.241 OA
ATOM     24  O   LIG d   1      -3.867  81.680 112.605  0.00  0.00    -0.241 OA
ENDBRANCH   3  22
TORSDOF 7
ENDMDL
MODEL 2
REMARK VINA RESULT:      -4.9      2.769      5.658
REMARK  7 active torsions:
REMARK  status: ('A' for Active; 'I' for Inactive)
REMARK    1  A    between atoms: C_2  and  C_3 
REMARK    2  A    between atoms: C_3  and  O_6 
REMARK    3  A    between atoms: C_3  and  C_4 
REMARK    4  A    between atoms: C_7  and  O_6 
REMARK    5  A    between atoms: C_9  and  C_10 
REMARK    6  A    between atoms: N_15  and  C_14 
REMARK    7  A    between atoms: N_20  and  C_19 
REMARK       I    between atoms: C_22  and  N_20 
ROOT
ATOM      1  C   LIG d   1      -1.222  75.122 115.412  0.00  0.00     0.161 C 
ATOM      2  C   LIG d   1      -0.835  74.654 116.679  0.00  0.00     0.016 C 
ATOM      3  C   LIG d   1      -0.262  75.481 117.672  0.00  0.00     0.038 C 
ATOM      4  C   LIG d   1      -0.176  76.872 117.520  0.00  0.00     0.028 C 
ATOM      5  C   LIG d   1      -0.089  77.318 116.064  0.00  0.00    -0.047 C 
ATOM      6  C   LIG d   1      -1.238  76.658 115.268  0.00  0.00     0.091 C 
ENDROOT
BRANCH   1   7
ATOM      7  O   LIG d   1      -2.507  74.572 115.060  0.00  0.00    -0.368 OA
BRANCH   7   8
ATOM      8  C   LIG d   1      -3.663  75.354 115.446  0.00  0.00     0.119 C 
BRANCH   8   9
ATOM      9  C   LIG d   1      -4.145  74.825 116.811  0.00  0.00     0.028 C 
ATOM     10  C   LIG d   1      -4.093  75.900 117.909  0.00  0.00     0.006 C 
ENDBRANCH   8   9
BRANCH   8  11
ATOM     11  C   LIG d   1      -4.835  75.128 114.487  0.00  0.00     0.028 C 
ATOM     12  C   LIG d   1      -5.934  74.238 115.089  0.00  0.00     0.006 C 
ENDBRANCH   8  11
ENDBRANCH   7   8
ENDBRANCH   1   7
BRANCH   6  13
ATOM     13  N   LIG d   1      -1.178  76.974 113.817  0.00  0.00    -0.311 N 
ATOM     14  C   LIG d   1      -2.055  77.765 113.201  0.00  0.00     0.210 C 
ATOM     15  C   LIG d   1      -1.822  77.943 111.698  0.00  0.00     0.109 C 
ATOM     16  O   LIG d   1      -2.986  78.361 113.764  0.00  0.00    -0.276 OA
ATOM     17  H   LIG d   1      -0.435  76.558 113.290  0.00  0.00     0.149 HD
ENDBRANCH   6  13
BRANCH   5  18
ATOM     18  N   LIG d   1      -0.144  78.792 116.045  0.00  0.00     0.381 N 
ATOM     19  H   LIG d   1      -0.677  79.121 116.825  0.00  0.00    -0.090 HD
ATOM     20  H   LIG d   1      -0.603  79.089 115.201  0.00  0.00    -0.090 HD
ATOM     21  H   LIG d   1       0.778  79.168 116.081  0.00  0.00    -0.090 HD
ENDBRANCH   5  18
BRANCH   3  22
ATOM     22  C   LIG d   1       0.269  74.910 118.819  0.00  0.00     0.382 C 
ATOM     23  O   LIG d   1       1.477  75.090 119.107  0.00  0.00    -0.241 OA
ATOM     24  O   LIG d   1      -0.433  74.181 119.545  0.00  0.00    -0.241 OA
ENDBRANCH   3  22
TORSDOF 7
ENDMDL
MODEL 3
REMARK VINA RESULT:      -4.7      2.279      3.133
REMARK  7 active torsions:
REMARK  status: ('A' for Active; 'I' for Inactive)
REMARK    1  A    between atoms: C_2  and  C_3 
REMARK    2  A    between atoms: C_3  and  O_6 
REMARK    3  A    between atoms: C_3  and  C_4 
REMARK    4  A    between atoms: C_7  and  O_6 
REMARK    5  A    between atoms: C_9  and  C_10 
REMARK    6  A    between atoms: N_15  and  C_14 
REMARK    7  A    between atoms: N_20  and  C_19 
REMARK       I    between atoms: C_22  and  N_20 
ROOT
ATOM      1  C   LIG d   1      -2.808  77.068 115.230  0.00  0.00     0.161 C 
ATOM      2  C   LIG d   1      -2.984  77.939 114.141  0.00  0.00     0.016 C 
ATOM      3  C   LIG d   1      -2.097  78.998 113.840  0.00  0.00     0.038 C 
ATOM      4  C   LIG d   1      -0.883  79.165 114.524  0.00  0.00     0.028 C 
ATOM      5  C   LIG d   1      -0.910  78.621 115.948  0.00  0.00    -0.047 C 
ATOM      6  C   LIG d   1      -1.432  77.166 115.920  0.00  0.00     0.091 C 
ENDROOT
BRANCH   1   7
ATOM      7  O   LIG d   1      -3.067  75.712 114.817  0.00  0.00    -0.368 OA
BRANCH   7   8
ATOM      8  C   LIG d   1      -4.192  75.056 115.452  0.00  0.00     0.119 C 
BRANCH   8   9
ATOM      9  C   LIG d   1      -5.116  74.536 114.334  0.00  0.00     0.028 C 
ATOM     10  C   LIG d   1      -6.173  75.572 113.916  0.00  0.00     0.006 C 
ENDBRANCH   8   9
BRANCH   8  11
ATOM     11  C   LIG d   1      -5.040  76.051 116.249  0.00  0.00     0.028 C 
ATOM     12  C   LIG d   1      -5.021  75.774 117.761  0.00  0.00     0.006 C 
ENDBRANCH   8  11
ENDBRANCH   7   8
ENDBRANCH   1   7
BRANCH   6  13
ATOM     13  N   LIG d   1      -1.570  76.587 117.282  0.00  0.00    -0.311 N 
ATOM     14  C   LIG d   1      -1.135  75.371 117.609  0.00  0.00     0.210 C 
ATOM     15  C   LIG d   1      -1.395  74.961 119.062  0.00  0.00     0.109 C 
ATOM     16  O   LIG d   1      -0.530  74.607 116.843  0.00  0.00    -0.276 OA
ATOM     17  H   LIG d   1      -2.021  77.152 117.975  0.00  0.00     0.149 HD
ENDBRANCH   6  13
BRANCH   5  18
ATOM     18  N   LIG d   1       0.455  78.736 116.495  0.00  0.00     0.381 N 
ATOM     19  H   LIG d   1       1.043  79.212 115.841  0.00  0.00    -0.090 HD
ATOM     20  H   LIG d   1       0.826  77.813 116.640  0.00  0.00    -0.090 HD
ATOM     21  H   LIG d   1       0.436  79.232 117.359  0.00  0.00    -0.090 HD
ENDBRANCH   5  18
BRANCH   3  22
ATOM     22  C   LIG d   1      -2.440  79.927 112.871  0.00  0.00     0.382 C 
ATOM     23  O   LIG d   1      -1.662  80.150 111.912  0.00  0.00    -0.241 OA
ATOM     24  O   LIG d   1      -3.497  80.579 112.966  0.00  0.00    -0.241 OA
ENDBRANCH   3  22
TORSDOF 7
ENDMDL
MODEL 4
REMARK VINA RESULT:      -4.5      2.755      5.354
REMARK  7 active torsions:
REMARK  status: ('A' for Active; 'I' for Inactive)
REMARK    1  A    between atoms: C_2  and  C_3 
REMARK    2  A    between atoms: C_3  and  O_6 
REMARK    3  A    between atoms: C_3  and  C_4 
REMARK    4  A    between atoms: C_7  and  O_6 
REMARK    5  A    between atoms: C_9  and  C_10 
REMARK    6  A    between atoms: N_15  and  C_14 
REMARK    7  A    between atoms: N_20  and  C_19 
REMARK       I    between atoms: C_22  and  N_20 
ROOT
ATOM      1  C   LIG d   1      -2.578  78.094 115.625  0.00  0.00     0.161 C 
ATOM      2  C   LIG d   1      -1.297  78.437 116.089  0.00  0.00     0.016 C 
ATOM      3  C   LIG d   1      -0.412  77.512 116.687  0.00  0.00     0.038 C 
ATOM      4  C   LIG d   1      -0.691  76.137 116.725  0.00  0.00     0.028 C 
ATOM      5  C   LIG d   1      -2.182  75.822 116.726  0.00  0.00    -0.047 C 
ATOM      6  C   LIG d   1      -2.856  76.577 115.558  0.00  0.00     0.091 C 
ENDROOT
BRANCH   1   7
ATOM      7  O   LIG d   1      -2.813  78.704 114.341  0.00  0.00    -0.368 OA
BRANCH   7   8
ATOM      8  C   LIG d   1      -1.701  78.684 113.413  0.00  0.00     0.119 C 
BRANCH   8   9
ATOM      9  C   LIG d   1      -1.634  80.069 112.740  0.00  0.00     0.028 C 
ATOM     10  C   LIG d   1      -2.951  80.852 112.877  0.00  0.00     0.006 C 
ENDBRANCH   8   9
BRANCH   8  11
ATOM     11  C   LIG d   1      -1.944  77.691 112.272  0.00  0.00     0.028 C 
ATOM     12  C   LIG d   1      -1.263  78.111 110.960  0.00  0.00     0.006 C 
ENDBRANCH   8  11
ENDBRANCH   7   8
ENDBRANCH   1   7
BRANCH   6  13
ATOM     13  N   LIG d   1      -4.330  76.391 115.537  0.00  0.00    -0.311 N 
ATOM     14  C   LIG d   1      -4.941  75.464 114.801  0.00  0.00     0.210 C 
ATOM     15  C   LIG d   1      -6.469  75.455 114.910  0.00  0.00     0.109 C 
ATOM     16  O   LIG d   1      -4.361  74.627 114.092  0.00  0.00    -0.276 OA
ATOM     17  H   LIG d   1      -4.876  77.007 116.107  0.00  0.00     0.149 HD
ENDBRANCH   6  13
BRANCH   5  18
ATOM     18  N   LIG d   1      -2.328  74.357 116.628  0.00  0.00     0.381 N 
ATOM     19  H   LIG d   1      -1.466  73.950 116.325  0.00  0.00    -0.090 HD
ATOM     20  H   LIG d   1      -3.034  74.146 115.945  0.00  0.00    -0.090 HD
ATOM     21  H   LIG d   1      -2.589  73.981 117.513  0.00  0.00    -0.090 HD
ENDBRANCH   5  18
BRANCH   3  22
ATOM     22  C   LIG d   1       0.751  77.965 117.291  0.00  0.00     0.382 C 
ATOM     23  O   LIG d   1       1.743  77.203 117.392  0.00  0.00    -0.241 OA
ATOM     24  O   LIG d   1       0.806  79.111 117.776  0.00  0.00    -0.241 OA
ENDBRANCH   3  22
TORSDOF 7
ENDMDL
MODEL 5
REMARK VINA RESULT:      -4.4      1.942      2.831
REMARK  7 active torsions:
REMARK  status: ('A' for Active; 'I' for Inactive)
REMARK    1  A    between atoms: C_2  and  C_3 
REMARK    2  A    between atoms: C_3  and  O_6 
REMARK    3  A    between atoms: C_3  and  C_4 
REMARK    4  A    between atoms: C_7  and  O_6 
REMARK    5  A    between atoms: C_9  and  C_10 
REMARK    6  A    between atoms: N_15  and  C_14 
REMARK    7  A    between atoms: N_20  and  C_19 
REMARK       I    between atoms: C_22  and  N_20 
ROOT
ATOM      1  C   LIG d   1      -1.779  78.068 116.606  0.00  0.00     0.161 C 
ATOM      2  C   LIG d   1      -2.337  78.772 115.526  0.00  0.00     0.016 C 
ATOM      3  C   LIG d   1      -2.123  78.420 114.173  0.00  0.00     0.038 C 
ATOM      4  C   LIG d   1      -1.455  77.241 113.811  0.00  0.00     0.028 C 
ATOM      5  C   LIG d   1      -0.446  76.771 114.853  0.00  0.00    -0.047 C 
ATOM      6  C   LIG d   1      -1.140  76.714 116.233  0.00  0.00     0.091 C 
ENDROOT
BRANCH   1   7
ATOM      7  O   LIG d   1      -2.771  77.887 117.636  0.00  0.00    -0.368 OA
BRANCH   7   8
ATOM      8  C   LIG d   1      -4.123  78.282 117.295  0.00  0.00     0.119 C 
BRANCH   8   9
ATOM      9  C   LIG d   1      -4.614  79.246 118.392  0.00  0.00     0.028 C 
ATOM     10  C   LIG d   1      -5.975  79.877 118.053  0.00  0.00     0.006 C 
ENDBRANCH   8   9
BRANCH   8  11
ATOM     11  C   LIG d   1      -5.082  77.089 117.344  0.00  0.00     0.028 C 
ATOM     12  C   LIG d   1      -4.377  75.774 117.715  0.00  0.00     0.006 C 
ENDBRANCH   8  11
ENDBRANCH   7   8
ENDBRANCH   1   7
BRANCH   6  13
ATOM     13  N   LIG d   1      -0.201  76.344 117.325  0.00  0.00    -0.311 N 
ATOM     14  C   LIG d   1      -0.246  75.179 117.967  0.00  0.00     0.210 C 
ATOM     15  C   LIG d   1       0.801  75.009 119.073  0.00  0.00     0.109 C 
ATOM     16  O   LIG d   1      -1.033  74.256 117.705  0.00  0.00    -0.276 OA
ATOM     17  H   LIG d   1       0.490  77.022 117.581  0.00  0.00     0.149 HD
ENDBRANCH   6  13
BRANCH   5  18
ATOM     18  N   LIG d   1       0.074  75.463 114.413  0.00  0.00     0.381 N 
ATOM     19  H   LIG d   1       0.623  75.054 115.142  0.00  0.00    -0.090 HD
ATOM     20  H   LIG d   1       0.666  75.602 113.612  0.00  0.00    -0.090 HD
ATOM     21  H   LIG d   1      -0.681  74.858 114.175  0.00  0.00    -0.090 HD
ENDBRANCH   5  18
BRANCH   3  22
ATOM     22  C   LIG d   1      -2.546  79.274 113.166  0.00  0.00     0.382 C 
ATOM     23  O   LIG d   1      -3.365  80.189 113.422  0.00  0.00    -0.241 OA
ATOM     24  O   LIG d   1      -2.152  79.113 111.995  0.00  0.00    -0.241 OA
ENDBRANCH   3  22
TORSDOF 7
ENDMDL
MODEL 6
REMARK VINA RESULT:      -4.3      2.726      5.357
REMARK  7 active torsions:
REMARK  status: ('A' for Active; 'I' for Inactive)
REMARK    1  A    between atoms: C_2  and  C_3 
REMARK    2  A    between atoms: C_3  and  O_6 
REMARK    3  A    between atoms: C_3  and  C_4 
REMARK    4  A    between atoms: C_7  and  O_6 
REMARK    5  A    between atoms: C_9  and  C_10 
REMARK    6  A    between atoms: N_15  and  C_14 
REMARK    7  A    between atoms: N_20  and  C_19 
REMARK       I    between atoms: C_22  and  N_20 
ROOT
ATOM      1  C   LIG d   1      -1.718  76.708 114.739  0.00  0.00     0.161 C 
ATOM      2  C   LIG d   1      -2.967  76.368 114.195  0.00  0.00     0.016 C 
ATOM      3  C   LIG d   1      -4.056  75.909 114.973  0.00  0.00     0.038 C 
ATOM      4  C   LIG d   1      -4.015  75.903 116.375  0.00  0.00     0.028 C 
ATOM      5  C   LIG d   1      -2.605  75.759 116.939  0.00  0.00    -0.047 C 
ATOM      6  C   LIG d   1      -1.689  76.814 116.278  0.00  0.00     0.091 C 
ENDROOT
BRANCH   1   7
ATOM      7  O   LIG d   1      -1.243  77.932 114.144  0.00  0.00    -0.368 OA
BRANCH   7   8
ATOM      8  C   LIG d   1      -2.149  78.587 113.222  0.00  0.00     0.119 C 
BRANCH   8   9
ATOM      9  C   LIG d   1      -1.338  78.968 111.968  0.00  0.00     0.028 C 
ATOM     10  C   LIG d   1      -1.385  77.876 110.885  0.00  0.00     0.006 C 
ENDBRANCH   8   9
BRANCH   8  11
ATOM     11  C   LIG d   1      -2.662  79.912 113.792  0.00  0.00     0.028 C 
ATOM     12  C   LIG d   1      -2.835  80.996 112.716  0.00  0.00     0.006 C 
ENDBRANCH   8  11
ENDBRANCH   7   8
ENDBRANCH   1   7
BRANCH   6  13
ATOM     13  N   LIG d   1      -0.274  76.687 116.712  0.00  0.00    -0.311 N 
ATOM     14  C   LIG d   1       0.400  77.667 117.312  0.00  0.00     0.210 C 
ATOM     15  C   LIG d   1       1.855  77.334 117.658  0.00  0.00     0.109 C 
ATOM     16  O   LIG d   1      -0.078  78.769 117.619  0.00  0.00    -0.276 OA
ATOM     17  H   LIG d   1       0.183  75.815 116.529  0.00  0.00     0.149 HD
ENDBRANCH   6  13
BRANCH   5  18
ATOM     18  N   LIG d   1      -2.694  75.906 118.404  0.00  0.00     0.381 N 
ATOM     19  H   LIG d   1      -3.531  75.471 118.738  0.00  0.00    -0.090 HD
ATOM     20  H   LIG d   1      -2.735  76.884 118.630  0.00  0.00    -0.090 HD
ATOM     21  H   LIG d   1      -1.899  75.490 118.837  0.00  0.00    -0.090 HD
ENDBRANCH   5  18
BRANCH   3  22
ATOM     22  C   LIG d   1      -5.187  75.412 114.345  0.00  0.00     0.382 C 
ATOM     23  O   LIG d   1      -5.710  76.048 113.398  0.00  0.00    -0.241 OA
ATOM     24  O   LIG d   1      -5.719  74.358 114.742  0.00  0.00    -0.241 OA
ENDBRANCH   3  22
TORSDOF 7
ENDMDL
MODEL 7
REMARK VINA RESULT:      -4.3      2.390      3.349
REMARK  7 active torsions:
REMARK  status: ('A' for Active; 'I' for Inactive)
REMARK    1  A    between atoms: C_2  and  C_3 
REMARK    2  A    between atoms: C_3  and  O_6 
REMARK    3  A    between atoms: C_3  and  C_4 
REMARK    4  A    between atoms: C_7  and  O_6 
REMARK    5  A    between atoms: C_9  and  C_10 
REMARK    6  A    between atoms: N_15  and  C_14 
REMARK    7  A    between atoms: N_20  and  C_19 
REMARK       I    between atoms: C_22  and  N_20 
ROOT
ATOM      1  C   LIG d   1      -2.393  76.953 116.610  0.00  0.00     0.161 C 
ATOM      2  C   LIG d   1      -2.773  77.961 115.708  0.00  0.00     0.016 C 
ATOM      3  C   LIG d   1      -2.197  78.115 114.426  0.00  0.00     0.038 C 
ATOM      4  C   LIG d   1      -1.302  77.173 113.897  0.00  0.00     0.028 C 
ATOM      5  C   LIG d   1      -0.512  76.422 114.963  0.00  0.00    -0.047 C 
ATOM      6  C   LIG d   1      -1.498  75.850 116.007  0.00  0.00     0.091 C 
ENDROOT
BRANCH   1   7
ATOM      7  O   LIG d   1      -3.565  76.372 117.216  0.00  0.00    -0.368 OA
BRANCH   7   8
ATOM      8  C   LIG d   1      -4.771  76.386 116.412  0.00  0.00     0.119 C 
BRANCH   8   9
ATOM      9  C   LIG d   1      -5.945  76.735 117.347  0.00  0.00     0.028 C 
ATOM     10  C   LIG d   1      -6.980  75.601 117.438  0.00  0.00     0.006 C 
ENDBRANCH   8   9
BRANCH   8  11
ATOM     11  C   LIG d   1      -5.090  74.992 115.863  0.00  0.00     0.028 C 
ATOM     12  C   LIG d   1      -5.084  74.942 114.327  0.00  0.00     0.006 C 
ENDBRANCH   8  11
ENDBRANCH   7   8
ENDBRANCH   1   7
BRANCH   6  13
ATOM     13  N   LIG d   1      -0.802  75.172 117.132  0.00  0.00    -0.311 N 
ATOM     14  C   LIG d   1       0.077  75.782 117.925  0.00  0.00     0.210 C 
ATOM     15  C   LIG d   1       0.694  74.895 119.011  0.00  0.00     0.109 C 
ATOM     16  O   LIG d   1       0.380  76.983 117.853  0.00  0.00    -0.276 OA
ATOM     17  H   LIG d   1      -1.012  74.204 117.282  0.00  0.00     0.149 HD
ENDBRANCH   6  13
BRANCH   5  18
ATOM     18  N   LIG d   1       0.278  75.380 114.282  0.00  0.00     0.381 N 
ATOM     19  H   LIG d   1       0.034  75.350 113.312  0.00  0.00    -0.090 HD
ATOM     20  H   LIG d   1       0.060  74.488 114.689  0.00  0.00    -0.090 HD
ATOM     21  H   LIG d   1       1.251  75.570 114.381  0.00  0.00    -0.090 HD
ENDBRANCH   5  18
BRANCH   3  22
ATOM     22  C   LIG d   1      -2.486  79.244 113.674  0.00  0.00     0.382 C 
ATOM     23  O   LIG d   1      -3.563  79.313 113.034  0.00  0.00    -0.241 OA
ATOM     24  O   LIG d   1      -1.663  80.176 113.592  0.00  0.00    -0.241 OA
ENDBRANCH   3  22
TORSDOF 7
ENDMDL
MODEL 8
REMARK VINA RESULT:      -4.2      2.637      4.918
REMARK  7 active torsions:
REMARK  status: ('A' for Active; 'I' for Inactive)
REMARK    1  A    between atoms: C_2  and  C_3 
REMARK    2  A    between atoms: C_3  and  O_6 
REMARK    3  A    between atoms: C_3  and  C_4 
REMARK    4  A    between atoms: C_7  and  O_6 
REMARK    5  A    between atoms: C_9  and  C_10 
REMARK    6  A    between atoms: N_15  and  C_14 
REMARK    7  A    between atoms: N_20  and  C_19 
REMARK       I    between atoms: C_22  and  N_20 
ROOT
ATOM      1  C   LIG d   1      -1.427  79.433 114.596  0.00  0.00     0.161 C 
ATOM      2  C   LIG d   1      -2.191  78.305 114.937  0.00  0.00     0.016 C 
ATOM      3  C   LIG d   1      -2.643  77.356 113.992  0.00  0.00     0.038 C 
ATOM      4  C   LIG d   1      -2.231  77.391 112.651  0.00  0.00     0.028 C 
ATOM      5  C   LIG d   1      -1.875  78.791 112.163  0.00  0.00    -0.047 C 
ATOM      6  C   LIG d   1      -0.875  79.428 113.155  0.00  0.00     0.091 C 
ENDROOT
BRANCH   1   7
ATOM      7  O   LIG d   1      -0.354  79.602 115.543  0.00  0.00    -0.368 OA
BRANCH   7   8
ATOM      8  C   LIG d   1      -0.506  78.911 116.808  0.00  0.00     0.119 C 
BRANCH   8   9
ATOM      9  C   LIG d   1      -0.253  79.937 117.929  0.00  0.00     0.028 C 
ATOM     10  C   LIG d   1      -1.351  79.913 119.005  0.00  0.00     0.006 C 
ENDBRANCH   8   9
BRANCH   8  11
ATOM     11  C   LIG d   1       0.571  77.837 116.989  0.00  0.00     0.028 C 
ATOM     12  C   LIG d   1      -0.014  76.455 117.319  0.00  0.00     0.006 C 
ENDBRANCH   8  11
ENDBRANCH   7   8
ENDBRANCH   1   7
BRANCH   6  13
ATOM     13  N   LIG d   1      -0.538  80.831 112.798  0.00  0.00    -0.311 N 
ATOM     14  C   LIG d   1       0.414  81.156 111.925  0.00  0.00     0.210 C 
ATOM     15  C   LIG d   1       0.613  82.661 111.716  0.00  0.00     0.109 C 
ATOM     16  O   LIG d   1       1.091  80.341 111.279  0.00  0.00    -0.276 OA
ATOM     17  H   LIG d   1      -1.059  81.555 113.251  0.00  0.00     0.149 HD
ENDBRANCH   6  13
BRANCH   5  18
ATOM     18  N   LIG d   1      -1.332  78.662 110.798  0.00  0.00     0.381 N 
ATOM     19  H   LIG d   1      -0.821  77.806 110.716  0.00  0.00    -0.090 HD
ATOM     20  H   LIG d   1      -0.700  79.424 110.626  0.00  0.00    -0.090 HD
ATOM     21  H   LIG d   1      -2.074  78.680 110.133  0.00  0.00    -0.090 HD
ENDBRANCH   5  18
BRANCH   3  22
ATOM     22  C   LIG d   1      -3.550  76.380 114.377  0.00  0.00     0.382 C 
ATOM     23  O   LIG d   1      -3.323  75.678 115.392  0.00  0.00    -0.241 OA
ATOM     24  O   LIG d   1      -4.571  76.163 113.697  0.00  0.00    -0.241 OA
ENDBRANCH   3  22
TORSDOF 7
ENDMDL
MODEL 9
REMARK VINA RESULT:      -4.2      3.151      5.372
REMARK  7 active torsions:
REMARK  status: ('A' for Active; 'I' for Inactive)
REMARK    1  A    between atoms: C_2  and  C_3 
REMARK    2  A    between atoms: C_3  and  O_6 
REMARK    3  A    between atoms: C_3  and  C_4 
REMARK    4  A    between atoms: C_7  and  O_6 
REMARK    5  A    between atoms: C_9  and  C_10 
REMARK    6  A    between atoms: N_15  and  C_14 
REMARK    7  A    between atoms: N_20  and  C_19 
REMARK       I    between atoms: C_22  and  N_20 
ROOT
ATOM      1  C   LIG d   1      -1.063  75.733 115.682  0.00  0.00     0.161 C 
ATOM      2  C   LIG d   1      -2.309  75.609 115.046  0.00  0.00     0.016 C 
ATOM      3  C   LIG d   1      -3.491  75.222 115.718  0.00  0.00     0.038 C 
ATOM      4  C   LIG d   1      -3.538  75.079 117.113  0.00  0.00     0.028 C 
ATOM      5  C   LIG d   1      -2.194  74.703 117.729  0.00  0.00    -0.047 C 
ATOM      6  C   LIG d   1      -1.117  75.689 117.224  0.00  0.00     0.091 C 
ENDROOT
BRANCH   1   7
ATOM      7  O   LIG d   1      -0.406  76.936 115.238  0.00  0.00    -0.368 OA
BRANCH   7   8
ATOM      8  C   LIG d   1      -1.092  78.180 115.522  0.00  0.00     0.119 C 
BRANCH   8   9
ATOM      9  C   LIG d   1      -1.114  79.005 114.221  0.00  0.00     0.028 C 
ATOM     10  C   LIG d   1      -2.533  79.453 113.833  0.00  0.00     0.006 C 
ENDBRANCH   8   9
BRANCH   8  11
ATOM     11  C   LIG d   1      -0.312  79.031 116.528  0.00  0.00     0.028 C 
ATOM     12  C   LIG d   1      -1.119  79.342 117.799  0.00  0.00     0.006 C 
ENDBRANCH   8  11
ENDBRANCH   7   8
ENDBRANCH   1   7
BRANCH   6  13
ATOM     13  N   LIG d   1       0.243  75.342 117.712  0.00  0.00    -0.311 N 
ATOM     14  C   LIG d   1       0.776  75.851 118.821  0.00  0.00     0.210 C 
ATOM     15  C   LIG d   1       2.199  75.375 119.132  0.00  0.00     0.109 C 
ATOM     16  O   LIG d   1       0.194  76.627 119.594  0.00  0.00    -0.276 OA
ATOM     17  H   LIG d   1       0.774  74.695 117.162  0.00  0.00     0.149 HD
ENDBRANCH   6  13
BRANCH   5  18
ATOM     18  N   LIG d   1      -2.355  74.722 119.195  0.00  0.00     0.381 N 
ATOM     19  H   LIG d   1      -3.271  75.048 119.431  0.00  0.00    -0.090 HD
ATOM     20  H   LIG d   1      -1.683  75.358 119.587  0.00  0.00    -0.090 HD
ATOM     21  H   LIG d   1      -2.214  73.808 119.565  0.00  0.00    -0.090 HD
ENDBRANCH   5  18
BRANCH   3  22
ATOM     22  C   LIG d   1      -4.635  74.935 114.988  0.00  0.00     0.382 C 
ATOM     23  O   LIG d   1      -5.513  74.180 115.470  0.00  0.00    -0.241 OA
ATOM     24  O   LIG d   1      -4.778  75.386 113.836  0.00  0.00    -0.241 OA
ENDBRANCH   3  22
TORSDOF 7
ENDMDL
