MODEL 1
REMARK VINA RESULT:      -4.9      0.000      0.000
REMARK  7 active torsions:
REMARK  status: ('A' for Active; 'I' for Inactive)
REMARK    1  A    between atoms: C_2  and  C_3 
REMARK    2  A    between atoms: C_3  and  O_6 
REMARK    3  A    between atoms: C_3  and  C_4 
REMARK    4  A    between atoms: C_7  and  O_6 
REMARK    5  A    between atoms: C_9  and  C_10 
REMARK    6  A    between atoms: N_15  and  C_14 
REMARK    7  A    between atoms: N_20  and  C_19 
REMARK       I    between atoms: C_22  and  N_20 
ROOT
ATOM      1  C   LIG d   1       0.370  81.769 113.093  0.00  0.00     0.161 C 
ATOM      2  C   LIG d   1       1.272  82.797 112.771  0.00  0.00     0.016 C 
ATOM      3  C   LIG d   1       1.729  83.048 111.456  0.00  0.00     0.038 C 
ATOM      4  C   LIG d   1       1.195  82.378 110.345  0.00  0.00     0.028 C 
ATOM      5  C   LIG d   1       0.656  80.991 110.676  0.00  0.00    -0.047 C 
ATOM      6  C   LIG d   1      -0.308  81.100 111.879  0.00  0.00     0.091 C 
ENDROOT
BRANCH   1   7
ATOM      7  O   LIG d   1      -0.623  82.262 114.014  0.00  0.00    -0.368 OA
BRANCH   7   8
ATOM      8  C   LIG d   1      -0.330  82.084 115.422  0.00  0.00     0.119 C 
BRANCH   8   9
ATOM      9  C   LIG d   1      -1.114  80.849 115.906  0.00  0.00     0.028 C 
ATOM     10  C   LIG d   1      -0.229  79.595 116.005  0.00  0.00     0.006 C 
ENDBRANCH   8   9
BRANCH   8  11
ATOM     11  C   LIG d   1      -0.864  83.255 116.253  0.00  0.00     0.028 C 
ATOM     12  C   LIG d   1      -1.417  84.398 115.388  0.00  0.00     0.006 C 
ENDBRANCH   8  11
ENDBRANCH   7   8
ENDBRANCH   1   7
BRANCH   6  13
ATOM     13  N   LIG d   1      -0.816  79.776 112.321  0.00  0.00    -0.311 N 
ATOM     14  C   LIG d   1      -2.091  79.545 112.629  0.00  0.00     0.210 C 
ATOM     15  C   LIG d   1      -2.398  78.114 113.082  0.00  0.00     0.109 C 
ATOM     16  O   LIG d   1      -3.003  80.381 112.540  0.00  0.00    -0.276 OA
ATOM     17  H   LIG d   1      -0.149  79.032 112.392  0.00  0.00     0.149 HD
ENDBRANCH   6  13
BRANCH   5  18
ATOM     18  N   LIG d   1       0.006  80.464 109.461  0.00  0.00     0.381 N 
ATOM     19  H   LIG d   1      -0.800  79.928 109.713  0.00  0.00    -0.090 HD
ATOM     20  H   LIG d   1       0.651  79.858 108.984  0.00  0.00    -0.090 HD
ATOM     21  H   LIG d   1      -0.259  81.215 108.863  0.00  0.00    -0.090 HD
ENDBRANCH   5  18
BRANCH   3  22
ATOM     22  C   LIG d   1       2.761  83.950 111.248  0.00  0.00     0.382 C 
ATOM     23  O   LIG d   1       3.439  84.362 112.220  0.00  0.00    -0.241 OA
ATOM     24  O   LIG d   1       2.994  84.391 110.107  0.00  0.00    -0.241 OA
ENDBRANCH   3  22
TORSDOF 7
ENDMDL
MODEL 2
REMARK VINA RESULT:      -4.6      3.155      4.600
REMARK  7 active torsions:
REMARK  status: ('A' for Active; 'I' for Inactive)
REMARK    1  A    between atoms: C_2  and  C_3 
REMARK    2  A    between atoms: C_3  and  O_6 
REMARK    3  A    between atoms: C_3  and  C_4 
REMARK    4  A    between atoms: C_7  and  O_6 
REMARK    5  A    between atoms: C_9  and  C_10 
REMARK    6  A    between atoms: N_15  and  C_14 
REMARK    7  A    between atoms: N_20  and  C_19 
REMARK       I    between atoms: C_22  and  N_20 
ROOT
ATOM      1  C   LIG d   1      -2.686  80.285 115.388  0.00  0.00     0.161 C 
ATOM      2  C   LIG d   1      -2.440  81.436 114.621  0.00  0.00     0.016 C 
ATOM      3  C   LIG d   1      -1.809  81.408 113.356  0.00  0.00     0.038 C 
ATOM      4  C   LIG d   1      -1.516  80.203 112.700  0.00  0.00     0.028 C 
ATOM      5  C   LIG d   1      -1.287  79.035 113.653  0.00  0.00    -0.047 C 
ATOM      6  C   LIG d   1      -2.474  78.952 114.640  0.00  0.00     0.091 C 
ENDROOT
BRANCH   1   7
ATOM      7  O   LIG d   1      -4.016  80.343 115.942  0.00  0.00    -0.368 OA
BRANCH   7   8
ATOM      8  C   LIG d   1      -4.326  81.515 116.735  0.00  0.00     0.119 C 
BRANCH   8   9
ATOM      9  C   LIG d   1      -3.543  81.400 118.057  0.00  0.00     0.028 C 
ATOM     10  C   LIG d   1      -3.034  82.762 118.558  0.00  0.00     0.006 C 
ENDBRANCH   8   9
BRANCH   8  11
ATOM     11  C   LIG d   1      -5.803  81.540 117.139  0.00  0.00     0.028 C 
ATOM     12  C   LIG d   1      -6.371  80.137 117.406  0.00  0.00     0.006 C 
ENDBRANCH   8  11
ENDBRANCH   7   8
ENDBRANCH   1   7
BRANCH   6  13
ATOM     13  N   LIG d   1      -2.289  77.889 115.661  0.00  0.00    -0.311 N 
ATOM     14  C   LIG d   1      -2.761  76.651 115.524  0.00  0.00     0.210 C 
ATOM     15  C   LIG d   1      -2.477  75.716 116.703  0.00  0.00     0.109 C 
ATOM     16  O   LIG d   1      -3.361  76.229 114.523  0.00  0.00    -0.276 OA
ATOM     17  H   LIG d   1      -1.787  78.135 116.491  0.00  0.00     0.149 HD
ENDBRANCH   6  13
BRANCH   5  18
ATOM     18  N   LIG d   1      -1.128  77.817 112.836  0.00  0.00     0.381 N 
ATOM     19  H   LIG d   1      -1.984  77.615 112.360  0.00  0.00    -0.090 HD
ATOM     20  H   LIG d   1      -0.914  77.045 113.442  0.00  0.00    -0.090 HD
ATOM     21  H   LIG d   1      -0.394  77.944 112.175  0.00  0.00    -0.090 HD
ENDBRANCH   5  18
BRANCH   3  22
ATOM     22  C   LIG d   1      -1.429  82.597 112.751  0.00  0.00     0.382 C 
ATOM     23  O   LIG d   1      -1.238  82.636 111.511  0.00  0.00    -0.241 OA
ATOM     24  O   LIG d   1      -1.232  83.619 113.435  0.00  0.00    -0.241 OA
ENDBRANCH   3  22
TORSDOF 7
ENDMDL
MODEL 3
REMARK VINA RESULT:      -4.5      1.733      4.977
REMARK  7 active torsions:
REMARK  status: ('A' for Active; 'I' for Inactive)
REMARK    1  A    between atoms: C_2  and  C_3 
REMARK    2  A    between atoms: C_3  and  O_6 
REMARK    3  A    between atoms: C_3  and  C_4 
REMARK    4  A    between atoms: C_7  and  O_6 
REMARK    5  A    between atoms: C_9  and  C_10 
REMARK    6  A    between atoms: N_15  and  C_14 
REMARK    7  A    between atoms: N_20  and  C_19 
REMARK       I    between atoms: C_22  and  N_20 
ROOT
ATOM      1  C   LIG d   1      -1.290  82.709 112.711  0.00  0.00     0.161 C 
ATOM      2  C   LIG d   1      -1.981  81.719 113.428  0.00  0.00     0.016 C 
ATOM      3  C   LIG d   1      -1.746  80.334 113.267  0.00  0.00     0.038 C 
ATOM      4  C   LIG d   1      -0.689  79.848 112.482  0.00  0.00     0.028 C 
ATOM      5  C   LIG d   1      -0.292  80.790 111.350  0.00  0.00    -0.047 C 
ATOM      6  C   LIG d   1      -0.057  82.202 111.933  0.00  0.00     0.091 C 
ENDROOT
BRANCH   1   7
ATOM      7  O   LIG d   1      -0.916  83.783 113.597  0.00  0.00    -0.368 OA
BRANCH   7   8
ATOM      8  C   LIG d   1      -0.765  83.432 114.995  0.00  0.00     0.119 C 
BRANCH   8   9
ATOM      9  C   LIG d   1      -1.339  84.595 115.828  0.00  0.00     0.028 C 
ATOM     10  C   LIG d   1      -1.118  84.399 117.338  0.00  0.00     0.006 C 
ENDBRANCH   8   9
BRANCH   8  11
ATOM     11  C   LIG d   1       0.712  83.339 115.390  0.00  0.00     0.028 C 
ATOM     12  C   LIG d   1       1.215  81.890 115.477  0.00  0.00     0.006 C 
ENDBRANCH   8  11
ENDBRANCH   7   8
ENDBRANCH   1   7
BRANCH   6  13
ATOM     13  N   LIG d   1       0.253  83.205 110.880  0.00  0.00    -0.311 N 
ATOM     14  C   LIG d   1       1.494  83.531 110.521  0.00  0.00     0.210 C 
ATOM     15  C   LIG d   1       1.592  84.601 109.430  0.00  0.00     0.109 C 
ATOM     16  O   LIG d   1       2.523  83.011 110.980  0.00  0.00    -0.276 OA
ATOM     17  H   LIG d   1      -0.523  83.653 110.433  0.00  0.00     0.149 HD
ENDBRANCH   6  13
BRANCH   5  18
ATOM     18  N   LIG d   1       0.906  80.226 110.701  0.00  0.00     0.381 N 
ATOM     19  H   LIG d   1       1.539  79.883 111.396  0.00  0.00    -0.090 HD
ATOM     20  H   LIG d   1       1.369  80.953 110.184  0.00  0.00    -0.090 HD
ATOM     21  H   LIG d   1       0.645  79.486 110.086  0.00  0.00    -0.090 HD
ENDBRANCH   5  18
BRANCH   3  22
ATOM     22  C   LIG d   1      -2.598  79.418 113.864  0.00  0.00     0.382 C 
ATOM     23  O   LIG d   1      -2.893  78.354 113.267  0.00  0.00    -0.241 OA
ATOM     24  O   LIG d   1      -3.111  79.662 114.972  0.00  0.00    -0.241 OA
ENDBRANCH   3  22
TORSDOF 7
ENDMDL
MODEL 4
REMARK VINA RESULT:      -4.4      2.290      4.967
REMARK  7 active torsions:
REMARK  status: ('A' for Active; 'I' for Inactive)
REMARK    1  A    between atoms: C_2  and  C_3 
REMARK    2  A    between atoms: C_3  and  O_6 
REMARK    3  A    between atoms: C_3  and  C_4 
REMARK    4  A    between atoms: C_7  and  O_6 
REMARK    5  A    between atoms: C_9  and  C_10 
REMARK    6  A    between atoms: N_15  and  C_14 
REMARK    7  A    between atoms: N_20  and  C_19 
REMARK       I    between atoms: C_22  and  N_20 
ROOT
ATOM      1  C   LIG d   1       0.220  83.539 112.910  0.00  0.00     0.161 C 
ATOM      2  C   LIG d   1      -0.884  83.204 113.712  0.00  0.00     0.016 C 
ATOM      3  C   LIG d   1      -1.553  81.961 113.634  0.00  0.00     0.038 C 
ATOM      4  C   LIG d   1      -1.067  80.905 112.849  0.00  0.00     0.028 C 
ATOM      5  C   LIG d   1      -0.253  81.370 111.646  0.00  0.00    -0.047 C 
ATOM      6  C   LIG d   1       0.832  82.360 112.127  0.00  0.00     0.091 C 
ENDROOT
BRANCH   1   7
ATOM      7  O   LIG d   1       1.228  84.186 113.712  0.00  0.00    -0.368 OA
BRANCH   7   8
ATOM      8  C   LIG d   1       1.537  83.555 114.978  0.00  0.00     0.119 C 
BRANCH   8   9
ATOM      9  C   LIG d   1       1.686  84.672 116.029  0.00  0.00     0.028 C 
ATOM     10  C   LIG d   1       0.814  84.429 117.272  0.00  0.00     0.006 C 
ENDBRANCH   8   9
BRANCH   8  11
ATOM     11  C   LIG d   1       2.899  82.855 114.934  0.00  0.00     0.028 C 
ATOM     12  C   LIG d   1       2.787  81.326 115.039  0.00  0.00     0.006 C 
ENDBRANCH   8  11
ENDBRANCH   7   8
ENDBRANCH   1   7
BRANCH   6  13
ATOM     13  N   LIG d   1       1.620  82.928 111.002  0.00  0.00    -0.311 N 
ATOM     14  C   LIG d   1       2.784  82.424 110.594  0.00  0.00     0.210 C 
ATOM     15  C   LIG d   1       3.440  83.174 109.430  0.00  0.00     0.109 C 
ATOM     16  O   LIG d   1       3.319  81.410 111.065  0.00  0.00    -0.276 OA
ATOM     17  H   LIG d   1       1.243  83.734 110.542  0.00  0.00     0.149 HD
ENDBRANCH   6  13
BRANCH   5  18
ATOM     18  N   LIG d   1       0.306  80.169 110.996  0.00  0.00     0.381 N 
ATOM     19  H   LIG d   1       1.031  79.782 111.566  0.00  0.00    -0.090 HD
ATOM     20  H   LIG d   1       0.707  80.435 110.114  0.00  0.00    -0.090 HD
ATOM     21  H   LIG d   1      -0.411  79.493 110.854  0.00  0.00    -0.090 HD
ENDBRANCH   5  18
BRANCH   3  22
ATOM     22  C   LIG d   1      -2.746  81.779 114.318  0.00  0.00     0.382 C 
ATOM     23  O   LIG d   1      -3.123  80.622 114.623  0.00  0.00    -0.241 OA
ATOM     24  O   LIG d   1      -3.471  82.753 114.593  0.00  0.00    -0.241 OA
ENDBRANCH   3  22
TORSDOF 7
ENDMDL
MODEL 5
REMARK VINA RESULT:      -4.3      2.275      5.449
REMARK  7 active torsions:
REMARK  status: ('A' for Active; 'I' for Inactive)
REMARK    1  A    between atoms: C_2  and  C_3 
REMARK    2  A    between atoms: C_3  and  O_6 
REMARK    3  A    between atoms: C_3  and  C_4 
REMARK    4  A    between atoms: C_7  and  O_6 
REMARK    5  A    between atoms: C_9  and  C_10 
REMARK    6  A    between atoms: N_15  and  C_14 
REMARK    7  A    between atoms: N_20  and  C_19 
REMARK       I    between atoms: C_22  and  N_20 
ROOT
ATOM      1  C   LIG d   1      -2.154  81.252 114.486  0.00  0.00     0.161 C 
ATOM      2  C   LIG d   1      -2.533  79.991 114.974  0.00  0.00     0.016 C 
ATOM      3  C   LIG d   1      -2.246  78.779 114.305  0.00  0.00     0.038 C 
ATOM      4  C   LIG d   1      -1.424  78.736 113.170  0.00  0.00     0.028 C 
ATOM      5  C   LIG d   1      -1.441  80.027 112.360  0.00  0.00    -0.047 C 
ATOM      6  C   LIG d   1      -1.160  81.217 113.306  0.00  0.00     0.091 C 
ENDROOT
BRANCH   1   7
ATOM      7  O   LIG d   1      -1.628  82.055 115.561  0.00  0.00    -0.368 OA
BRANCH   7   8
ATOM      8  C   LIG d   1      -2.498  83.098 116.063  0.00  0.00     0.119 C 
BRANCH   8   9
ATOM      9  C   LIG d   1      -1.878  84.451 115.663  0.00  0.00     0.028 C 
ATOM     10  C   LIG d   1      -0.453  84.629 116.213  0.00  0.00     0.006 C 
ENDBRANCH   8   9
BRANCH   8  11
ATOM     11  C   LIG d   1      -2.534  83.106 117.594  0.00  0.00     0.028 C 
ATOM     12  C   LIG d   1      -3.552  82.109 118.171  0.00  0.00     0.006 C 
ENDBRANCH   8  11
ENDBRANCH   7   8
ENDBRANCH   1   7
BRANCH   6  13
ATOM     13  N   LIG d   1      -1.242  82.527 112.609  0.00  0.00    -0.311 N 
ATOM     14  C   LIG d   1      -0.219  83.376 112.521  0.00  0.00     0.210 C 
ATOM     15  C   LIG d   1      -0.523  84.680 111.777  0.00  0.00     0.109 C 
ATOM     16  O   LIG d   1       0.920  83.158 112.960  0.00  0.00    -0.276 OA
ATOM     17  H   LIG d   1      -2.121  82.770 112.197  0.00  0.00     0.149 HD
ENDBRANCH   6  13
BRANCH   5  18
ATOM     18  N   LIG d   1      -0.438  79.894 111.286  0.00  0.00     0.381 N 
ATOM     19  H   LIG d   1      -0.698  80.464 110.507  0.00  0.00    -0.090 HD
ATOM     20  H   LIG d   1      -0.413  78.936 110.982  0.00  0.00    -0.090 HD
ATOM     21  H   LIG d   1       0.460  80.167 111.622  0.00  0.00    -0.090 HD
ENDBRANCH   5  18
BRANCH   3  22
ATOM     22  C   LIG d   1      -2.819  77.597 114.749  0.00  0.00     0.382 C 
ATOM     23  O   LIG d   1      -2.282  76.497 114.471  0.00  0.00    -0.241 OA
ATOM     24  O   LIG d   1      -3.889  77.613 115.387  0.00  0.00    -0.241 OA
ENDBRANCH   3  22
TORSDOF 7
ENDMDL
MODEL 6
REMARK VINA RESULT:      -4.1      3.889      5.601
REMARK  7 active torsions:
REMARK  status: ('A' for Active; 'I' for Inactive)
REMARK    1  A    between atoms: C_2  and  C_3 
REMARK    2  A    between atoms: C_3  and  O_6 
REMARK    3  A    between atoms: C_3  and  C_4 
REMARK    4  A    between atoms: C_7  and  O_6 
REMARK    5  A    between atoms: C_9  and  C_10 
REMARK    6  A    between atoms: N_15  and  C_14 
REMARK    7  A    between atoms: N_20  and  C_19 
REMARK       I    between atoms: C_22  and  N_20 
ROOT
ATOM      1  C   LIG d   1      -2.941  78.946 115.891  0.00  0.00     0.161 C 
ATOM      2  C   LIG d   1      -2.886  80.098 115.089  0.00  0.00     0.016 C 
ATOM      3  C   LIG d   1      -2.125  80.182 113.900  0.00  0.00     0.038 C 
ATOM      4  C   LIG d   1      -1.484  79.063 113.349  0.00  0.00     0.028 C 
ATOM      5  C   LIG d   1      -1.098  78.014 114.386  0.00  0.00    -0.047 C 
ATOM      6  C   LIG d   1      -2.338  77.680 115.247  0.00  0.00     0.091 C 
ENDROOT
BRANCH   1   7
ATOM      7  O   LIG d   1      -4.301  78.700 116.300  0.00  0.00    -0.368 OA
BRANCH   7   8
ATOM      8  C   LIG d   1      -4.717  79.324 117.540  0.00  0.00     0.119 C 
BRANCH   8   9
ATOM      9  C   LIG d   1      -5.091  78.197 118.522  0.00  0.00     0.028 C 
ATOM     10  C   LIG d   1      -5.372  76.865 117.808  0.00  0.00     0.006 C 
ENDBRANCH   8   9
BRANCH   8  11
ATOM     11  C   LIG d   1      -5.999  80.139 117.351  0.00  0.00     0.028 C 
ATOM     12  C   LIG d   1      -5.726  81.635 117.123  0.00  0.00     0.006 C 
ENDBRANCH   8  11
ENDBRANCH   7   8
ENDBRANCH   1   7
BRANCH   6  13
ATOM     13  N   LIG d   1      -2.026  76.723 116.342  0.00  0.00    -0.311 N 
ATOM     14  C   LIG d   1      -2.221  75.409 116.244  0.00  0.00     0.210 C 
ATOM     15  C   LIG d   1      -1.852  74.607 117.496  0.00  0.00     0.109 C 
ATOM     16  O   LIG d   1      -2.633  74.829 115.229  0.00  0.00    -0.276 OA
ATOM     17  H   LIG d   1      -1.658  77.106 117.191  0.00  0.00     0.149 HD
ENDBRANCH   6  13
BRANCH   5  18
ATOM     18  N   LIG d   1      -0.565  76.845 113.661  0.00  0.00     0.381 N 
ATOM     19  H   LIG d   1      -0.088  77.147 112.836  0.00  0.00    -0.090 HD
ATOM     20  H   LIG d   1      -1.332  76.257 113.385  0.00  0.00    -0.090 HD
ATOM     21  H   LIG d   1       0.059  76.336 114.247  0.00  0.00    -0.090 HD
ENDBRANCH   5  18
BRANCH   3  22
ATOM     22  C   LIG d   1      -1.968  81.408 113.271  0.00  0.00     0.382 C 
ATOM     23  O   LIG d   1      -0.817  81.852 113.043  0.00  0.00    -0.241 OA
ATOM     24  O   LIG d   1      -2.962  82.095 112.968  0.00  0.00    -0.241 OA
ENDBRANCH   3  22
TORSDOF 7
ENDMDL
MODEL 7
REMARK VINA RESULT:      -4.0      3.013      3.842
REMARK  7 active torsions:
REMARK  status: ('A' for Active; 'I' for Inactive)
REMARK    1  A    between atoms: C_2  and  C_3 
REMARK    2  A    between atoms: C_3  and  O_6 
REMARK    3  A    between atoms: C_3  and  C_4 
REMARK    4  A    between atoms: C_7  and  O_6 
REMARK    5  A    between atoms: C_9  and  C_10 
REMARK    6  A    between atoms: N_15  and  C_14 
REMARK    7  A    between atoms: N_20  and  C_19 
REMARK       I    between atoms: C_22  and  N_20 
ROOT
ATOM      1  C   LIG d   1      -0.210  79.826 114.893  0.00  0.00     0.161 C 
ATOM      2  C   LIG d   1      -0.445  81.136 114.444  0.00  0.00     0.016 C 
ATOM      3  C   LIG d   1      -1.335  81.449 113.391  0.00  0.00     0.038 C 
ATOM      4  C   LIG d   1      -2.170  80.482 112.813  0.00  0.00     0.028 C 
ATOM      5  C   LIG d   1      -1.601  79.068 112.888  0.00  0.00    -0.047 C 
ATOM      6  C   LIG d   1      -1.194  78.769 114.349  0.00  0.00     0.091 C 
ENDROOT
BRANCH   1   7
ATOM      7  O   LIG d   1      -0.193  79.799 116.334  0.00  0.00    -0.368 OA
BRANCH   7   8
ATOM      8  C   LIG d   1      -0.561  81.033 116.999  0.00  0.00     0.119 C 
BRANCH   8   9
ATOM      9  C   LIG d   1       0.449  81.263 118.140  0.00  0.00     0.028 C 
ATOM     10  C   LIG d   1       1.799  81.796 117.631  0.00  0.00     0.006 C 
ENDBRANCH   8   9
BRANCH   8  11
ATOM     11  C   LIG d   1      -1.926  80.911 117.683  0.00  0.00     0.028 C 
ATOM     12  C   LIG d   1      -2.858  82.091 117.365  0.00  0.00     0.006 C 
ENDBRANCH   8  11
ENDBRANCH   7   8
ENDBRANCH   1   7
BRANCH   6  13
ATOM     13  N   LIG d   1      -0.551  77.437 114.497  0.00  0.00    -0.311 N 
ATOM     14  C   LIG d   1      -1.130  76.408 115.113  0.00  0.00     0.210 C 
ATOM     15  C   LIG d   1      -0.285  75.131 115.171  0.00  0.00     0.109 C 
ATOM     16  O   LIG d   1      -2.275  76.421 115.588  0.00  0.00    -0.276 OA
ATOM     17  H   LIG d   1       0.367  77.329 114.113  0.00  0.00     0.149 HD
ENDBRANCH   6  13
BRANCH   5  18
ATOM     18  N   LIG d   1      -2.631  78.146 112.375  0.00  0.00     0.381 N 
ATOM     19  H   LIG d   1      -2.214  77.266 112.146  0.00  0.00    -0.090 HD
ATOM     20  H   LIG d   1      -3.027  78.534 111.537  0.00  0.00    -0.090 HD
ATOM     21  H   LIG d   1      -3.345  78.016 113.058  0.00  0.00    -0.090 HD
ENDBRANCH   5  18
BRANCH   3  22
ATOM     22  C   LIG d   1      -1.367  82.738 112.879  0.00  0.00     0.382 C 
ATOM     23  O   LIG d   1      -1.393  83.721 113.657  0.00  0.00    -0.241 OA
ATOM     24  O   LIG d   1      -1.415  82.927 111.649  0.00  0.00    -0.241 OA
ENDBRANCH   3  22
TORSDOF 7
ENDMDL
MODEL 8
REMARK VINA RESULT:      -4.0      4.000      6.417
REMARK  7 active torsions:
REMARK  status: ('A' for Active; 'I' for Inactive)
REMARK    1  A    between atoms: C_2  and  C_3 
REMARK    2  A    between atoms: C_3  and  O_6 
REMARK    3  A    between atoms: C_3  and  C_4 
REMARK    4  A    between atoms: C_7  and  O_6 
REMARK    5  A    between atoms: C_9  and  C_10 
REMARK    6  A    between atoms: N_15  and  C_14 
REMARK    7  A    between atoms: N_20  and  C_19 
REMARK       I    between atoms: C_22  and  N_20 
ROOT
ATOM      1  C   LIG d   1      -2.329  78.316 115.441  0.00  0.00     0.161 C 
ATOM      2  C   LIG d   1      -2.849  79.384 114.691  0.00  0.00     0.016 C 
ATOM      3  C   LIG d   1      -2.095  80.527 114.339  0.00  0.00     0.038 C 
ATOM      4  C   LIG d   1      -0.716  80.611 114.586  0.00  0.00     0.028 C 
ATOM      5  C   LIG d   1      -0.264  79.781 115.783  0.00  0.00    -0.047 C 
ATOM      6  C   LIG d   1      -0.797  78.339 115.624  0.00  0.00     0.091 C 
ENDROOT
BRANCH   1   7
ATOM      7  O   LIG d   1      -2.745  77.063 114.862  0.00  0.00    -0.368 OA
BRANCH   7   8
ATOM      8  C   LIG d   1      -3.915  76.446 115.452  0.00  0.00     0.119 C 
BRANCH   8   9
ATOM      9  C   LIG d   1      -3.439  75.211 116.241  0.00  0.00     0.028 C 
ATOM     10  C   LIG d   1      -3.518  75.420 117.762  0.00  0.00     0.006 C 
ENDBRANCH   8   9
BRANCH   8  11
ATOM     11  C   LIG d   1      -4.860  75.900 114.376  0.00  0.00     0.028 C 
ATOM     12  C   LIG d   1      -5.307  74.456 114.653  0.00  0.00     0.006 C 
ENDBRANCH   8  11
ENDBRANCH   7   8
ENDBRANCH   1   7
BRANCH   6  13
ATOM     13  N   LIG d   1      -0.470  77.482 116.794  0.00  0.00    -0.311 N 
ATOM     14  C   LIG d   1      -0.016  76.235 116.685  0.00  0.00     0.210 C 
ATOM     15  C   LIG d   1       0.239  75.521 118.016  0.00  0.00     0.109 C 
ATOM     16  O   LIG d   1       0.231  75.664 115.612  0.00  0.00    -0.276 OA
ATOM     17  H   LIG d   1      -0.612  77.878 117.702  0.00  0.00     0.149 HD
ENDBRANCH   6  13
BRANCH   5  18
ATOM     18  N   LIG d   1       1.209  79.850 115.842  0.00  0.00     0.381 N 
ATOM     19  H   LIG d   1       1.516  79.726 116.785  0.00  0.00    -0.090 HD
ATOM     20  H   LIG d   1       1.504  80.759 115.531  0.00  0.00    -0.090 HD
ATOM     21  H   LIG d   1       1.607  79.147 115.259  0.00  0.00    -0.090 HD
ENDBRANCH   5  18
BRANCH   3  22
ATOM     22  C   LIG d   1      -2.729  81.619 113.767  0.00  0.00     0.382 C 
ATOM     23  O   LIG d   1      -2.878  81.678 112.523  0.00  0.00    -0.241 OA
ATOM     24  O   LIG d   1      -3.116  82.568 114.476  0.00  0.00    -0.241 OA
ENDBRANCH   3  22
TORSDOF 7
ENDMDL
MODEL 9
REMARK VINA RESULT:      -4.0      4.654      7.289
REMARK  7 active torsions:
REMARK  status: ('A' for Active; 'I' for Inactive)
REMARK    1  A    between atoms: C_2  and  C_3 
REMARK    2  A    between atoms: C_3  and  O_6 
REMARK    3  A    between atoms: C_3  and  C_4 
REMARK    4  A    between atoms: C_7  and  O_6 
REMARK    5  A    between atoms: C_9  and  C_10 
REMARK    6  A    between atoms: N_15  and  C_14 
REMARK    7  A    between atoms: N_20  and  C_19 
REMARK       I    between atoms: C_22  and  N_20 
ROOT
ATOM      1  C   LIG d   1      -2.577  76.779 115.524  0.00  0.00     0.161 C 
ATOM      2  C   LIG d   1      -2.827  77.701 114.494  0.00  0.00     0.016 C 
ATOM      3  C   LIG d   1      -1.973  78.788 114.199  0.00  0.00     0.038 C 
ATOM      4  C   LIG d   1      -0.725  78.941 114.821  0.00  0.00     0.028 C 
ATOM      5  C   LIG d   1      -0.663  78.325 116.215  0.00  0.00    -0.047 C 
ATOM      6  C   LIG d   1      -1.165  76.865 116.141  0.00  0.00     0.091 C 
ENDROOT
BRANCH   1   7
ATOM      7  O   LIG d   1      -2.839  75.441 115.057  0.00  0.00    -0.368 OA
BRANCH   7   8
ATOM      8  C   LIG d   1      -3.936  74.745 115.699  0.00  0.00     0.119 C 
BRANCH   8   9
ATOM      9  C   LIG d   1      -5.009  74.482 114.625  0.00  0.00     0.028 C 
ATOM     10  C   LIG d   1      -5.863  75.726 114.330  0.00  0.00     0.006 C 
ENDBRANCH   8   9
BRANCH   8  11
ATOM     11  C   LIG d   1      -4.620  75.629 116.747  0.00  0.00     0.028 C 
ATOM     12  C   LIG d   1      -4.612  75.004 118.151  0.00  0.00     0.006 C 
ENDBRANCH   8  11
ENDBRANCH   7   8
ENDBRANCH   1   7
BRANCH   6  13
ATOM     13  N   LIG d   1      -1.217  76.215 117.476  0.00  0.00    -0.311 N 
ATOM     14  C   LIG d   1      -0.229  75.468 117.967  0.00  0.00     0.210 C 
ATOM     15  C   LIG d   1      -0.494  74.875 119.354  0.00  0.00     0.109 C 
ATOM     16  O   LIG d   1       0.856  75.268 117.399  0.00  0.00    -0.276 OA
ATOM     17  H   LIG d   1      -2.047  76.351 118.018  0.00  0.00     0.149 HD
ENDBRANCH   6  13
BRANCH   5  18
ATOM     18  N   LIG d   1       0.729  78.435 116.689  0.00  0.00     0.381 N 
ATOM     19  H   LIG d   1       1.346  78.536 115.908  0.00  0.00    -0.090 HD
ATOM     20  H   LIG d   1       0.974  77.591 117.177  0.00  0.00    -0.090 HD
ATOM     21  H   LIG d   1       0.821  79.217 117.298  0.00  0.00    -0.090 HD
ENDBRANCH   5  18
BRANCH   3  22
ATOM     22  C   LIG d   1      -2.384  79.761 113.300  0.00  0.00     0.382 C 
ATOM     23  O   LIG d   1      -2.969  80.790 113.714  0.00  0.00    -0.241 OA
ATOM     24  O   LIG d   1      -2.216  79.600 112.076  0.00  0.00    -0.241 OA
ENDBRANCH   3  22
TORSDOF 7
ENDMDL
