MODEL 1
REMARK VINA RESULT:      -5.9      0.000      0.000
REMARK  7 active torsions:
REMARK  status: ('A' for Active; 'I' for Inactive)
REMARK    1  A    between atoms: C_2  and  C_3 
REMARK    2  A    between atoms: C_3  and  O_6 
REMARK    3  A    between atoms: C_3  and  C_4 
REMARK    4  A    between atoms: C_7  and  O_6 
REMARK    5  A    between atoms: C_9  and  C_10 
REMARK    6  A    between atoms: N_15  and  C_14 
REMARK    7  A    between atoms: N_20  and  C_19 
REMARK       I    between atoms: C_22  and  N_20 
ROOT
ATOM      1  C   LIG d   1      -3.113  77.861 115.159  0.00  0.00     0.161 C 
ATOM      2  C   LIG d   1      -3.233  78.914 114.237  0.00  0.00     0.016 C 
ATOM      3  C   LIG d   1      -2.238  79.232 113.285  0.00  0.00     0.038 C 
ATOM      4  C   LIG d   1      -1.112  78.418 113.089  0.00  0.00     0.028 C 
ATOM      5  C   LIG d   1      -0.705  77.638 114.335  0.00  0.00    -0.047 C 
ATOM      6  C   LIG d   1      -1.942  76.894 114.887  0.00  0.00     0.091 C 
ENDROOT
BRANCH   1   7
ATOM      7  O   LIG d   1      -4.356  77.135 115.236  0.00  0.00    -0.368 OA
BRANCH   7   8
ATOM      8  C   LIG d   1      -5.008  77.123 116.530  0.00  0.00     0.119 C 
BRANCH   8   9
ATOM      9  C   LIG d   1      -6.493  76.783 116.296  0.00  0.00     0.028 C 
ATOM     10  C   LIG d   1      -6.698  75.839 115.100  0.00  0.00     0.006 C 
ENDBRANCH   8   9
BRANCH   8  11
ATOM     11  C   LIG d   1      -5.007  78.516 117.167  0.00  0.00     0.028 C 
ATOM     12  C   LIG d   1      -6.418  79.107 117.312  0.00  0.00     0.006 C 
ENDBRANCH   8  11
ENDBRANCH   7   8
ENDBRANCH   1   7
BRANCH   6  13
ATOM     13  N   LIG d   1      -1.651  76.173 116.154  0.00  0.00    -0.311 N 
ATOM     14  C   LIG d   1      -1.274  74.896 116.200  0.00  0.00     0.210 C 
ATOM     15  C   LIG d   1      -1.044  74.341 117.609  0.00  0.00     0.109 C 
ATOM     16  O   LIG d   1      -1.077  74.180 115.207  0.00  0.00    -0.276 OA
ATOM     17  H   LIG d   1      -1.755  76.687 117.006  0.00  0.00     0.149 HD
ENDBRANCH   6  13
BRANCH   5  18
ATOM     18  N   LIG d   1       0.392  76.730 113.952  0.00  0.00     0.381 N 
ATOM     19  H   LIG d   1       1.011  77.194 113.317  0.00  0.00    -0.090 HD
ATOM     20  H   LIG d   1       0.004  75.929 113.485  0.00  0.00    -0.090 HD
ATOM     21  H   LIG d   1       0.894  76.440 114.763  0.00  0.00    -0.090 HD
ENDBRANCH   5  18
BRANCH   3  22
ATOM     22  C   LIG d   1      -2.344  80.399 112.544  0.00  0.00     0.382 C 
ATOM     23  O   LIG d   1      -1.469  80.681 111.690  0.00  0.00    -0.241 OA
ATOM     24  O   LIG d   1      -3.280  81.195 112.749  0.00  0.00    -0.241 OA
ENDBRANCH   3  22
TORSDOF 7
ENDMDL
MODEL 2
REMARK VINA RESULT:      -5.8      1.217      2.063
REMARK  7 active torsions:
REMARK  status: ('A' for Active; 'I' for Inactive)
REMARK    1  A    between atoms: C_2  and  C_3 
REMARK    2  A    between atoms: C_3  and  O_6 
REMARK    3  A    between atoms: C_3  and  C_4 
REMARK    4  A    between atoms: C_7  and  O_6 
REMARK    5  A    between atoms: C_9  and  C_10 
REMARK    6  A    between atoms: N_15  and  C_14 
REMARK    7  A    between atoms: N_20  and  C_19 
REMARK       I    between atoms: C_22  and  N_20 
ROOT
ATOM      1  C   LIG d   1      -2.286  77.542 116.047  0.00  0.00     0.161 C 
ATOM      2  C   LIG d   1      -2.704  78.343 114.971  0.00  0.00     0.016 C 
ATOM      3  C   LIG d   1      -2.029  78.391 113.729  0.00  0.00     0.038 C 
ATOM      4  C   LIG d   1      -0.970  77.521 113.427  0.00  0.00     0.028 C 
ATOM      5  C   LIG d   1      -0.199  77.055 114.657  0.00  0.00    -0.047 C 
ATOM      6  C   LIG d   1      -1.200  76.504 115.698  0.00  0.00     0.091 C 
ENDROOT
BRANCH   1   7
ATOM      7  O   LIG d   1      -3.426  76.893 116.644  0.00  0.00    -0.368 OA
BRANCH   7   8
ATOM      8  C   LIG d   1      -4.598  76.762 115.802  0.00  0.00     0.119 C 
BRANCH   8   9
ATOM      9  C   LIG d   1      -5.823  77.158 116.649  0.00  0.00     0.028 C 
ATOM     10  C   LIG d   1      -5.723  78.594 117.191  0.00  0.00     0.006 C 
ENDBRANCH   8   9
BRANCH   8  11
ATOM     11  C   LIG d   1      -4.837  75.303 115.401  0.00  0.00     0.028 C 
ATOM     12  C   LIG d   1      -6.307  75.011 115.063  0.00  0.00     0.006 C 
ENDBRANCH   8  11
ENDBRANCH   7   8
ENDBRANCH   1   7
BRANCH   6  13
ATOM     13  N   LIG d   1      -0.536  76.104 116.966  0.00  0.00    -0.311 N 
ATOM     14  C   LIG d   1      -0.862  75.010 117.651  0.00  0.00     0.210 C 
ATOM     15  C   LIG d   1      -0.067  74.794 118.943  0.00  0.00     0.109 C 
ATOM     16  O   LIG d   1      -1.713  74.180 117.295  0.00  0.00    -0.276 OA
ATOM     17  H   LIG d   1       0.188  76.704 117.311  0.00  0.00     0.149 HD
ENDBRANCH   6  13
BRANCH   5  18
ATOM     18  N   LIG d   1       0.785  76.050 114.212  0.00  0.00     0.381 N 
ATOM     19  H   LIG d   1       1.375  76.443 113.506  0.00  0.00    -0.090 HD
ATOM     20  H   LIG d   1       0.293  75.269 113.813  0.00  0.00    -0.090 HD
ATOM     21  H   LIG d   1       1.335  75.746 114.984  0.00  0.00    -0.090 HD
ENDBRANCH   5  18
BRANCH   3  22
ATOM     22  C   LIG d   1      -2.387  79.345 112.789  0.00  0.00     0.382 C 
ATOM     23  O   LIG d   1      -3.278  80.186 113.057  0.00  0.00    -0.241 OA
ATOM     24  O   LIG d   1      -1.861  79.347 111.660  0.00  0.00    -0.241 OA
ENDBRANCH   3  22
TORSDOF 7
ENDMDL
MODEL 3
REMARK VINA RESULT:      -5.5      1.068      1.749
REMARK  7 active torsions:
REMARK  status: ('A' for Active; 'I' for Inactive)
REMARK    1  A    between atoms: C_2  and  C_3 
REMARK    2  A    between atoms: C_3  and  O_6 
REMARK    3  A    between atoms: C_3  and  C_4 
REMARK    4  A    between atoms: C_7  and  O_6 
REMARK    5  A    between atoms: C_9  and  C_10 
REMARK    6  A    between atoms: N_15  and  C_14 
REMARK    7  A    between atoms: N_20  and  C_19 
REMARK       I    between atoms: C_22  and  N_20 
ROOT
ATOM      1  C   LIG d   1      -2.693  78.168 115.222  0.00  0.00     0.161 C 
ATOM      2  C   LIG d   1      -2.921  79.268 114.378  0.00  0.00     0.016 C 
ATOM      3  C   LIG d   1      -2.237  79.467 113.157  0.00  0.00     0.038 C 
ATOM      4  C   LIG d   1      -1.380  78.494 112.620  0.00  0.00     0.028 C 
ATOM      5  C   LIG d   1      -0.737  77.603 113.677  0.00  0.00    -0.047 C 
ATOM      6  C   LIG d   1      -1.843  77.040 114.599  0.00  0.00     0.091 C 
ENDROOT
BRANCH   1   7
ATOM      7  O   LIG d   1      -3.950  77.645 115.694  0.00  0.00    -0.368 OA
BRANCH   7   8
ATOM      8  C   LIG d   1      -4.421  78.165 116.962  0.00  0.00     0.119 C 
BRANCH   8   9
ATOM      9  C   LIG d   1      -4.053  77.137 118.049  0.00  0.00     0.028 C 
ATOM     10  C   LIG d   1      -2.940  77.643 118.982  0.00  0.00     0.006 C 
ENDBRANCH   8   9
BRANCH   8  11
ATOM     11  C   LIG d   1      -5.949  78.259 116.993  0.00  0.00     0.028 C 
ATOM     12  C   LIG d   1      -6.453  79.651 117.404  0.00  0.00     0.006 C 
ENDBRANCH   8  11
ENDBRANCH   7   8
ENDBRANCH   1   7
BRANCH   6  13
ATOM     13  N   LIG d   1      -1.292  76.225 115.713  0.00  0.00    -0.311 N 
ATOM     14  C   LIG d   1      -1.821  75.067 116.104  0.00  0.00     0.210 C 
ATOM     15  C   LIG d   1      -1.110  74.398 117.285  0.00  0.00     0.109 C 
ATOM     16  O   LIG d   1      -2.791  74.514 115.565  0.00  0.00    -0.276 OA
ATOM     17  H   LIG d   1      -0.486  76.584 116.185  0.00  0.00     0.149 HD
ENDBRANCH   6  13
BRANCH   5  18
ATOM     18  N   LIG d   1       0.019  76.550 112.973  0.00  0.00     0.381 N 
ATOM     19  H   LIG d   1       0.313  76.886 112.077  0.00  0.00    -0.090 HD
ATOM     20  H   LIG d   1      -0.582  75.758 112.830  0.00  0.00    -0.090 HD
ATOM     21  H   LIG d   1       0.813  76.282 113.512  0.00  0.00    -0.090 HD
ENDBRANCH   5  18
BRANCH   3  22
ATOM     22  C   LIG d   1      -2.376  80.668 112.479  0.00  0.00     0.382 C 
ATOM     23  O   LIG d   1      -3.415  81.356 112.629  0.00  0.00    -0.241 OA
ATOM     24  O   LIG d   1      -1.496  81.052 111.685  0.00  0.00    -0.241 OA
ENDBRANCH   3  22
TORSDOF 7
ENDMDL
MODEL 4
REMARK VINA RESULT:      -5.2      1.974      4.919
REMARK  7 active torsions:
REMARK  status: ('A' for Active; 'I' for Inactive)
REMARK    1  A    between atoms: C_2  and  C_3 
REMARK    2  A    between atoms: C_3  and  O_6 
REMARK    3  A    between atoms: C_3  and  C_4 
REMARK    4  A    between atoms: C_7  and  O_6 
REMARK    5  A    between atoms: C_9  and  C_10 
REMARK    6  A    between atoms: N_15  and  C_14 
REMARK    7  A    between atoms: N_20  and  C_19 
REMARK       I    between atoms: C_22  and  N_20 
ROOT
ATOM      1  C   LIG d   1      -1.854  76.034 115.114  0.00  0.00     0.161 C 
ATOM      2  C   LIG d   1      -1.690  75.327 116.317  0.00  0.00     0.016 C 
ATOM      3  C   LIG d   1      -0.892  75.789 117.388  0.00  0.00     0.038 C 
ATOM      4  C   LIG d   1      -0.320  77.070 117.388  0.00  0.00     0.028 C 
ATOM      5  C   LIG d   1      -0.043  77.609 115.989  0.00  0.00    -0.047 C 
ATOM      6  C   LIG d   1      -1.328  77.484 115.139  0.00  0.00     0.091 C 
ENDROOT
BRANCH   1   7
ATOM      7  O   LIG d   1      -3.240  76.011 114.719  0.00  0.00    -0.368 OA
BRANCH   7   8
ATOM      8  C   LIG d   1      -4.201  75.772 115.776  0.00  0.00     0.119 C 
BRANCH   8   9
ATOM      9  C   LIG d   1      -5.368  74.970 115.169  0.00  0.00     0.028 C 
ATOM     10  C   LIG d   1      -6.694  75.749 115.200  0.00  0.00     0.006 C 
ENDBRANCH   8   9
BRANCH   8  11
ATOM     11  C   LIG d   1      -4.822  77.081 116.271  0.00  0.00     0.028 C 
ATOM     12  C   LIG d   1      -4.336  77.479 117.674  0.00  0.00     0.006 C 
ENDBRANCH   8  11
ENDBRANCH   7   8
ENDBRANCH   1   7
BRANCH   6  13
ATOM     13  N   LIG d   1      -1.120  77.912 113.731  0.00  0.00    -0.311 N 
ATOM     14  C   LIG d   1      -1.926  78.762 113.097  0.00  0.00     0.210 C 
ATOM     15  C   LIG d   1      -1.542  79.054 111.643  0.00  0.00     0.109 C 
ATOM     16  O   LIG d   1      -2.902  79.328 113.611  0.00  0.00    -0.276 OA
ATOM     17  H   LIG d   1      -0.333  77.525 113.249  0.00  0.00     0.149 HD
ENDBRANCH   6  13
BRANCH   5  18
ATOM     18  N   LIG d   1       0.422  79.002 116.133  0.00  0.00     0.381 N 
ATOM     19  H   LIG d   1       1.189  79.168 115.512  0.00  0.00    -0.090 HD
ATOM     20  H   LIG d   1       0.742  79.142 117.075  0.00  0.00    -0.090 HD
ATOM     21  H   LIG d   1      -0.322  79.633 115.929  0.00  0.00    -0.090 HD
ENDBRANCH   5  18
BRANCH   3  22
ATOM     22  C   LIG d   1      -0.626  74.949 118.459  0.00  0.00     0.382 C 
ATOM     23  O   LIG d   1       0.521  74.926 118.968  0.00  0.00    -0.241 OA
ATOM     24  O   LIG d   1      -1.506  74.182 118.894  0.00  0.00    -0.241 OA
ENDBRANCH   3  22
TORSDOF 7
ENDMDL
MODEL 5
REMARK VINA RESULT:      -5.0      2.475      5.076
REMARK  7 active torsions:
REMARK  status: ('A' for Active; 'I' for Inactive)
REMARK    1  A    between atoms: C_2  and  C_3 
REMARK    2  A    between atoms: C_3  and  O_6 
REMARK    3  A    between atoms: C_3  and  C_4 
REMARK    4  A    between atoms: C_7  and  O_6 
REMARK    5  A    between atoms: C_9  and  C_10 
REMARK    6  A    between atoms: N_15  and  C_14 
REMARK    7  A    between atoms: N_20  and  C_19 
REMARK       I    between atoms: C_22  and  N_20 
ROOT
ATOM      1  C   LIG d   1      -2.981  78.048 115.828  0.00  0.00     0.161 C 
ATOM      2  C   LIG d   1      -1.659  78.428 116.113  0.00  0.00     0.016 C 
ATOM      3  C   LIG d   1      -0.724  77.579 116.749  0.00  0.00     0.038 C 
ATOM      4  C   LIG d   1      -1.006  76.229 117.008  0.00  0.00     0.028 C 
ATOM      5  C   LIG d   1      -2.492  75.945 117.196  0.00  0.00    -0.047 C 
ATOM      6  C   LIG d   1      -3.272  76.542 116.002  0.00  0.00     0.091 C 
ENDROOT
BRANCH   1   7
ATOM      7  O   LIG d   1      -3.336  78.476 114.499  0.00  0.00    -0.368 OA
BRANCH   7   8
ATOM      8  C   LIG d   1      -2.233  78.776 113.609  0.00  0.00     0.119 C 
BRANCH   8   9
ATOM      9  C   LIG d   1      -2.609  80.042 112.815  0.00  0.00     0.028 C 
ATOM     10  C   LIG d   1      -1.393  80.689 112.132  0.00  0.00     0.006 C 
ENDBRANCH   8   9
BRANCH   8  11
ATOM     11  C   LIG d   1      -2.050  77.678 112.558  0.00  0.00     0.028 C 
ATOM     12  C   LIG d   1      -0.790  76.831 112.793  0.00  0.00     0.006 C 
ENDBRANCH   8  11
ENDBRANCH   7   8
ENDBRANCH   1   7
BRANCH   6  13
ATOM     13  N   LIG d   1      -4.742  76.383 116.149  0.00  0.00    -0.311 N 
ATOM     14  C   LIG d   1      -5.508  75.776 115.244  0.00  0.00     0.210 C 
ATOM     15  C   LIG d   1      -7.002  75.738 115.582  0.00  0.00     0.109 C 
ATOM     16  O   LIG d   1      -5.088  75.236 114.210  0.00  0.00    -0.276 OA
ATOM     17  H   LIG d   1      -5.162  76.764 116.974  0.00  0.00     0.149 HD
ENDBRANCH   6  13
BRANCH   5  18
ATOM     18  N   LIG d   1      -2.655  74.485 117.321  0.00  0.00     0.381 N 
ATOM     19  H   LIG d   1      -3.191  74.272 118.138  0.00  0.00    -0.090 HD
ATOM     20  H   LIG d   1      -1.748  74.064 117.419  0.00  0.00    -0.090 HD
ATOM     21  H   LIG d   1      -3.111  74.122 116.512  0.00  0.00    -0.090 HD
ENDBRANCH   5  18
BRANCH   3  22
ATOM     22  C   LIG d   1       0.494  78.090 117.169  0.00  0.00     0.382 C 
ATOM     23  O   LIG d   1       0.722  79.320 117.081  0.00  0.00    -0.241 OA
ATOM     24  O   LIG d   1       1.385  77.330 117.593  0.00  0.00    -0.241 OA
ENDBRANCH   3  22
TORSDOF 7
ENDMDL
MODEL 6
REMARK VINA RESULT:      -5.0      2.062      3.184
REMARK  7 active torsions:
REMARK  status: ('A' for Active; 'I' for Inactive)
REMARK    1  A    between atoms: C_2  and  C_3 
REMARK    2  A    between atoms: C_3  and  O_6 
REMARK    3  A    between atoms: C_3  and  C_4 
REMARK    4  A    between atoms: C_7  and  O_6 
REMARK    5  A    between atoms: C_9  and  C_10 
REMARK    6  A    between atoms: N_15  and  C_14 
REMARK    7  A    between atoms: N_20  and  C_19 
REMARK       I    between atoms: C_22  and  N_20 
ROOT
ATOM      1  C   LIG d   1      -1.721  77.857 113.880  0.00  0.00     0.161 C 
ATOM      2  C   LIG d   1      -2.337  79.110 113.722  0.00  0.00     0.016 C 
ATOM      3  C   LIG d   1      -2.186  79.910 112.566  0.00  0.00     0.038 C 
ATOM      4  C   LIG d   1      -1.526  79.442 111.421  0.00  0.00     0.028 C 
ATOM      5  C   LIG d   1      -0.463  78.391 111.721  0.00  0.00    -0.047 C 
ATOM      6  C   LIG d   1      -1.088  77.280 112.597  0.00  0.00     0.091 C 
ENDROOT
BRANCH   1   7
ATOM      7  O   LIG d   1      -2.660  76.918 114.441  0.00  0.00    -0.368 OA
BRANCH   7   8
ATOM      8  C   LIG d   1      -2.495  76.616 115.849  0.00  0.00     0.119 C 
BRANCH   8   9
ATOM      9  C   LIG d   1      -2.174  75.113 115.964  0.00  0.00     0.028 C 
ATOM     10  C   LIG d   1      -0.677  74.850 116.205  0.00  0.00     0.006 C 
ENDBRANCH   8   9
BRANCH   8  11
ATOM     11  C   LIG d   1      -3.805  76.810 116.618  0.00  0.00     0.028 C 
ATOM     12  C   LIG d   1      -3.947  78.223 117.206  0.00  0.00     0.006 C 
ENDBRANCH   8  11
ENDBRANCH   7   8
ENDBRANCH   1   7
BRANCH   6  13
ATOM     13  N   LIG d   1      -0.094  76.255 113.007  0.00  0.00    -0.311 N 
ATOM     14  C   LIG d   1       0.338  75.288 112.199  0.00  0.00     0.210 C 
ATOM     15  C   LIG d   1       1.348  74.323 112.827  0.00  0.00     0.109 C 
ATOM     16  O   LIG d   1       0.005  75.157 111.011  0.00  0.00    -0.276 OA
ATOM     17  H   LIG d   1       0.253  76.305 113.945  0.00  0.00     0.149 HD
ENDBRANCH   6  13
BRANCH   5  18
ATOM     18  N   LIG d   1       0.047  77.891 110.431  0.00  0.00     0.381 N 
ATOM     19  H   LIG d   1      -0.305  78.457 109.685  0.00  0.00    -0.090 HD
ATOM     20  H   LIG d   1      -0.280  76.950 110.294  0.00  0.00    -0.090 HD
ATOM     21  H   LIG d   1       1.043  77.908 110.428  0.00  0.00    -0.090 HD
ENDBRANCH   5  18
BRANCH   3  22
ATOM     22  C   LIG d   1      -2.665  81.211 112.565  0.00  0.00     0.382 C 
ATOM     23  O   LIG d   1      -1.868  82.173 112.446  0.00  0.00    -0.241 OA
ATOM     24  O   LIG d   1      -3.880  81.438 112.725  0.00  0.00    -0.241 OA
ENDBRANCH   3  22
TORSDOF 7
ENDMDL
MODEL 7
REMARK VINA RESULT:      -5.0      2.367      3.301
REMARK  7 active torsions:
REMARK  status: ('A' for Active; 'I' for Inactive)
REMARK    1  A    between atoms: C_2  and  C_3 
REMARK    2  A    between atoms: C_3  and  O_6 
REMARK    3  A    between atoms: C_3  and  C_4 
REMARK    4  A    between atoms: C_7  and  O_6 
REMARK    5  A    between atoms: C_9  and  C_10 
REMARK    6  A    between atoms: N_15  and  C_14 
REMARK    7  A    between atoms: N_20  and  C_19 
REMARK       I    between atoms: C_22  and  N_20 
ROOT
ATOM      1  C   LIG d   1      -1.965  76.650 115.607  0.00  0.00     0.161 C 
ATOM      2  C   LIG d   1      -2.655  77.146 114.488  0.00  0.00     0.016 C 
ATOM      3  C   LIG d   1      -2.090  77.214 113.194  0.00  0.00     0.038 C 
ATOM      4  C   LIG d   1      -0.841  76.648 112.899  0.00  0.00     0.028 C 
ATOM      5  C   LIG d   1       0.097  76.592 114.099  0.00  0.00    -0.047 C 
ATOM      6  C   LIG d   1      -0.642  75.926 115.283  0.00  0.00     0.091 C 
ENDROOT
BRANCH   1   7
ATOM      7  O   LIG d   1      -2.831  75.791 116.375  0.00  0.00    -0.368 OA
BRANCH   7   8
ATOM      8  C   LIG d   1      -3.299  76.322 117.639  0.00  0.00     0.119 C 
BRANCH   8   9
ATOM      9  C   LIG d   1      -2.894  77.808 117.695  0.00  0.00     0.028 C 
ATOM     10  C   LIG d   1      -2.322  78.209 119.065  0.00  0.00     0.006 C 
ENDBRANCH   8   9
BRANCH   8  11
ATOM     11  C   LIG d   1      -2.581  75.662 118.820  0.00  0.00     0.028 C 
ATOM     12  C   LIG d   1      -2.259  74.180 118.569  0.00  0.00     0.006 C 
ENDBRANCH   8  11
ENDBRANCH   7   8
ENDBRANCH   1   7
BRANCH   6  13
ATOM     13  N   LIG d   1       0.177  75.907 116.523  0.00  0.00    -0.311 N 
ATOM     14  C   LIG d   1       0.648  77.007 117.108  0.00  0.00     0.210 C 
ATOM     15  C   LIG d   1       1.485  76.762 118.367  0.00  0.00     0.109 C 
ATOM     16  O   LIG d   1       0.424  78.164 116.722  0.00  0.00    -0.276 OA
ATOM     17  H   LIG d   1       0.379  75.011 116.922  0.00  0.00     0.149 HD
ENDBRANCH   6  13
BRANCH   5  18
ATOM     18  N   LIG d   1       1.307  75.856 113.685  0.00  0.00     0.381 N 
ATOM     19  H   LIG d   1       2.123  76.354 113.979  0.00  0.00    -0.090 HD
ATOM     20  H   LIG d   1       1.321  75.791 112.683  0.00  0.00    -0.090 HD
ATOM     21  H   LIG d   1       1.304  74.943 114.085  0.00  0.00    -0.090 HD
ENDBRANCH   5  18
BRANCH   3  22
ATOM     22  C   LIG d   1      -2.761  77.891 112.187  0.00  0.00     0.382 C 
ATOM     23  O   LIG d   1      -2.292  78.961 111.730  0.00  0.00    -0.241 OA
ATOM     24  O   LIG d   1      -3.853  77.468 111.760  0.00  0.00    -0.241 OA
ENDBRANCH   3  22
TORSDOF 7
ENDMDL
MODEL 8
REMARK VINA RESULT:      -4.9      3.022      5.292
REMARK  7 active torsions:
REMARK  status: ('A' for Active; 'I' for Inactive)
REMARK    1  A    between atoms: C_2  and  C_3 
REMARK    2  A    between atoms: C_3  and  O_6 
REMARK    3  A    between atoms: C_3  and  C_4 
REMARK    4  A    between atoms: C_7  and  O_6 
REMARK    5  A    between atoms: C_9  and  C_10 
REMARK    6  A    between atoms: N_15  and  C_14 
REMARK    7  A    between atoms: N_20  and  C_19 
REMARK       I    between atoms: C_22  and  N_20 
ROOT
ATOM      1  C   LIG d   1      -2.012  77.456 115.324  0.00  0.00     0.161 C 
ATOM      2  C   LIG d   1      -0.883  78.098 115.858  0.00  0.00     0.016 C 
ATOM      3  C   LIG d   1      -0.791  78.517 117.205  0.00  0.00     0.038 C 
ATOM      4  C   LIG d   1      -1.769  78.183 118.154  0.00  0.00     0.028 C 
ATOM      5  C   LIG d   1      -3.154  77.977 117.550  0.00  0.00    -0.047 C 
ATOM      6  C   LIG d   1      -3.044  76.985 116.370  0.00  0.00     0.091 C 
ENDROOT
BRANCH   1   7
ATOM      7  O   LIG d   1      -1.600  76.352 114.494  0.00  0.00    -0.368 OA
BRANCH   7   8
ATOM      8  C   LIG d   1      -0.295  75.791 114.782  0.00  0.00     0.119 C 
BRANCH   8   9
ATOM      9  C   LIG d   1       0.450  75.640 113.442  0.00  0.00     0.028 C 
ATOM     10  C   LIG d   1       0.829  74.180 113.143  0.00  0.00     0.006 C 
ENDBRANCH   8   9
BRANCH   8  11
ATOM     11  C   LIG d   1      -0.410  74.372 115.345  0.00  0.00     0.028 C 
ATOM     12  C   LIG d   1      -0.724  74.350 116.849  0.00  0.00     0.006 C 
ENDBRANCH   8  11
ENDBRANCH   7   8
ENDBRANCH   1   7
BRANCH   6  13
ATOM     13  N   LIG d   1      -4.340  76.792 115.669  0.00  0.00    -0.311 N 
ATOM     14  C   LIG d   1      -4.846  75.594 115.380  0.00  0.00     0.210 C 
ATOM     15  C   LIG d   1      -6.185  75.620 114.636  0.00  0.00     0.109 C 
ATOM     16  O   LIG d   1      -4.330  74.513 115.699  0.00  0.00    -0.276 OA
ATOM     17  H   LIG d   1      -4.841  77.616 115.402  0.00  0.00     0.149 HD
ENDBRANCH   6  13
BRANCH   5  18
ATOM     18  N   LIG d   1      -4.043  77.501 118.626  0.00  0.00     0.381 N 
ATOM     19  H   LIG d   1      -3.814  76.556 118.861  0.00  0.00    -0.090 HD
ATOM     20  H   LIG d   1      -4.992  77.522 118.296  0.00  0.00    -0.090 HD
ATOM     21  H   LIG d   1      -3.950  78.084 119.428  0.00  0.00    -0.090 HD
ENDBRANCH   5  18
BRANCH   3  22
ATOM     22  C   LIG d   1       0.272  79.312 117.607  0.00  0.00     0.382 C 
ATOM     23  O   LIG d   1       0.967  79.908 116.749  0.00  0.00    -0.241 OA
ATOM     24  O   LIG d   1       0.571  79.406 118.812  0.00  0.00    -0.241 OA
ENDBRANCH   3  22
TORSDOF 7
ENDMDL
MODEL 9
REMARK VINA RESULT:      -4.9      1.782      2.411
REMARK  7 active torsions:
REMARK  status: ('A' for Active; 'I' for Inactive)
REMARK    1  A    between atoms: C_2  and  C_3 
REMARK    2  A    between atoms: C_3  and  O_6 
REMARK    3  A    between atoms: C_3  and  C_4 
REMARK    4  A    between atoms: C_7  and  O_6 
REMARK    5  A    between atoms: C_9  and  C_10 
REMARK    6  A    between atoms: N_15  and  C_14 
REMARK    7  A    between atoms: N_20  and  C_19 
REMARK       I    between atoms: C_22  and  N_20 
ROOT
ATOM      1  C   LIG d   1      -2.786  77.550 115.761  0.00  0.00     0.161 C 
ATOM      2  C   LIG d   1      -3.144  77.732 114.415  0.00  0.00     0.016 C 
ATOM      3  C   LIG d   1      -2.253  77.520 113.338  0.00  0.00     0.038 C 
ATOM      4  C   LIG d   1      -0.980  76.962 113.527  0.00  0.00     0.028 C 
ATOM      5  C   LIG d   1      -0.397  77.238 114.909  0.00  0.00    -0.047 C 
ATOM      6  C   LIG d   1      -1.436  76.835 115.980  0.00  0.00     0.091 C 
ENDROOT
BRANCH   1   7
ATOM      7  O   LIG d   1      -3.839  76.855 116.458  0.00  0.00    -0.368 OA
BRANCH   7   8
ATOM      8  C   LIG d   1      -5.147  77.476 116.417  0.00  0.00     0.119 C 
BRANCH   8   9
ATOM      9  C   LIG d   1      -5.415  78.084 117.807  0.00  0.00     0.028 C 
ATOM     10  C   LIG d   1      -6.904  78.042 118.190  0.00  0.00     0.006 C 
ENDBRANCH   8   9
BRANCH   8  11
ATOM     11  C   LIG d   1      -6.252  76.435 116.211  0.00  0.00     0.028 C 
ATOM     12  C   LIG d   1      -6.073  75.624 114.917  0.00  0.00     0.006 C 
ENDBRANCH   8  11
ENDBRANCH   7   8
ENDBRANCH   1   7
BRANCH   6  13
ATOM     13  N   LIG d   1      -0.978  77.150 117.359  0.00  0.00    -0.311 N 
ATOM     14  C   LIG d   1      -0.325  76.283 118.131  0.00  0.00     0.210 C 
ATOM     15  C   LIG d   1       0.036  76.804 119.525  0.00  0.00     0.109 C 
ATOM     16  O   LIG d   1       0.017  75.143 117.782  0.00  0.00    -0.276 OA
ATOM     17  H   LIG d   1      -1.187  78.064 117.711  0.00  0.00     0.149 HD
ENDBRANCH   6  13
BRANCH   5  18
ATOM     18  N   LIG d   1       0.867  76.485 115.017  0.00  0.00     0.381 N 
ATOM     19  H   LIG d   1       1.626  77.049 114.691  0.00  0.00    -0.090 HD
ATOM     20  H   LIG d   1       0.810  75.667 114.436  0.00  0.00    -0.090 HD
ATOM     21  H   LIG d   1       1.025  76.219 115.964  0.00  0.00    -0.090 HD
ENDBRANCH   5  18
BRANCH   3  22
ATOM     22  C   LIG d   1      -2.620  77.905 112.057  0.00  0.00     0.382 C 
ATOM     23  O   LIG d   1      -3.350  77.157 111.362  0.00  0.00    -0.241 OA
ATOM     24  O   LIG d   1      -2.195  78.970 111.572  0.00  0.00    -0.241 OA
ENDBRANCH   3  22
TORSDOF 7
ENDMDL
