MODEL 1
REMARK VINA RESULT:      -4.6      0.000      0.000
REMARK  7 active torsions:
REMARK  status: ('A' for Active; 'I' for Inactive)
REMARK    1  A    between atoms: C_2  and  C_3 
REMARK    2  A    between atoms: C_3  and  O_6 
REMARK    3  A    between atoms: C_3  and  C_4 
REMARK    4  A    between atoms: C_7  and  O_6 
REMARK    5  A    between atoms: C_9  and  C_10 
REMARK    6  A    between atoms: N_15  and  C_14 
REMARK    7  A    between atoms: N_20  and  C_19 
REMARK       I    between atoms: C_22  and  N_20 
ROOT
ATOM      1  C   LIG d   1       1.021  81.691 113.122  0.00  0.00     0.161 C 
ATOM      2  C   LIG d   1       1.801  82.688 112.513  0.00  0.00     0.016 C 
ATOM      3  C   LIG d   1       2.031  82.754 111.119  0.00  0.00     0.038 C 
ATOM      4  C   LIG d   1       1.369  81.907 110.218  0.00  0.00     0.028 C 
ATOM      5  C   LIG d   1       0.969  80.568 110.827  0.00  0.00    -0.047 C 
ATOM      6  C   LIG d   1       0.200  80.825 112.144  0.00  0.00     0.091 C 
ENDROOT
BRANCH   1   7
ATOM      7  O   LIG d   1       0.158  82.282 114.113  0.00  0.00    -0.368 OA
BRANCH   7   8
ATOM      8  C   LIG d   1      -1.062  82.885 113.617  0.00  0.00     0.119 C 
BRANCH   8   9
ATOM      9  C   LIG d   1      -0.991  84.394 113.923  0.00  0.00     0.028 C 
ATOM     10  C   LIG d   1      -0.507  84.680 115.355  0.00  0.00     0.006 C 
ENDBRANCH   8   9
BRANCH   8  11
ATOM     11  C   LIG d   1      -2.287  82.373 114.381  0.00  0.00     0.028 C 
ATOM     12  C   LIG d   1      -1.928  81.330 115.451  0.00  0.00     0.006 C 
ENDBRANCH   8  11
ENDBRANCH   7   8
ENDBRANCH   1   7
BRANCH   6  13
ATOM     13  N   LIG d   1      -0.155  79.565 112.848  0.00  0.00    -0.311 N 
ATOM     14  C   LIG d   1      -1.329  78.952 112.706  0.00  0.00     0.210 C 
ATOM     15  C   LIG d   1      -1.497  77.677 113.538  0.00  0.00     0.109 C 
ATOM     16  O   LIG d   1      -2.234  79.325 111.945  0.00  0.00    -0.276 OA
ATOM     17  H   LIG d   1       0.534  79.176 113.461  0.00  0.00     0.149 HD
ENDBRANCH   6  13
BRANCH   5  18
ATOM     18  N   LIG d   1       0.168  79.842 109.823  0.00  0.00     0.381 N 
ATOM     19  H   LIG d   1       0.756  79.221 109.305  0.00  0.00    -0.090 HD
ATOM     20  H   LIG d   1      -0.230  80.507 109.182  0.00  0.00    -0.090 HD
ATOM     21  H   LIG d   1      -0.557  79.328 110.271  0.00  0.00    -0.090 HD
ENDBRANCH   5  18
BRANCH   3  22
ATOM     22  C   LIG d   1       2.964  83.648 110.618  0.00  0.00     0.382 C 
ATOM     23  O   LIG d   1       3.410  84.565 111.350  0.00  0.00    -0.241 OA
ATOM     24  O   LIG d   1       3.333  83.578 109.430  0.00  0.00    -0.241 OA
ENDBRANCH   3  22
TORSDOF 7
ENDMDL
MODEL 2
REMARK VINA RESULT:      -4.5      2.404      5.949
REMARK  7 active torsions:
REMARK  status: ('A' for Active; 'I' for Inactive)
REMARK    1  A    between atoms: C_2  and  C_3 
REMARK    2  A    between atoms: C_3  and  O_6 
REMARK    3  A    between atoms: C_3  and  C_4 
REMARK    4  A    between atoms: C_7  and  O_6 
REMARK    5  A    between atoms: C_9  and  C_10 
REMARK    6  A    between atoms: N_15  and  C_14 
REMARK    7  A    between atoms: N_20  and  C_19 
REMARK       I    between atoms: C_22  and  N_20 
ROOT
ATOM      1  C   LIG d   1      -0.304  80.704 112.407  0.00  0.00     0.161 C 
ATOM      2  C   LIG d   1      -0.934  79.467 112.195  0.00  0.00     0.016 C 
ATOM      3  C   LIG d   1      -1.862  78.901 113.100  0.00  0.00     0.038 C 
ATOM      4  C   LIG d   1      -2.338  79.610 114.213  0.00  0.00     0.028 C 
ATOM      5  C   LIG d   1      -1.354  80.651 114.736  0.00  0.00    -0.047 C 
ATOM      6  C   LIG d   1      -0.895  81.543 113.560  0.00  0.00     0.091 C 
ENDROOT
BRANCH   1   7
ATOM      7  O   LIG d   1      -0.301  81.467 111.184  0.00  0.00    -0.368 OA
BRANCH   7   8
ATOM      8  C   LIG d   1       1.001  81.836 110.666  0.00  0.00     0.119 C 
BRANCH   8   9
ATOM      9  C   LIG d   1       0.905  83.291 110.168  0.00  0.00     0.028 C 
ATOM     10  C   LIG d   1       2.255  84.025 110.236  0.00  0.00     0.006 C 
ENDBRANCH   8   9
BRANCH   8  11
ATOM     11  C   LIG d   1       1.365  81.007 109.431  0.00  0.00     0.028 C 
ATOM     12  C   LIG d   1       2.556  80.067 109.674  0.00  0.00     0.006 C 
ENDBRANCH   8  11
ENDBRANCH   7   8
ENDBRANCH   1   7
BRANCH   6  13
ATOM     13  N   LIG d   1       0.134  82.534 113.968  0.00  0.00    -0.311 N 
ATOM     14  C   LIG d   1       0.044  83.836 113.703  0.00  0.00     0.210 C 
ATOM     15  C   LIG d   1       1.224  84.680 114.196  0.00  0.00     0.109 C 
ATOM     16  O   LIG d   1      -0.916  84.377 113.134  0.00  0.00    -0.276 OA
ATOM     17  H   LIG d   1       0.933  82.186 114.462  0.00  0.00     0.149 HD
ENDBRANCH   6  13
BRANCH   5  18
ATOM     18  N   LIG d   1      -2.031  81.407 115.806  0.00  0.00     0.381 N 
ATOM     19  H   LIG d   1      -2.995  81.537 115.571  0.00  0.00    -0.090 HD
ATOM     20  H   LIG d   1      -1.602  82.312 115.885  0.00  0.00    -0.090 HD
ATOM     21  H   LIG d   1      -1.955  80.918 116.670  0.00  0.00    -0.090 HD
ENDBRANCH   5  18
BRANCH   3  22
ATOM     22  C   LIG d   1      -2.292  77.596 112.917  0.00  0.00     0.382 C 
ATOM     23  O   LIG d   1      -3.429  77.372 112.436  0.00  0.00    -0.241 OA
ATOM     24  O   LIG d   1      -1.575  76.640 113.268  0.00  0.00    -0.241 OA
ENDBRANCH   3  22
TORSDOF 7
ENDMDL
MODEL 3
REMARK VINA RESULT:      -4.5      2.166      5.320
REMARK  7 active torsions:
REMARK  status: ('A' for Active; 'I' for Inactive)
REMARK    1  A    between atoms: C_2  and  C_3 
REMARK    2  A    between atoms: C_3  and  O_6 
REMARK    3  A    between atoms: C_3  and  C_4 
REMARK    4  A    between atoms: C_7  and  O_6 
REMARK    5  A    between atoms: C_9  and  C_10 
REMARK    6  A    between atoms: N_15  and  C_14 
REMARK    7  A    between atoms: N_20  and  C_19 
REMARK       I    between atoms: C_22  and  N_20 
ROOT
ATOM      1  C   LIG d   1      -2.107  80.972 113.961  0.00  0.00     0.161 C 
ATOM      2  C   LIG d   1      -2.504  79.740 114.507  0.00  0.00     0.016 C 
ATOM      3  C   LIG d   1      -2.184  78.492 113.926  0.00  0.00     0.038 C 
ATOM      4  C   LIG d   1      -1.310  78.385 112.834  0.00  0.00     0.028 C 
ATOM      5  C   LIG d   1      -1.293  79.626 111.948  0.00  0.00    -0.047 C 
ATOM      6  C   LIG d   1      -1.060  80.872 112.832  0.00  0.00     0.091 C 
ENDROOT
BRANCH   1   7
ATOM      7  O   LIG d   1      -1.632  81.841 115.009  0.00  0.00    -0.368 OA
BRANCH   7   8
ATOM      8  C   LIG d   1      -2.554  82.866 115.453  0.00  0.00     0.119 C 
BRANCH   8   9
ATOM      9  C   LIG d   1      -1.888  84.232 115.195  0.00  0.00     0.028 C 
ATOM     10  C   LIG d   1      -0.358  84.125 115.077  0.00  0.00     0.006 C 
ENDBRANCH   8   9
BRANCH   8  11
ATOM     11  C   LIG d   1      -2.773  82.802 116.968  0.00  0.00     0.028 C 
ATOM     12  C   LIG d   1      -4.065  82.066 117.353  0.00  0.00     0.006 C 
ENDBRANCH   8  11
ENDBRANCH   7   8
ENDBRANCH   1   7
BRANCH   6  13
ATOM     13  N   LIG d   1      -1.114  82.137 112.055  0.00  0.00    -0.311 N 
ATOM     14  C   LIG d   1      -0.033  82.745 111.569  0.00  0.00     0.210 C 
ATOM     15  C   LIG d   1      -0.310  84.050 110.814  0.00  0.00     0.109 C 
ATOM     16  O   LIG d   1       1.125  82.312 111.663  0.00  0.00    -0.276 OA
ATOM     17  H   LIG d   1      -2.017  82.542 111.905  0.00  0.00     0.149 HD
ENDBRANCH   6  13
BRANCH   5  18
ATOM     18  N   LIG d   1      -0.242  79.434 110.931  0.00  0.00     0.381 N 
ATOM     19  H   LIG d   1       0.355  78.677 111.200  0.00  0.00    -0.090 HD
ATOM     20  H   LIG d   1       0.313  80.269 110.875  0.00  0.00    -0.090 HD
ATOM     21  H   LIG d   1      -0.656  79.241 110.045  0.00  0.00    -0.090 HD
ENDBRANCH   5  18
BRANCH   3  22
ATOM     22  C   LIG d   1      -2.772  77.335 114.414  0.00  0.00     0.382 C 
ATOM     23  O   LIG d   1      -2.377  76.214 114.013  0.00  0.00    -0.241 OA
ATOM     24  O   LIG d   1      -3.722  77.400 115.217  0.00  0.00    -0.241 OA
ENDBRANCH   3  22
TORSDOF 7
ENDMDL
MODEL 4
REMARK VINA RESULT:      -4.5      3.144      5.016
REMARK  7 active torsions:
REMARK  status: ('A' for Active; 'I' for Inactive)
REMARK    1  A    between atoms: C_2  and  C_3 
REMARK    2  A    between atoms: C_3  and  O_6 
REMARK    3  A    between atoms: C_3  and  C_4 
REMARK    4  A    between atoms: C_7  and  O_6 
REMARK    5  A    between atoms: C_9  and  C_10 
REMARK    6  A    between atoms: N_15  and  C_14 
REMARK    7  A    between atoms: N_20  and  C_19 
REMARK       I    between atoms: C_22  and  N_20 
ROOT
ATOM      1  C   LIG d   1      -2.484  79.723 115.246  0.00  0.00     0.161 C 
ATOM      2  C   LIG d   1      -2.346  80.942 114.562  0.00  0.00     0.016 C 
ATOM      3  C   LIG d   1      -1.789  81.049 113.267  0.00  0.00     0.038 C 
ATOM      4  C   LIG d   1      -1.467  79.917 112.502  0.00  0.00     0.028 C 
ATOM      5  C   LIG d   1      -1.120  78.695 113.345  0.00  0.00    -0.047 C 
ATOM      6  C   LIG d   1      -2.242  78.466 114.384  0.00  0.00     0.091 C 
ENDROOT
BRANCH   1   7
ATOM      7  O   LIG d   1      -3.780  79.658 115.873  0.00  0.00    -0.368 OA
BRANCH   7   8
ATOM      8  C   LIG d   1      -3.801  79.818 117.312  0.00  0.00     0.119 C 
BRANCH   8   9
ATOM      9  C   LIG d   1      -4.351  78.512 117.916  0.00  0.00     0.028 C 
ATOM     10  C   LIG d   1      -5.185  77.704 116.907  0.00  0.00     0.006 C 
ENDBRANCH   8   9
BRANCH   8  11
ATOM     11  C   LIG d   1      -4.789  80.909 117.738  0.00  0.00     0.028 C 
ATOM     12  C   LIG d   1      -4.203  82.324 117.612  0.00  0.00     0.006 C 
ENDBRANCH   8  11
ENDBRANCH   7   8
ENDBRANCH   1   7
BRANCH   6  13
ATOM     13  N   LIG d   1      -1.940  77.340 115.305  0.00  0.00    -0.311 N 
ATOM     14  C   LIG d   1      -2.360  76.092 115.101  0.00  0.00     0.210 C 
ATOM     15  C   LIG d   1      -1.955  75.088 116.184  0.00  0.00     0.109 C 
ATOM     16  O   LIG d   1      -3.003  75.716 114.109  0.00  0.00    -0.276 OA
ATOM     17  H   LIG d   1      -1.397  77.550 116.120  0.00  0.00     0.149 HD
ENDBRANCH   6  13
BRANCH   5  18
ATOM     18  N   LIG d   1      -0.941  77.555 112.426  0.00  0.00     0.381 N 
ATOM     19  H   LIG d   1      -1.749  76.966 112.456  0.00  0.00    -0.090 HD
ATOM     20  H   LIG d   1      -0.147  77.017 112.726  0.00  0.00    -0.090 HD
ATOM     21  H   LIG d   1      -0.797  77.886 111.497  0.00  0.00    -0.090 HD
ENDBRANCH   5  18
BRANCH   3  22
ATOM     22  C   LIG d   1      -1.510  82.300 112.740  0.00  0.00     0.382 C 
ATOM     23  O   LIG d   1      -1.106  82.407 111.557  0.00  0.00    -0.241 OA
ATOM     24  O   LIG d   1      -1.615  83.321 113.446  0.00  0.00    -0.241 OA
ENDBRANCH   3  22
TORSDOF 7
ENDMDL
MODEL 5
REMARK VINA RESULT:      -4.3      2.394      3.570
REMARK  7 active torsions:
REMARK  status: ('A' for Active; 'I' for Inactive)
REMARK    1  A    between atoms: C_2  and  C_3 
REMARK    2  A    between atoms: C_3  and  O_6 
REMARK    3  A    between atoms: C_3  and  C_4 
REMARK    4  A    between atoms: C_7  and  O_6 
REMARK    5  A    between atoms: C_9  and  C_10 
REMARK    6  A    between atoms: N_15  and  C_14 
REMARK    7  A    between atoms: N_20  and  C_19 
REMARK       I    between atoms: C_22  and  N_20 
ROOT
ATOM      1  C   LIG d   1      -1.620  80.617 114.269  0.00  0.00     0.161 C 
ATOM      2  C   LIG d   1      -1.638  81.992 113.980  0.00  0.00     0.016 C 
ATOM      3  C   LIG d   1      -1.110  82.545 112.790  0.00  0.00     0.038 C 
ATOM      4  C   LIG d   1      -0.660  81.738 111.734  0.00  0.00     0.028 C 
ATOM      5  C   LIG d   1      -0.158  80.372 112.187  0.00  0.00    -0.047 C 
ATOM      6  C   LIG d   1      -1.234  79.712 113.080  0.00  0.00     0.091 C 
ENDROOT
BRANCH   1   7
ATOM      7  O   LIG d   1      -2.892  80.215 114.812  0.00  0.00    -0.368 OA
BRANCH   7   8
ATOM      8  C   LIG d   1      -2.866  79.651 116.146  0.00  0.00     0.119 C 
BRANCH   8   9
ATOM      9  C   LIG d   1      -3.897  80.420 116.995  0.00  0.00     0.028 C 
ATOM     10  C   LIG d   1      -3.461  81.867 117.279  0.00  0.00     0.006 C 
ENDBRANCH   8   9
BRANCH   8  11
ATOM     11  C   LIG d   1      -1.516  79.895 116.828  0.00  0.00     0.028 C 
ATOM     12  C   LIG d   1      -0.842  78.596 117.297  0.00  0.00     0.006 C 
ENDBRANCH   8  11
ENDBRANCH   7   8
ENDBRANCH   1   7
BRANCH   6  13
ATOM     13  N   LIG d   1      -0.788  78.407 113.635  0.00  0.00    -0.311 N 
ATOM     14  C   LIG d   1      -1.457  77.269 113.459  0.00  0.00     0.210 C 
ATOM     15  C   LIG d   1      -0.834  76.042 114.132  0.00  0.00     0.109 C 
ATOM     16  O   LIG d   1      -2.490  77.153 112.783  0.00  0.00    -0.276 OA
ATOM     17  H   LIG d   1       0.058  78.405 114.171  0.00  0.00     0.149 HD
ENDBRANCH   6  13
BRANCH   5  18
ATOM     18  N   LIG d   1       0.150  79.586 110.977  0.00  0.00     0.381 N 
ATOM     19  H   LIG d   1       0.864  78.916 111.181  0.00  0.00    -0.090 HD
ATOM     20  H   LIG d   1       0.493  80.207 110.265  0.00  0.00    -0.090 HD
ATOM     21  H   LIG d   1      -0.670  79.121 110.655  0.00  0.00    -0.090 HD
ENDBRANCH   5  18
BRANCH   3  22
ATOM     22  C   LIG d   1      -0.991  83.921 112.665  0.00  0.00     0.382 C 
ATOM     23  O   LIG d   1      -0.409  84.412 111.669  0.00  0.00    -0.241 OA
ATOM     24  O   LIG d   1      -1.421  84.675 113.558  0.00  0.00    -0.241 OA
ENDBRANCH   3  22
TORSDOF 7
ENDMDL
MODEL 6
REMARK VINA RESULT:      -4.2      2.207      5.521
REMARK  7 active torsions:
REMARK  status: ('A' for Active; 'I' for Inactive)
REMARK    1  A    between atoms: C_2  and  C_3 
REMARK    2  A    between atoms: C_3  and  O_6 
REMARK    3  A    between atoms: C_3  and  C_4 
REMARK    4  A    between atoms: C_7  and  O_6 
REMARK    5  A    between atoms: C_9  and  C_10 
REMARK    6  A    between atoms: N_15  and  C_14 
REMARK    7  A    between atoms: N_20  and  C_19 
REMARK       I    between atoms: C_22  and  N_20 
ROOT
ATOM      1  C   LIG d   1      -2.074  81.013 113.972  0.00  0.00     0.161 C 
ATOM      2  C   LIG d   1      -2.475  79.790 114.536  0.00  0.00     0.016 C 
ATOM      3  C   LIG d   1      -2.161  78.533 113.971  0.00  0.00     0.038 C 
ATOM      4  C   LIG d   1      -1.291  78.407 112.878  0.00  0.00     0.028 C 
ATOM      5  C   LIG d   1      -1.273  79.636 111.974  0.00  0.00    -0.047 C 
ATOM      6  C   LIG d   1      -1.031  80.893 112.841  0.00  0.00     0.091 C 
ENDROOT
BRANCH   1   7
ATOM      7  O   LIG d   1      -1.593  81.894 115.006  0.00  0.00    -0.368 OA
BRANCH   7   8
ATOM      8  C   LIG d   1      -0.168  81.854 115.265  0.00  0.00     0.119 C 
BRANCH   8   9
ATOM      9  C   LIG d   1       0.031  81.265 116.674  0.00  0.00     0.028 C 
ATOM     10  C   LIG d   1       0.617  79.843 116.638  0.00  0.00     0.006 C 
ENDBRANCH   8   9
BRANCH   8  11
ATOM     11  C   LIG d   1       0.426  83.265 115.328  0.00  0.00     0.028 C 
ATOM     12  C   LIG d   1      -0.592  84.357 114.964  0.00  0.00     0.006 C 
ENDBRANCH   8  11
ENDBRANCH   7   8
ENDBRANCH   1   7
BRANCH   6  13
ATOM     13  N   LIG d   1      -1.082  82.148 112.047  0.00  0.00    -0.311 N 
ATOM     14  C   LIG d   1       0.001  82.759 111.572  0.00  0.00     0.210 C 
ATOM     15  C   LIG d   1      -0.273  84.051 110.796  0.00  0.00     0.109 C 
ATOM     16  O   LIG d   1       1.161  82.338 111.693  0.00  0.00    -0.276 OA
ATOM     17  H   LIG d   1      -1.986  82.542 111.875  0.00  0.00     0.149 HD
ENDBRANCH   6  13
BRANCH   5  18
ATOM     18  N   LIG d   1      -0.225  79.425 110.957  0.00  0.00     0.381 N 
ATOM     19  H   LIG d   1       0.229  78.548 111.115  0.00  0.00    -0.090 HD
ATOM     20  H   LIG d   1       0.460  80.155 111.040  0.00  0.00    -0.090 HD
ATOM     21  H   LIG d   1      -0.628  79.439 110.046  0.00  0.00    -0.090 HD
ENDBRANCH   5  18
BRANCH   3  22
ATOM     22  C   LIG d   1      -2.753  77.385 114.477  0.00  0.00     0.382 C 
ATOM     23  O   LIG d   1      -2.365  76.257 114.088  0.00  0.00    -0.241 OA
ATOM     24  O   LIG d   1      -3.699  77.465 115.283  0.00  0.00    -0.241 OA
ENDBRANCH   3  22
TORSDOF 7
ENDMDL
MODEL 7
REMARK VINA RESULT:      -4.1      3.535      5.182
REMARK  7 active torsions:
REMARK  status: ('A' for Active; 'I' for Inactive)
REMARK    1  A    between atoms: C_2  and  C_3 
REMARK    2  A    between atoms: C_3  and  O_6 
REMARK    3  A    between atoms: C_3  and  C_4 
REMARK    4  A    between atoms: C_7  and  O_6 
REMARK    5  A    between atoms: C_9  and  C_10 
REMARK    6  A    between atoms: N_15  and  C_14 
REMARK    7  A    between atoms: N_20  and  C_19 
REMARK       I    between atoms: C_22  and  N_20 
ROOT
ATOM      1  C   LIG d   1      -1.345  79.395 115.668  0.00  0.00     0.161 C 
ATOM      2  C   LIG d   1      -1.842  80.701 115.523  0.00  0.00     0.016 C 
ATOM      3  C   LIG d   1      -2.069  81.312 114.268  0.00  0.00     0.038 C 
ATOM      4  C   LIG d   1      -1.956  80.599 113.065  0.00  0.00     0.028 C 
ATOM      5  C   LIG d   1      -0.973  79.436 113.140  0.00  0.00    -0.047 C 
ATOM      6  C   LIG d   1      -1.321  78.564 114.368  0.00  0.00     0.091 C 
ENDROOT
BRANCH   1   7
ATOM      7  O   LIG d   1      -2.084  78.702 116.692  0.00  0.00    -0.368 OA
BRANCH   7   8
ATOM      8  C   LIG d   1      -3.511  78.576 116.474  0.00  0.00     0.119 C 
BRANCH   8   9
ATOM      9  C   LIG d   1      -4.222  79.136 117.721  0.00  0.00     0.028 C 
ATOM     10  C   LIG d   1      -4.934  80.470 117.442  0.00  0.00     0.006 C 
ENDBRANCH   8   9
BRANCH   8  11
ATOM     11  C   LIG d   1      -3.935  77.106 116.392  0.00  0.00     0.028 C 
ATOM     12  C   LIG d   1      -5.461  76.927 116.367  0.00  0.00     0.006 C 
ENDBRANCH   8  11
ENDBRANCH   7   8
ENDBRANCH   1   7
BRANCH   6  13
ATOM     13  N   LIG d   1      -0.356  77.450 114.564  0.00  0.00    -0.311 N 
ATOM     14  C   LIG d   1      -0.681  76.166 114.425  0.00  0.00     0.210 C 
ATOM     15  C   LIG d   1       0.460  75.179 114.692  0.00  0.00     0.109 C 
ATOM     16  O   LIG d   1      -1.796  75.752 114.074  0.00  0.00    -0.276 OA
ATOM     17  H   LIG d   1       0.580  77.698 114.820  0.00  0.00     0.149 HD
ENDBRANCH   6  13
BRANCH   5  18
ATOM     18  N   LIG d   1      -1.056  78.699 111.865  0.00  0.00     0.381 N 
ATOM     19  H   LIG d   1      -1.288  77.742 112.042  0.00  0.00    -0.090 HD
ATOM     20  H   LIG d   1      -0.159  78.728 111.413  0.00  0.00    -0.090 HD
ATOM     21  H   LIG d   1      -1.747  79.112 111.277  0.00  0.00    -0.090 HD
ENDBRANCH   5  18
BRANCH   3  22
ATOM     22  C   LIG d   1      -2.376  82.663 114.207  0.00  0.00     0.382 C 
ATOM     23  O   LIG d   1      -1.600  83.456 113.621  0.00  0.00    -0.241 OA
ATOM     24  O   LIG d   1      -3.396  83.105 114.769  0.00  0.00    -0.241 OA
ENDBRANCH   3  22
TORSDOF 7
ENDMDL
MODEL 8
REMARK VINA RESULT:      -3.9      5.074      7.257
REMARK  7 active torsions:
REMARK  status: ('A' for Active; 'I' for Inactive)
REMARK    1  A    between atoms: C_2  and  C_3 
REMARK    2  A    between atoms: C_3  and  O_6 
REMARK    3  A    between atoms: C_3  and  C_4 
REMARK    4  A    between atoms: C_7  and  O_6 
REMARK    5  A    between atoms: C_9  and  C_10 
REMARK    6  A    between atoms: N_15  and  C_14 
REMARK    7  A    between atoms: N_20  and  C_19 
REMARK       I    between atoms: C_22  and  N_20 
ROOT
ATOM      1  C   LIG d   1      -2.957  78.158 116.082  0.00  0.00     0.161 C 
ATOM      2  C   LIG d   1      -3.641  79.307 116.513  0.00  0.00     0.016 C 
ATOM      3  C   LIG d   1      -3.101  80.611 116.431  0.00  0.00     0.038 C 
ATOM      4  C   LIG d   1      -1.893  80.873 115.768  0.00  0.00     0.028 C 
ATOM      5  C   LIG d   1      -0.934  79.687 115.765  0.00  0.00    -0.047 C 
ATOM      6  C   LIG d   1      -1.685  78.436 115.254  0.00  0.00     0.091 C 
ENDROOT
BRANCH   1   7
ATOM      7  O   LIG d   1      -3.855  77.301 115.348  0.00  0.00    -0.368 OA
BRANCH   7   8
ATOM      8  C   LIG d   1      -4.448  76.211 116.095  0.00  0.00     0.119 C 
BRANCH   8   9
ATOM      9  C   LIG d   1      -3.549  74.974 115.901  0.00  0.00     0.028 C 
ATOM     10  C   LIG d   1      -2.738  74.635 117.163  0.00  0.00     0.006 C 
ENDBRANCH   8   9
BRANCH   8  11
ATOM     11  C   LIG d   1      -5.811  75.817 115.518  0.00  0.00     0.028 C 
ATOM     12  C   LIG d   1      -5.944  74.303 115.286  0.00  0.00     0.006 C 
ENDBRANCH   8  11
ENDBRANCH   7   8
ENDBRANCH   1   7
BRANCH   6  13
ATOM     13  N   LIG d   1      -0.843  77.212 115.299  0.00  0.00    -0.311 N 
ATOM     14  C   LIG d   1      -0.653  76.413 114.251  0.00  0.00     0.210 C 
ATOM     15  C   LIG d   1       0.234  75.194 114.519  0.00  0.00     0.109 C 
ATOM     16  O   LIG d   1      -1.110  76.616 113.116  0.00  0.00    -0.276 OA
ATOM     17  H   LIG d   1      -0.409  76.989 116.174  0.00  0.00     0.149 HD
ENDBRANCH   6  13
BRANCH   5  18
ATOM     18  N   LIG d   1       0.222  80.051 114.925  0.00  0.00     0.381 N 
ATOM     19  H   LIG d   1       0.855  79.278 114.866  0.00  0.00    -0.090 HD
ATOM     20  H   LIG d   1       0.705  80.821 115.352  0.00  0.00    -0.090 HD
ATOM     21  H   LIG d   1      -0.086  80.307 114.013  0.00  0.00    -0.090 HD
ENDBRANCH   5  18
BRANCH   3  22
ATOM     22  C   LIG d   1      -3.754  81.665 117.051  0.00  0.00     0.382 C 
ATOM     23  O   LIG d   1      -3.114  82.451 117.791  0.00  0.00    -0.241 OA
ATOM     24  O   LIG d   1      -4.983  81.815 116.916  0.00  0.00    -0.241 OA
ENDBRANCH   3  22
TORSDOF 7
ENDMDL
MODEL 9
REMARK VINA RESULT:      -3.9      3.657      5.202
REMARK  7 active torsions:
REMARK  status: ('A' for Active; 'I' for Inactive)
REMARK    1  A    between atoms: C_2  and  C_3 
REMARK    2  A    between atoms: C_3  and  O_6 
REMARK    3  A    between atoms: C_3  and  C_4 
REMARK    4  A    between atoms: C_7  and  O_6 
REMARK    5  A    between atoms: C_9  and  C_10 
REMARK    6  A    between atoms: N_15  and  C_14 
REMARK    7  A    between atoms: N_20  and  C_19 
REMARK       I    between atoms: C_22  and  N_20 
ROOT
ATOM      1  C   LIG d   1      -0.544  79.430 115.265  0.00  0.00     0.161 C 
ATOM      2  C   LIG d   1      -1.049  80.716 115.010  0.00  0.00     0.016 C 
ATOM      3  C   LIG d   1      -1.909  81.015 113.928  0.00  0.00     0.038 C 
ATOM      4  C   LIG d   1      -2.447  80.011 113.110  0.00  0.00     0.028 C 
ATOM      5  C   LIG d   1      -1.569  78.768 113.019  0.00  0.00    -0.047 C 
ATOM      6  C   LIG d   1      -1.209  78.302 114.449  0.00  0.00     0.091 C 
ENDROOT
BRANCH   1   7
ATOM      7  O   LIG d   1      -0.626  79.143 116.675  0.00  0.00    -0.368 OA
BRANCH   7   8
ATOM      8  C   LIG d   1       0.636  79.040 117.378  0.00  0.00     0.119 C 
BRANCH   8   9
ATOM      9  C   LIG d   1       0.664  77.668 118.080  0.00  0.00     0.028 C 
ATOM     10  C   LIG d   1      -0.708  76.975 118.067  0.00  0.00     0.006 C 
ENDBRANCH   8   9
BRANCH   8  11
ATOM     11  C   LIG d   1       0.733  80.074 118.504  0.00  0.00     0.028 C 
ATOM     12  C   LIG d   1       1.509  81.334 118.090  0.00  0.00     0.006 C 
ENDBRANCH   8  11
ENDBRANCH   7   8
ENDBRANCH   1   7
BRANCH   6  13
ATOM     13  N   LIG d   1      -0.283  77.140 114.450  0.00  0.00    -0.311 N 
ATOM     14  C   LIG d   1      -0.694  75.874 114.503  0.00  0.00     0.210 C 
ATOM     15  C   LIG d   1       0.427  74.830 114.514  0.00  0.00     0.109 C 
ATOM     16  O   LIG d   1      -1.881  75.516 114.510  0.00  0.00    -0.276 OA
ATOM     17  H   LIG d   1       0.698  77.338 114.415  0.00  0.00     0.149 HD
ENDBRANCH   6  13
BRANCH   5  18
ATOM     18  N   LIG d   1      -2.312  77.752 112.250  0.00  0.00     0.381 N 
ATOM     19  H   LIG d   1      -2.808  78.191 111.500  0.00  0.00    -0.090 HD
ATOM     20  H   LIG d   1      -2.981  77.311 112.855  0.00  0.00    -0.090 HD
ATOM     21  H   LIG d   1      -1.682  77.071 111.887  0.00  0.00    -0.090 HD
ENDBRANCH   5  18
BRANCH   3  22
ATOM     22  C   LIG d   1      -2.206  82.337 113.632  0.00  0.00     0.382 C 
ATOM     23  O   LIG d   1      -3.060  82.955 114.312  0.00  0.00    -0.241 OA
ATOM     24  O   LIG d   1      -1.664  82.905 112.665  0.00  0.00    -0.241 OA
ENDBRANCH   3  22
TORSDOF 7
ENDMDL
