MODEL 1
REMARK VINA RESULT:      -5.5      0.000      0.000
REMARK  7 active torsions:
REMARK  status: ('A' for Active; 'I' for Inactive)
REMARK    1  A    between atoms: C_2  and  C_3 
REMARK    2  A    between atoms: C_3  and  O_6 
REMARK    3  A    between atoms: C_3  and  C_4 
REMARK    4  A    between atoms: C_7  and  O_6 
REMARK    5  A    between atoms: C_9  and  C_10 
REMARK    6  A    between atoms: N_15  and  C_14 
REMARK    7  A    between atoms: N_20  and  C_19 
REMARK       I    between atoms: C_22  and  N_20 
ROOT
ATOM      1  C   LIG d   1      -3.072  78.323 115.657  0.00  0.00     0.161 C 
ATOM      2  C   LIG d   1      -3.205  79.367 114.727  0.00  0.00     0.016 C 
ATOM      3  C   LIG d   1      -2.469  79.434 113.521  0.00  0.00     0.038 C 
ATOM      4  C   LIG d   1      -1.655  78.377 113.090  0.00  0.00     0.028 C 
ATOM      5  C   LIG d   1      -1.103  77.532 114.234  0.00  0.00    -0.047 C 
ATOM      6  C   LIG d   1      -2.271  77.105 115.151  0.00  0.00     0.091 C 
ENDROOT
BRANCH   1   7
ATOM      7  O   LIG d   1      -4.374  77.910 116.118  0.00  0.00    -0.368 OA
BRANCH   7   8
ATOM      8  C   LIG d   1      -4.735  78.323 117.459  0.00  0.00     0.119 C 
BRANCH   8   9
ATOM      9  C   LIG d   1      -4.790  77.055 118.334  0.00  0.00     0.028 C 
ATOM     10  C   LIG d   1      -3.656  77.010 119.372  0.00  0.00     0.006 C 
ENDBRANCH   8   9
BRANCH   8  11
ATOM     11  C   LIG d   1      -6.151  78.905 117.500  0.00  0.00     0.028 C 
ATOM     12  C   LIG d   1      -6.165  80.422 117.743  0.00  0.00     0.006 C 
ENDBRANCH   8  11
ENDBRANCH   7   8
ENDBRANCH   1   7
BRANCH   6  13
ATOM     13  N   LIG d   1      -1.808  76.346 116.342  0.00  0.00    -0.311 N 
ATOM     14  C   LIG d   1      -1.720  75.017 116.376  0.00  0.00     0.210 C 
ATOM     15  C   LIG d   1      -1.238  74.435 117.708  0.00  0.00     0.109 C 
ATOM     16  O   LIG d   1      -1.964  74.268 115.418  0.00  0.00    -0.276 OA
ATOM     17  H   LIG d   1      -1.560  76.877 117.154  0.00  0.00     0.149 HD
ENDBRANCH   6  13
BRANCH   5  18
ATOM     18  N   LIG d   1      -0.387  76.388 113.638  0.00  0.00     0.381 N 
ATOM     19  H   LIG d   1      -1.042  75.767 113.206  0.00  0.00    -0.090 HD
ATOM     20  H   LIG d   1       0.089  75.887 114.367  0.00  0.00    -0.090 HD
ATOM     21  H   LIG d   1       0.270  76.711 112.962  0.00  0.00    -0.090 HD
ENDBRANCH   5  18
BRANCH   3  22
ATOM     22  C   LIG d   1      -2.514  80.587 112.752  0.00  0.00     0.382 C 
ATOM     23  O   LIG d   1      -1.617  80.809 111.903  0.00  0.00    -0.241 OA
ATOM     24  O   LIG d   1      -3.414  81.430 112.928  0.00  0.00    -0.241 OA
ENDBRANCH   3  22
TORSDOF 7
ENDMDL
MODEL 2
REMARK VINA RESULT:      -5.4      1.332      2.084
REMARK  7 active torsions:
REMARK  status: ('A' for Active; 'I' for Inactive)
REMARK    1  A    between atoms: C_2  and  C_3 
REMARK    2  A    between atoms: C_3  and  O_6 
REMARK    3  A    between atoms: C_3  and  C_4 
REMARK    4  A    between atoms: C_7  and  O_6 
REMARK    5  A    between atoms: C_9  and  C_10 
REMARK    6  A    between atoms: N_15  and  C_14 
REMARK    7  A    between atoms: N_20  and  C_19 
REMARK       I    between atoms: C_22  and  N_20 
ROOT
ATOM      1  C   LIG d   1      -2.510  78.018 116.286  0.00  0.00     0.161 C 
ATOM      2  C   LIG d   1      -2.906  78.900 115.268  0.00  0.00     0.016 C 
ATOM      3  C   LIG d   1      -2.388  78.854 113.953  0.00  0.00     0.038 C 
ATOM      4  C   LIG d   1      -1.543  77.819 113.525  0.00  0.00     0.028 C 
ATOM      5  C   LIG d   1      -0.723  77.202 114.652  0.00  0.00    -0.047 C 
ATOM      6  C   LIG d   1      -1.672  76.813 115.809  0.00  0.00     0.091 C 
ENDROOT
BRANCH   1   7
ATOM      7  O   LIG d   1      -3.666  77.566 117.019  0.00  0.00    -0.368 OA
BRANCH   7   8
ATOM      8  C   LIG d   1      -4.842  77.262 116.229  0.00  0.00     0.119 C 
BRANCH   8   9
ATOM      9  C   LIG d   1      -6.064  77.815 116.987  0.00  0.00     0.028 C 
ATOM     10  C   LIG d   1      -5.878  79.283 117.408  0.00  0.00     0.006 C 
ENDBRANCH   8   9
BRANCH   8  11
ATOM     11  C   LIG d   1      -5.074  75.751 116.133  0.00  0.00     0.028 C 
ATOM     12  C   LIG d   1      -4.892  75.210 114.706  0.00  0.00     0.006 C 
ENDBRANCH   8  11
ENDBRANCH   7   8
ENDBRANCH   1   7
BRANCH   6  13
ATOM     13  N   LIG d   1      -0.941  76.279 116.987  0.00  0.00    -0.311 N 
ATOM     14  C   LIG d   1      -1.099  75.039 117.448  0.00  0.00     0.210 C 
ATOM     15  C   LIG d   1      -0.264  74.698 118.686  0.00  0.00     0.109 C 
ATOM     16  O   LIG d   1      -1.829  74.180 116.930  0.00  0.00    -0.276 OA
ATOM     17  H   LIG d   1      -0.305  76.899 117.449  0.00  0.00     0.149 HD
ENDBRANCH   6  13
BRANCH   5  18
ATOM     18  N   LIG d   1       0.008  76.049 114.092  0.00  0.00     0.381 N 
ATOM     19  H   LIG d   1       0.920  75.996 114.500  0.00  0.00    -0.090 HD
ATOM     20  H   LIG d   1       0.112  76.181 113.102  0.00  0.00    -0.090 HD
ATOM     21  H   LIG d   1      -0.494  75.207 114.272  0.00  0.00    -0.090 HD
ENDBRANCH   5  18
BRANCH   3  22
ATOM     22  C   LIG d   1      -2.684  79.874 113.062  0.00  0.00     0.382 C 
ATOM     23  O   LIG d   1      -2.237  79.832 111.890  0.00  0.00    -0.241 OA
ATOM     24  O   LIG d   1      -3.354  80.858 113.427  0.00  0.00    -0.241 OA
ENDBRANCH   3  22
TORSDOF 7
ENDMDL
MODEL 3
REMARK VINA RESULT:      -5.2      2.104      2.588
REMARK  7 active torsions:
REMARK  status: ('A' for Active; 'I' for Inactive)
REMARK    1  A    between atoms: C_2  and  C_3 
REMARK    2  A    between atoms: C_3  and  O_6 
REMARK    3  A    between atoms: C_3  and  C_4 
REMARK    4  A    between atoms: C_7  and  O_6 
REMARK    5  A    between atoms: C_9  and  C_10 
REMARK    6  A    between atoms: N_15  and  C_14 
REMARK    7  A    between atoms: N_20  and  C_19 
REMARK       I    between atoms: C_22  and  N_20 
ROOT
ATOM      1  C   LIG d   1      -3.190  77.176 115.042  0.00  0.00     0.161 C 
ATOM      2  C   LIG d   1      -3.301  78.166 114.051  0.00  0.00     0.016 C 
ATOM      3  C   LIG d   1      -2.252  79.053 113.717  0.00  0.00     0.038 C 
ATOM      4  C   LIG d   1      -0.962  78.911 114.250  0.00  0.00     0.028 C 
ATOM      5  C   LIG d   1      -0.944  78.248 115.623  0.00  0.00    -0.047 C 
ATOM      6  C   LIG d   1      -1.756  76.934 115.556  0.00  0.00     0.091 C 
ENDROOT
BRANCH   1   7
ATOM      7  O   LIG d   1      -3.768  75.944 114.568  0.00  0.00    -0.368 OA
BRANCH   7   8
ATOM      8  C   LIG d   1      -4.911  75.450 115.308  0.00  0.00     0.119 C 
BRANCH   8   9
ATOM      9  C   LIG d   1      -5.929  74.913 114.284  0.00  0.00     0.028 C 
ATOM     10  C   LIG d   1      -6.727  76.038 113.605  0.00  0.00     0.006 C 
ENDBRANCH   8   9
BRANCH   8  11
ATOM     11  C   LIG d   1      -5.633  76.584 116.041  0.00  0.00     0.028 C 
ATOM     12  C   LIG d   1      -6.459  76.089 117.239  0.00  0.00     0.006 C 
ENDBRANCH   8  11
ENDBRANCH   7   8
ENDBRANCH   1   7
BRANCH   6  13
ATOM     13  N   LIG d   1      -1.859  76.264 116.878  0.00  0.00    -0.311 N 
ATOM     14  C   LIG d   1      -1.628  74.965 117.062  0.00  0.00     0.210 C 
ATOM     15  C   LIG d   1      -1.810  74.473 118.501  0.00  0.00     0.109 C 
ATOM     16  O   LIG d   1      -1.257  74.180 116.176  0.00  0.00    -0.276 OA
ATOM     17  H   LIG d   1      -2.124  76.832 117.658  0.00  0.00     0.149 HD
ENDBRANCH   6  13
BRANCH   5  18
ATOM     18  N   LIG d   1       0.467  78.037 115.998  0.00  0.00     0.381 N 
ATOM     19  H   LIG d   1       0.522  77.716 116.944  0.00  0.00    -0.090 HD
ATOM     20  H   LIG d   1       0.954  78.914 115.933  0.00  0.00    -0.090 HD
ATOM     21  H   LIG d   1       0.886  77.370 115.388  0.00  0.00    -0.090 HD
ENDBRANCH   5  18
BRANCH   3  22
ATOM     22  C   LIG d   1      -2.500  80.122 112.869  0.00  0.00     0.382 C 
ATOM     23  O   LIG d   1      -1.841  80.248 111.809  0.00  0.00    -0.241 OA
ATOM     24  O   LIG d   1      -3.343  80.987 113.173  0.00  0.00    -0.241 OA
ENDBRANCH   3  22
TORSDOF 7
ENDMDL
MODEL 4
REMARK VINA RESULT:      -5.2      2.470      5.288
REMARK  7 active torsions:
REMARK  status: ('A' for Active; 'I' for Inactive)
REMARK    1  A    between atoms: C_2  and  C_3 
REMARK    2  A    between atoms: C_3  and  O_6 
REMARK    3  A    between atoms: C_3  and  C_4 
REMARK    4  A    between atoms: C_7  and  O_6 
REMARK    5  A    between atoms: C_9  and  C_10 
REMARK    6  A    between atoms: N_15  and  C_14 
REMARK    7  A    between atoms: N_20  and  C_19 
REMARK       I    between atoms: C_22  and  N_20 
ROOT
ATOM      1  C   LIG d   1      -2.163  75.669 114.716  0.00  0.00     0.161 C 
ATOM      2  C   LIG d   1      -2.056  75.078 115.986  0.00  0.00     0.016 C 
ATOM      3  C   LIG d   1      -1.320  75.648 117.050  0.00  0.00     0.038 C 
ATOM      4  C   LIG d   1      -0.762  76.932 116.962  0.00  0.00     0.028 C 
ATOM      5  C   LIG d   1      -0.417  77.345 115.536  0.00  0.00    -0.047 C 
ATOM      6  C   LIG d   1      -1.654  77.124 114.635  0.00  0.00     0.091 C 
ENDROOT
BRANCH   1   7
ATOM      7  O   LIG d   1      -3.525  75.589 114.253  0.00  0.00    -0.368 OA
BRANCH   7   8
ATOM      8  C   LIG d   1      -4.535  75.390 115.274  0.00  0.00     0.119 C 
BRANCH   8   9
ATOM      9  C   LIG d   1      -5.756  74.740 114.596  0.00  0.00     0.028 C 
ATOM     10  C   LIG d   1      -6.837  75.769 114.222  0.00  0.00     0.006 C 
ENDBRANCH   8   9
BRANCH   8  11
ATOM     11  C   LIG d   1      -5.040  76.727 115.825  0.00  0.00     0.028 C 
ATOM     12  C   LIG d   1      -5.000  76.791 117.361  0.00  0.00     0.006 C 
ENDBRANCH   8  11
ENDBRANCH   7   8
ENDBRANCH   1   7
BRANCH   6  13
ATOM     13  N   LIG d   1      -1.376  77.424 113.207  0.00  0.00    -0.311 N 
ATOM     14  C   LIG d   1      -2.198  78.131 112.433  0.00  0.00     0.210 C 
ATOM     15  C   LIG d   1      -1.731  78.307 110.985  0.00  0.00     0.109 C 
ATOM     16  O   LIG d   1      -3.255  78.655 112.817  0.00  0.00    -0.276 OA
ATOM     17  H   LIG d   1      -0.525  77.063 112.822  0.00  0.00     0.149 HD
ENDBRANCH   6  13
BRANCH   5  18
ATOM     18  N   LIG d   1       0.026  78.752 115.574  0.00  0.00     0.381 N 
ATOM     19  H   LIG d   1      -0.768  79.355 115.656  0.00  0.00    -0.090 HD
ATOM     20  H   LIG d   1       0.498  78.968 114.714  0.00  0.00    -0.090 HD
ATOM     21  H   LIG d   1       0.641  78.895 116.345  0.00  0.00    -0.090 HD
ENDBRANCH   5  18
BRANCH   3  22
ATOM     22  C   LIG d   1      -1.102  74.913 118.206  0.00  0.00     0.382 C 
ATOM     23  O   LIG d   1      -2.012  74.180 118.664  0.00  0.00    -0.241 OA
ATOM     24  O   LIG d   1      -0.024  75.008 118.822  0.00  0.00    -0.241 OA
ENDBRANCH   3  22
TORSDOF 7
ENDMDL
MODEL 5
REMARK VINA RESULT:      -5.0      2.571      5.068
REMARK  7 active torsions:
REMARK  status: ('A' for Active; 'I' for Inactive)
REMARK    1  A    between atoms: C_2  and  C_3 
REMARK    2  A    between atoms: C_3  and  O_6 
REMARK    3  A    between atoms: C_3  and  C_4 
REMARK    4  A    between atoms: C_7  and  O_6 
REMARK    5  A    between atoms: C_9  and  C_10 
REMARK    6  A    between atoms: N_15  and  C_14 
REMARK    7  A    between atoms: N_20  and  C_19 
REMARK       I    between atoms: C_22  and  N_20 
ROOT
ATOM      1  C   LIG d   1      -1.770  75.599 115.181  0.00  0.00     0.161 C 
ATOM      2  C   LIG d   1      -1.307  75.415 116.495  0.00  0.00     0.016 C 
ATOM      3  C   LIG d   1      -0.697  76.439 117.255  0.00  0.00     0.038 C 
ATOM      4  C   LIG d   1      -0.645  77.766 116.805  0.00  0.00     0.028 C 
ATOM      5  C   LIG d   1      -0.644  77.890 115.285  0.00  0.00    -0.047 C 
ATOM      6  C   LIG d   1      -1.823  77.068 114.714  0.00  0.00     0.091 C 
ENDROOT
BRANCH   1   7
ATOM      7  O   LIG d   1      -3.062  74.978 115.027  0.00  0.00    -0.368 OA
BRANCH   7   8
ATOM      8  C   LIG d   1      -4.210  75.850 115.170  0.00  0.00     0.119 C 
BRANCH   8   9
ATOM      9  C   LIG d   1      -4.802  75.611 116.572  0.00  0.00     0.028 C 
ATOM     10  C   LIG d   1      -4.514  76.773 117.538  0.00  0.00     0.006 C 
ENDBRANCH   8   9
BRANCH   8  11
ATOM     11  C   LIG d   1      -5.323  75.471 114.189  0.00  0.00     0.028 C 
ATOM     12  C   LIG d   1      -6.720  75.868 114.692  0.00  0.00     0.006 C 
ENDBRANCH   8  11
ENDBRANCH   7   8
ENDBRANCH   1   7
BRANCH   6  13
ATOM     13  N   LIG d   1      -1.846  77.067 113.228  0.00  0.00    -0.311 N 
ATOM     14  C   LIG d   1      -2.558  77.929 112.505  0.00  0.00     0.210 C 
ATOM     15  C   LIG d   1      -2.456  77.741 110.988  0.00  0.00     0.109 C 
ATOM     16  O   LIG d   1      -3.240  78.852 112.975  0.00  0.00    -0.276 OA
ATOM     17  H   LIG d   1      -1.296  76.371 112.764  0.00  0.00     0.149 HD
ENDBRANCH   6  13
BRANCH   5  18
ATOM     18  N   LIG d   1      -0.727  79.326 114.955  0.00  0.00     0.381 N 
ATOM     19  H   LIG d   1       0.120  79.784 115.224  0.00  0.00    -0.090 HD
ATOM     20  H   LIG d   1      -1.485  79.735 115.472  0.00  0.00    -0.090 HD
ATOM     21  H   LIG d   1      -0.881  79.443 113.977  0.00  0.00    -0.090 HD
ENDBRANCH   5  18
BRANCH   3  22
ATOM     22  C   LIG d   1      -0.095  76.130 118.465  0.00  0.00     0.382 C 
ATOM     23  O   LIG d   1      -0.665  76.425 119.543  0.00  0.00    -0.241 OA
ATOM     24  O   LIG d   1       1.032  75.600 118.493  0.00  0.00    -0.241 OA
ENDBRANCH   3  22
TORSDOF 7
ENDMDL
MODEL 6
REMARK VINA RESULT:      -4.9      2.757      5.292
REMARK  7 active torsions:
REMARK  status: ('A' for Active; 'I' for Inactive)
REMARK    1  A    between atoms: C_2  and  C_3 
REMARK    2  A    between atoms: C_3  and  O_6 
REMARK    3  A    between atoms: C_3  and  C_4 
REMARK    4  A    between atoms: C_7  and  O_6 
REMARK    5  A    between atoms: C_9  and  C_10 
REMARK    6  A    between atoms: N_15  and  C_14 
REMARK    7  A    between atoms: N_20  and  C_19 
REMARK       I    between atoms: C_22  and  N_20 
ROOT
ATOM      1  C   LIG d   1      -1.774  79.406 114.083  0.00  0.00     0.161 C 
ATOM      2  C   LIG d   1      -2.654  78.370 114.437  0.00  0.00     0.016 C 
ATOM      3  C   LIG d   1      -3.037  77.338 113.549  0.00  0.00     0.038 C 
ATOM      4  C   LIG d   1      -2.443  77.186 112.288  0.00  0.00     0.028 C 
ATOM      5  C   LIG d   1      -1.925  78.495 111.701  0.00  0.00    -0.047 C 
ATOM      6  C   LIG d   1      -1.029  79.195 112.748  0.00  0.00     0.091 C 
ENDROOT
BRANCH   1   7
ATOM      7  O   LIG d   1      -0.833  79.632 115.151  0.00  0.00    -0.368 OA
BRANCH   7   8
ATOM      8  C   LIG d   1      -0.984  78.793 116.323  0.00  0.00     0.119 C 
BRANCH   8   9
ATOM      9  C   LIG d   1      -1.068  79.722 117.550  0.00  0.00     0.028 C 
ATOM     10  C   LIG d   1      -2.375  79.533 118.339  0.00  0.00     0.006 C 
ENDBRANCH   8   9
BRANCH   8  11
ATOM     11  C   LIG d   1       0.260  77.929 116.553  0.00  0.00     0.028 C 
ATOM     12  C   LIG d   1      -0.019  76.711 117.448  0.00  0.00     0.006 C 
ENDBRANCH   8  11
ENDBRANCH   7   8
ENDBRANCH   1   7
BRANCH   6  13
ATOM     13  N   LIG d   1      -0.549  80.524 112.286  0.00  0.00    -0.311 N 
ATOM     14  C   LIG d   1      -1.347  81.579 112.133  0.00  0.00     0.210 C 
ATOM     15  C   LIG d   1      -0.653  82.847 111.627  0.00  0.00     0.109 C 
ATOM     16  O   LIG d   1      -2.559  81.594 112.398  0.00  0.00    -0.276 OA
ATOM     17  H   LIG d   1       0.426  80.609 112.079  0.00  0.00     0.149 HD
ENDBRANCH   6  13
BRANCH   5  18
ATOM     18  N   LIG d   1      -1.210  78.171 110.452  0.00  0.00     0.381 N 
ATOM     19  H   LIG d   1      -0.577  77.413 110.611  0.00  0.00    -0.090 HD
ATOM     20  H   LIG d   1      -0.676  78.973 110.166  0.00  0.00    -0.090 HD
ATOM     21  H   LIG d   1      -1.861  77.926 109.740  0.00  0.00    -0.090 HD
ENDBRANCH   5  18
BRANCH   3  22
ATOM     22  C   LIG d   1      -4.054  76.466 113.907  0.00  0.00     0.382 C 
ATOM     23  O   LIG d   1      -3.776  75.330 114.361  0.00  0.00    -0.241 OA
ATOM     24  O   LIG d   1      -5.247  76.785 113.741  0.00  0.00    -0.241 OA
ENDBRANCH   3  22
TORSDOF 7
ENDMDL
MODEL 7
REMARK VINA RESULT:      -4.9      2.893      5.254
REMARK  7 active torsions:
REMARK  status: ('A' for Active; 'I' for Inactive)
REMARK    1  A    between atoms: C_2  and  C_3 
REMARK    2  A    between atoms: C_3  and  O_6 
REMARK    3  A    between atoms: C_3  and  C_4 
REMARK    4  A    between atoms: C_7  and  O_6 
REMARK    5  A    between atoms: C_9  and  C_10 
REMARK    6  A    between atoms: N_15  and  C_14 
REMARK    7  A    between atoms: N_20  and  C_19 
REMARK       I    between atoms: C_22  and  N_20 
ROOT
ATOM      1  C   LIG d   1      -3.532  75.764 114.946  0.00  0.00     0.161 C 
ATOM      2  C   LIG d   1      -3.633  75.565 116.332  0.00  0.00     0.016 C 
ATOM      3  C   LIG d   1      -3.243  76.531 117.288  0.00  0.00     0.038 C 
ATOM      4  C   LIG d   1      -2.865  77.830 116.917  0.00  0.00     0.028 C 
ATOM      5  C   LIG d   1      -2.268  77.910 115.516  0.00  0.00    -0.047 C 
ATOM      6  C   LIG d   1      -3.226  77.216 114.522  0.00  0.00     0.091 C 
ENDROOT
BRANCH   1   7
ATOM      7  O   LIG d   1      -4.730  75.295 114.296  0.00  0.00    -0.368 OA
BRANCH   7   8
ATOM      8  C   LIG d   1      -5.950  76.007 114.616  0.00  0.00     0.119 C 
BRANCH   8   9
ATOM      9  C   LIG d   1      -6.635  75.255 115.774  0.00  0.00     0.028 C 
ATOM     10  C   LIG d   1      -7.059  76.195 116.915  0.00  0.00     0.006 C 
ENDBRANCH   8   9
BRANCH   8  11
ATOM     11  C   LIG d   1      -6.947  75.957 113.455  0.00  0.00     0.028 C 
ATOM     12  C   LIG d   1      -6.472  76.751 112.227  0.00  0.00     0.006 C 
ENDBRANCH   8  11
ENDBRANCH   7   8
ENDBRANCH   1   7
BRANCH   6  13
ATOM     13  N   LIG d   1      -2.678  77.176 113.141  0.00  0.00    -0.311 N 
ATOM     14  C   LIG d   1      -2.844  78.158 112.257  0.00  0.00     0.210 C 
ATOM     15  C   LIG d   1      -2.214  77.906 110.884  0.00  0.00     0.109 C 
ATOM     16  O   LIG d   1      -3.425  79.229 112.491  0.00  0.00    -0.276 OA
ATOM     17  H   LIG d   1      -2.166  76.356 112.877  0.00  0.00     0.149 HD
ENDBRANCH   6  13
BRANCH   5  18
ATOM     18  N   LIG d   1      -2.047  79.335 115.207  0.00  0.00     0.381 N 
ATOM     19  H   LIG d   1      -2.551  79.905 115.857  0.00  0.00    -0.090 HD
ATOM     20  H   LIG d   1      -2.395  79.526 114.284  0.00  0.00    -0.090 HD
ATOM     21  H   LIG d   1      -1.074  79.547 115.253  0.00  0.00    -0.090 HD
ENDBRANCH   5  18
BRANCH   3  22
ATOM     22  C   LIG d   1      -3.192  76.188 118.631  0.00  0.00     0.382 C 
ATOM     23  O   LIG d   1      -3.871  76.829 119.468  0.00  0.00    -0.241 OA
ATOM     24  O   LIG d   1      -2.441  75.274 119.021  0.00  0.00    -0.241 OA
ENDBRANCH   3  22
TORSDOF 7
ENDMDL
MODEL 8
REMARK VINA RESULT:      -4.5      2.449      3.130
REMARK  7 active torsions:
REMARK  status: ('A' for Active; 'I' for Inactive)
REMARK    1  A    between atoms: C_2  and  C_3 
REMARK    2  A    between atoms: C_3  and  O_6 
REMARK    3  A    between atoms: C_3  and  C_4 
REMARK    4  A    between atoms: C_7  and  O_6 
REMARK    5  A    between atoms: C_9  and  C_10 
REMARK    6  A    between atoms: N_15  and  C_14 
REMARK    7  A    between atoms: N_20  and  C_19 
REMARK       I    between atoms: C_22  and  N_20 
ROOT
ATOM      1  C   LIG d   1      -2.326  77.704 115.787  0.00  0.00     0.161 C 
ATOM      2  C   LIG d   1      -2.734  78.314 114.589  0.00  0.00     0.016 C 
ATOM      3  C   LIG d   1      -1.990  79.324 113.937  0.00  0.00     0.038 C 
ATOM      4  C   LIG d   1      -0.703  79.687 114.360  0.00  0.00     0.028 C 
ATOM      5  C   LIG d   1      -0.469  79.459 115.850  0.00  0.00    -0.047 C 
ATOM      6  C   LIG d   1      -0.872  78.009 116.204  0.00  0.00     0.091 C 
ENDROOT
BRANCH   1   7
ATOM      7  O   LIG d   1      -2.536  76.280 115.706  0.00  0.00    -0.368 OA
BRANCH   7   8
ATOM      8  C   LIG d   1      -3.463  75.718 116.667  0.00  0.00     0.119 C 
BRANCH   8   9
ATOM      9  C   LIG d   1      -2.651  74.824 117.625  0.00  0.00     0.028 C 
ATOM     10  C   LIG d   1      -1.393  74.242 116.959  0.00  0.00     0.006 C 
ENDBRANCH   8   9
BRANCH   8  11
ATOM     11  C   LIG d   1      -4.466  74.780 115.990  0.00  0.00     0.028 C 
ATOM     12  C   LIG d   1      -5.002  75.339 114.662  0.00  0.00     0.006 C 
ENDBRANCH   8  11
ENDBRANCH   7   8
ENDBRANCH   1   7
BRANCH   6  13
ATOM     13  N   LIG d   1      -0.753  77.727 117.658  0.00  0.00    -0.311 N 
ATOM     14  C   LIG d   1       0.350  77.238 118.223  0.00  0.00     0.210 C 
ATOM     15  C   LIG d   1       0.254  77.002 119.733  0.00  0.00     0.109 C 
ATOM     16  O   LIG d   1       1.410  77.007 117.621  0.00  0.00    -0.276 OA
ATOM     17  H   LIG d   1      -1.556  77.915 118.227  0.00  0.00     0.149 HD
ENDBRANCH   6  13
BRANCH   5  18
ATOM     18  N   LIG d   1       0.950  79.749 116.127  0.00  0.00     0.381 N 
ATOM     19  H   LIG d   1       1.339  80.287 115.379  0.00  0.00    -0.090 HD
ATOM     20  H   LIG d   1       1.454  78.881 116.186  0.00  0.00    -0.090 HD
ATOM     21  H   LIG d   1       1.035  80.249 116.985  0.00  0.00    -0.090 HD
ENDBRANCH   5  18
BRANCH   3  22
ATOM     22  C   LIG d   1      -2.551  80.009 112.870  0.00  0.00     0.382 C 
ATOM     23  O   LIG d   1      -2.278  79.669 111.693  0.00  0.00    -0.241 OA
ATOM     24  O   LIG d   1      -3.290  80.992 113.068  0.00  0.00    -0.241 OA
ENDBRANCH   3  22
TORSDOF 7
ENDMDL
MODEL 9
REMARK VINA RESULT:      -4.3      2.626      5.546
REMARK  7 active torsions:
REMARK  status: ('A' for Active; 'I' for Inactive)
REMARK    1  A    between atoms: C_2  and  C_3 
REMARK    2  A    between atoms: C_3  and  O_6 
REMARK    3  A    between atoms: C_3  and  C_4 
REMARK    4  A    between atoms: C_7  and  O_6 
REMARK    5  A    between atoms: C_9  and  C_10 
REMARK    6  A    between atoms: N_15  and  C_14 
REMARK    7  A    between atoms: N_20  and  C_19 
REMARK       I    between atoms: C_22  and  N_20 
ROOT
ATOM      1  C   LIG d   1      -1.799  76.910 114.693  0.00  0.00     0.161 C 
ATOM      2  C   LIG d   1      -2.978  76.182 114.465  0.00  0.00     0.016 C 
ATOM      3  C   LIG d   1      -4.018  76.066 115.416  0.00  0.00     0.038 C 
ATOM      4  C   LIG d   1      -4.015  76.802 116.611  0.00  0.00     0.028 C 
ATOM      5  C   LIG d   1      -2.615  77.152 117.102  0.00  0.00    -0.047 C 
ATOM      6  C   LIG d   1      -1.827  77.810 115.946  0.00  0.00     0.091 C 
ENDROOT
BRANCH   1   7
ATOM      7  O   LIG d   1      -1.472  77.689 113.525  0.00  0.00    -0.368 OA
BRANCH   7   8
ATOM      8  C   LIG d   1      -2.557  78.453 112.944  0.00  0.00     0.119 C 
BRANCH   8   9
ATOM      9  C   LIG d   1      -2.765  77.941 111.505  0.00  0.00     0.028 C 
ATOM     10  C   LIG d   1      -1.632  77.008 111.045  0.00  0.00     0.006 C 
ENDBRANCH   8   9
BRANCH   8  11
ATOM     11  C   LIG d   1      -2.182  79.930 112.798  0.00  0.00     0.028 C 
ATOM     12  C   LIG d   1      -0.664  80.167 112.842  0.00  0.00     0.006 C 
ENDBRANCH   8  11
ENDBRANCH   7   8
ENDBRANCH   1   7
BRANCH   6  13
ATOM     13  N   LIG d   1      -0.419  78.108 116.318  0.00  0.00    -0.311 N 
ATOM     14  C   LIG d   1      -0.012  79.298 116.756  0.00  0.00     0.210 C 
ATOM     15  C   LIG d   1       1.485  79.397 117.064  0.00  0.00     0.109 C 
ATOM     16  O   LIG d   1      -0.756  80.272 116.950  0.00  0.00    -0.276 OA
ATOM     17  H   LIG d   1       0.245  77.365 116.220  0.00  0.00     0.149 HD
ENDBRANCH   6  13
BRANCH   5  18
ATOM     18  N   LIG d   1      -2.762  78.033 118.276  0.00  0.00     0.381 N 
ATOM     19  H   LIG d   1      -3.584  78.595 118.177  0.00  0.00    -0.090 HD
ATOM     20  H   LIG d   1      -1.966  78.645 118.326  0.00  0.00    -0.090 HD
ATOM     21  H   LIG d   1      -2.823  77.487 119.107  0.00  0.00    -0.090 HD
ENDBRANCH   5  18
BRANCH   3  22
ATOM     22  C   LIG d   1      -5.058  75.176 115.193  0.00  0.00     0.382 C 
ATOM     23  O   LIG d   1      -5.871  74.920 116.113  0.00  0.00    -0.241 OA
ATOM     24  O   LIG d   1      -5.166  74.594 114.098  0.00  0.00    -0.241 OA
ENDBRANCH   3  22
TORSDOF 7
ENDMDL
