MODEL 1
REMARK VINA RESULT:      -5.3      0.000      0.000
REMARK  7 active torsions:
REMARK  status: ('A' for Active; 'I' for Inactive)
REMARK    1  A    between atoms: C_2  and  C_3 
REMARK    2  A    between atoms: C_3  and  O_6 
REMARK    3  A    between atoms: C_3  and  C_4 
REMARK    4  A    between atoms: C_7  and  O_6 
REMARK    5  A    between atoms: C_9  and  C_10 
REMARK    6  A    between atoms: N_15  and  C_14 
REMARK    7  A    between atoms: N_20  and  C_19 
REMARK       I    between atoms: C_22  and  N_20 
ROOT
ATOM      1  C   LIG d   1       0.391  80.966 113.162  0.00  0.00     0.161 C 
ATOM      2  C   LIG d   1       1.375  81.936 112.909  0.00  0.00     0.016 C 
ATOM      3  C   LIG d   1       1.796  82.298 111.609  0.00  0.00     0.038 C 
ATOM      4  C   LIG d   1       1.148  81.819 110.460  0.00  0.00     0.028 C 
ATOM      5  C   LIG d   1       0.488  80.459 110.659  0.00  0.00    -0.047 C 
ATOM      6  C   LIG d   1      -0.405  80.514 111.919  0.00  0.00     0.091 C 
ENDROOT
BRANCH   1   7
ATOM      7  O   LIG d   1      -0.506  81.436 114.187  0.00  0.00    -0.368 OA
BRANCH   7   8
ATOM      8  C   LIG d   1       0.082  82.275 115.213  0.00  0.00     0.119 C 
BRANCH   8   9
ATOM      9  C   LIG d   1       0.098  81.462 116.522  0.00  0.00     0.028 C 
ATOM     10  C   LIG d   1      -0.391  82.282 117.728  0.00  0.00     0.006 C 
ENDBRANCH   8   9
BRANCH   8  11
ATOM     11  C   LIG d   1      -0.795  83.496 115.504  0.00  0.00     0.028 C 
ATOM     12  C   LIG d   1      -0.900  84.453 114.307  0.00  0.00     0.006 C 
ENDBRANCH   8  11
ENDBRANCH   7   8
ENDBRANCH   1   7
BRANCH   6  13
ATOM     13  N   LIG d   1      -1.023  79.200 112.235  0.00  0.00    -0.311 N 
ATOM     14  C   LIG d   1      -2.303  79.053 112.573  0.00  0.00     0.210 C 
ATOM     15  C   LIG d   1      -2.730  77.614 112.877  0.00  0.00     0.109 C 
ATOM     16  O   LIG d   1      -3.132  79.974 112.618  0.00  0.00    -0.276 OA
ATOM     17  H   LIG d   1      -0.429  78.395 112.192  0.00  0.00     0.149 HD
ENDBRANCH   6  13
BRANCH   5  18
ATOM     18  N   LIG d   1      -0.265  80.144 109.430  0.00  0.00     0.381 N 
ATOM     19  H   LIG d   1      -1.217  80.435 109.532  0.00  0.00    -0.090 HD
ATOM     20  H   LIG d   1      -0.252  79.150 109.286  0.00  0.00    -0.090 HD
ATOM     21  H   LIG d   1       0.149  80.606 108.650  0.00  0.00    -0.090 HD
ENDBRANCH   5  18
BRANCH   3  22
ATOM     22  C   LIG d   1       2.902  83.117 111.447  0.00  0.00     0.382 C 
ATOM     23  O   LIG d   1       3.440  83.649 112.448  0.00  0.00    -0.241 OA
ATOM     24  O   LIG d   1       3.343  83.367 110.309  0.00  0.00    -0.241 OA
ENDBRANCH   3  22
TORSDOF 7
ENDMDL
MODEL 2
REMARK VINA RESULT:      -5.2      3.608      5.045
REMARK  7 active torsions:
REMARK  status: ('A' for Active; 'I' for Inactive)
REMARK    1  A    between atoms: C_2  and  C_3 
REMARK    2  A    between atoms: C_3  and  O_6 
REMARK    3  A    between atoms: C_3  and  C_4 
REMARK    4  A    between atoms: C_7  and  O_6 
REMARK    5  A    between atoms: C_9  and  C_10 
REMARK    6  A    between atoms: N_15  and  C_14 
REMARK    7  A    between atoms: N_20  and  C_19 
REMARK       I    between atoms: C_22  and  N_20 
ROOT
ATOM      1  C   LIG d   1      -2.967  79.385 115.682  0.00  0.00     0.161 C 
ATOM      2  C   LIG d   1      -2.871  80.634 115.046  0.00  0.00     0.016 C 
ATOM      3  C   LIG d   1      -2.403  80.799 113.722  0.00  0.00     0.038 C 
ATOM      4  C   LIG d   1      -2.140  79.703 112.887  0.00  0.00     0.028 C 
ATOM      5  C   LIG d   1      -1.742  78.443 113.648  0.00  0.00    -0.047 C 
ATOM      6  C   LIG d   1      -2.791  78.169 114.749  0.00  0.00     0.091 C 
ENDROOT
BRANCH   1   7
ATOM      7  O   LIG d   1      -4.218  79.294 116.393  0.00  0.00    -0.368 OA
BRANCH   7   8
ATOM      8  C   LIG d   1      -4.563  80.430 117.223  0.00  0.00     0.119 C 
BRANCH   8   9
ATOM      9  C   LIG d   1      -3.770  80.301 118.538  0.00  0.00     0.028 C 
ATOM     10  C   LIG d   1      -2.837  81.499 118.781  0.00  0.00     0.006 C 
ENDBRANCH   8   9
BRANCH   8  11
ATOM     11  C   LIG d   1      -6.038  80.392 117.634  0.00  0.00     0.028 C 
ATOM     12  C   LIG d   1      -6.550  81.749 118.143  0.00  0.00     0.006 C 
ENDBRANCH   8  11
ENDBRANCH   7   8
ENDBRANCH   1   7
BRANCH   6  13
ATOM     13  N   LIG d   1      -2.432  77.001 115.596  0.00  0.00    -0.311 N 
ATOM     14  C   LIG d   1      -2.838  75.758 115.341  0.00  0.00     0.210 C 
ATOM     15  C   LIG d   1      -2.372  74.705 116.351  0.00  0.00     0.109 C 
ATOM     16  O   LIG d   1      -3.514  75.423 114.356  0.00  0.00    -0.276 OA
ATOM     17  H   LIG d   1      -1.860  77.178 116.398  0.00  0.00     0.149 HD
ENDBRANCH   6  13
BRANCH   5  18
ATOM     18  N   LIG d   1      -1.632  77.346 112.668  0.00  0.00     0.381 N 
ATOM     19  H   LIG d   1      -2.055  77.621 111.803  0.00  0.00    -0.090 HD
ATOM     20  H   LIG d   1      -2.126  76.545 113.020  0.00  0.00    -0.090 HD
ATOM     21  H   LIG d   1      -0.674  77.116 112.519  0.00  0.00    -0.090 HD
ENDBRANCH   5  18
BRANCH   3  22
ATOM     22  C   LIG d   1      -2.155  82.073 113.235  0.00  0.00     0.382 C 
ATOM     23  O   LIG d   1      -1.833  82.233 112.033  0.00  0.00    -0.241 OA
ATOM     24  O   LIG d   1      -2.206  83.060 113.993  0.00  0.00    -0.241 OA
ENDBRANCH   3  22
TORSDOF 7
ENDMDL
MODEL 3
REMARK VINA RESULT:      -5.1      3.893      5.679
REMARK  7 active torsions:
REMARK  status: ('A' for Active; 'I' for Inactive)
REMARK    1  A    between atoms: C_2  and  C_3 
REMARK    2  A    between atoms: C_3  and  O_6 
REMARK    3  A    between atoms: C_3  and  C_4 
REMARK    4  A    between atoms: C_7  and  O_6 
REMARK    5  A    between atoms: C_9  and  C_10 
REMARK    6  A    between atoms: N_15  and  C_14 
REMARK    7  A    between atoms: N_20  and  C_19 
REMARK       I    between atoms: C_22  and  N_20 
ROOT
ATOM      1  C   LIG d   1      -2.370  79.103 116.107  0.00  0.00     0.161 C 
ATOM      2  C   LIG d   1      -2.664  80.386 115.617  0.00  0.00     0.016 C 
ATOM      3  C   LIG d   1      -2.667  80.712 114.241  0.00  0.00     0.038 C 
ATOM      4  C   LIG d   1      -2.524  79.733 113.247  0.00  0.00     0.028 C 
ATOM      5  C   LIG d   1      -1.725  78.517 113.705  0.00  0.00    -0.047 C 
ATOM      6  C   LIG d   1      -2.320  77.996 115.033  0.00  0.00     0.091 C 
ENDROOT
BRANCH   1   7
ATOM      7  O   LIG d   1      -3.305  78.751 117.146  0.00  0.00    -0.368 OA
BRANCH   7   8
ATOM      8  C   LIG d   1      -4.706  78.954 116.839  0.00  0.00     0.119 C 
BRANCH   8   9
ATOM      9  C   LIG d   1      -5.313  79.795 117.979  0.00  0.00     0.028 C 
ATOM     10  C   LIG d   1      -5.659  81.225 117.532  0.00  0.00     0.006 C 
ENDBRANCH   8   9
BRANCH   8  11
ATOM     11  C   LIG d   1      -5.478  77.631 116.856  0.00  0.00     0.028 C 
ATOM     12  C   LIG d   1      -4.734  76.517 117.610  0.00  0.00     0.006 C 
ENDBRANCH   8  11
ENDBRANCH   7   8
ENDBRANCH   1   7
BRANCH   6  13
ATOM     13  N   LIG d   1      -1.545  76.859 115.595  0.00  0.00    -0.311 N 
ATOM     14  C   LIG d   1      -1.855  75.582 115.377  0.00  0.00     0.210 C 
ATOM     15  C   LIG d   1      -0.937  74.568 116.066  0.00  0.00     0.109 C 
ATOM     16  O   LIG d   1      -2.784  75.194 114.653  0.00  0.00    -0.276 OA
ATOM     17  H   LIG d   1      -0.756  77.084 116.169  0.00  0.00     0.149 HD
ENDBRANCH   6  13
BRANCH   5  18
ATOM     18  N   LIG d   1      -1.770  77.519 112.620  0.00  0.00     0.381 N 
ATOM     19  H   LIG d   1      -2.024  77.964 111.761  0.00  0.00    -0.090 HD
ATOM     20  H   LIG d   1      -2.471  76.833 112.839  0.00  0.00    -0.090 HD
ATOM     21  H   LIG d   1      -0.882  77.079 112.524  0.00  0.00    -0.090 HD
ENDBRANCH   5  18
BRANCH   3  22
ATOM     22  C   LIG d   1      -2.776  82.038 113.849  0.00  0.00     0.382 C 
ATOM     23  O   LIG d   1      -3.526  82.819 114.483  0.00  0.00    -0.241 OA
ATOM     24  O   LIG d   1      -2.169  82.451 112.843  0.00  0.00    -0.241 OA
ENDBRANCH   3  22
TORSDOF 7
ENDMDL
MODEL 4
REMARK VINA RESULT:      -5.1      2.947      3.634
REMARK  7 active torsions:
REMARK  status: ('A' for Active; 'I' for Inactive)
REMARK    1  A    between atoms: C_2  and  C_3 
REMARK    2  A    between atoms: C_3  and  O_6 
REMARK    3  A    between atoms: C_3  and  C_4 
REMARK    4  A    between atoms: C_7  and  O_6 
REMARK    5  A    between atoms: C_9  and  C_10 
REMARK    6  A    between atoms: N_15  and  C_14 
REMARK    7  A    between atoms: N_20  and  C_19 
REMARK       I    between atoms: C_22  and  N_20 
ROOT
ATOM      1  C   LIG d   1      -0.480  79.994 114.979  0.00  0.00     0.161 C 
ATOM      2  C   LIG d   1      -0.633  81.223 114.317  0.00  0.00     0.016 C 
ATOM      3  C   LIG d   1      -1.388  81.380 113.131  0.00  0.00     0.038 C 
ATOM      4  C   LIG d   1      -2.170  80.340 112.607  0.00  0.00     0.028 C 
ATOM      5  C   LIG d   1      -1.645  78.951 112.957  0.00  0.00    -0.047 C 
ATOM      6  C   LIG d   1      -1.416  78.871 114.484  0.00  0.00     0.091 C 
ENDROOT
BRANCH   1   7
ATOM      7  O   LIG d   1      -0.630  80.182 116.400  0.00  0.00    -0.368 OA
BRANCH   7   8
ATOM      8  C   LIG d   1      -1.320  81.387 116.813  0.00  0.00     0.119 C 
BRANCH   8   9
ATOM      9  C   LIG d   1      -0.535  81.986 117.997  0.00  0.00     0.028 C 
ATOM     10  C   LIG d   1      -1.380  82.071 119.279  0.00  0.00     0.006 C 
ENDBRANCH   8   9
BRANCH   8  11
ATOM     11  C   LIG d   1      -2.711  81.070 117.369  0.00  0.00     0.028 C 
ATOM     12  C   LIG d   1      -3.837  81.386 116.371  0.00  0.00     0.006 C 
ENDBRANCH   8  11
ENDBRANCH   7   8
ENDBRANCH   1   7
BRANCH   6  13
ATOM     13  N   LIG d   1      -0.823  77.574 114.901  0.00  0.00    -0.311 N 
ATOM     14  C   LIG d   1      -1.550  76.518 115.263  0.00  0.00     0.210 C 
ATOM     15  C   LIG d   1      -0.738  75.286 115.676  0.00  0.00     0.109 C 
ATOM     16  O   LIG d   1      -2.789  76.475 115.250  0.00  0.00    -0.276 OA
ATOM     17  H   LIG d   1       0.176  77.512 114.910  0.00  0.00     0.149 HD
ENDBRANCH   6  13
BRANCH   5  18
ATOM     18  N   LIG d   1      -2.627  77.966 112.467  0.00  0.00     0.381 N 
ATOM     19  H   LIG d   1      -2.437  77.070 112.868  0.00  0.00    -0.090 HD
ATOM     20  H   LIG d   1      -2.541  77.890 111.469  0.00  0.00    -0.090 HD
ATOM     21  H   LIG d   1      -3.550  78.257 112.707  0.00  0.00    -0.090 HD
ENDBRANCH   5  18
BRANCH   3  22
ATOM     22  C   LIG d   1      -1.333  82.578 112.435  0.00  0.00     0.382 C 
ATOM     23  O   LIG d   1      -1.478  83.664 113.045  0.00  0.00    -0.241 OA
ATOM     24  O   LIG d   1      -1.185  82.583 111.198  0.00  0.00    -0.241 OA
ENDBRANCH   3  22
TORSDOF 7
ENDMDL
MODEL 5
REMARK VINA RESULT:      -5.0      2.962      4.036
REMARK  7 active torsions:
REMARK  status: ('A' for Active; 'I' for Inactive)
REMARK    1  A    between atoms: C_2  and  C_3 
REMARK    2  A    between atoms: C_3  and  O_6 
REMARK    3  A    between atoms: C_3  and  C_4 
REMARK    4  A    between atoms: C_7  and  O_6 
REMARK    5  A    between atoms: C_9  and  C_10 
REMARK    6  A    between atoms: N_15  and  C_14 
REMARK    7  A    between atoms: N_20  and  C_19 
REMARK       I    between atoms: C_22  and  N_20 
ROOT
ATOM      1  C   LIG d   1      -2.513  80.717 115.012  0.00  0.00     0.161 C 
ATOM      2  C   LIG d   1      -2.156  82.026 114.647  0.00  0.00     0.016 C 
ATOM      3  C   LIG d   1      -1.448  82.339 113.464  0.00  0.00     0.038 C 
ATOM      4  C   LIG d   1      -1.178  81.372 112.484  0.00  0.00     0.028 C 
ATOM      5  C   LIG d   1      -1.074  79.956 113.042  0.00  0.00    -0.047 C 
ATOM      6  C   LIG d   1      -2.325  79.663 113.901  0.00  0.00     0.091 C 
ENDROOT
BRANCH   1   7
ATOM      7  O   LIG d   1      -3.870  80.698 115.497  0.00  0.00    -0.368 OA
BRANCH   7   8
ATOM      8  C   LIG d   1      -4.050  80.272 116.870  0.00  0.00     0.119 C 
BRANCH   8   9
ATOM      9  C   LIG d   1      -5.013  81.270 117.541  0.00  0.00     0.028 C 
ATOM     10  C   LIG d   1      -6.432  80.699 117.703  0.00  0.00     0.006 C 
ENDBRANCH   8   9
BRANCH   8  11
ATOM     11  C   LIG d   1      -2.743  80.374 117.661  0.00  0.00     0.028 C 
ATOM     12  C   LIG d   1      -2.759  81.512 118.694  0.00  0.00     0.006 C 
ENDBRANCH   8  11
ENDBRANCH   7   8
ENDBRANCH   1   7
BRANCH   6  13
ATOM     13  N   LIG d   1      -2.263  78.329 114.554  0.00  0.00    -0.311 N 
ATOM     14  C   LIG d   1      -2.785  77.226 114.019  0.00  0.00     0.210 C 
ATOM     15  C   LIG d   1      -2.629  75.960 114.867  0.00  0.00     0.109 C 
ATOM     16  O   LIG d   1      -3.335  77.171 112.909  0.00  0.00    -0.276 OA
ATOM     17  H   LIG d   1      -1.808  78.277 115.444  0.00  0.00     0.149 HD
ENDBRANCH   6  13
BRANCH   5  18
ATOM     18  N   LIG d   1      -0.928  79.036 111.899  0.00  0.00     0.381 N 
ATOM     19  H   LIG d   1      -0.037  78.583 111.939  0.00  0.00    -0.090 HD
ATOM     20  H   LIG d   1      -0.974  79.566 111.046  0.00  0.00    -0.090 HD
ATOM     21  H   LIG d   1      -1.656  78.355 111.914  0.00  0.00    -0.090 HD
ENDBRANCH   5  18
BRANCH   3  22
ATOM     22  C   LIG d   1      -0.966  83.624 113.271  0.00  0.00     0.382 C 
ATOM     23  O   LIG d   1      -1.083  84.176 112.150  0.00  0.00    -0.241 OA
ATOM     24  O   LIG d   1      -0.377  84.223 114.190  0.00  0.00    -0.241 OA
ENDBRANCH   3  22
TORSDOF 7
ENDMDL
MODEL 6
REMARK VINA RESULT:      -4.9      2.613      5.952
REMARK  7 active torsions:
REMARK  status: ('A' for Active; 'I' for Inactive)
REMARK    1  A    between atoms: C_2  and  C_3 
REMARK    2  A    between atoms: C_3  and  O_6 
REMARK    3  A    between atoms: C_3  and  C_4 
REMARK    4  A    between atoms: C_7  and  O_6 
REMARK    5  A    between atoms: C_9  and  C_10 
REMARK    6  A    between atoms: N_15  and  C_14 
REMARK    7  A    between atoms: N_20  and  C_19 
REMARK       I    between atoms: C_22  and  N_20 
ROOT
ATOM      1  C   LIG d   1      -0.564  80.836 112.311  0.00  0.00     0.161 C 
ATOM      2  C   LIG d   1      -1.252  79.627 112.122  0.00  0.00     0.016 C 
ATOM      3  C   LIG d   1      -2.064  79.030 113.114  0.00  0.00     0.038 C 
ATOM      4  C   LIG d   1      -2.366  79.684 114.317  0.00  0.00     0.028 C 
ATOM      5  C   LIG d   1      -1.290  80.673 114.756  0.00  0.00    -0.047 C 
ATOM      6  C   LIG d   1      -0.969  81.620 113.577  0.00  0.00     0.091 C 
ENDROOT
BRANCH   1   7
ATOM      7  O   LIG d   1      -0.704  81.667 111.141  0.00  0.00    -0.368 OA
BRANCH   7   8
ATOM      8  C   LIG d   1       0.452  81.743 110.271  0.00  0.00     0.119 C 
BRANCH   8   9
ATOM      9  C   LIG d   1       1.451  80.665 110.734  0.00  0.00     0.028 C 
ATOM     10  C   LIG d   1       1.707  79.600 109.654  0.00  0.00     0.006 C 
ENDBRANCH   8   9
BRANCH   8  11
ATOM     11  C   LIG d   1       1.187  83.076 110.436  0.00  0.00     0.028 C 
ATOM     12  C   LIG d   1       2.568  82.917 111.093  0.00  0.00     0.006 C 
ENDBRANCH   8  11
ENDBRANCH   7   8
ENDBRANCH   1   7
BRANCH   6  13
ATOM     13  N   LIG d   1       0.134  82.565 113.893  0.00  0.00    -0.311 N 
ATOM     14  C   LIG d   1       0.010  83.889 113.817  0.00  0.00     0.210 C 
ATOM     15  C   LIG d   1       1.275  84.678 114.167  0.00  0.00     0.109 C 
ATOM     16  O   LIG d   1      -1.037  84.485 113.523  0.00  0.00    -0.276 OA
ATOM     17  H   LIG d   1       1.010  82.167 114.171  0.00  0.00     0.149 HD
ENDBRANCH   6  13
BRANCH   5  18
ATOM     18  N   LIG d   1      -1.794  81.382 115.947  0.00  0.00     0.381 N 
ATOM     19  H   LIG d   1      -2.362  82.156 115.665  0.00  0.00    -0.090 HD
ATOM     20  H   LIG d   1      -1.013  81.737 116.469  0.00  0.00    -0.090 HD
ATOM     21  H   LIG d   1      -2.326  80.759 116.514  0.00  0.00    -0.090 HD
ENDBRANCH   5  18
BRANCH   3  22
ATOM     22  C   LIG d   1      -2.552  77.747 112.922  0.00  0.00     0.382 C 
ATOM     23  O   LIG d   1      -1.919  76.761 113.371  0.00  0.00    -0.241 OA
ATOM     24  O   LIG d   1      -3.595  77.559 112.267  0.00  0.00    -0.241 OA
ENDBRANCH   3  22
TORSDOF 7
ENDMDL
MODEL 7
REMARK VINA RESULT:      -4.8      4.824      7.380
REMARK  7 active torsions:
REMARK  status: ('A' for Active; 'I' for Inactive)
REMARK    1  A    between atoms: C_2  and  C_3 
REMARK    2  A    between atoms: C_3  and  O_6 
REMARK    3  A    between atoms: C_3  and  C_4 
REMARK    4  A    between atoms: C_7  and  O_6 
REMARK    5  A    between atoms: C_9  and  C_10 
REMARK    6  A    between atoms: N_15  and  C_14 
REMARK    7  A    between atoms: N_20  and  C_19 
REMARK       I    between atoms: C_22  and  N_20 
ROOT
ATOM      1  C   LIG d   1      -2.893  78.129 115.883  0.00  0.00     0.161 C 
ATOM      2  C   LIG d   1      -3.867  77.142 115.658  0.00  0.00     0.016 C 
ATOM      3  C   LIG d   1      -3.555  75.800 115.338  0.00  0.00     0.038 C 
ATOM      4  C   LIG d   1      -2.239  75.317 115.371  0.00  0.00     0.028 C 
ATOM      5  C   LIG d   1      -1.192  76.391 115.098  0.00  0.00    -0.047 C 
ATOM      6  C   LIG d   1      -1.453  77.595 116.032  0.00  0.00     0.091 C 
ENDROOT
BRANCH   1   7
ATOM      7  O   LIG d   1      -3.256  78.920 117.032  0.00  0.00    -0.368 OA
BRANCH   7   8
ATOM      8  C   LIG d   1      -4.018  80.122 116.764  0.00  0.00     0.119 C 
BRANCH   8   9
ATOM      9  C   LIG d   1      -3.225  81.312 117.338  0.00  0.00     0.028 C 
ATOM     10  C   LIG d   1      -2.458  82.085 116.252  0.00  0.00     0.006 C 
ENDBRANCH   8   9
BRANCH   8  11
ATOM     11  C   LIG d   1      -5.349  80.118 117.521  0.00  0.00     0.028 C 
ATOM     12  C   LIG d   1      -6.073  81.473 117.461  0.00  0.00     0.006 C 
ENDBRANCH   8  11
ENDBRANCH   7   8
ENDBRANCH   1   7
BRANCH   6  13
ATOM     13  N   LIG d   1      -0.525  78.726 115.773  0.00  0.00    -0.311 N 
ATOM     14  C   LIG d   1       0.072  79.421 116.739  0.00  0.00     0.210 C 
ATOM     15  C   LIG d   1       0.975  80.560 116.254  0.00  0.00     0.109 C 
ATOM     16  O   LIG d   1      -0.035  79.183 117.951  0.00  0.00    -0.276 OA
ATOM     17  H   LIG d   1      -0.356  78.967 114.816  0.00  0.00     0.149 HD
ENDBRANCH   6  13
BRANCH   5  18
ATOM     18  N   LIG d   1       0.136  75.781 115.299  0.00  0.00     0.381 N 
ATOM     19  H   LIG d   1       0.248  75.003 114.679  0.00  0.00    -0.090 HD
ATOM     20  H   LIG d   1       0.199  75.444 116.243  0.00  0.00    -0.090 HD
ATOM     21  H   LIG d   1       0.850  76.455 115.130  0.00  0.00    -0.090 HD
ENDBRANCH   5  18
BRANCH   3  22
ATOM     22  C   LIG d   1      -4.565  74.936 114.942  0.00  0.00     0.382 C 
ATOM     23  O   LIG d   1      -4.734  74.686 113.724  0.00  0.00    -0.241 OA
ATOM     24  O   LIG d   1      -5.337  74.439 115.783  0.00  0.00    -0.241 OA
ENDBRANCH   3  22
TORSDOF 7
ENDMDL
MODEL 8
REMARK VINA RESULT:      -4.8      5.141      7.900
REMARK  7 active torsions:
REMARK  status: ('A' for Active; 'I' for Inactive)
REMARK    1  A    between atoms: C_2  and  C_3 
REMARK    2  A    between atoms: C_3  and  O_6 
REMARK    3  A    between atoms: C_3  and  C_4 
REMARK    4  A    between atoms: C_7  and  O_6 
REMARK    5  A    between atoms: C_9  and  C_10 
REMARK    6  A    between atoms: N_15  and  C_14 
REMARK    7  A    between atoms: N_20  and  C_19 
REMARK       I    between atoms: C_22  and  N_20 
ROOT
ATOM      1  C   LIG d   1      -3.817  78.359 116.332  0.00  0.00     0.161 C 
ATOM      2  C   LIG d   1      -3.564  77.249 115.509  0.00  0.00     0.016 C 
ATOM      3  C   LIG d   1      -4.390  76.102 115.474  0.00  0.00     0.038 C 
ATOM      4  C   LIG d   1      -5.616  76.051 116.153  0.00  0.00     0.028 C 
ATOM      5  C   LIG d   1      -5.662  76.943 117.389  0.00  0.00    -0.047 C 
ATOM      6  C   LIG d   1      -5.209  78.368 116.997  0.00  0.00     0.091 C 
ENDROOT
BRANCH   1   7
ATOM      7  O   LIG d   1      -3.610  79.577 115.588  0.00  0.00    -0.368 OA
BRANCH   7   8
ATOM      8  C   LIG d   1      -2.380  80.291 115.863  0.00  0.00     0.119 C 
BRANCH   8   9
ATOM      9  C   LIG d   1      -2.757  81.605 116.574  0.00  0.00     0.028 C 
ATOM     10  C   LIG d   1      -2.234  81.661 118.019  0.00  0.00     0.006 C 
ENDBRANCH   8   9
BRANCH   8  11
ATOM     11  C   LIG d   1      -1.680  80.716 114.569  0.00  0.00     0.028 C 
ATOM     12  C   LIG d   1      -2.630  81.408 113.578  0.00  0.00     0.006 C 
ENDBRANCH   8  11
ENDBRANCH   7   8
ENDBRANCH   1   7
BRANCH   6  13
ATOM     13  N   LIG d   1      -5.144  79.284 118.165  0.00  0.00    -0.311 N 
ATOM     14  C   LIG d   1      -5.868  80.398 118.264  0.00  0.00     0.210 C 
ATOM     15  C   LIG d   1      -5.634  81.209 119.543  0.00  0.00     0.109 C 
ATOM     16  O   LIG d   1      -6.704  80.775 117.429  0.00  0.00    -0.276 OA
ATOM     17  H   LIG d   1      -4.514  79.038 118.903  0.00  0.00     0.149 HD
ENDBRANCH   6  13
BRANCH   5  18
ATOM     18  N   LIG d   1      -7.037  76.898 117.920  0.00  0.00     0.381 N 
ATOM     19  H   LIG d   1      -7.019  76.989 118.916  0.00  0.00    -0.090 HD
ATOM     20  H   LIG d   1      -7.445  76.009 117.692  0.00  0.00    -0.090 HD
ATOM     21  H   LIG d   1      -7.580  77.633 117.522  0.00  0.00    -0.090 HD
ENDBRANCH   5  18
BRANCH   3  22
ATOM     22  C   LIG d   1      -3.971  74.975 114.784  0.00  0.00     0.382 C 
ATOM     23  O   LIG d   1      -4.642  74.548 113.814  0.00  0.00    -0.241 OA
ATOM     24  O   LIG d   1      -2.954  74.353 115.147  0.00  0.00    -0.241 OA
ENDBRANCH   3  22
TORSDOF 7
ENDMDL
MODEL 9
REMARK VINA RESULT:      -4.7      4.492      7.440
REMARK  7 active torsions:
REMARK  status: ('A' for Active; 'I' for Inactive)
REMARK    1  A    between atoms: C_2  and  C_3 
REMARK    2  A    between atoms: C_3  and  O_6 
REMARK    3  A    between atoms: C_3  and  C_4 
REMARK    4  A    between atoms: C_7  and  O_6 
REMARK    5  A    between atoms: C_9  and  C_10 
REMARK    6  A    between atoms: N_15  and  C_14 
REMARK    7  A    between atoms: N_20  and  C_19 
REMARK       I    between atoms: C_22  and  N_20 
ROOT
ATOM      1  C   LIG d   1      -2.768  78.775 115.813  0.00  0.00     0.161 C 
ATOM      2  C   LIG d   1      -3.070  77.611 115.086  0.00  0.00     0.016 C 
ATOM      3  C   LIG d   1      -3.423  76.384 115.693  0.00  0.00     0.038 C 
ATOM      4  C   LIG d   1      -3.647  76.277 117.073  0.00  0.00     0.028 C 
ATOM      5  C   LIG d   1      -2.864  77.296 117.895  0.00  0.00    -0.047 C 
ATOM      6  C   LIG d   1      -3.115  78.707 117.315  0.00  0.00     0.091 C 
ENDROOT
BRANCH   1   7
ATOM      7  O   LIG d   1      -3.407  79.913 115.201  0.00  0.00    -0.368 OA
BRANCH   7   8
ATOM      8  C   LIG d   1      -2.528  80.874 114.568  0.00  0.00     0.119 C 
BRANCH   8   9
ATOM      9  C   LIG d   1      -2.968  82.277 115.028  0.00  0.00     0.028 C 
ATOM     10  C   LIG d   1      -1.778  83.157 115.448  0.00  0.00     0.006 C 
ENDBRANCH   8   9
BRANCH   8  11
ATOM     11  C   LIG d   1      -2.704  80.873 113.047  0.00  0.00     0.028 C 
ATOM     12  C   LIG d   1      -1.696  79.960 112.331  0.00  0.00     0.006 C 
ENDBRANCH   8  11
ENDBRANCH   7   8
ENDBRANCH   1   7
BRANCH   6  13
ATOM     13  N   LIG d   1      -2.320  79.754 118.008  0.00  0.00    -0.311 N 
ATOM     14  C   LIG d   1      -2.838  80.903 118.439  0.00  0.00     0.210 C 
ATOM     15  C   LIG d   1      -1.839  81.851 119.109  0.00  0.00     0.109 C 
ATOM     16  O   LIG d   1      -4.036  81.212 118.359  0.00  0.00    -0.276 OA
ATOM     17  H   LIG d   1      -1.345  79.572 118.143  0.00  0.00     0.149 HD
ENDBRANCH   6  13
BRANCH   5  18
ATOM     18  N   LIG d   1      -3.296  77.163 119.299  0.00  0.00     0.381 N 
ATOM     19  H   LIG d   1      -2.627  76.622 119.809  0.00  0.00    -0.090 HD
ATOM     20  H   LIG d   1      -4.177  76.681 119.324  0.00  0.00    -0.090 HD
ATOM     21  H   LIG d   1      -3.390  78.064 119.713  0.00  0.00    -0.090 HD
ENDBRANCH   5  18
BRANCH   3  22
ATOM     22  C   LIG d   1      -3.517  75.237 114.919  0.00  0.00     0.382 C 
ATOM     23  O   LIG d   1      -2.751  74.268 115.140  0.00  0.00    -0.241 OA
ATOM     24  O   LIG d   1      -4.328  75.176 113.976  0.00  0.00    -0.241 OA
ENDBRANCH   3  22
TORSDOF 7
ENDMDL
