MODEL 1
REMARK VINA RESULT:      -5.4      0.000      0.000
REMARK  7 active torsions:
REMARK  status: ('A' for Active; 'I' for Inactive)
REMARK    1  A    between atoms: C_2  and  C_3 
REMARK    2  A    between atoms: C_3  and  O_6 
REMARK    3  A    between atoms: C_3  and  C_4 
REMARK    4  A    between atoms: C_7  and  O_6 
REMARK    5  A    between atoms: C_9  and  C_10 
REMARK    6  A    between atoms: N_15  and  C_14 
REMARK    7  A    between atoms: N_20  and  C_19 
REMARK       I    between atoms: C_22  and  N_20 
ROOT
ATOM      1  C   LIG d   1      -1.124  80.827 111.994  0.00  0.00     0.161 C 
ATOM      2  C   LIG d   1      -1.978  79.810 112.452  0.00  0.00     0.016 C 
ATOM      3  C   LIG d   1      -1.945  78.485 111.959  0.00  0.00     0.038 C 
ATOM      4  C   LIG d   1      -0.948  78.047 111.075  0.00  0.00     0.028 C 
ATOM      5  C   LIG d   1      -0.379  79.162 110.204  0.00  0.00    -0.047 C 
ATOM      6  C   LIG d   1       0.044  80.341 111.110  0.00  0.00     0.091 C 
ENDROOT
BRANCH   1   7
ATOM      7  O   LIG d   1      -0.624  81.586 113.112  0.00  0.00    -0.368 OA
BRANCH   7   8
ATOM      8  C   LIG d   1       0.575  81.075 113.745  0.00  0.00     0.119 C 
BRANCH   8   9
ATOM      9  C   LIG d   1       0.148  80.385 115.055  0.00  0.00     0.028 C 
ATOM     10  C   LIG d   1       0.428  78.873 115.040  0.00  0.00     0.006 C 
ENDBRANCH   8   9
BRANCH   8  11
ATOM     11  C   LIG d   1       1.509  82.211 114.171  0.00  0.00     0.028 C 
ATOM     12  C   LIG d   1       1.103  83.570 113.577  0.00  0.00     0.006 C 
ENDBRANCH   8  11
ENDBRANCH   7   8
ENDBRANCH   1   7
BRANCH   6  13
ATOM     13  N   LIG d   1       0.533  81.508 110.330  0.00  0.00    -0.311 N 
ATOM     14  C   LIG d   1       1.801  81.917 110.340  0.00  0.00     0.210 C 
ATOM     15  C   LIG d   1       2.089  83.153 109.482  0.00  0.00     0.109 C 
ATOM     16  O   LIG d   1       2.721  81.354 110.953  0.00  0.00    -0.276 OA
ATOM     17  H   LIG d   1      -0.140  82.004 109.780  0.00  0.00     0.149 HD
ENDBRANCH   6  13
BRANCH   5  18
ATOM     18  N   LIG d   1       0.743  78.596 109.431  0.00  0.00     0.381 N 
ATOM     19  H   LIG d   1       1.539  78.479 110.025  0.00  0.00    -0.090 HD
ATOM     20  H   LIG d   1       0.988  79.237 108.697  0.00  0.00    -0.090 HD
ATOM     21  H   LIG d   1       0.479  77.718 109.041  0.00  0.00    -0.090 HD
ENDBRANCH   5  18
BRANCH   3  22
ATOM     22  C   LIG d   1      -2.942  77.592 112.321  0.00  0.00     0.382 C 
ATOM     23  O   LIG d   1      -4.018  77.559 111.675  0.00  0.00    -0.241 OA
ATOM     24  O   LIG d   1      -2.798  76.851 113.311  0.00  0.00    -0.241 OA
ENDBRANCH   3  22
TORSDOF 7
ENDMDL
MODEL 2
REMARK VINA RESULT:      -5.0      4.385      7.499
REMARK  7 active torsions:
REMARK  status: ('A' for Active; 'I' for Inactive)
REMARK    1  A    between atoms: C_2  and  C_3 
REMARK    2  A    between atoms: C_3  and  O_6 
REMARK    3  A    between atoms: C_3  and  C_4 
REMARK    4  A    between atoms: C_7  and  O_6 
REMARK    5  A    between atoms: C_9  and  C_10 
REMARK    6  A    between atoms: N_15  and  C_14 
REMARK    7  A    between atoms: N_20  and  C_19 
REMARK       I    between atoms: C_22  and  N_20 
ROOT
ATOM      1  C   LIG d   1      -3.109  76.509 114.781  0.00  0.00     0.161 C 
ATOM      2  C   LIG d   1      -3.095  77.254 113.591  0.00  0.00     0.016 C 
ATOM      3  C   LIG d   1      -1.915  77.779 113.015  0.00  0.00     0.038 C 
ATOM      4  C   LIG d   1      -0.642  77.463 113.515  0.00  0.00     0.028 C 
ATOM      5  C   LIG d   1      -0.641  77.133 115.004  0.00  0.00    -0.047 C 
ATOM      6  C   LIG d   1      -1.719  76.060 115.280  0.00  0.00     0.091 C 
ENDROOT
BRANCH   1   7
ATOM      7  O   LIG d   1      -3.980  75.370 114.634  0.00  0.00    -0.368 OA
BRANCH   7   8
ATOM      8  C   LIG d   1      -5.382  75.599 114.919  0.00  0.00     0.119 C 
BRANCH   8   9
ATOM      9  C   LIG d   1      -5.475  76.199 116.335  0.00  0.00     0.028 C 
ATOM     10  C   LIG d   1      -6.237  77.535 116.358  0.00  0.00     0.006 C 
ENDBRANCH   8   9
BRANCH   8  11
ATOM     11  C   LIG d   1      -6.160  74.281 114.986  0.00  0.00     0.028 C 
ATOM     12  C   LIG d   1      -7.060  74.182 116.228  0.00  0.00     0.006 C 
ENDBRANCH   8  11
ENDBRANCH   7   8
ENDBRANCH   1   7
BRANCH   6  13
ATOM     13  N   LIG d   1      -1.843  75.740 116.726  0.00  0.00    -0.311 N 
ATOM     14  C   LIG d   1      -1.051  74.872 117.355  0.00  0.00     0.210 C 
ATOM     15  C   LIG d   1      -1.362  74.674 118.842  0.00  0.00     0.109 C 
ATOM     16  O   LIG d   1      -0.101  74.272 116.830  0.00  0.00    -0.276 OA
ATOM     17  H   LIG d   1      -2.568  76.206 117.237  0.00  0.00     0.149 HD
ENDBRANCH   6  13
BRANCH   5  18
ATOM     18  N   LIG d   1       0.720  76.690 115.361  0.00  0.00     0.381 N 
ATOM     19  H   LIG d   1       0.686  75.766 115.744  0.00  0.00    -0.090 HD
ATOM     20  H   LIG d   1       1.090  77.308 116.061  0.00  0.00    -0.090 HD
ATOM     21  H   LIG d   1       1.305  76.701 114.554  0.00  0.00    -0.090 HD
ENDBRANCH   5  18
BRANCH   3  22
ATOM     22  C   LIG d   1      -2.003  78.663 111.951  0.00  0.00     0.382 C 
ATOM     23  O   LIG d   1      -1.635  78.304 110.806  0.00  0.00    -0.241 OA
ATOM     24  O   LIG d   1      -2.405  79.828 112.129  0.00  0.00    -0.241 OA
ENDBRANCH   3  22
TORSDOF 7
ENDMDL
MODEL 3
REMARK VINA RESULT:      -4.8      2.606      4.970
REMARK  7 active torsions:
REMARK  status: ('A' for Active; 'I' for Inactive)
REMARK    1  A    between atoms: C_2  and  C_3 
REMARK    2  A    between atoms: C_3  and  O_6 
REMARK    3  A    between atoms: C_3  and  C_4 
REMARK    4  A    between atoms: C_7  and  O_6 
REMARK    5  A    between atoms: C_9  and  C_10 
REMARK    6  A    between atoms: N_15  and  C_14 
REMARK    7  A    between atoms: N_20  and  C_19 
REMARK       I    between atoms: C_22  and  N_20 
ROOT
ATOM      1  C   LIG d   1       0.034  79.330 114.220  0.00  0.00     0.161 C 
ATOM      2  C   LIG d   1      -0.251  80.629 113.766  0.00  0.00     0.016 C 
ATOM      3  C   LIG d   1      -1.000  80.898 112.598  0.00  0.00     0.038 C 
ATOM      4  C   LIG d   1      -1.648  79.881 111.882  0.00  0.00     0.028 C 
ATOM      5  C   LIG d   1      -0.972  78.520 112.015  0.00  0.00    -0.047 C 
ATOM      6  C   LIG d   1      -0.759  78.210 113.515  0.00  0.00     0.091 C 
ENDROOT
BRANCH   1   7
ATOM      7  O   LIG d   1      -0.160  79.259 115.647  0.00  0.00    -0.368 OA
BRANCH   7   8
ATOM      8  C   LIG d   1       1.042  79.142 116.448  0.00  0.00     0.119 C 
BRANCH   8   9
ATOM      9  C   LIG d   1       0.906  77.867 117.303  0.00  0.00     0.028 C 
ATOM     10  C   LIG d   1      -0.559  77.534 117.632  0.00  0.00     0.006 C 
ENDBRANCH   8   9
BRANCH   8  11
ATOM     11  C   LIG d   1       1.156  80.293 117.452  0.00  0.00     0.028 C 
ATOM     12  C   LIG d   1      -0.095  81.184 117.482  0.00  0.00     0.006 C 
ENDBRANCH   8  11
ENDBRANCH   7   8
ENDBRANCH   1   7
BRANCH   6  13
ATOM     13  N   LIG d   1      -0.027  76.936 113.732  0.00  0.00    -0.311 N 
ATOM     14  C   LIG d   1      -0.558  75.880 114.346  0.00  0.00     0.210 C 
ATOM     15  C   LIG d   1       0.375  74.674 114.483  0.00  0.00     0.109 C 
ATOM     16  O   LIG d   1      -1.725  75.818 114.763  0.00  0.00    -0.276 OA
ATOM     17  H   LIG d   1       0.916  76.889 113.398  0.00  0.00     0.149 HD
ENDBRANCH   6  13
BRANCH   5  18
ATOM     18  N   LIG d   1      -1.827  77.529 111.335  0.00  0.00     0.381 N 
ATOM     19  H   LIG d   1      -1.884  77.744 110.360  0.00  0.00    -0.090 HD
ATOM     20  H   LIG d   1      -2.752  77.576 111.724  0.00  0.00    -0.090 HD
ATOM     21  H   LIG d   1      -1.453  76.614 111.460  0.00  0.00    -0.090 HD
ENDBRANCH   5  18
BRANCH   3  22
ATOM     22  C   LIG d   1      -1.073  82.194 112.111  0.00  0.00     0.382 C 
ATOM     23  O   LIG d   1      -1.415  83.131 112.872  0.00  0.00    -0.241 OA
ATOM     24  O   LIG d   1      -0.843  82.433 110.910  0.00  0.00    -0.241 OA
ENDBRANCH   3  22
TORSDOF 7
ENDMDL
MODEL 4
REMARK VINA RESULT:      -4.8      2.452      5.580
REMARK  7 active torsions:
REMARK  status: ('A' for Active; 'I' for Inactive)
REMARK    1  A    between atoms: C_2  and  C_3 
REMARK    2  A    between atoms: C_3  and  O_6 
REMARK    3  A    between atoms: C_3  and  C_4 
REMARK    4  A    between atoms: C_7  and  O_6 
REMARK    5  A    between atoms: C_9  and  C_10 
REMARK    6  A    between atoms: N_15  and  C_14 
REMARK    7  A    between atoms: N_20  and  C_19 
REMARK       I    between atoms: C_22  and  N_20 
ROOT
ATOM      1  C   LIG d   1      -0.612  81.764 112.949  0.00  0.00     0.161 C 
ATOM      2  C   LIG d   1       0.254  82.659 113.599  0.00  0.00     0.016 C 
ATOM      3  C   LIG d   1       1.234  82.253 114.533  0.00  0.00     0.038 C 
ATOM      4  C   LIG d   1       1.518  80.900 114.769  0.00  0.00     0.028 C 
ATOM      5  C   LIG d   1       0.330  79.978 114.514  0.00  0.00    -0.047 C 
ATOM      6  C   LIG d   1      -0.243  80.275 113.110  0.00  0.00     0.091 C 
ENDROOT
BRANCH   1   7
ATOM      7  O   LIG d   1      -0.712  82.108 111.553  0.00  0.00    -0.368 OA
BRANCH   7   8
ATOM      8  C   LIG d   1       0.478  82.671 110.949  0.00  0.00     0.119 C 
BRANCH   8   9
ATOM      9  C   LIG d   1       0.055  83.944 110.190  0.00  0.00     0.028 C 
ATOM     10  C   LIG d   1       1.250  84.674 109.555  0.00  0.00     0.006 C 
ENDBRANCH   8   9
BRANCH   8  11
ATOM     11  C   LIG d   1       1.057  81.737 109.881  0.00  0.00     0.028 C 
ATOM     12  C   LIG d   1       2.496  81.295 110.194  0.00  0.00     0.006 C 
ENDBRANCH   8  11
ENDBRANCH   7   8
ENDBRANCH   1   7
BRANCH   6  13
ATOM     13  N   LIG d   1      -1.460  79.475 112.814  0.00  0.00    -0.311 N 
ATOM     14  C   LIG d   1      -1.595  78.720 111.725  0.00  0.00     0.210 C 
ATOM     15  C   LIG d   1      -2.938  77.993 111.604  0.00  0.00     0.109 C 
ATOM     16  O   LIG d   1      -0.717  78.557 110.864  0.00  0.00    -0.276 OA
ATOM     17  H   LIG d   1      -2.210  79.524 113.476  0.00  0.00     0.149 HD
ENDBRANCH   6  13
BRANCH   5  18
ATOM     18  N   LIG d   1       0.804  78.589 114.664  0.00  0.00     0.381 N 
ATOM     19  H   LIG d   1       1.134  78.247 113.784  0.00  0.00    -0.090 HD
ATOM     20  H   LIG d   1       0.034  78.013 114.958  0.00  0.00    -0.090 HD
ATOM     21  H   LIG d   1       1.534  78.549 115.340  0.00  0.00    -0.090 HD
ENDBRANCH   5  18
BRANCH   3  22
ATOM     22  C   LIG d   1       1.916  83.207 115.273  0.00  0.00     0.382 C 
ATOM     23  O   LIG d   1       1.416  84.346 115.439  0.00  0.00    -0.241 OA
ATOM     24  O   LIG d   1       3.045  82.959 115.738  0.00  0.00    -0.241 OA
ENDBRANCH   3  22
TORSDOF 7
ENDMDL
MODEL 5
REMARK VINA RESULT:      -4.8      1.237      2.056
REMARK  7 active torsions:
REMARK  status: ('A' for Active; 'I' for Inactive)
REMARK    1  A    between atoms: C_2  and  C_3 
REMARK    2  A    between atoms: C_3  and  O_6 
REMARK    3  A    between atoms: C_3  and  C_4 
REMARK    4  A    between atoms: C_7  and  O_6 
REMARK    5  A    between atoms: C_9  and  C_10 
REMARK    6  A    between atoms: N_15  and  C_14 
REMARK    7  A    between atoms: N_20  and  C_19 
REMARK       I    between atoms: C_22  and  N_20 
ROOT
ATOM      1  C   LIG d   1      -0.415  80.889 112.152  0.00  0.00     0.161 C 
ATOM      2  C   LIG d   1      -1.465  80.065 112.591  0.00  0.00     0.016 C 
ATOM      3  C   LIG d   1      -1.741  78.794 112.037  0.00  0.00     0.038 C 
ATOM      4  C   LIG d   1      -0.887  78.191 111.102  0.00  0.00     0.028 C 
ATOM      5  C   LIG d   1      -0.101  79.195 110.264  0.00  0.00    -0.047 C 
ATOM      6  C   LIG d   1       0.595  80.201 111.209  0.00  0.00     0.091 C 
ENDROOT
BRANCH   1   7
ATOM      7  O   LIG d   1       0.266  81.459 113.287  0.00  0.00    -0.368 OA
BRANCH   7   8
ATOM      8  C   LIG d   1      -0.142  82.795 113.670  0.00  0.00     0.119 C 
BRANCH   8   9
ATOM      9  C   LIG d   1       0.600  83.786 112.753  0.00  0.00     0.028 C 
ATOM     10  C   LIG d   1      -0.331  84.439 111.718  0.00  0.00     0.006 C 
ENDBRANCH   8   9
BRANCH   8  11
ATOM     11  C   LIG d   1       0.320  83.132 115.091  0.00  0.00     0.028 C 
ATOM     12  C   LIG d   1       0.059  81.993 116.089  0.00  0.00     0.006 C 
ENDBRANCH   8  11
ENDBRANCH   7   8
ENDBRANCH   1   7
BRANCH   6  13
ATOM     13  N   LIG d   1       1.317  81.269 110.468  0.00  0.00    -0.311 N 
ATOM     14  C   LIG d   1       2.603  81.555 110.663  0.00  0.00     0.210 C 
ATOM     15  C   LIG d   1       3.146  82.705 109.809  0.00  0.00     0.109 C 
ATOM     16  O   LIG d   1       3.353  80.944 111.439  0.00  0.00    -0.276 OA
ATOM     17  H   LIG d   1       0.791  81.793 109.797  0.00  0.00     0.149 HD
ENDBRANCH   6  13
BRANCH   5  18
ATOM     18  N   LIG d   1       0.848  78.434 109.430  0.00  0.00     0.381 N 
ATOM     19  H   LIG d   1       1.300  79.049 108.783  0.00  0.00    -0.090 HD
ATOM     20  H   LIG d   1       0.339  77.744 108.906  0.00  0.00    -0.090 HD
ATOM     21  H   LIG d   1       1.528  77.989 110.007  0.00  0.00    -0.090 HD
ENDBRANCH   5  18
BRANCH   3  22
ATOM     22  C   LIG d   1      -2.906  78.129 112.389  0.00  0.00     0.382 C 
ATOM     23  O   LIG d   1      -3.624  77.610 111.502  0.00  0.00    -0.241 OA
ATOM     24  O   LIG d   1      -3.269  78.079 113.580  0.00  0.00    -0.241 OA
ENDBRANCH   3  22
TORSDOF 7
ENDMDL
MODEL 6
REMARK VINA RESULT:      -4.6      2.797      5.230
REMARK  7 active torsions:
REMARK  status: ('A' for Active; 'I' for Inactive)
REMARK    1  A    between atoms: C_2  and  C_3 
REMARK    2  A    between atoms: C_3  and  O_6 
REMARK    3  A    between atoms: C_3  and  C_4 
REMARK    4  A    between atoms: C_7  and  O_6 
REMARK    5  A    between atoms: C_9  and  C_10 
REMARK    6  A    between atoms: N_15  and  C_14 
REMARK    7  A    between atoms: N_20  and  C_19 
REMARK       I    between atoms: C_22  and  N_20 
ROOT
ATOM      1  C   LIG d   1       0.925  80.736 114.159  0.00  0.00     0.161 C 
ATOM      2  C   LIG d   1       0.589  81.918 113.478  0.00  0.00     0.016 C 
ATOM      3  C   LIG d   1      -0.536  82.034 112.630  0.00  0.00     0.038 C 
ATOM      4  C   LIG d   1      -1.493  81.014 112.524  0.00  0.00     0.028 C 
ATOM      5  C   LIG d   1      -0.929  79.624 112.798  0.00  0.00    -0.047 C 
ATOM      6  C   LIG d   1      -0.168  79.647 114.143  0.00  0.00     0.091 C 
ENDROOT
BRANCH   1   7
ATOM      7  O   LIG d   1       1.306  81.044 115.514  0.00  0.00    -0.368 OA
BRANCH   7   8
ATOM      8  C   LIG d   1       0.252  81.544 116.374  0.00  0.00     0.119 C 
BRANCH   8   9
ATOM      9  C   LIG d   1       0.760  82.846 117.021  0.00  0.00     0.028 C 
ATOM     10  C   LIG d   1       0.088  84.097 116.431  0.00  0.00     0.006 C 
ENDBRANCH   8   9
BRANCH   8  11
ATOM     11  C   LIG d   1      -0.015  80.588 117.541  0.00  0.00     0.028 C 
ATOM     12  C   LIG d   1      -0.907  81.210 118.628  0.00  0.00     0.006 C 
ENDBRANCH   8  11
ENDBRANCH   7   8
ENDBRANCH   1   7
BRANCH   6  13
ATOM     13  N   LIG d   1       0.487  78.348 114.446  0.00  0.00    -0.311 N 
ATOM     14  C   LIG d   1      -0.071  77.405 115.203  0.00  0.00     0.210 C 
ATOM     15  C   LIG d   1       0.783  76.149 115.407  0.00  0.00     0.109 C 
ATOM     16  O   LIG d   1      -1.206  77.475 115.699  0.00  0.00    -0.276 OA
ATOM     17  H   LIG d   1       1.397  78.194 114.058  0.00  0.00     0.149 HD
ENDBRANCH   6  13
BRANCH   5  18
ATOM     18  N   LIG d   1      -2.059  78.675 112.789  0.00  0.00     0.381 N 
ATOM     19  H   LIG d   1      -1.723  77.747 112.956  0.00  0.00    -0.090 HD
ATOM     20  H   LIG d   1      -2.494  78.695 111.884  0.00  0.00    -0.090 HD
ATOM     21  H   LIG d   1      -2.721  78.927 113.490  0.00  0.00    -0.090 HD
ENDBRANCH   5  18
BRANCH   3  22
ATOM     22  C   LIG d   1      -0.692  83.167 111.846  0.00  0.00     0.382 C 
ATOM     23  O   LIG d   1      -0.939  84.273 112.384  0.00  0.00    -0.241 OA
ATOM     24  O   LIG d   1      -0.632  83.089 110.604  0.00  0.00    -0.241 OA
ENDBRANCH   3  22
TORSDOF 7
ENDMDL
MODEL 7
REMARK VINA RESULT:      -4.5      2.445      5.676
REMARK  7 active torsions:
REMARK  status: ('A' for Active; 'I' for Inactive)
REMARK    1  A    between atoms: C_2  and  C_3 
REMARK    2  A    between atoms: C_3  and  O_6 
REMARK    3  A    between atoms: C_3  and  C_4 
REMARK    4  A    between atoms: C_7  and  O_6 
REMARK    5  A    between atoms: C_9  and  C_10 
REMARK    6  A    between atoms: N_15  and  C_14 
REMARK    7  A    between atoms: N_20  and  C_19 
REMARK       I    between atoms: C_22  and  N_20 
ROOT
ATOM      1  C   LIG d   1       0.341  80.047 114.381  0.00  0.00     0.161 C 
ATOM      2  C   LIG d   1       1.122  80.997 115.060  0.00  0.00     0.016 C 
ATOM      3  C   LIG d   1       1.223  82.350 114.660  0.00  0.00     0.038 C 
ATOM      4  C   LIG d   1       0.424  82.882 113.637  0.00  0.00     0.028 C 
ATOM      5  C   LIG d   1      -0.002  81.847 112.601  0.00  0.00    -0.047 C 
ATOM      6  C   LIG d   1      -0.623  80.634 113.330  0.00  0.00     0.091 C 
ENDROOT
BRANCH   1   7
ATOM      7  O   LIG d   1      -0.384  79.242 115.332  0.00  0.00    -0.368 OA
BRANCH   7   8
ATOM      8  C   LIG d   1       0.262  78.015 115.753  0.00  0.00     0.119 C 
BRANCH   8   9
ATOM      9  C   LIG d   1      -0.123  76.919 114.741  0.00  0.00     0.028 C 
ATOM     10  C   LIG d   1      -1.620  76.572 114.793  0.00  0.00     0.006 C 
ENDBRANCH   8   9
BRANCH   8  11
ATOM     11  C   LIG d   1      -0.282  77.532 117.100  0.00  0.00     0.028 C 
ATOM     12  C   LIG d   1       0.747  76.719 117.901  0.00  0.00     0.006 C 
ENDBRANCH   8  11
ENDBRANCH   7   8
ENDBRANCH   1   7
BRANCH   6  13
ATOM     13  N   LIG d   1      -0.991  79.539 112.395  0.00  0.00    -0.311 N 
ATOM     14  C   LIG d   1      -2.245  79.140 112.190  0.00  0.00     0.210 C 
ATOM     15  C   LIG d   1      -2.401  77.981 111.200  0.00  0.00     0.109 C 
ATOM     16  O   LIG d   1      -3.246  79.657 112.709  0.00  0.00    -0.276 OA
ATOM     17  H   LIG d   1      -0.243  79.084 111.908  0.00  0.00     0.149 HD
ENDBRANCH   6  13
BRANCH   5  18
ATOM     18  N   LIG d   1      -0.940  82.507 111.673  0.00  0.00     0.381 N 
ATOM     19  H   LIG d   1      -1.437  83.231 112.151  0.00  0.00    -0.090 HD
ATOM     20  H   LIG d   1      -1.606  81.828 111.348  0.00  0.00    -0.090 HD
ATOM     21  H   LIG d   1      -0.441  82.890 110.900  0.00  0.00    -0.090 HD
ENDBRANCH   5  18
BRANCH   3  22
ATOM     22  C   LIG d   1       2.160  83.176 115.262  0.00  0.00     0.382 C 
ATOM     23  O   LIG d   1       2.063  84.422 115.146  0.00  0.00    -0.241 OA
ATOM     24  O   LIG d   1       3.125  82.690 115.882  0.00  0.00    -0.241 OA
ENDBRANCH   3  22
TORSDOF 7
ENDMDL
MODEL 8
REMARK VINA RESULT:      -4.4      1.788      2.224
REMARK  7 active torsions:
REMARK  status: ('A' for Active; 'I' for Inactive)
REMARK    1  A    between atoms: C_2  and  C_3 
REMARK    2  A    between atoms: C_3  and  O_6 
REMARK    3  A    between atoms: C_3  and  C_4 
REMARK    4  A    between atoms: C_7  and  O_6 
REMARK    5  A    between atoms: C_9  and  C_10 
REMARK    6  A    between atoms: N_15  and  C_14 
REMARK    7  A    between atoms: N_20  and  C_19 
REMARK       I    between atoms: C_22  and  N_20 
ROOT
ATOM      1  C   LIG d   1      -0.005  80.078 113.525  0.00  0.00     0.161 C 
ATOM      2  C   LIG d   1      -0.231  78.901 114.259  0.00  0.00     0.016 C 
ATOM      3  C   LIG d   1      -0.791  77.730 113.698  0.00  0.00     0.038 C 
ATOM      4  C   LIG d   1      -1.025  77.606 112.321  0.00  0.00     0.028 C 
ATOM      5  C   LIG d   1      -1.283  78.940 111.627  0.00  0.00    -0.047 C 
ATOM      6  C   LIG d   1      -0.151  79.925 111.996  0.00  0.00     0.091 C 
ENDROOT
BRANCH   1   7
ATOM      7  O   LIG d   1       1.290  80.617 113.854  0.00  0.00    -0.368 OA
BRANCH   7   8
ATOM      8  C   LIG d   1       1.293  81.843 114.626  0.00  0.00     0.119 C 
BRANCH   8   9
ATOM      9  C   LIG d   1       1.531  81.461 116.100  0.00  0.00     0.028 C 
ATOM     10  C   LIG d   1       0.245  81.533 116.940  0.00  0.00     0.006 C 
ENDBRANCH   8   9
BRANCH   8  11
ATOM     11  C   LIG d   1      -0.079  82.522 114.599  0.00  0.00     0.028 C 
ATOM     12  C   LIG d   1      -0.023  83.957 114.054  0.00  0.00     0.006 C 
ENDBRANCH   8  11
ENDBRANCH   7   8
ENDBRANCH   1   7
BRANCH   6  13
ATOM     13  N   LIG d   1      -0.370  81.280 111.428  0.00  0.00    -0.311 N 
ATOM     14  C   LIG d   1       0.592  81.997 110.849  0.00  0.00     0.210 C 
ATOM     15  C   LIG d   1       0.156  83.377 110.347  0.00  0.00     0.109 C 
ATOM     16  O   LIG d   1       1.756  81.608 110.674  0.00  0.00    -0.276 OA
ATOM     17  H   LIG d   1      -1.294  81.660 111.498  0.00  0.00     0.149 HD
ENDBRANCH   6  13
BRANCH   5  18
ATOM     18  N   LIG d   1      -1.373  78.679 110.178  0.00  0.00     0.381 N 
ATOM     19  H   LIG d   1      -1.527  79.538 109.688  0.00  0.00    -0.090 HD
ATOM     20  H   LIG d   1      -2.156  78.073 110.005  0.00  0.00    -0.090 HD
ATOM     21  H   LIG d   1      -0.534  78.250 109.856  0.00  0.00    -0.090 HD
ENDBRANCH   5  18
BRANCH   3  22
ATOM     22  C   LIG d   1      -1.161  76.681 114.526  0.00  0.00     0.382 C 
ATOM     23  O   LIG d   1      -0.702  75.531 114.323  0.00  0.00    -0.241 OA
ATOM     24  O   LIG d   1      -1.981  76.861 115.446  0.00  0.00    -0.241 OA
ENDBRANCH   3  22
TORSDOF 7
ENDMDL
MODEL 9
REMARK VINA RESULT:      -4.4      3.883      6.276
REMARK  7 active torsions:
REMARK  status: ('A' for Active; 'I' for Inactive)
REMARK    1  A    between atoms: C_2  and  C_3 
REMARK    2  A    between atoms: C_3  and  O_6 
REMARK    3  A    between atoms: C_3  and  C_4 
REMARK    4  A    between atoms: C_7  and  O_6 
REMARK    5  A    between atoms: C_9  and  C_10 
REMARK    6  A    between atoms: N_15  and  C_14 
REMARK    7  A    between atoms: N_20  and  C_19 
REMARK       I    between atoms: C_22  and  N_20 
ROOT
ATOM      1  C   LIG d   1      -0.496  76.583 114.477  0.00  0.00     0.161 C 
ATOM      2  C   LIG d   1      -0.934  77.213 113.300  0.00  0.00     0.016 C 
ATOM      3  C   LIG d   1      -2.297  77.449 113.005  0.00  0.00     0.038 C 
ATOM      4  C   LIG d   1      -3.312  77.205 113.942  0.00  0.00     0.028 C 
ATOM      5  C   LIG d   1      -2.964  76.105 114.939  0.00  0.00    -0.047 C 
ATOM      6  C   LIG d   1      -1.581  76.410 115.560  0.00  0.00     0.091 C 
ENDROOT
BRANCH   1   7
ATOM      7  O   LIG d   1       0.640  77.287 115.015  0.00  0.00    -0.368 OA
BRANCH   7   8
ATOM      8  C   LIG d   1       0.346  78.481 115.781  0.00  0.00     0.119 C 
BRANCH   8   9
ATOM      9  C   LIG d   1       1.056  79.662 115.090  0.00  0.00     0.028 C 
ATOM     10  C   LIG d   1       0.068  80.614 114.396  0.00  0.00     0.006 C 
ENDBRANCH   8   9
BRANCH   8  11
ATOM     11  C   LIG d   1       0.956  78.407 117.184  0.00  0.00     0.028 C 
ATOM     12  C   LIG d   1       1.896  77.203 117.362  0.00  0.00     0.006 C 
ENDBRANCH   8  11
ENDBRANCH   7   8
ENDBRANCH   1   7
BRANCH   6  13
ATOM     13  N   LIG d   1      -1.127  75.339 116.485  0.00  0.00    -0.311 N 
ATOM     14  C   LIG d   1      -1.321  75.377 117.802  0.00  0.00     0.210 C 
ATOM     15  C   LIG d   1      -0.755  74.180 118.574  0.00  0.00     0.109 C 
ATOM     16  O   LIG d   1      -1.935  76.272 118.401  0.00  0.00    -0.276 OA
ATOM     17  H   LIG d   1      -0.647  74.559 116.079  0.00  0.00     0.149 HD
ENDBRANCH   6  13
BRANCH   5  18
ATOM     18  N   LIG d   1      -4.047  76.050 115.938  0.00  0.00     0.381 N 
ATOM     19  H   LIG d   1      -3.803  76.605 116.734  0.00  0.00    -0.090 HD
ATOM     20  H   LIG d   1      -4.163  75.099 116.240  0.00  0.00    -0.090 HD
ATOM     21  H   LIG d   1      -4.897  76.385 115.539  0.00  0.00    -0.090 HD
ENDBRANCH   5  18
BRANCH   3  22
ATOM     22  C   LIG d   1      -2.658  77.899 111.744  0.00  0.00     0.382 C 
ATOM     23  O   LIG d   1      -3.758  77.554 111.247  0.00  0.00    -0.241 OA
ATOM     24  O   LIG d   1      -1.880  78.608 111.079  0.00  0.00    -0.241 OA
ENDBRANCH   3  22
TORSDOF 7
ENDMDL
