MODEL 1
REMARK VINA RESULT:      -5.0      0.000      0.000
REMARK  7 active torsions:
REMARK  status: ('A' for Active; 'I' for Inactive)
REMARK    1  A    between atoms: C_2  and  C_3 
REMARK    2  A    between atoms: C_3  and  O_6 
REMARK    3  A    between atoms: C_3  and  C_4 
REMARK    4  A    between atoms: C_7  and  O_6 
REMARK    5  A    between atoms: C_9  and  C_10 
REMARK    6  A    between atoms: N_15  and  C_14 
REMARK    7  A    between atoms: N_20  and  C_19 
REMARK       I    between atoms: C_22  and  N_20 
ROOT
ATOM      1  C   LIG d   1      -2.565  78.311 115.028  0.00  0.00     0.161 C 
ATOM      2  C   LIG d   1      -2.780  79.520 114.346  0.00  0.00     0.016 C 
ATOM      3  C   LIG d   1      -2.220  79.809 113.080  0.00  0.00     0.038 C 
ATOM      4  C   LIG d   1      -1.525  78.842 112.338  0.00  0.00     0.028 C 
ATOM      5  C   LIG d   1      -0.857  77.780 113.204  0.00  0.00    -0.047 C 
ATOM      6  C   LIG d   1      -1.902  77.202 114.185  0.00  0.00     0.091 C 
ENDROOT
BRANCH   1   7
ATOM      7  O   LIG d   1      -3.806  77.840 115.589  0.00  0.00    -0.368 OA
BRANCH   7   8
ATOM      8  C   LIG d   1      -4.122  78.310 116.923  0.00  0.00     0.119 C 
BRANCH   8   9
ATOM      9  C   LIG d   1      -3.377  77.404 117.922  0.00  0.00     0.028 C 
ATOM     10  C   LIG d   1      -4.139  76.100 118.213  0.00  0.00     0.006 C 
ENDBRANCH   8   9
BRANCH   8  11
ATOM     11  C   LIG d   1      -5.609  78.126 117.241  0.00  0.00     0.028 C 
ATOM     12  C   LIG d   1      -6.302  79.442 117.630  0.00  0.00     0.006 C 
ENDBRANCH   8  11
ENDBRANCH   7   8
ENDBRANCH   1   7
BRANCH   6  13
ATOM     13  N   LIG d   1      -1.311  76.215 115.126  0.00  0.00    -0.311 N 
ATOM     14  C   LIG d   1      -1.871  75.039 115.403  0.00  0.00     0.210 C 
ATOM     15  C   LIG d   1      -1.107  74.180 116.415  0.00  0.00     0.109 C 
ATOM     16  O   LIG d   1      -2.912  74.611 114.881  0.00  0.00    -0.276 OA
ATOM     17  H   LIG d   1      -0.450  76.468 115.571  0.00  0.00     0.149 HD
ENDBRANCH   6  13
BRANCH   5  18
ATOM     18  N   LIG d   1      -0.288  76.762 112.300  0.00  0.00     0.381 N 
ATOM     19  H   LIG d   1      -0.622  76.911 111.369  0.00  0.00    -0.090 HD
ATOM     20  H   LIG d   1      -0.591  75.853 112.602  0.00  0.00    -0.090 HD
ATOM     21  H   LIG d   1       0.707  76.811 112.316  0.00  0.00    -0.090 HD
ENDBRANCH   5  18
BRANCH   3  22
ATOM     22  C   LIG d   1      -2.319  81.092 112.562  0.00  0.00     0.382 C 
ATOM     23  O   LIG d   1      -3.321  81.799 112.825  0.00  0.00    -0.241 OA
ATOM     24  O   LIG d   1      -1.439  81.534 111.798  0.00  0.00    -0.241 OA
ENDBRANCH   3  22
TORSDOF 7
ENDMDL
MODEL 2
REMARK VINA RESULT:      -4.9      2.600      3.399
REMARK  7 active torsions:
REMARK  status: ('A' for Active; 'I' for Inactive)
REMARK    1  A    between atoms: C_2  and  C_3 
REMARK    2  A    between atoms: C_3  and  O_6 
REMARK    3  A    between atoms: C_3  and  C_4 
REMARK    4  A    between atoms: C_7  and  O_6 
REMARK    5  A    between atoms: C_9  and  C_10 
REMARK    6  A    between atoms: N_15  and  C_14 
REMARK    7  A    between atoms: N_20  and  C_19 
REMARK       I    between atoms: C_22  and  N_20 
ROOT
ATOM      1  C   LIG d   1      -3.199  77.541 114.655  0.00  0.00     0.161 C 
ATOM      2  C   LIG d   1      -3.148  77.883 113.293  0.00  0.00     0.016 C 
ATOM      3  C   LIG d   1      -1.995  77.717 112.492  0.00  0.00     0.038 C 
ATOM      4  C   LIG d   1      -0.853  77.053 112.964  0.00  0.00     0.028 C 
ATOM      5  C   LIG d   1      -0.681  77.145 114.477  0.00  0.00    -0.047 C 
ATOM      6  C   LIG d   1      -1.999  76.712 115.159  0.00  0.00     0.091 C 
ENDROOT
BRANCH   1   7
ATOM      7  O   LIG d   1      -4.436  76.857 114.941  0.00  0.00    -0.368 OA
BRANCH   7   8
ATOM      8  C   LIG d   1      -4.882  75.905 113.945  0.00  0.00     0.119 C 
BRANCH   8   9
ATOM      9  C   LIG d   1      -6.366  76.201 113.653  0.00  0.00     0.028 C 
ATOM     10  C   LIG d   1      -6.602  76.635 112.196  0.00  0.00     0.006 C 
ENDBRANCH   8   9
BRANCH   8  11
ATOM     11  C   LIG d   1      -4.854  74.474 114.490  0.00  0.00     0.028 C 
ATOM     12  C   LIG d   1      -6.016  74.180 115.453  0.00  0.00     0.006 C 
ENDBRANCH   8  11
ENDBRANCH   7   8
ENDBRANCH   1   7
BRANCH   6  13
ATOM     13  N   LIG d   1      -1.945  76.853 116.637  0.00  0.00    -0.311 N 
ATOM     14  C   LIG d   1      -2.217  75.857 117.479  0.00  0.00     0.210 C 
ATOM     15  C   LIG d   1      -2.121  76.220 118.964  0.00  0.00     0.109 C 
ATOM     16  O   LIG d   1      -2.498  74.698 117.137  0.00  0.00    -0.276 OA
ATOM     17  H   LIG d   1      -1.695  77.751 117.001  0.00  0.00     0.149 HD
ENDBRANCH   6  13
BRANCH   5  18
ATOM     18  N   LIG d   1       0.467  76.296 114.847  0.00  0.00     0.381 N 
ATOM     19  H   LIG d   1       1.315  76.712 114.518  0.00  0.00    -0.090 HD
ATOM     20  H   LIG d   1       0.364  75.399 114.406  0.00  0.00    -0.090 HD
ATOM     21  H   LIG d   1       0.505  76.186 115.836  0.00  0.00    -0.090 HD
ENDBRANCH   5  18
BRANCH   3  22
ATOM     22  C   LIG d   1      -1.963  78.255 111.215  0.00  0.00     0.382 C 
ATOM     23  O   LIG d   1      -2.655  77.744 110.301  0.00  0.00    -0.241 OA
ATOM     24  O   LIG d   1      -1.217  79.218 110.953  0.00  0.00    -0.241 OA
ENDBRANCH   3  22
TORSDOF 7
ENDMDL
MODEL 3
REMARK VINA RESULT:      -4.9      2.234      3.027
REMARK  7 active torsions:
REMARK  status: ('A' for Active; 'I' for Inactive)
REMARK    1  A    between atoms: C_2  and  C_3 
REMARK    2  A    between atoms: C_3  and  O_6 
REMARK    3  A    between atoms: C_3  and  C_4 
REMARK    4  A    between atoms: C_7  and  O_6 
REMARK    5  A    between atoms: C_9  and  C_10 
REMARK    6  A    between atoms: N_15  and  C_14 
REMARK    7  A    between atoms: N_20  and  C_19 
REMARK       I    between atoms: C_22  and  N_20 
ROOT
ATOM      1  C   LIG d   1      -2.802  77.260 115.131  0.00  0.00     0.161 C 
ATOM      2  C   LIG d   1      -2.914  77.734 113.814  0.00  0.00     0.016 C 
ATOM      3  C   LIG d   1      -1.873  77.640 112.861  0.00  0.00     0.038 C 
ATOM      4  C   LIG d   1      -0.695  76.924 113.119  0.00  0.00     0.028 C 
ATOM      5  C   LIG d   1      -0.334  76.865 114.600  0.00  0.00    -0.047 C 
ATOM      6  C   LIG d   1      -1.564  76.377 115.398  0.00  0.00     0.091 C 
ENDROOT
BRANCH   1   7
ATOM      7  O   LIG d   1      -4.006  76.560 115.503  0.00  0.00    -0.368 OA
BRANCH   7   8
ATOM      8  C   LIG d   1      -4.018  75.134 115.249  0.00  0.00     0.119 C 
BRANCH   8   9
ATOM      9  C   LIG d   1      -5.169  74.849 114.264  0.00  0.00     0.028 C 
ATOM     10  C   LIG d   1      -6.302  75.884 114.371  0.00  0.00     0.006 C 
ENDBRANCH   8   9
BRANCH   8  11
ATOM     11  C   LIG d   1      -4.364  74.346 116.516  0.00  0.00     0.028 C 
ATOM     12  C   LIG d   1      -4.710  75.253 117.707  0.00  0.00     0.006 C 
ENDBRANCH   8  11
ENDBRANCH   7   8
ENDBRANCH   1   7
BRANCH   6  13
ATOM     13  N   LIG d   1      -1.323  76.371 116.864  0.00  0.00    -0.311 N 
ATOM     14  C   LIG d   1      -0.935  75.290 117.539  0.00  0.00     0.210 C 
ATOM     15  C   LIG d   1      -0.763  75.496 119.047  0.00  0.00     0.109 C 
ATOM     16  O   LIG d   1      -0.685  74.189 117.026  0.00  0.00    -0.276 OA
ATOM     17  H   LIG d   1      -1.472  77.231 117.354  0.00  0.00     0.149 HD
ENDBRANCH   6  13
BRANCH   5  18
ATOM     18  N   LIG d   1       0.835  75.976 114.739  0.00  0.00     0.381 N 
ATOM     19  H   LIG d   1       1.624  76.378 114.273  0.00  0.00    -0.090 HD
ATOM     20  H   LIG d   1       0.627  75.095 114.302  0.00  0.00    -0.090 HD
ATOM     21  H   LIG d   1       1.045  75.836 115.702  0.00  0.00    -0.090 HD
ENDBRANCH   5  18
BRANCH   3  22
ATOM     22  C   LIG d   1      -1.990  78.301 111.648  0.00  0.00     0.382 C 
ATOM     23  O   LIG d   1      -1.754  79.531 111.579  0.00  0.00    -0.241 OA
ATOM     24  O   LIG d   1      -2.372  77.692 110.631  0.00  0.00    -0.241 OA
ENDBRANCH   3  22
TORSDOF 7
ENDMDL
MODEL 4
REMARK VINA RESULT:      -4.8      2.005      2.996
REMARK  7 active torsions:
REMARK  status: ('A' for Active; 'I' for Inactive)
REMARK    1  A    between atoms: C_2  and  C_3 
REMARK    2  A    between atoms: C_3  and  O_6 
REMARK    3  A    between atoms: C_3  and  C_4 
REMARK    4  A    between atoms: C_7  and  O_6 
REMARK    5  A    between atoms: C_9  and  C_10 
REMARK    6  A    between atoms: N_15  and  C_14 
REMARK    7  A    between atoms: N_20  and  C_19 
REMARK       I    between atoms: C_22  and  N_20 
ROOT
ATOM      1  C   LIG d   1      -1.604  77.862 113.617  0.00  0.00     0.161 C 
ATOM      2  C   LIG d   1      -2.233  79.116 113.540  0.00  0.00     0.016 C 
ATOM      3  C   LIG d   1      -2.068  80.004 112.452  0.00  0.00     0.038 C 
ATOM      4  C   LIG d   1      -1.377  79.631 111.290  0.00  0.00     0.028 C 
ATOM      5  C   LIG d   1      -0.306  78.573 111.534  0.00  0.00    -0.047 C 
ATOM      6  C   LIG d   1      -0.935  77.393 112.309  0.00  0.00     0.091 C 
ENDROOT
BRANCH   1   7
ATOM      7  O   LIG d   1      -2.542  76.873 114.084  0.00  0.00    -0.368 OA
BRANCH   7   8
ATOM      8  C   LIG d   1      -2.395  76.456 115.464  0.00  0.00     0.119 C 
BRANCH   8   9
ATOM      9  C   LIG d   1      -2.071  74.949 115.460  0.00  0.00     0.028 C 
ATOM     10  C   LIG d   1      -0.596  74.665 115.790  0.00  0.00     0.006 C 
ENDBRANCH   8   9
BRANCH   8  11
ATOM     11  C   LIG d   1      -3.715  76.585 116.229  0.00  0.00     0.028 C 
ATOM     12  C   LIG d   1      -3.660  75.943 117.625  0.00  0.00     0.006 C 
ENDBRANCH   8  11
ENDBRANCH   7   8
ENDBRANCH   1   7
BRANCH   6  13
ATOM     13  N   LIG d   1       0.064  76.351 112.663  0.00  0.00    -0.311 N 
ATOM     14  C   LIG d   1       0.413  75.361 111.842  0.00  0.00     0.210 C 
ATOM     15  C   LIG d   1       1.446  74.383 112.412  0.00  0.00     0.109 C 
ATOM     16  O   LIG d   1      -0.010  75.219 110.685  0.00  0.00    -0.276 OA
ATOM     17  H   LIG d   1       0.481  76.408 113.571  0.00  0.00     0.149 HD
ENDBRANCH   6  13
BRANCH   5  18
ATOM     18  N   LIG d   1       0.239  78.179 110.221  0.00  0.00     0.381 N 
ATOM     19  H   LIG d   1      -0.086  78.810 109.516  0.00  0.00    -0.090 HD
ATOM     20  H   LIG d   1      -0.092  77.257 109.995  0.00  0.00    -0.090 HD
ATOM     21  H   LIG d   1       1.235  78.184 110.250  0.00  0.00    -0.090 HD
ENDBRANCH   5  18
BRANCH   3  22
ATOM     22  C   LIG d   1      -2.564  81.296 112.538  0.00  0.00     0.382 C 
ATOM     23  O   LIG d   1      -1.918  82.250 112.042  0.00  0.00    -0.241 OA
ATOM     24  O   LIG d   1      -3.629  81.524 113.143  0.00  0.00    -0.241 OA
ENDBRANCH   3  22
TORSDOF 7
ENDMDL
MODEL 5
REMARK VINA RESULT:      -4.5      2.756      5.337
REMARK  7 active torsions:
REMARK  status: ('A' for Active; 'I' for Inactive)
REMARK    1  A    between atoms: C_2  and  C_3 
REMARK    2  A    between atoms: C_3  and  O_6 
REMARK    3  A    between atoms: C_3  and  C_4 
REMARK    4  A    between atoms: C_7  and  O_6 
REMARK    5  A    between atoms: C_9  and  C_10 
REMARK    6  A    between atoms: N_15  and  C_14 
REMARK    7  A    between atoms: N_20  and  C_19 
REMARK       I    between atoms: C_22  and  N_20 
ROOT
ATOM      1  C   LIG d   1      -1.134  75.296 115.212  0.00  0.00     0.161 C 
ATOM      2  C   LIG d   1      -0.492  74.902 116.397  0.00  0.00     0.016 C 
ATOM      3  C   LIG d   1       0.036  75.818 117.337  0.00  0.00     0.038 C 
ATOM      4  C   LIG d   1      -0.178  77.200 117.227  0.00  0.00     0.028 C 
ATOM      5  C   LIG d   1      -0.382  77.668 115.790  0.00  0.00    -0.047 C 
ATOM      6  C   LIG d   1      -1.475  76.799 115.129  0.00  0.00     0.091 C 
ENDROOT
BRANCH   1   7
ATOM      7  O   LIG d   1      -2.320  74.502 115.012  0.00  0.00    -0.368 OA
BRANCH   7   8
ATOM      8  C   LIG d   1      -3.567  75.095 115.452  0.00  0.00     0.119 C 
BRANCH   8   9
ATOM      9  C   LIG d   1      -3.839  74.592 116.883  0.00  0.00     0.028 C 
ATOM     10  C   LIG d   1      -3.857  75.735 117.912  0.00  0.00     0.006 C 
ENDBRANCH   8   9
BRANCH   8  11
ATOM     11  C   LIG d   1      -4.748  74.595 114.615  0.00  0.00     0.028 C 
ATOM     12  C   LIG d   1      -5.466  75.726 113.862  0.00  0.00     0.006 C 
ENDBRANCH   8  11
ENDBRANCH   7   8
ENDBRANCH   1   7
BRANCH   6  13
ATOM     13  N   LIG d   1      -1.678  77.136 113.696  0.00  0.00    -0.311 N 
ATOM     14  C   LIG d   1      -2.570  78.030 113.272  0.00  0.00     0.210 C 
ATOM     15  C   LIG d   1      -2.631  78.211 111.752  0.00  0.00     0.109 C 
ATOM     16  O   LIG d   1      -3.293  78.713 114.012  0.00  0.00    -0.276 OA
ATOM     17  H   LIG d   1      -1.110  76.651 113.028  0.00  0.00     0.149 HD
ENDBRANCH   6  13
BRANCH   5  18
ATOM     18  N   LIG d   1      -0.730  79.101 115.834  0.00  0.00     0.381 N 
ATOM     19  H   LIG d   1      -1.432  79.258 116.530  0.00  0.00    -0.090 HD
ATOM     20  H   LIG d   1      -1.105  79.372 114.942  0.00  0.00    -0.090 HD
ATOM     21  H   LIG d   1       0.080  79.643 116.041  0.00  0.00    -0.090 HD
ENDBRANCH   5  18
BRANCH   3  22
ATOM     22  C   LIG d   1       0.822  75.354 118.381  0.00  0.00     0.382 C 
ATOM     23  O   LIG d   1       0.856  75.981 119.467  0.00  0.00    -0.241 OA
ATOM     24  O   LIG d   1       1.533  74.341 118.235  0.00  0.00    -0.241 OA
ENDBRANCH   3  22
TORSDOF 7
ENDMDL
MODEL 6
REMARK VINA RESULT:      -4.5      2.614      4.989
REMARK  7 active torsions:
REMARK  status: ('A' for Active; 'I' for Inactive)
REMARK    1  A    between atoms: C_2  and  C_3 
REMARK    2  A    between atoms: C_3  and  O_6 
REMARK    3  A    between atoms: C_3  and  C_4 
REMARK    4  A    between atoms: C_7  and  O_6 
REMARK    5  A    between atoms: C_9  and  C_10 
REMARK    6  A    between atoms: N_15  and  C_14 
REMARK    7  A    between atoms: N_20  and  C_19 
REMARK       I    between atoms: C_22  and  N_20 
ROOT
ATOM      1  C   LIG d   1      -2.855  78.489 115.356  0.00  0.00     0.161 C 
ATOM      2  C   LIG d   1      -1.552  78.903 115.681  0.00  0.00     0.016 C 
ATOM      3  C   LIG d   1      -0.548  78.022 116.145  0.00  0.00     0.038 C 
ATOM      4  C   LIG d   1      -0.737  76.632 116.173  0.00  0.00     0.028 C 
ATOM      5  C   LIG d   1      -2.196  76.222 116.334  0.00  0.00    -0.047 C 
ATOM      6  C   LIG d   1      -3.045  76.960 115.274  0.00  0.00     0.091 C 
ENDROOT
BRANCH   1   7
ATOM      7  O   LIG d   1      -3.273  79.113 114.126  0.00  0.00    -0.368 OA
BRANCH   7   8
ATOM      8  C   LIG d   1      -2.220  79.678 113.307  0.00  0.00     0.119 C 
BRANCH   8   9
ATOM      9  C   LIG d   1      -2.686  81.076 112.854  0.00  0.00     0.028 C 
ATOM     10  C   LIG d   1      -1.521  81.952 112.364  0.00  0.00     0.006 C 
ENDBRANCH   8   9
BRANCH   8  11
ATOM     11  C   LIG d   1      -2.026  78.877 112.017  0.00  0.00     0.028 C 
ATOM     12  C   LIG d   1      -1.029  77.719 112.179  0.00  0.00     0.006 C 
ENDBRANCH   8  11
ENDBRANCH   7   8
ENDBRANCH   1   7
BRANCH   6  13
ATOM     13  N   LIG d   1      -4.498  76.680 115.416  0.00  0.00    -0.311 N 
ATOM     14  C   LIG d   1      -5.147  75.783 114.675  0.00  0.00     0.210 C 
ATOM     15  C   LIG d   1      -6.646  75.665 114.969  0.00  0.00     0.109 C 
ATOM     16  O   LIG d   1      -4.618  75.052 113.825  0.00  0.00    -0.276 OA
ATOM     17  H   LIG d   1      -4.999  77.207 116.104  0.00  0.00     0.149 HD
ENDBRANCH   6  13
BRANCH   5  18
ATOM     18  N   LIG d   1      -2.263  74.754 116.209  0.00  0.00     0.381 N 
ATOM     19  H   LIG d   1      -3.055  74.497 115.653  0.00  0.00    -0.090 HD
ATOM     20  H   LIG d   1      -2.377  74.354 117.124  0.00  0.00    -0.090 HD
ATOM     21  H   LIG d   1      -1.428  74.409 115.789  0.00  0.00    -0.090 HD
ENDBRANCH   5  18
BRANCH   3  22
ATOM     22  C   LIG d   1       0.647  78.535 116.626  0.00  0.00     0.382 C 
ATOM     23  O   LIG d   1       0.864  79.770 116.579  0.00  0.00    -0.241 OA
ATOM     24  O   LIG d   1       1.529  77.773 117.066  0.00  0.00    -0.241 OA
ENDBRANCH   3  22
TORSDOF 7
ENDMDL
MODEL 7
REMARK VINA RESULT:      -4.4      2.532      5.397
REMARK  7 active torsions:
REMARK  status: ('A' for Active; 'I' for Inactive)
REMARK    1  A    between atoms: C_2  and  C_3 
REMARK    2  A    between atoms: C_3  and  O_6 
REMARK    3  A    between atoms: C_3  and  C_4 
REMARK    4  A    between atoms: C_7  and  O_6 
REMARK    5  A    between atoms: C_9  and  C_10 
REMARK    6  A    between atoms: N_15  and  C_14 
REMARK    7  A    between atoms: N_20  and  C_19 
REMARK       I    between atoms: C_22  and  N_20 
ROOT
ATOM      1  C   LIG d   1      -1.908  77.631 114.584  0.00  0.00     0.161 C 
ATOM      2  C   LIG d   1      -3.110  77.131 114.057  0.00  0.00     0.016 C 
ATOM      3  C   LIG d   1      -4.065  76.428 114.826  0.00  0.00     0.038 C 
ATOM      4  C   LIG d   1      -3.951  76.307 116.219  0.00  0.00     0.028 C 
ATOM      5  C   LIG d   1      -2.509  76.356 116.715  0.00  0.00    -0.047 C 
ATOM      6  C   LIG d   1      -1.817  77.605 116.124  0.00  0.00     0.091 C 
ENDROOT
BRANCH   1   7
ATOM      7  O   LIG d   1      -1.674  78.965 114.091  0.00  0.00    -0.368 OA
BRANCH   7   8
ATOM      8  C   LIG d   1      -2.371  79.325 112.872  0.00  0.00     0.119 C 
BRANCH   8   9
ATOM      9  C   LIG d   1      -1.361  79.220 111.714  0.00  0.00     0.028 C 
ATOM     10  C   LIG d   1      -1.758  78.149 110.683  0.00  0.00     0.006 C 
ENDBRANCH   8   9
BRANCH   8  11
ATOM     11  C   LIG d   1      -2.811  80.791 112.895  0.00  0.00     0.028 C 
ATOM     12  C   LIG d   1      -1.715  81.750 112.406  0.00  0.00     0.006 C 
ENDBRANCH   8  11
ENDBRANCH   7   8
ENDBRANCH   1   7
BRANCH   6  13
ATOM     13  N   LIG d   1      -0.380  77.684 116.492  0.00  0.00    -0.311 N 
ATOM     14  C   LIG d   1       0.177  78.758 117.049  0.00  0.00     0.210 C 
ATOM     15  C   LIG d   1       1.678  78.637 117.330  0.00  0.00     0.109 C 
ATOM     16  O   LIG d   1      -0.437  79.788 117.368  0.00  0.00    -0.276 OA
ATOM     17  H   LIG d   1       0.186  76.881 116.297  0.00  0.00     0.149 HD
ENDBRANCH   6  13
BRANCH   5  18
ATOM     18  N   LIG d   1      -2.545  76.357 118.190  0.00  0.00     0.381 N 
ATOM     19  H   LIG d   1      -2.853  75.465 118.522  0.00  0.00    -0.090 HD
ATOM     20  H   LIG d   1      -3.202  77.053 118.498  0.00  0.00    -0.090 HD
ATOM     21  H   LIG d   1      -1.640  76.561 118.553  0.00  0.00    -0.090 HD
ENDBRANCH   5  18
BRANCH   3  22
ATOM     22  C   LIG d   1      -5.129  75.802 114.196  0.00  0.00     0.382 C 
ATOM     23  O   LIG d   1      -4.975  74.667 113.684  0.00  0.00    -0.241 OA
ATOM     24  O   LIG d   1      -6.230  76.377 114.094  0.00  0.00    -0.241 OA
ENDBRANCH   3  22
TORSDOF 7
ENDMDL
MODEL 8
REMARK VINA RESULT:      -4.3      1.178      2.017
REMARK  7 active torsions:
REMARK  status: ('A' for Active; 'I' for Inactive)
REMARK    1  A    between atoms: C_2  and  C_3 
REMARK    2  A    between atoms: C_3  and  O_6 
REMARK    3  A    between atoms: C_3  and  C_4 
REMARK    4  A    between atoms: C_7  and  O_6 
REMARK    5  A    between atoms: C_9  and  C_10 
REMARK    6  A    between atoms: N_15  and  C_14 
REMARK    7  A    between atoms: N_20  and  C_19 
REMARK       I    between atoms: C_22  and  N_20 
ROOT
ATOM      1  C   LIG d   1      -2.659  78.179 114.888  0.00  0.00     0.161 C 
ATOM      2  C   LIG d   1      -2.887  79.457 114.353  0.00  0.00     0.016 C 
ATOM      3  C   LIG d   1      -2.314  79.907 113.141  0.00  0.00     0.038 C 
ATOM      4  C   LIG d   1      -1.590  79.049 112.300  0.00  0.00     0.028 C 
ATOM      5  C   LIG d   1      -0.913  77.901 113.043  0.00  0.00    -0.047 C 
ATOM      6  C   LIG d   1      -1.961  77.191 113.930  0.00  0.00     0.091 C 
ENDROOT
BRANCH   1   7
ATOM      7  O   LIG d   1      -3.898  77.621 115.367  0.00  0.00    -0.368 OA
BRANCH   7   8
ATOM      8  C   LIG d   1      -4.018  77.473 116.804  0.00  0.00     0.119 C 
BRANCH   8   9
ATOM      9  C   LIG d   1      -5.389  78.042 117.215  0.00  0.00     0.028 C 
ATOM     10  C   LIG d   1      -5.335  79.552 117.505  0.00  0.00     0.006 C 
ENDBRANCH   8   9
BRANCH   8  11
ATOM     11  C   LIG d   1      -2.985  78.331 117.540  0.00  0.00     0.028 C 
ATOM     12  C   LIG d   1      -2.258  77.562 118.655  0.00  0.00     0.006 C 
ENDBRANCH   8  11
ENDBRANCH   7   8
ENDBRANCH   1   7
BRANCH   6  13
ATOM     13  N   LIG d   1      -1.364  76.109 114.755  0.00  0.00    -0.311 N 
ATOM     14  C   LIG d   1      -0.395  76.315 115.645  0.00  0.00     0.210 C 
ATOM     15  C   LIG d   1       0.091  75.059 116.375  0.00  0.00     0.109 C 
ATOM     16  O   LIG d   1       0.086  77.424 115.923  0.00  0.00    -0.276 OA
ATOM     17  H   LIG d   1      -1.718  75.182 114.617  0.00  0.00     0.149 HD
ENDBRANCH   6  13
BRANCH   5  18
ATOM     18  N   LIG d   1      -0.311  77.011 112.033  0.00  0.00     0.381 N 
ATOM     19  H   LIG d   1      -0.755  76.114 112.065  0.00  0.00    -0.090 HD
ATOM     20  H   LIG d   1       0.663  76.888 112.248  0.00  0.00    -0.090 HD
ATOM     21  H   LIG d   1      -0.411  77.407 111.125  0.00  0.00    -0.090 HD
ENDBRANCH   5  18
BRANCH   3  22
ATOM     22  C   LIG d   1      -2.431  81.240 112.778  0.00  0.00     0.382 C 
ATOM     23  O   LIG d   1      -1.401  81.922 112.558  0.00  0.00    -0.241 OA
ATOM     24  O   LIG d   1      -3.551  81.781 112.712  0.00  0.00    -0.241 OA
ENDBRANCH   3  22
TORSDOF 7
ENDMDL
MODEL 9
REMARK VINA RESULT:      -4.2      3.139      5.754
REMARK  7 active torsions:
REMARK  status: ('A' for Active; 'I' for Inactive)
REMARK    1  A    between atoms: C_2  and  C_3 
REMARK    2  A    between atoms: C_3  and  O_6 
REMARK    3  A    between atoms: C_3  and  C_4 
REMARK    4  A    between atoms: C_7  and  O_6 
REMARK    5  A    between atoms: C_9  and  C_10 
REMARK    6  A    between atoms: N_15  and  C_14 
REMARK    7  A    between atoms: N_20  and  C_19 
REMARK       I    between atoms: C_22  and  N_20 
ROOT
ATOM      1  C   LIG d   1      -0.389  79.404 113.479  0.00  0.00     0.161 C 
ATOM      2  C   LIG d   1      -1.358  79.108 112.505  0.00  0.00     0.016 C 
ATOM      3  C   LIG d   1      -2.486  78.293 112.752  0.00  0.00     0.038 C 
ATOM      4  C   LIG d   1      -2.805  77.838 114.040  0.00  0.00     0.028 C 
ATOM      5  C   LIG d   1      -1.589  77.691 114.949  0.00  0.00    -0.047 C 
ATOM      6  C   LIG d   1      -0.779  79.007 114.919  0.00  0.00     0.091 C 
ENDROOT
BRANCH   1   7
ATOM      7  O   LIG d   1      -0.047  80.803 113.420  0.00  0.00    -0.368 OA
BRANCH   7   8
ATOM      8  C   LIG d   1       0.121  81.362 112.094  0.00  0.00     0.119 C 
BRANCH   8   9
ATOM      9  C   LIG d   1       1.634  81.520 111.847  0.00  0.00     0.028 C 
ATOM     10  C   LIG d   1       2.081  80.890 110.518  0.00  0.00     0.006 C 
ENDBRANCH   8   9
BRANCH   8  11
ATOM     11  C   LIG d   1      -0.454  82.779 112.009  0.00  0.00     0.028 C 
ATOM     12  C   LIG d   1       0.352  83.799 112.829  0.00  0.00     0.006 C 
ENDBRANCH   8  11
ENDBRANCH   7   8
ENDBRANCH   1   7
BRANCH   6  13
ATOM     13  N   LIG d   1       0.473  78.921 115.715  0.00  0.00    -0.311 N 
ATOM     14  C   LIG d   1       0.569  79.336 116.977  0.00  0.00     0.210 C 
ATOM     15  C   LIG d   1       1.956  79.173 117.607  0.00  0.00     0.109 C 
ATOM     16  O   LIG d   1      -0.370  79.793 117.645  0.00  0.00    -0.276 OA
ATOM     17  H   LIG d   1       1.277  78.533 115.261  0.00  0.00     0.149 HD
ENDBRANCH   6  13
BRANCH   5  18
ATOM     18  N   LIG d   1      -2.078  77.344 116.296  0.00  0.00     0.381 N 
ATOM     19  H   LIG d   1      -2.553  78.128 116.697  0.00  0.00    -0.090 HD
ATOM     20  H   LIG d   1      -1.292  77.119 116.880  0.00  0.00    -0.090 HD
ATOM     21  H   LIG d   1      -2.696  76.564 116.244  0.00  0.00    -0.090 HD
ENDBRANCH   5  18
BRANCH   3  22
ATOM     22  C   LIG d   1      -3.288  77.892 111.695  0.00  0.00     0.382 C 
ATOM     23  O   LIG d   1      -2.797  77.765 110.547  0.00  0.00    -0.241 OA
ATOM     24  O   LIG d   1      -4.507  77.699 111.864  0.00  0.00    -0.241 OA
ENDBRANCH   3  22
TORSDOF 7
ENDMDL
