MODEL 1
REMARK VINA RESULT:      -5.6      0.000      0.000
REMARK  7 active torsions:
REMARK  status: ('A' for Active; 'I' for Inactive)
REMARK    1  A    between atoms: C_2  and  C_3 
REMARK    2  A    between atoms: C_3  and  O_6 
REMARK    3  A    between atoms: C_3  and  C_4 
REMARK    4  A    between atoms: C_7  and  O_6 
REMARK    5  A    between atoms: C_9  and  C_10 
REMARK    6  A    between atoms: N_15  and  C_14 
REMARK    7  A    between atoms: N_20  and  C_19 
REMARK       I    between atoms: C_22  and  N_20 
ROOT
ATOM      1  C   LIG d   1      -2.460  79.810 114.562  0.00  0.00     0.161 C 
ATOM      2  C   LIG d   1      -1.872  80.967 114.024  0.00  0.00     0.016 C 
ATOM      3  C   LIG d   1      -1.301  81.021 112.732  0.00  0.00     0.038 C 
ATOM      4  C   LIG d   1      -1.416  79.957 111.825  0.00  0.00     0.028 C 
ATOM      5  C   LIG d   1      -1.557  78.597 112.502  0.00  0.00    -0.047 C 
ATOM      6  C   LIG d   1      -2.694  78.672 113.546  0.00  0.00     0.091 C 
ENDROOT
BRANCH   1   7
ATOM      7  O   LIG d   1      -3.694  80.152 115.224  0.00  0.00    -0.368 OA
BRANCH   7   8
ATOM      8  C   LIG d   1      -3.816  79.726 116.603  0.00  0.00     0.119 C 
BRANCH   8   9
ATOM      9  C   LIG d   1      -5.099  78.880 116.715  0.00  0.00     0.028 C 
ATOM     10  C   LIG d   1      -4.915  77.652 117.622  0.00  0.00     0.006 C 
ENDBRANCH   8   9
BRANCH   8  11
ATOM     11  C   LIG d   1      -4.036  80.920 117.537  0.00  0.00     0.028 C 
ATOM     12  C   LIG d   1      -5.473  81.461 117.484  0.00  0.00     0.006 C 
ENDBRANCH   8  11
ENDBRANCH   7   8
ENDBRANCH   1   7
BRANCH   6  13
ATOM     13  N   LIG d   1      -2.842  77.408 114.314  0.00  0.00    -0.311 N 
ATOM     14  C   LIG d   1      -3.749  76.476 114.024  0.00  0.00     0.210 C 
ATOM     15  C   LIG d   1      -3.745  75.259 114.954  0.00  0.00     0.109 C 
ATOM     16  O   LIG d   1      -4.534  76.527 113.065  0.00  0.00    -0.276 OA
ATOM     17  H   LIG d   1      -2.225  77.270 115.090  0.00  0.00     0.149 HD
ENDBRANCH   6  13
BRANCH   5  18
ATOM     18  N   LIG d   1      -1.805  77.598 111.446  0.00  0.00     0.381 N 
ATOM     19  H   LIG d   1      -2.615  77.857 110.919  0.00  0.00    -0.090 HD
ATOM     20  H   LIG d   1      -1.981  76.707 111.877  0.00  0.00    -0.090 HD
ATOM     21  H   LIG d   1      -1.014  77.533 110.845  0.00  0.00    -0.090 HD
ENDBRANCH   5  18
BRANCH   3  22
ATOM     22  C   LIG d   1      -0.572  82.136 112.349  0.00  0.00     0.382 C 
ATOM     23  O   LIG d   1      -0.975  82.855 111.403  0.00  0.00    -0.241 OA
ATOM     24  O   LIG d   1       0.508  82.408 112.908  0.00  0.00    -0.241 OA
ENDBRANCH   3  22
TORSDOF 7
ENDMDL
MODEL 2
REMARK VINA RESULT:      -5.5      0.761      1.421
REMARK  7 active torsions:
REMARK  status: ('A' for Active; 'I' for Inactive)
REMARK    1  A    between atoms: C_2  and  C_3 
REMARK    2  A    between atoms: C_3  and  O_6 
REMARK    3  A    between atoms: C_3  and  C_4 
REMARK    4  A    between atoms: C_7  and  O_6 
REMARK    5  A    between atoms: C_9  and  C_10 
REMARK    6  A    between atoms: N_15  and  C_14 
REMARK    7  A    between atoms: N_20  and  C_19 
REMARK       I    between atoms: C_22  and  N_20 
ROOT
ATOM      1  C   LIG d   1      -2.423  79.926 114.494  0.00  0.00     0.161 C 
ATOM      2  C   LIG d   1      -1.825  81.066 113.933  0.00  0.00     0.016 C 
ATOM      3  C   LIG d   1      -1.242  81.084 112.644  0.00  0.00     0.038 C 
ATOM      4  C   LIG d   1      -1.354  79.997 111.765  0.00  0.00     0.028 C 
ATOM      5  C   LIG d   1      -1.507  78.657 112.475  0.00  0.00    -0.047 C 
ATOM      6  C   LIG d   1      -2.653  78.763 113.507  0.00  0.00     0.091 C 
ENDROOT
BRANCH   1   7
ATOM      7  O   LIG d   1      -3.661  80.290 115.136  0.00  0.00    -0.368 OA
BRANCH   7   8
ATOM      8  C   LIG d   1      -3.819  79.857 116.510  0.00  0.00     0.119 C 
BRANCH   8   9
ATOM      9  C   LIG d   1      -4.576  80.969 117.262  0.00  0.00     0.028 C 
ATOM     10  C   LIG d   1      -6.070  80.647 117.435  0.00  0.00     0.006 C 
ENDBRANCH   8   9
BRANCH   8  11
ATOM     11  C   LIG d   1      -2.464  79.741 117.216  0.00  0.00     0.028 C 
ATOM     12  C   LIG d   1      -2.194  80.905 118.182  0.00  0.00     0.006 C 
ENDBRANCH   8  11
ENDBRANCH   7   8
ENDBRANCH   1   7
BRANCH   6  13
ATOM     13  N   LIG d   1      -2.815  77.520 114.305  0.00  0.00    -0.311 N 
ATOM     14  C   LIG d   1      -3.705  76.573 114.015  0.00  0.00     0.210 C 
ATOM     15  C   LIG d   1      -3.720  75.382 114.979  0.00  0.00     0.109 C 
ATOM     16  O   LIG d   1      -4.462  76.590 113.032  0.00  0.00    -0.276 OA
ATOM     17  H   LIG d   1      -2.219  77.409 115.102  0.00  0.00     0.149 HD
ENDBRANCH   6  13
BRANCH   5  18
ATOM     18  N   LIG d   1      -1.752  77.631 111.443  0.00  0.00     0.381 N 
ATOM     19  H   LIG d   1      -1.029  77.667 110.752  0.00  0.00    -0.090 HD
ATOM     20  H   LIG d   1      -2.629  77.825 110.993  0.00  0.00    -0.090 HD
ATOM     21  H   LIG d   1      -1.777  76.727 111.860  0.00  0.00    -0.090 HD
ENDBRANCH   5  18
BRANCH   3  22
ATOM     22  C   LIG d   1      -0.504  82.186 112.240  0.00  0.00     0.382 C 
ATOM     23  O   LIG d   1       0.568  82.472 112.826  0.00  0.00    -0.241 OA
ATOM     24  O   LIG d   1      -0.918  82.923 111.325  0.00  0.00    -0.241 OA
ENDBRANCH   3  22
TORSDOF 7
ENDMDL
MODEL 3
REMARK VINA RESULT:      -5.4      2.955      4.289
REMARK  7 active torsions:
REMARK  status: ('A' for Active; 'I' for Inactive)
REMARK    1  A    between atoms: C_2  and  C_3 
REMARK    2  A    between atoms: C_3  and  O_6 
REMARK    3  A    between atoms: C_3  and  C_4 
REMARK    4  A    between atoms: C_7  and  O_6 
REMARK    5  A    between atoms: C_9  and  C_10 
REMARK    6  A    between atoms: N_15  and  C_14 
REMARK    7  A    between atoms: N_20  and  C_19 
REMARK       I    between atoms: C_22  and  N_20 
ROOT
ATOM      1  C   LIG d   1      -2.182  78.450 115.074  0.00  0.00     0.161 C 
ATOM      2  C   LIG d   1      -2.521  79.321 114.026  0.00  0.00     0.016 C 
ATOM      3  C   LIG d   1      -1.716  80.416 113.633  0.00  0.00     0.038 C 
ATOM      4  C   LIG d   1      -0.437  80.626 114.169  0.00  0.00     0.028 C 
ATOM      5  C   LIG d   1      -0.272  80.070 115.580  0.00  0.00    -0.047 C 
ATOM      6  C   LIG d   1      -0.738  78.597 115.596  0.00  0.00     0.091 C 
ENDROOT
BRANCH   1   7
ATOM      7  O   LIG d   1      -2.437  77.088 114.679  0.00  0.00    -0.368 OA
BRANCH   7   8
ATOM      8  C   LIG d   1      -3.520  76.416 115.367  0.00  0.00     0.119 C 
BRANCH   8   9
ATOM      9  C   LIG d   1      -2.934  75.160 116.040  0.00  0.00     0.028 C 
ATOM     10  C   LIG d   1      -1.545  74.793 115.489  0.00  0.00     0.006 C 
ENDBRANCH   8   9
BRANCH   8  11
ATOM     11  C   LIG d   1      -4.569  75.895 114.380  0.00  0.00     0.028 C 
ATOM     12  C   LIG d   1      -5.183  74.554 114.815  0.00  0.00     0.006 C 
ENDBRANCH   8  11
ENDBRANCH   7   8
ENDBRANCH   1   7
BRANCH   6  13
ATOM     13  N   LIG d   1      -0.689  78.002 116.958  0.00  0.00    -0.311 N 
ATOM     14  C   LIG d   1       0.338  77.283 117.407  0.00  0.00     0.210 C 
ATOM     15  C   LIG d   1       0.176  76.746 118.833  0.00  0.00     0.109 C 
ATOM     16  O   LIG d   1       1.381  77.066 116.772  0.00  0.00    -0.276 OA
ATOM     17  H   LIG d   1      -1.481  78.156 117.551  0.00  0.00     0.149 HD
ENDBRANCH   6  13
BRANCH   5  18
ATOM     18  N   LIG d   1       1.143  80.234 115.961  0.00  0.00     0.381 N 
ATOM     19  H   LIG d   1       1.733  79.896 115.226  0.00  0.00    -0.090 HD
ATOM     20  H   LIG d   1       1.323  79.689 116.785  0.00  0.00    -0.090 HD
ATOM     21  H   LIG d   1       1.340  81.194 116.139  0.00  0.00    -0.090 HD
ENDBRANCH   5  18
BRANCH   3  22
ATOM     22  C   LIG d   1      -2.209  81.339 112.723  0.00  0.00     0.382 C 
ATOM     23  O   LIG d   1      -3.435  81.365 112.457  0.00  0.00    -0.241 OA
ATOM     24  O   LIG d   1      -1.436  82.116 112.131  0.00  0.00    -0.241 OA
ENDBRANCH   3  22
TORSDOF 7
ENDMDL
MODEL 4
REMARK VINA RESULT:      -5.1      2.158      2.632
REMARK  7 active torsions:
REMARK  status: ('A' for Active; 'I' for Inactive)
REMARK    1  A    between atoms: C_2  and  C_3 
REMARK    2  A    between atoms: C_3  and  O_6 
REMARK    3  A    between atoms: C_3  and  C_4 
REMARK    4  A    between atoms: C_7  and  O_6 
REMARK    5  A    between atoms: C_9  and  C_10 
REMARK    6  A    between atoms: N_15  and  C_14 
REMARK    7  A    between atoms: N_20  and  C_19 
REMARK       I    between atoms: C_22  and  N_20 
ROOT
ATOM      1  C   LIG d   1      -2.721  78.889 115.887  0.00  0.00     0.161 C 
ATOM      2  C   LIG d   1      -2.890  79.888 114.913  0.00  0.00     0.016 C 
ATOM      3  C   LIG d   1      -2.344  79.807 113.612  0.00  0.00     0.038 C 
ATOM      4  C   LIG d   1      -1.713  78.645 113.144  0.00  0.00     0.028 C 
ATOM      5  C   LIG d   1      -1.079  77.811 114.252  0.00  0.00    -0.047 C 
ATOM      6  C   LIG d   1      -2.130  77.565 115.358  0.00  0.00     0.091 C 
ENDROOT
BRANCH   1   7
ATOM      7  O   LIG d   1      -3.971  78.646 116.561  0.00  0.00    -0.368 OA
BRANCH   7   8
ATOM      8  C   LIG d   1      -4.644  79.813 117.095  0.00  0.00     0.119 C 
BRANCH   8   9
ATOM      9  C   LIG d   1      -4.167  79.998 118.549  0.00  0.00     0.028 C 
ATOM     10  C   LIG d   1      -3.364  81.295 118.742  0.00  0.00     0.006 C 
ENDBRANCH   8   9
BRANCH   8  11
ATOM     11  C   LIG d   1      -6.156  79.588 117.190  0.00  0.00     0.028 C 
ATOM     12  C   LIG d   1      -6.932  80.879 117.497  0.00  0.00     0.006 C 
ENDBRANCH   8  11
ENDBRANCH   7   8
ENDBRANCH   1   7
BRANCH   6  13
ATOM     13  N   LIG d   1      -1.568  76.828 116.520  0.00  0.00    -0.311 N 
ATOM     14  C   LIG d   1      -1.585  75.501 116.625  0.00  0.00     0.210 C 
ATOM     15  C   LIG d   1      -0.971  74.945 117.913  0.00  0.00     0.109 C 
ATOM     16  O   LIG d   1      -2.022  74.729 115.758  0.00  0.00    -0.276 OA
ATOM     17  H   LIG d   1      -1.165  77.375 117.256  0.00  0.00     0.149 HD
ENDBRANCH   6  13
BRANCH   5  18
ATOM     18  N   LIG d   1      -0.579  76.565 113.642  0.00  0.00     0.381 N 
ATOM     19  H   LIG d   1       0.250  76.265 114.114  0.00  0.00    -0.090 HD
ATOM     20  H   LIG d   1      -0.347  76.743 112.680  0.00  0.00    -0.090 HD
ATOM     21  H   LIG d   1      -1.276  75.855 113.696  0.00  0.00    -0.090 HD
ENDBRANCH   5  18
BRANCH   3  22
ATOM     22  C   LIG d   1      -2.391  80.913 112.777  0.00  0.00     0.382 C 
ATOM     23  O   LIG d   1      -3.322  81.746 112.892  0.00  0.00    -0.241 OA
ATOM     24  O   LIG d   1      -1.540  81.065 111.881  0.00  0.00    -0.241 OA
ENDBRANCH   3  22
TORSDOF 7
ENDMDL
MODEL 5
REMARK VINA RESULT:      -5.0      2.960      6.366
REMARK  7 active torsions:
REMARK  status: ('A' for Active; 'I' for Inactive)
REMARK    1  A    between atoms: C_2  and  C_3 
REMARK    2  A    between atoms: C_3  and  O_6 
REMARK    3  A    between atoms: C_3  and  C_4 
REMARK    4  A    between atoms: C_7  and  O_6 
REMARK    5  A    between atoms: C_9  and  C_10 
REMARK    6  A    between atoms: N_15  and  C_14 
REMARK    7  A    between atoms: N_20  and  C_19 
REMARK       I    between atoms: C_22  and  N_20 
ROOT
ATOM      1  C   LIG d   1      -0.554  80.520 113.014  0.00  0.00     0.161 C 
ATOM      2  C   LIG d   1      -1.540  79.756 112.368  0.00  0.00     0.016 C 
ATOM      3  C   LIG d   1      -2.266  78.723 113.005  0.00  0.00     0.038 C 
ATOM      4  C   LIG d   1      -2.160  78.484 114.383  0.00  0.00     0.028 C 
ATOM      5  C   LIG d   1      -0.812  78.893 114.967  0.00  0.00    -0.047 C 
ATOM      6  C   LIG d   1      -0.504  80.348 114.546  0.00  0.00     0.091 C 
ENDROOT
BRANCH   1   7
ATOM      7  O   LIG d   1      -0.711  81.911 112.670  0.00  0.00    -0.368 OA
BRANCH   7   8
ATOM      8  C   LIG d   1      -0.142  82.323 111.403  0.00  0.00     0.119 C 
BRANCH   8   9
ATOM      9  C   LIG d   1       1.335  81.881 111.394  0.00  0.00     0.028 C 
ATOM     10  C   LIG d   1       1.668  80.973 110.198  0.00  0.00     0.006 C 
ENDBRANCH   8   9
BRANCH   8  11
ATOM     11  C   LIG d   1      -0.109  83.849 111.277  0.00  0.00     0.028 C 
ATOM     12  C   LIG d   1       1.315  84.402 111.110  0.00  0.00     0.006 C 
ENDBRANCH   8  11
ENDBRANCH   7   8
ENDBRANCH   1   7
BRANCH   6  13
ATOM     13  N   LIG d   1       0.836  80.799 115.005  0.00  0.00    -0.311 N 
ATOM     14  C   LIG d   1       1.046  81.399 116.176  0.00  0.00     0.210 C 
ATOM     15  C   LIG d   1       2.500  81.801 116.445  0.00  0.00     0.109 C 
ATOM     16  O   LIG d   1       0.172  81.607 117.031  0.00  0.00    -0.276 OA
ATOM     17  H   LIG d   1       1.607  80.641 114.387  0.00  0.00     0.149 HD
ENDBRANCH   6  13
BRANCH   5  18
ATOM     18  N   LIG d   1      -0.888  78.718 116.430  0.00  0.00     0.381 N 
ATOM     19  H   LIG d   1      -0.480  79.509 116.887  0.00  0.00    -0.090 HD
ATOM     20  H   LIG d   1      -0.365  77.900 116.687  0.00  0.00    -0.090 HD
ATOM     21  H   LIG d   1      -1.838  78.616 116.712  0.00  0.00    -0.090 HD
ENDBRANCH   5  18
BRANCH   3  22
ATOM     22  C   LIG d   1      -3.080  77.890 112.253  0.00  0.00     0.382 C 
ATOM     23  O   LIG d   1      -3.854  77.085 112.826  0.00  0.00    -0.241 OA
ATOM     24  O   LIG d   1      -3.018  77.902 111.009  0.00  0.00    -0.241 OA
ENDBRANCH   3  22
TORSDOF 7
ENDMDL
MODEL 6
REMARK VINA RESULT:      -4.7      1.327      1.787
REMARK  7 active torsions:
REMARK  status: ('A' for Active; 'I' for Inactive)
REMARK    1  A    between atoms: C_2  and  C_3 
REMARK    2  A    between atoms: C_3  and  O_6 
REMARK    3  A    between atoms: C_3  and  C_4 
REMARK    4  A    between atoms: C_7  and  O_6 
REMARK    5  A    between atoms: C_9  and  C_10 
REMARK    6  A    between atoms: N_15  and  C_14 
REMARK    7  A    between atoms: N_20  and  C_19 
REMARK       I    between atoms: C_22  and  N_20 
ROOT
ATOM      1  C   LIG d   1      -2.453  79.757 114.379  0.00  0.00     0.161 C 
ATOM      2  C   LIG d   1      -1.866  80.929 113.875  0.00  0.00     0.016 C 
ATOM      3  C   LIG d   1      -1.255  81.008 112.602  0.00  0.00     0.038 C 
ATOM      4  C   LIG d   1      -1.324  79.954 111.680  0.00  0.00     0.028 C 
ATOM      5  C   LIG d   1      -1.465  78.584 112.335  0.00  0.00    -0.047 C 
ATOM      6  C   LIG d   1      -2.636  78.628 113.343  0.00  0.00     0.091 C 
ENDROOT
BRANCH   1   7
ATOM      7  O   LIG d   1      -3.712  80.072 115.005  0.00  0.00    -0.368 OA
BRANCH   7   8
ATOM      8  C   LIG d   1      -3.755  79.950 116.448  0.00  0.00     0.119 C 
BRANCH   8   9
ATOM      9  C   LIG d   1      -2.322  79.650 116.930  0.00  0.00     0.028 C 
ATOM     10  C   LIG d   1      -2.284  78.561 118.015  0.00  0.00     0.006 C 
ENDBRANCH   8   9
BRANCH   8  11
ATOM     11  C   LIG d   1      -4.590  78.742 116.881  0.00  0.00     0.028 C 
ATOM     12  C   LIG d   1      -6.077  79.083 117.072  0.00  0.00     0.006 C 
ENDBRANCH   8  11
ENDBRANCH   7   8
ENDBRANCH   1   7
BRANCH   6  13
ATOM     13  N   LIG d   1      -2.789  77.353 114.091  0.00  0.00    -0.311 N 
ATOM     14  C   LIG d   1      -1.800  76.780 114.774  0.00  0.00     0.210 C 
ATOM     15  C   LIG d   1      -2.165  75.458 115.456  0.00  0.00     0.109 C 
ATOM     16  O   LIG d   1      -0.663  77.258 114.907  0.00  0.00    -0.276 OA
ATOM     17  H   LIG d   1      -3.688  76.912 114.062  0.00  0.00     0.149 HD
ENDBRANCH   6  13
BRANCH   5  18
ATOM     18  N   LIG d   1      -1.664  77.594 111.260  0.00  0.00     0.381 N 
ATOM     19  H   LIG d   1      -1.578  76.669 111.632  0.00  0.00    -0.090 HD
ATOM     20  H   LIG d   1      -0.951  77.722 110.564  0.00  0.00    -0.090 HD
ATOM     21  H   LIG d   1      -2.565  77.712 110.850  0.00  0.00    -0.090 HD
ENDBRANCH   5  18
BRANCH   3  22
ATOM     22  C   LIG d   1      -0.531  82.139 112.256  0.00  0.00     0.382 C 
ATOM     23  O   LIG d   1       0.524  82.422 112.874  0.00  0.00    -0.241 OA
ATOM     24  O   LIG d   1      -0.943  82.905 111.364  0.00  0.00    -0.241 OA
ENDBRANCH   3  22
TORSDOF 7
ENDMDL
MODEL 7
REMARK VINA RESULT:      -4.6      2.915      4.835
REMARK  7 active torsions:
REMARK  status: ('A' for Active; 'I' for Inactive)
REMARK    1  A    between atoms: C_2  and  C_3 
REMARK    2  A    between atoms: C_3  and  O_6 
REMARK    3  A    between atoms: C_3  and  C_4 
REMARK    4  A    between atoms: C_7  and  O_6 
REMARK    5  A    between atoms: C_9  and  C_10 
REMARK    6  A    between atoms: N_15  and  C_14 
REMARK    7  A    between atoms: N_20  and  C_19 
REMARK       I    between atoms: C_22  and  N_20 
ROOT
ATOM      1  C   LIG d   1      -2.864  78.157 115.537  0.00  0.00     0.161 C 
ATOM      2  C   LIG d   1      -2.898  77.997 114.141  0.00  0.00     0.016 C 
ATOM      3  C   LIG d   1      -2.038  78.690 113.258  0.00  0.00     0.038 C 
ATOM      4  C   LIG d   1      -0.977  79.481 113.724  0.00  0.00     0.028 C 
ATOM      5  C   LIG d   1      -1.223  80.068 115.110  0.00  0.00    -0.047 C 
ATOM      6  C   LIG d   1      -1.640  78.931 116.070  0.00  0.00     0.091 C 
ENDROOT
BRANCH   1   7
ATOM      7  O   LIG d   1      -2.961  76.869 116.178  0.00  0.00    -0.368 OA
BRANCH   7   8
ATOM      8  C   LIG d   1      -2.884  75.715 115.305  0.00  0.00     0.119 C 
BRANCH   8   9
ATOM      9  C   LIG d   1      -4.068  74.792 115.654  0.00  0.00     0.028 C 
ATOM     10  C   LIG d   1      -4.954  74.489 114.434  0.00  0.00     0.006 C 
ENDBRANCH   8   9
BRANCH   8  11
ATOM     11  C   LIG d   1      -1.627  74.887 115.586  0.00  0.00     0.028 C 
ATOM     12  C   LIG d   1      -1.276  74.825 117.081  0.00  0.00     0.006 C 
ENDBRANCH   8  11
ENDBRANCH   7   8
ENDBRANCH   1   7
BRANCH   6  13
ATOM     13  N   LIG d   1      -1.981  79.431 117.427  0.00  0.00    -0.311 N 
ATOM     14  C   LIG d   1      -1.108  79.478 118.432  0.00  0.00     0.210 C 
ATOM     15  C   LIG d   1      -1.671  80.009 119.754  0.00  0.00     0.109 C 
ATOM     16  O   LIG d   1       0.088  79.160 118.345  0.00  0.00    -0.276 OA
ATOM     17  H   LIG d   1      -2.922  79.738 117.577  0.00  0.00     0.149 HD
ENDBRANCH   6  13
BRANCH   5  18
ATOM     18  N   LIG d   1       0.014  80.754 115.529  0.00  0.00     0.381 N 
ATOM     19  H   LIG d   1      -0.016  81.712 115.242  0.00  0.00    -0.090 HD
ATOM     20  H   LIG d   1       0.798  80.315 115.079  0.00  0.00    -0.090 HD
ATOM     21  H   LIG d   1       0.116  80.699 116.519  0.00  0.00    -0.090 HD
ENDBRANCH   5  18
BRANCH   3  22
ATOM     22  C   LIG d   1      -2.261  78.626 111.891  0.00  0.00     0.382 C 
ATOM     23  O   LIG d   1      -2.856  77.638 111.398  0.00  0.00    -0.241 OA
ATOM     24  O   LIG d   1      -1.835  79.523 111.139  0.00  0.00    -0.241 OA
ENDBRANCH   3  22
TORSDOF 7
ENDMDL
MODEL 8
REMARK VINA RESULT:      -4.6      1.602      1.842
REMARK  7 active torsions:
REMARK  status: ('A' for Active; 'I' for Inactive)
REMARK    1  A    between atoms: C_2  and  C_3 
REMARK    2  A    between atoms: C_3  and  O_6 
REMARK    3  A    between atoms: C_3  and  C_4 
REMARK    4  A    between atoms: C_7  and  O_6 
REMARK    5  A    between atoms: C_9  and  C_10 
REMARK    6  A    between atoms: N_15  and  C_14 
REMARK    7  A    between atoms: N_20  and  C_19 
REMARK       I    between atoms: C_22  and  N_20 
ROOT
ATOM      1  C   LIG d   1      -1.520  79.070 114.957  0.00  0.00     0.161 C 
ATOM      2  C   LIG d   1      -0.809  80.213 114.555  0.00  0.00     0.016 C 
ATOM      3  C   LIG d   1      -0.718  80.641 113.211  0.00  0.00     0.038 C 
ATOM      4  C   LIG d   1      -1.463  80.035 112.188  0.00  0.00     0.028 C 
ATOM      5  C   LIG d   1      -1.795  78.572 112.466  0.00  0.00    -0.047 C 
ATOM      6  C   LIG d   1      -2.430  78.460 113.871  0.00  0.00     0.091 C 
ENDROOT
BRANCH   1   7
ATOM      7  O   LIG d   1      -2.283  79.362 116.144  0.00  0.00    -0.368 OA
BRANCH   7   8
ATOM      8  C   LIG d   1      -1.535  79.425 117.384  0.00  0.00     0.119 C 
BRANCH   8   9
ATOM      9  C   LIG d   1      -2.132  78.372 118.338  0.00  0.00     0.028 C 
ATOM     10  C   LIG d   1      -3.566  77.975 117.951  0.00  0.00     0.006 C 
ENDBRANCH   8   9
BRANCH   8  11
ATOM     11  C   LIG d   1      -1.735  80.770 118.088  0.00  0.00     0.028 C 
ATOM     12  C   LIG d   1      -0.455  81.621 118.120  0.00  0.00     0.006 C 
ENDBRANCH   8  11
ENDBRANCH   7   8
ENDBRANCH   1   7
BRANCH   6  13
ATOM     13  N   LIG d   1      -2.708  77.052 114.256  0.00  0.00    -0.311 N 
ATOM     14  C   LIG d   1      -3.920  76.608 114.588  0.00  0.00     0.210 C 
ATOM     15  C   LIG d   1      -3.983  75.127 114.972  0.00  0.00     0.109 C 
ATOM     16  O   LIG d   1      -4.953  77.293 114.569  0.00  0.00    -0.276 OA
ATOM     17  H   LIG d   1      -1.932  76.420 114.268  0.00  0.00     0.149 HD
ENDBRANCH   6  13
BRANCH   5  18
ATOM     18  N   LIG d   1      -2.688  78.106 111.389  0.00  0.00     0.381 N 
ATOM     19  H   LIG d   1      -2.342  78.417 110.503  0.00  0.00    -0.090 HD
ATOM     20  H   LIG d   1      -3.601  78.503 111.528  0.00  0.00    -0.090 HD
ATOM     21  H   LIG d   1      -2.745  77.111 111.400  0.00  0.00    -0.090 HD
ENDBRANCH   5  18
BRANCH   3  22
ATOM     22  C   LIG d   1       0.157  81.662 112.871  0.00  0.00     0.382 C 
ATOM     23  O   LIG d   1      -0.288  82.744 112.418  0.00  0.00    -0.241 OA
ATOM     24  O   LIG d   1       1.387  81.498 112.971  0.00  0.00    -0.241 OA
ENDBRANCH   3  22
TORSDOF 7
ENDMDL
MODEL 9
REMARK VINA RESULT:      -4.6      3.353      5.255
REMARK  7 active torsions:
REMARK  status: ('A' for Active; 'I' for Inactive)
REMARK    1  A    between atoms: C_2  and  C_3 
REMARK    2  A    between atoms: C_3  and  O_6 
REMARK    3  A    between atoms: C_3  and  C_4 
REMARK    4  A    between atoms: C_7  and  O_6 
REMARK    5  A    between atoms: C_9  and  C_10 
REMARK    6  A    between atoms: N_15  and  C_14 
REMARK    7  A    between atoms: N_20  and  C_19 
REMARK       I    between atoms: C_22  and  N_20 
ROOT
ATOM      1  C   LIG d   1      -2.884  78.343 115.893  0.00  0.00     0.161 C 
ATOM      2  C   LIG d   1      -3.901  77.411 115.627  0.00  0.00     0.016 C 
ATOM      3  C   LIG d   1      -3.659  76.125 115.092  0.00  0.00     0.038 C 
ATOM      4  C   LIG d   1      -2.359  75.624 114.927  0.00  0.00     0.028 C 
ATOM      5  C   LIG d   1      -1.314  76.713 114.707  0.00  0.00    -0.047 C 
ATOM      6  C   LIG d   1      -1.451  77.773 115.823  0.00  0.00     0.091 C 
ENDROOT
BRANCH   1   7
ATOM      7  O   LIG d   1      -3.113  78.966 117.172  0.00  0.00    -0.368 OA
BRANCH   7   8
ATOM      8  C   LIG d   1      -3.473  80.369 117.142  0.00  0.00     0.119 C 
BRANCH   8   9
ATOM      9  C   LIG d   1      -2.832  81.037 118.374  0.00  0.00     0.028 C 
ATOM     10  C   LIG d   1      -2.369  80.013 119.423  0.00  0.00     0.006 C 
ENDBRANCH   8   9
BRANCH   8  11
ATOM     11  C   LIG d   1      -4.983  80.561 117.317  0.00  0.00     0.028 C 
ATOM     12  C   LIG d   1      -5.338  81.875 118.031  0.00  0.00     0.006 C 
ENDBRANCH   8  11
ENDBRANCH   7   8
ENDBRANCH   1   7
BRANCH   6  13
ATOM     13  N   LIG d   1      -0.521  78.917 115.635  0.00  0.00    -0.311 N 
ATOM     14  C   LIG d   1       0.322  79.338 116.576  0.00  0.00     0.210 C 
ATOM     15  C   LIG d   1       1.178  80.546 116.183  0.00  0.00     0.109 C 
ATOM     16  O   LIG d   1       0.465  78.806 117.687  0.00  0.00    -0.276 OA
ATOM     17  H   LIG d   1      -0.549  79.387 114.752  0.00  0.00     0.149 HD
ENDBRANCH   6  13
BRANCH   5  18
ATOM     18  N   LIG d   1       0.010  76.062 114.687  0.00  0.00     0.381 N 
ATOM     19  H   LIG d   1       0.144  75.543 115.532  0.00  0.00    -0.090 HD
ATOM     20  H   LIG d   1       0.720  76.771 114.637  0.00  0.00    -0.090 HD
ATOM     21  H   LIG d   1       0.080  75.455 113.901  0.00  0.00    -0.090 HD
ENDBRANCH   5  18
BRANCH   3  22
ATOM     22  C   LIG d   1      -4.725  75.340 114.679  0.00  0.00     0.382 C 
ATOM     23  O   LIG d   1      -5.887  75.607 115.069  0.00  0.00    -0.241 OA
ATOM     24  O   LIG d   1      -4.533  74.343 113.958  0.00  0.00    -0.241 OA
ENDBRANCH   3  22
TORSDOF 7
ENDMDL
