MODEL 1
REMARK VINA RESULT:      -5.6      0.000      0.000
REMARK  7 active torsions:
REMARK  status: ('A' for Active; 'I' for Inactive)
REMARK    1  A    between atoms: C_2  and  C_3 
REMARK    2  A    between atoms: C_3  and  O_6 
REMARK    3  A    between atoms: C_3  and  C_4 
REMARK    4  A    between atoms: C_7  and  O_6 
REMARK    5  A    between atoms: C_9  and  C_10 
REMARK    6  A    between atoms: N_15  and  C_14 
REMARK    7  A    between atoms: N_20  and  C_19 
REMARK       I    between atoms: C_22  and  N_20 
ROOT
ATOM      1  C   LIG d   1      -2.757  78.033 115.030  0.00  0.00     0.161 C 
ATOM      2  C   LIG d   1      -1.416  78.340 115.313  0.00  0.00     0.016 C 
ATOM      3  C   LIG d   1      -0.525  77.434 115.933  0.00  0.00     0.038 C 
ATOM      4  C   LIG d   1      -0.876  76.098 116.178  0.00  0.00     0.028 C 
ATOM      5  C   LIG d   1      -2.375  75.892 116.371  0.00  0.00    -0.047 C 
ATOM      6  C   LIG d   1      -3.128  76.544 115.189  0.00  0.00     0.091 C 
ENDROOT
BRANCH   1   7
ATOM      7  O   LIG d   1      -3.096  78.496 113.708  0.00  0.00    -0.368 OA
BRANCH   7   8
ATOM      8  C   LIG d   1      -2.180  79.446 113.111  0.00  0.00     0.119 C 
BRANCH   8   9
ATOM      9  C   LIG d   1      -2.942  80.772 112.927  0.00  0.00     0.028 C 
ATOM     10  C   LIG d   1      -2.008  81.943 112.577  0.00  0.00     0.006 C 
ENDBRANCH   8   9
BRANCH   8  11
ATOM     11  C   LIG d   1      -1.771  79.014 111.700  0.00  0.00     0.028 C 
ATOM     12  C   LIG d   1      -2.564  77.798 111.195  0.00  0.00     0.006 C 
ENDBRANCH   8  11
ENDBRANCH   7   8
ENDBRANCH   1   7
BRANCH   6  13
ATOM     13  N   LIG d   1      -4.604  76.461 115.342  0.00  0.00    -0.311 N 
ATOM     14  C   LIG d   1      -5.384  75.735 114.543  0.00  0.00     0.210 C 
ATOM     15  C   LIG d   1      -6.880  75.805 114.863  0.00  0.00     0.109 C 
ATOM     16  O   LIG d   1      -4.976  75.013 113.621  0.00  0.00    -0.276 OA
ATOM     17  H   LIG d   1      -5.016  76.991 116.085  0.00  0.00     0.149 HD
ENDBRANCH   6  13
BRANCH   5  18
ATOM     18  N   LIG d   1      -2.615  74.440 116.479  0.00  0.00     0.381 N 
ATOM     19  H   LIG d   1      -2.829  74.202 117.427  0.00  0.00    -0.090 HD
ATOM     20  H   LIG d   1      -1.778  73.952 116.212  0.00  0.00    -0.090 HD
ATOM     21  H   LIG d   1      -3.368  74.174 115.884  0.00  0.00    -0.090 HD
ENDBRANCH   5  18
BRANCH   3  22
ATOM     22  C   LIG d   1       0.721  77.874 116.352  0.00  0.00     0.382 C 
ATOM     23  O   LIG d   1       1.013  79.093 116.281  0.00  0.00    -0.241 OA
ATOM     24  O   LIG d   1       1.574  77.063 116.759  0.00  0.00    -0.241 OA
ENDBRANCH   3  22
TORSDOF 7
ENDMDL
MODEL 2
REMARK VINA RESULT:      -5.5      2.468      4.705
REMARK  7 active torsions:
REMARK  status: ('A' for Active; 'I' for Inactive)
REMARK    1  A    between atoms: C_2  and  C_3 
REMARK    2  A    between atoms: C_3  and  O_6 
REMARK    3  A    between atoms: C_3  and  C_4 
REMARK    4  A    between atoms: C_7  and  O_6 
REMARK    5  A    between atoms: C_9  and  C_10 
REMARK    6  A    between atoms: N_15  and  C_14 
REMARK    7  A    between atoms: N_20  and  C_19 
REMARK       I    between atoms: C_22  and  N_20 
ROOT
ATOM      1  C   LIG d   1      -1.779  75.488 114.973  0.00  0.00     0.161 C 
ATOM      2  C   LIG d   1      -1.492  74.933 116.231  0.00  0.00     0.016 C 
ATOM      3  C   LIG d   1      -0.600  75.522 117.156  0.00  0.00     0.038 C 
ATOM      4  C   LIG d   1      -0.046  76.794 116.945  0.00  0.00     0.028 C 
ATOM      5  C   LIG d   1       0.089  77.158 115.471  0.00  0.00    -0.047 C 
ATOM      6  C   LIG d   1      -1.270  76.930 114.771  0.00  0.00     0.091 C 
ENDROOT
BRANCH   1   7
ATOM      7  O   LIG d   1      -3.196  75.416 114.719  0.00  0.00    -0.368 OA
BRANCH   7   8
ATOM      8  C   LIG d   1      -4.056  75.476 115.884  0.00  0.00     0.119 C 
BRANCH   8   9
ATOM      9  C   LIG d   1      -5.366  74.745 115.530  0.00  0.00     0.028 C 
ATOM     10  C   LIG d   1      -6.322  75.621 114.702  0.00  0.00     0.006 C 
ENDBRANCH   8   9
BRANCH   8  11
ATOM     11  C   LIG d   1      -4.468  76.917 116.199  0.00  0.00     0.028 C 
ATOM     12  C   LIG d   1      -4.021  77.372 117.597  0.00  0.00     0.006 C 
ENDBRANCH   8  11
ENDBRANCH   7   8
ENDBRANCH   1   7
BRANCH   6  13
ATOM     13  N   LIG d   1      -1.204  77.183 113.308  0.00  0.00    -0.311 N 
ATOM     14  C   LIG d   1      -2.137  77.858 112.637  0.00  0.00     0.210 C 
ATOM     15  C   LIG d   1      -1.884  77.987 111.132  0.00  0.00     0.109 C 
ATOM     16  O   LIG d   1      -3.132  78.389 113.152  0.00  0.00    -0.276 OA
ATOM     17  H   LIG d   1      -0.414  76.814 112.816  0.00  0.00     0.149 HD
ENDBRANCH   6  13
BRANCH   5  18
ATOM     18  N   LIG d   1       0.549  78.558 115.398  0.00  0.00     0.381 N 
ATOM     19  H   LIG d   1       0.317  78.945 114.505  0.00  0.00    -0.090 HD
ATOM     20  H   LIG d   1       1.548  78.577 115.500  0.00  0.00    -0.090 HD
ATOM     21  H   LIG d   1       0.124  79.095 116.122  0.00  0.00    -0.090 HD
ENDBRANCH   5  18
BRANCH   3  22
ATOM     22  C   LIG d   1      -0.222  74.819 118.290  0.00  0.00     0.382 C 
ATOM     23  O   LIG d   1      -1.077  74.530 119.162  0.00  0.00    -0.241 OA
ATOM     24  O   LIG d   1       0.970  74.509 118.473  0.00  0.00    -0.241 OA
ENDBRANCH   3  22
TORSDOF 7
ENDMDL
MODEL 3
REMARK VINA RESULT:      -5.4      2.508      4.916
REMARK  7 active torsions:
REMARK  status: ('A' for Active; 'I' for Inactive)
REMARK    1  A    between atoms: C_2  and  C_3 
REMARK    2  A    between atoms: C_3  and  O_6 
REMARK    3  A    between atoms: C_3  and  C_4 
REMARK    4  A    between atoms: C_7  and  O_6 
REMARK    5  A    between atoms: C_9  and  C_10 
REMARK    6  A    between atoms: N_15  and  C_14 
REMARK    7  A    between atoms: N_20  and  C_19 
REMARK       I    between atoms: C_22  and  N_20 
ROOT
ATOM      1  C   LIG d   1      -2.439  77.570 116.180  0.00  0.00     0.161 C 
ATOM      2  C   LIG d   1      -2.886  78.354 115.104  0.00  0.00     0.016 C 
ATOM      3  C   LIG d   1      -2.279  78.342 113.827  0.00  0.00     0.038 C 
ATOM      4  C   LIG d   1      -1.269  77.426 113.495  0.00  0.00     0.028 C 
ATOM      5  C   LIG d   1      -0.449  76.967 114.696  0.00  0.00    -0.047 C 
ATOM      6  C   LIG d   1      -1.410  76.483 115.805  0.00  0.00     0.091 C 
ENDROOT
BRANCH   1   7
ATOM      7  O   LIG d   1      -3.567  76.979 116.856  0.00  0.00    -0.368 OA
BRANCH   7   8
ATOM      8  C   LIG d   1      -4.749  76.755 116.048  0.00  0.00     0.119 C 
BRANCH   8   9
ATOM      9  C   LIG d   1      -5.974  77.122 116.907  0.00  0.00     0.028 C 
ATOM     10  C   LIG d   1      -5.630  78.120 118.025  0.00  0.00     0.006 C 
ENDBRANCH   8   9
BRANCH   8  11
ATOM     11  C   LIG d   1      -4.919  75.270 115.711  0.00  0.00     0.028 C 
ATOM     12  C   LIG d   1      -5.489  75.041 114.302  0.00  0.00     0.006 C 
ENDBRANCH   8  11
ENDBRANCH   7   8
ENDBRANCH   1   7
BRANCH   6  13
ATOM     13  N   LIG d   1      -0.693  76.095 117.047  0.00  0.00    -0.311 N 
ATOM     14  C   LIG d   1      -0.993  75.010 117.759  0.00  0.00     0.210 C 
ATOM     15  C   LIG d   1      -0.143  74.806 119.017  0.00  0.00     0.109 C 
ATOM     16  O   LIG d   1      -1.862  74.180 117.451  0.00  0.00    -0.276 OA
ATOM     17  H   LIG d   1       0.048  76.696 117.353  0.00  0.00     0.149 HD
ENDBRANCH   6  13
BRANCH   5  18
ATOM     18  N   LIG d   1       0.473  75.914 114.229  0.00  0.00     0.381 N 
ATOM     19  H   LIG d   1       1.296  76.331 113.844  0.00  0.00    -0.090 HD
ATOM     20  H   LIG d   1       0.021  75.383 113.507  0.00  0.00    -0.090 HD
ATOM     21  H   LIG d   1       0.719  75.316 114.987  0.00  0.00    -0.090 HD
ENDBRANCH   5  18
BRANCH   3  22
ATOM     22  C   LIG d   1      -2.653  79.282 112.879  0.00  0.00     0.382 C 
ATOM     23  O   LIG d   1      -3.337  80.277 113.219  0.00  0.00    -0.241 OA
ATOM     24  O   LIG d   1      -2.355  79.123 111.680  0.00  0.00    -0.241 OA
ENDBRANCH   3  22
TORSDOF 7
ENDMDL
MODEL 4
REMARK VINA RESULT:      -5.4      2.350      4.602
REMARK  7 active torsions:
REMARK  status: ('A' for Active; 'I' for Inactive)
REMARK    1  A    between atoms: C_2  and  C_3 
REMARK    2  A    between atoms: C_3  and  O_6 
REMARK    3  A    between atoms: C_3  and  C_4 
REMARK    4  A    between atoms: C_7  and  O_6 
REMARK    5  A    between atoms: C_9  and  C_10 
REMARK    6  A    between atoms: N_15  and  C_14 
REMARK    7  A    between atoms: N_20  and  C_19 
REMARK       I    between atoms: C_22  and  N_20 
ROOT
ATOM      1  C   LIG d   1      -1.095  75.447 114.934  0.00  0.00     0.161 C 
ATOM      2  C   LIG d   1      -0.625  74.905 116.141  0.00  0.00     0.016 C 
ATOM      3  C   LIG d   1       0.180  75.622 117.056  0.00  0.00     0.038 C 
ATOM      4  C   LIG d   1       0.446  76.990 116.894  0.00  0.00     0.028 C 
ATOM      5  C   LIG d   1       0.414  77.446 115.440  0.00  0.00    -0.047 C 
ATOM      6  C   LIG d   1      -0.908  76.972 114.794  0.00  0.00     0.091 C 
ENDROOT
BRANCH   1   7
ATOM      7  O   LIG d   1      -2.479  75.092 114.745  0.00  0.00    -0.368 OA
BRANCH   7   8
ATOM      8  C   LIG d   1      -3.451  76.102 115.111  0.00  0.00     0.119 C 
BRANCH   8   9
ATOM      9  C   LIG d   1      -3.928  75.789 116.543  0.00  0.00     0.028 C 
ATOM     10  C   LIG d   1      -3.518  76.877 117.549  0.00  0.00     0.006 C 
ENDBRANCH   8   9
BRANCH   8  11
ATOM     11  C   LIG d   1      -4.706  76.011 114.237  0.00  0.00     0.028 C 
ATOM     12  C   LIG d   1      -5.670  74.905 114.693  0.00  0.00     0.006 C 
ENDBRANCH   8  11
ENDBRANCH   7   8
ENDBRANCH   1   7
BRANCH   6  13
ATOM     13  N   LIG d   1      -0.983  77.304 113.347  0.00  0.00    -0.311 N 
ATOM     14  C   LIG d   1      -1.506  78.437 112.881  0.00  0.00     0.210 C 
ATOM     15  C   LIG d   1      -1.503  78.570 111.355  0.00  0.00     0.109 C 
ATOM     16  O   LIG d   1      -1.941  79.358 113.588  0.00  0.00    -0.276 OA
ATOM     17  H   LIG d   1      -0.624  76.626 112.705  0.00  0.00     0.149 HD
ENDBRANCH   6  13
BRANCH   5  18
ATOM     18  N   LIG d   1       0.570  78.913 115.429  0.00  0.00     0.381 N 
ATOM     19  H   LIG d   1       1.180  79.194 116.170  0.00  0.00    -0.090 HD
ATOM     20  H   LIG d   1      -0.329  79.336 115.581  0.00  0.00    -0.090 HD
ATOM     21  H   LIG d   1       0.941  79.210 114.553  0.00  0.00    -0.090 HD
ENDBRANCH   5  18
BRANCH   3  22
ATOM     22  C   LIG d   1       0.762  74.960 118.126  0.00  0.00     0.382 C 
ATOM     23  O   LIG d   1       0.076  74.180 118.829  0.00  0.00    -0.241 OA
ATOM     24  O   LIG d   1       1.954  75.167 118.424  0.00  0.00    -0.241 OA
ENDBRANCH   3  22
TORSDOF 7
ENDMDL
MODEL 5
REMARK VINA RESULT:      -5.2      1.624      4.684
REMARK  7 active torsions:
REMARK  status: ('A' for Active; 'I' for Inactive)
REMARK    1  A    between atoms: C_2  and  C_3 
REMARK    2  A    between atoms: C_3  and  O_6 
REMARK    3  A    between atoms: C_3  and  C_4 
REMARK    4  A    between atoms: C_7  and  O_6 
REMARK    5  A    between atoms: C_9  and  C_10 
REMARK    6  A    between atoms: N_15  and  C_14 
REMARK    7  A    between atoms: N_20  and  C_19 
REMARK       I    between atoms: C_22  and  N_20 
ROOT
ATOM      1  C   LIG d   1      -2.500  77.000 114.536  0.00  0.00     0.161 C 
ATOM      2  C   LIG d   1      -3.854  76.790 114.229  0.00  0.00     0.016 C 
ATOM      3  C   LIG d   1      -4.669  75.851 114.901  0.00  0.00     0.038 C 
ATOM      4  C   LIG d   1      -4.221  75.160 116.037  0.00  0.00     0.028 C 
ATOM      5  C   LIG d   1      -2.709  74.968 116.071  0.00  0.00    -0.047 C 
ATOM      6  C   LIG d   1      -2.024  76.335 115.845  0.00  0.00     0.091 C 
ENDROOT
BRANCH   1   7
ATOM      7  O   LIG d   1      -2.217  78.413 114.561  0.00  0.00    -0.368 OA
BRANCH   7   8
ATOM      8  C   LIG d   1      -1.724  78.986 113.325  0.00  0.00     0.119 C 
BRANCH   8   9
ATOM      9  C   LIG d   1      -2.886  79.767 112.681  0.00  0.00     0.028 C 
ATOM     10  C   LIG d   1      -2.749  81.287 112.872  0.00  0.00     0.006 C 
ENDBRANCH   8   9
BRANCH   8  11
ATOM     11  C   LIG d   1      -1.357  77.897 112.313  0.00  0.00     0.028 C 
ATOM     12  C   LIG d   1      -2.136  78.023 110.994  0.00  0.00     0.006 C 
ENDBRANCH   8  11
ENDBRANCH   7   8
ENDBRANCH   1   7
BRANCH   6  13
ATOM     13  N   LIG d   1      -0.543  76.223 115.780  0.00  0.00    -0.311 N 
ATOM     14  C   LIG d   1       0.252  76.402 116.833  0.00  0.00     0.210 C 
ATOM     15  C   LIG d   1       1.750  76.261 116.543  0.00  0.00     0.109 C 
ATOM     16  O   LIG d   1      -0.142  76.632 117.986  0.00  0.00    -0.276 OA
ATOM     17  H   LIG d   1      -0.141  76.008 114.889  0.00  0.00     0.149 HD
ENDBRANCH   6  13
BRANCH   5  18
ATOM     18  N   LIG d   1      -2.366  74.357 117.370  0.00  0.00     0.381 N 
ATOM     19  H   LIG d   1      -1.775  73.563 117.226  0.00  0.00    -0.090 HD
ATOM     20  H   LIG d   1      -3.211  74.044 117.815  0.00  0.00    -0.090 HD
ATOM     21  H   LIG d   1      -1.905  75.024 117.949  0.00  0.00    -0.090 HD
ENDBRANCH   5  18
BRANCH   3  22
ATOM     22  C   LIG d   1      -5.936  75.566 114.414  0.00  0.00     0.382 C 
ATOM     23  O   LIG d   1      -6.600  74.623 114.908  0.00  0.00    -0.241 OA
ATOM     24  O   LIG d   1      -6.404  76.212 113.457  0.00  0.00    -0.241 OA
ENDBRANCH   3  22
TORSDOF 7
ENDMDL
MODEL 6
REMARK VINA RESULT:      -5.1      2.399      5.209
REMARK  7 active torsions:
REMARK  status: ('A' for Active; 'I' for Inactive)
REMARK    1  A    between atoms: C_2  and  C_3 
REMARK    2  A    between atoms: C_3  and  O_6 
REMARK    3  A    between atoms: C_3  and  C_4 
REMARK    4  A    between atoms: C_7  and  O_6 
REMARK    5  A    between atoms: C_9  and  C_10 
REMARK    6  A    between atoms: N_15  and  C_14 
REMARK    7  A    between atoms: N_20  and  C_19 
REMARK       I    between atoms: C_22  and  N_20 
ROOT
ATOM      1  C   LIG d   1      -3.205  76.735 115.093  0.00  0.00     0.161 C 
ATOM      2  C   LIG d   1      -3.286  77.198 113.769  0.00  0.00     0.016 C 
ATOM      3  C   LIG d   1      -2.157  77.570 113.004  0.00  0.00     0.038 C 
ATOM      4  C   LIG d   1      -0.848  77.359 113.463  0.00  0.00     0.028 C 
ATOM      5  C   LIG d   1      -0.731  77.367 114.983  0.00  0.00    -0.047 C 
ATOM      6  C   LIG d   1      -1.779  76.394 115.572  0.00  0.00     0.091 C 
ENDROOT
BRANCH   1   7
ATOM      7  O   LIG d   1      -4.078  75.602 115.269  0.00  0.00    -0.368 OA
BRANCH   7   8
ATOM      8  C   LIG d   1      -5.089  75.729 116.298  0.00  0.00     0.119 C 
BRANCH   8   9
ATOM      9  C   LIG d   1      -6.406  75.171 115.725  0.00  0.00     0.028 C 
ATOM     10  C   LIG d   1      -6.713  75.717 114.320  0.00  0.00     0.006 C 
ENDBRANCH   8   9
BRANCH   8  11
ATOM     11  C   LIG d   1      -5.377  77.199 116.617  0.00  0.00     0.028 C 
ATOM     12  C   LIG d   1      -5.100  77.556 118.086  0.00  0.00     0.006 C 
ENDBRANCH   8  11
ENDBRANCH   7   8
ENDBRANCH   1   7
BRANCH   6  13
ATOM     13  N   LIG d   1      -1.789  76.403 117.058  0.00  0.00    -0.311 N 
ATOM     14  C   LIG d   1      -1.614  75.311 117.800  0.00  0.00     0.210 C 
ATOM     15  C   LIG d   1      -1.681  75.539 119.313  0.00  0.00     0.109 C 
ATOM     16  O   LIG d   1      -1.377  74.180 117.348  0.00  0.00    -0.276 OA
ATOM     17  H   LIG d   1      -1.944  77.285 117.508  0.00  0.00     0.149 HD
ENDBRANCH   6  13
BRANCH   5  18
ATOM     18  N   LIG d   1       0.656  76.999 115.326  0.00  0.00     0.381 N 
ATOM     19  H   LIG d   1       1.293  77.612 114.858  0.00  0.00    -0.090 HD
ATOM     20  H   LIG d   1       0.831  76.062 115.010  0.00  0.00    -0.090 HD
ATOM     21  H   LIG d   1       0.790  77.056 116.311  0.00  0.00    -0.090 HD
ENDBRANCH   5  18
BRANCH   3  22
ATOM     22  C   LIG d   1      -2.333  78.196 111.779  0.00  0.00     0.382 C 
ATOM     23  O   LIG d   1      -2.597  77.516 110.759  0.00  0.00    -0.241 OA
ATOM     24  O   LIG d   1      -2.186  79.429 111.674  0.00  0.00    -0.241 OA
ENDBRANCH   3  22
TORSDOF 7
ENDMDL
MODEL 7
REMARK VINA RESULT:      -5.0      2.821      5.256
REMARK  7 active torsions:
REMARK  status: ('A' for Active; 'I' for Inactive)
REMARK    1  A    between atoms: C_2  and  C_3 
REMARK    2  A    between atoms: C_3  and  O_6 
REMARK    3  A    between atoms: C_3  and  C_4 
REMARK    4  A    between atoms: C_7  and  O_6 
REMARK    5  A    between atoms: C_9  and  C_10 
REMARK    6  A    between atoms: N_15  and  C_14 
REMARK    7  A    between atoms: N_20  and  C_19 
REMARK       I    between atoms: C_22  and  N_20 
ROOT
ATOM      1  C   LIG d   1      -2.368  77.736 115.940  0.00  0.00     0.161 C 
ATOM      2  C   LIG d   1      -2.775  78.651 114.955  0.00  0.00     0.016 C 
ATOM      3  C   LIG d   1      -2.273  78.646 113.633  0.00  0.00     0.038 C 
ATOM      4  C   LIG d   1      -1.435  77.623 113.162  0.00  0.00     0.028 C 
ATOM      5  C   LIG d   1      -0.603  76.968 114.260  0.00  0.00    -0.047 C 
ATOM      6  C   LIG d   1      -1.539  76.545 115.415  0.00  0.00     0.091 C 
ENDROOT
BRANCH   1   7
ATOM      7  O   LIG d   1      -3.516  77.263 116.672  0.00  0.00    -0.368 OA
BRANCH   7   8
ATOM      8  C   LIG d   1      -3.856  78.000 117.872  0.00  0.00     0.119 C 
BRANCH   8   9
ATOM      9  C   LIG d   1      -3.194  77.277 119.062  0.00  0.00     0.028 C 
ATOM     10  C   LIG d   1      -2.120  78.138 119.747  0.00  0.00     0.006 C 
ENDBRANCH   8   9
BRANCH   8  11
ATOM     11  C   LIG d   1      -5.360  77.947 118.152  0.00  0.00     0.028 C 
ATOM     12  C   LIG d   1      -6.015  79.337 118.153  0.00  0.00     0.006 C 
ENDBRANCH   8  11
ENDBRANCH   7   8
ENDBRANCH   1   7
BRANCH   6  13
ATOM     13  N   LIG d   1      -0.795  75.972 116.566  0.00  0.00    -0.311 N 
ATOM     14  C   LIG d   1      -1.180  74.873 117.214  0.00  0.00     0.210 C 
ATOM     15  C   LIG d   1      -0.281  74.465 118.385  0.00  0.00     0.109 C 
ATOM     16  O   LIG d   1      -2.163  74.180 116.910  0.00  0.00    -0.276 OA
ATOM     17  H   LIG d   1       0.032  76.453 116.860  0.00  0.00     0.149 HD
ENDBRANCH   6  13
BRANCH   5  18
ATOM     18  N   LIG d   1       0.118  75.833 113.654  0.00  0.00     0.381 N 
ATOM     19  H   LIG d   1       1.037  75.768 114.044  0.00  0.00    -0.090 HD
ATOM     20  H   LIG d   1       0.205  75.993 112.666  0.00  0.00    -0.090 HD
ATOM     21  H   LIG d   1      -0.380  74.986 113.818  0.00  0.00    -0.090 HD
ENDBRANCH   5  18
BRANCH   3  22
ATOM     22  C   LIG d   1      -2.576  79.694 112.779  0.00  0.00     0.382 C 
ATOM     23  O   LIG d   1      -2.036  79.759 111.648  0.00  0.00    -0.241 OA
ATOM     24  O   LIG d   1      -3.350  80.601 113.141  0.00  0.00    -0.241 OA
ENDBRANCH   3  22
TORSDOF 7
ENDMDL
MODEL 8
REMARK VINA RESULT:      -5.0      1.650      4.871
REMARK  7 active torsions:
REMARK  status: ('A' for Active; 'I' for Inactive)
REMARK    1  A    between atoms: C_2  and  C_3 
REMARK    2  A    between atoms: C_3  and  O_6 
REMARK    3  A    between atoms: C_3  and  C_4 
REMARK    4  A    between atoms: C_7  and  O_6 
REMARK    5  A    between atoms: C_9  and  C_10 
REMARK    6  A    between atoms: N_15  and  C_14 
REMARK    7  A    between atoms: N_20  and  C_19 
REMARK       I    between atoms: C_22  and  N_20 
ROOT
ATOM      1  C   LIG d   1      -2.175  76.789 114.366  0.00  0.00     0.161 C 
ATOM      2  C   LIG d   1      -3.517  76.658 113.972  0.00  0.00     0.016 C 
ATOM      3  C   LIG d   1      -4.461  75.874 114.675  0.00  0.00     0.038 C 
ATOM      4  C   LIG d   1      -4.162  75.285 115.913  0.00  0.00     0.028 C 
ATOM      5  C   LIG d   1      -2.680  74.974 116.093  0.00  0.00    -0.047 C 
ATOM      6  C   LIG d   1      -1.858  76.245 115.775  0.00  0.00     0.091 C 
ENDROOT
BRANCH   1   7
ATOM      7  O   LIG d   1      -1.767  78.168 114.259  0.00  0.00    -0.368 OA
BRANCH   7   8
ATOM      8  C   LIG d   1      -2.146  78.851 113.039  0.00  0.00     0.119 C 
BRANCH   8   9
ATOM      9  C   LIG d   1      -1.314  78.247 111.892  0.00  0.00     0.028 C 
ATOM     10  C   LIG d   1      -2.169  77.915 110.657  0.00  0.00     0.006 C 
ENDBRANCH   8   9
BRANCH   8  11
ATOM     11  C   LIG d   1      -1.758  80.332 113.086  0.00  0.00     0.028 C 
ATOM     12  C   LIG d   1      -2.953  81.269 112.850  0.00  0.00     0.006 C 
ENDBRANCH   8  11
ENDBRANCH   7   8
ENDBRANCH   1   7
BRANCH   6  13
ATOM     13  N   LIG d   1      -0.393  76.005 115.845  0.00  0.00    -0.311 N 
ATOM     14  C   LIG d   1       0.344  76.279 116.920  0.00  0.00     0.210 C 
ATOM     15  C   LIG d   1       1.838  75.974 116.775  0.00  0.00     0.109 C 
ATOM     16  O   LIG d   1      -0.103  76.716 117.991  0.00  0.00    -0.276 OA
ATOM     17  H   LIG d   1       0.046  75.622 115.031  0.00  0.00     0.149 HD
ENDBRANCH   6  13
BRANCH   5  18
ATOM     18  N   LIG d   1      -2.490  74.494 117.475  0.00  0.00     0.381 N 
ATOM     19  H   LIG d   1      -2.919  75.130 118.116  0.00  0.00    -0.090 HD
ATOM     20  H   LIG d   1      -1.506  74.460 117.675  0.00  0.00    -0.090 HD
ATOM     21  H   LIG d   1      -2.889  73.587 117.578  0.00  0.00    -0.090 HD
ENDBRANCH   5  18
BRANCH   3  22
ATOM     22  C   LIG d   1      -5.709  75.639 114.119  0.00  0.00     0.382 C 
ATOM     23  O   LIG d   1      -6.011  76.156 113.016  0.00  0.00    -0.241 OA
ATOM     24  O   LIG d   1      -6.553  74.954 114.727  0.00  0.00    -0.241 OA
ENDBRANCH   3  22
TORSDOF 7
ENDMDL
MODEL 9
REMARK VINA RESULT:      -4.9      2.511      5.510
REMARK  7 active torsions:
REMARK  status: ('A' for Active; 'I' for Inactive)
REMARK    1  A    between atoms: C_2  and  C_3 
REMARK    2  A    between atoms: C_3  and  O_6 
REMARK    3  A    between atoms: C_3  and  C_4 
REMARK    4  A    between atoms: C_7  and  O_6 
REMARK    5  A    between atoms: C_9  and  C_10 
REMARK    6  A    between atoms: N_15  and  C_14 
REMARK    7  A    between atoms: N_20  and  C_19 
REMARK       I    between atoms: C_22  and  N_20 
ROOT
ATOM      1  C   LIG d   1      -2.599  78.120 114.689  0.00  0.00     0.161 C 
ATOM      2  C   LIG d   1      -2.963  79.393 114.217  0.00  0.00     0.016 C 
ATOM      3  C   LIG d   1      -2.597  79.884 112.943  0.00  0.00     0.038 C 
ATOM      4  C   LIG d   1      -1.966  79.072 111.988  0.00  0.00     0.028 C 
ATOM      5  C   LIG d   1      -1.136  77.950 112.601  0.00  0.00    -0.047 C 
ATOM      6  C   LIG d   1      -2.007  77.179 113.619  0.00  0.00     0.091 C 
ENDROOT
BRANCH   1   7
ATOM      7  O   LIG d   1      -3.728  77.498 115.334  0.00  0.00    -0.368 OA
BRANCH   7   8
ATOM      8  C   LIG d   1      -3.955  77.867 116.717  0.00  0.00     0.119 C 
BRANCH   8   9
ATOM      9  C   LIG d   1      -3.085  76.943 117.591  0.00  0.00     0.028 C 
ATOM     10  C   LIG d   1      -3.191  75.467 117.172  0.00  0.00     0.006 C 
ENDBRANCH   8   9
BRANCH   8  11
ATOM     11  C   LIG d   1      -5.399  77.584 117.139  0.00  0.00     0.028 C 
ATOM     12  C   LIG d   1      -6.016  78.729 117.958  0.00  0.00     0.006 C 
ENDBRANCH   8  11
ENDBRANCH   7   8
ENDBRANCH   1   7
BRANCH   6  13
ATOM     13  N   LIG d   1      -1.246  76.117 114.327  0.00  0.00    -0.311 N 
ATOM     14  C   LIG d   1      -0.238  76.368 115.160  0.00  0.00     0.210 C 
ATOM     15  C   LIG d   1       0.423  75.128 115.768  0.00  0.00     0.109 C 
ATOM     16  O   LIG d   1       0.150  77.502 115.479  0.00  0.00    -0.276 OA
ATOM     17  H   LIG d   1      -1.515  75.168 114.150  0.00  0.00     0.149 HD
ENDBRANCH   6  13
BRANCH   5  18
ATOM     18  N   LIG d   1      -0.649  77.101 111.497  0.00  0.00     0.381 N 
ATOM     19  H   LIG d   1      -0.609  76.147 111.795  0.00  0.00    -0.090 HD
ATOM     20  H   LIG d   1       0.280  77.393 111.248  0.00  0.00    -0.090 HD
ATOM     21  H   LIG d   1      -1.254  77.186 110.710  0.00  0.00    -0.090 HD
ENDBRANCH   5  18
BRANCH   3  22
ATOM     22  C   LIG d   1      -2.827  81.214 112.627  0.00  0.00     0.382 C 
ATOM     23  O   LIG d   1      -1.896  81.920 112.169  0.00  0.00    -0.241 OA
ATOM     24  O   LIG d   1      -3.941  81.730 112.836  0.00  0.00    -0.241 OA
ENDBRANCH   3  22
TORSDOF 7
ENDMDL
