MODEL 1
REMARK VINA RESULT:      -4.7      0.000      0.000
REMARK  7 active torsions:
REMARK  status: ('A' for Active; 'I' for Inactive)
REMARK    1  A    between atoms: C_2  and  C_3 
REMARK    2  A    between atoms: C_3  and  O_6 
REMARK    3  A    between atoms: C_3  and  C_4 
REMARK    4  A    between atoms: C_7  and  O_6 
REMARK    5  A    between atoms: C_9  and  C_10 
REMARK    6  A    between atoms: N_15  and  C_14 
REMARK    7  A    between atoms: N_20  and  C_19 
REMARK       I    between atoms: C_22  and  N_20 
ROOT
ATOM      1  C   LIG d   1      -2.671  77.628 115.810  0.00  0.00     0.161 C 
ATOM      2  C   LIG d   1      -3.034  77.613 114.453  0.00  0.00     0.016 C 
ATOM      3  C   LIG d   1      -2.395  78.401 113.468  0.00  0.00     0.038 C 
ATOM      4  C   LIG d   1      -1.242  79.149 113.750  0.00  0.00     0.028 C 
ATOM      5  C   LIG d   1      -1.146  79.588 115.207  0.00  0.00    -0.047 C 
ATOM      6  C   LIG d   1      -1.344  78.354 116.117  0.00  0.00     0.091 C 
ENDROOT
BRANCH   1   7
ATOM      7  O   LIG d   1      -2.636  76.281 116.321  0.00  0.00    -0.368 OA
BRANCH   7   8
ATOM      8  C   LIG d   1      -2.627  75.224 115.331  0.00  0.00     0.119 C 
BRANCH   8   9
ATOM      9  C   LIG d   1      -3.744  74.230 115.705  0.00  0.00     0.028 C 
ATOM     10  C   LIG d   1      -4.912  74.255 114.703  0.00  0.00     0.006 C 
ENDBRANCH   8   9
BRANCH   8  11
ATOM     11  C   LIG d   1      -1.328  74.414 115.390  0.00  0.00     0.028 C 
ATOM     12  C   LIG d   1      -0.204  75.030 114.542  0.00  0.00     0.006 C 
ENDBRANCH   8  11
ENDBRANCH   7   8
ENDBRANCH   1   7
BRANCH   6  13
ATOM     13  N   LIG d   1      -1.349  78.708 117.560  0.00  0.00    -0.311 N 
ATOM     14  C   LIG d   1      -0.263  78.661 118.330  0.00  0.00     0.210 C 
ATOM     15  C   LIG d   1      -0.492  79.048 119.795  0.00  0.00     0.109 C 
ATOM     16  O   LIG d   1       0.874  78.367 117.932  0.00  0.00    -0.276 OA
ATOM     17  H   LIG d   1      -2.224  78.989 117.958  0.00  0.00     0.149 HD
ENDBRANCH   6  13
BRANCH   5  18
ATOM     18  N   LIG d   1       0.166  80.237 115.392  0.00  0.00     0.381 N 
ATOM     19  H   LIG d   1       0.886  79.662 115.004  0.00  0.00    -0.090 HD
ATOM     20  H   LIG d   1       0.341  80.341 116.376  0.00  0.00    -0.090 HD
ATOM     21  H   LIG d   1       0.169  81.130 114.950  0.00  0.00    -0.090 HD
ENDBRANCH   5  18
BRANCH   3  22
ATOM     22  C   LIG d   1      -2.933  78.476 112.193  0.00  0.00     0.382 C 
ATOM     23  O   LIG d   1      -4.119  78.121 111.991  0.00  0.00    -0.241 OA
ATOM     24  O   LIG d   1      -2.234  78.853 111.233  0.00  0.00    -0.241 OA
ENDBRANCH   3  22
TORSDOF 7
ENDMDL
MODEL 2
REMARK VINA RESULT:      -4.6      3.165      5.644
REMARK  7 active torsions:
REMARK  status: ('A' for Active; 'I' for Inactive)
REMARK    1  A    between atoms: C_2  and  C_3 
REMARK    2  A    between atoms: C_3  and  O_6 
REMARK    3  A    between atoms: C_3  and  C_4 
REMARK    4  A    between atoms: C_7  and  O_6 
REMARK    5  A    between atoms: C_9  and  C_10 
REMARK    6  A    between atoms: N_15  and  C_14 
REMARK    7  A    between atoms: N_20  and  C_19 
REMARK       I    between atoms: C_22  and  N_20 
ROOT
ATOM      1  C   LIG d   1      -0.125  80.408 112.923  0.00  0.00     0.161 C 
ATOM      2  C   LIG d   1      -1.152  79.828 112.160  0.00  0.00     0.016 C 
ATOM      3  C   LIG d   1      -2.172  79.020 112.714  0.00  0.00     0.038 C 
ATOM      4  C   LIG d   1      -2.321  78.860 114.099  0.00  0.00     0.028 C 
ATOM      5  C   LIG d   1      -1.014  79.013 114.871  0.00  0.00    -0.047 C 
ATOM      6  C   LIG d   1      -0.335  80.336 114.450  0.00  0.00     0.091 C 
ENDROOT
BRANCH   1   7
ATOM      7  O   LIG d   1       0.079  81.774 112.509  0.00  0.00    -0.368 OA
BRANCH   7   8
ATOM      8  C   LIG d   1       1.418  82.114 112.072  0.00  0.00     0.119 C 
BRANCH   8   9
ATOM      9  C   LIG d   1       1.287  82.924 110.768  0.00  0.00     0.028 C 
ATOM     10  C   LIG d   1      -0.010  83.749 110.717  0.00  0.00     0.006 C 
ENDBRANCH   8   9
BRANCH   8  11
ATOM     11  C   LIG d   1       2.215  80.862 111.693  0.00  0.00     0.028 C 
ATOM     12  C   LIG d   1       3.200  81.109 110.540  0.00  0.00     0.006 C 
ENDBRANCH   8  11
ENDBRANCH   7   8
ENDBRANCH   1   7
BRANCH   6  13
ATOM     13  N   LIG d   1       0.991  80.523 115.095  0.00  0.00    -0.311 N 
ATOM     14  C   LIG d   1       1.154  81.118 116.276  0.00  0.00     0.210 C 
ATOM     15  C   LIG d   1       2.607  81.225 116.750  0.00  0.00     0.109 C 
ATOM     16  O   LIG d   1       0.231  81.538 116.990  0.00  0.00    -0.276 OA
ATOM     17  H   LIG d   1       1.791  80.184 114.599  0.00  0.00     0.149 HD
ENDBRANCH   6  13
BRANCH   5  18
ATOM     18  N   LIG d   1      -1.337  78.960 116.309  0.00  0.00     0.381 N 
ATOM     19  H   LIG d   1      -2.257  79.319 116.463  0.00  0.00    -0.090 HD
ATOM     20  H   LIG d   1      -0.685  79.537 116.810  0.00  0.00    -0.090 HD
ATOM     21  H   LIG d   1      -1.280  78.021 116.637  0.00  0.00    -0.090 HD
ENDBRANCH   5  18
BRANCH   3  22
ATOM     22  C   LIG d   1      -3.032  78.329 111.875  0.00  0.00     0.382 C 
ATOM     23  O   LIG d   1      -2.624  77.911 110.764  0.00  0.00    -0.241 OA
ATOM     24  O   LIG d   1      -4.224  78.156 112.195  0.00  0.00    -0.241 OA
ENDBRANCH   3  22
TORSDOF 7
ENDMDL
MODEL 3
REMARK VINA RESULT:      -4.4      2.855      4.135
REMARK  7 active torsions:
REMARK  status: ('A' for Active; 'I' for Inactive)
REMARK    1  A    between atoms: C_2  and  C_3 
REMARK    2  A    between atoms: C_3  and  O_6 
REMARK    3  A    between atoms: C_3  and  C_4 
REMARK    4  A    between atoms: C_7  and  O_6 
REMARK    5  A    between atoms: C_9  and  C_10 
REMARK    6  A    between atoms: N_15  and  C_14 
REMARK    7  A    between atoms: N_20  and  C_19 
REMARK       I    between atoms: C_22  and  N_20 
ROOT
ATOM      1  C   LIG d   1      -3.350  78.513 115.926  0.00  0.00     0.161 C 
ATOM      2  C   LIG d   1      -3.299  79.526 114.955  0.00  0.00     0.016 C 
ATOM      3  C   LIG d   1      -2.445  79.484 113.829  0.00  0.00     0.038 C 
ATOM      4  C   LIG d   1      -1.687  78.345 113.517  0.00  0.00     0.028 C 
ATOM      5  C   LIG d   1      -1.326  77.505 114.736  0.00  0.00    -0.047 C 
ATOM      6  C   LIG d   1      -2.611  77.213 115.543  0.00  0.00     0.091 C 
ENDROOT
BRANCH   1   7
ATOM      7  O   LIG d   1      -4.722  78.228 116.265  0.00  0.00    -0.368 OA
BRANCH   7   8
ATOM      8  C   LIG d   1      -5.091  78.430 117.651  0.00  0.00     0.119 C 
BRANCH   8   9
ATOM      9  C   LIG d   1      -5.974  77.239 118.073  0.00  0.00     0.028 C 
ATOM     10  C   LIG d   1      -6.563  76.490 116.866  0.00  0.00     0.006 C 
ENDBRANCH   8   9
BRANCH   8  11
ATOM     11  C   LIG d   1      -5.974  79.669 117.818  0.00  0.00     0.028 C 
ATOM     12  C   LIG d   1      -5.167  80.939 118.132  0.00  0.00     0.006 C 
ENDBRANCH   8  11
ENDBRANCH   7   8
ENDBRANCH   1   7
BRANCH   6  13
ATOM     13  N   LIG d   1      -2.336  76.466 116.798  0.00  0.00    -0.311 N 
ATOM     14  C   LIG d   1      -2.848  75.266 117.065  0.00  0.00     0.210 C 
ATOM     15  C   LIG d   1      -2.453  74.681 118.424  0.00  0.00     0.109 C 
ATOM     16  O   LIG d   1      -3.567  74.616 116.291  0.00  0.00    -0.276 OA
ATOM     17  H   LIG d   1      -1.737  76.907 117.469  0.00  0.00     0.149 HD
ENDBRANCH   6  13
BRANCH   5  18
ATOM     18  N   LIG d   1      -0.657  76.282 114.253  0.00  0.00     0.381 N 
ATOM     19  H   LIG d   1       0.050  76.003 114.903  0.00  0.00    -0.090 HD
ATOM     20  H   LIG d   1      -0.215  76.480 113.372  0.00  0.00    -0.090 HD
ATOM     21  H   LIG d   1      -1.323  75.550 114.141  0.00  0.00    -0.090 HD
ENDBRANCH   5  18
BRANCH   3  22
ATOM     22  C   LIG d   1      -2.313  80.605 113.024  0.00  0.00     0.382 C 
ATOM     23  O   LIG d   1      -1.172  81.007 112.691  0.00  0.00    -0.241 OA
ATOM     24  O   LIG d   1      -3.318  81.244 112.662  0.00  0.00    -0.241 OA
ENDBRANCH   3  22
TORSDOF 7
ENDMDL
MODEL 4
REMARK VINA RESULT:      -4.4      2.999      4.705
REMARK  7 active torsions:
REMARK  status: ('A' for Active; 'I' for Inactive)
REMARK    1  A    between atoms: C_2  and  C_3 
REMARK    2  A    between atoms: C_3  and  O_6 
REMARK    3  A    between atoms: C_3  and  C_4 
REMARK    4  A    between atoms: C_7  and  O_6 
REMARK    5  A    between atoms: C_9  and  C_10 
REMARK    6  A    between atoms: N_15  and  C_14 
REMARK    7  A    between atoms: N_20  and  C_19 
REMARK       I    between atoms: C_22  and  N_20 
ROOT
ATOM      1  C   LIG d   1      -2.788  79.097 116.223  0.00  0.00     0.161 C 
ATOM      2  C   LIG d   1      -2.945  79.999 115.157  0.00  0.00     0.016 C 
ATOM      3  C   LIG d   1      -2.484  79.742 113.846  0.00  0.00     0.038 C 
ATOM      4  C   LIG d   1      -1.964  78.493 113.474  0.00  0.00     0.028 C 
ATOM      5  C   LIG d   1      -1.325  77.734 114.632  0.00  0.00    -0.047 C 
ATOM      6  C   LIG d   1      -2.324  77.684 115.811  0.00  0.00     0.091 C 
ENDROOT
BRANCH   1   7
ATOM      7  O   LIG d   1      -4.011  79.021 116.983  0.00  0.00    -0.368 OA
BRANCH   7   8
ATOM      8  C   LIG d   1      -4.467  80.259 117.581  0.00  0.00     0.119 C 
BRANCH   8   9
ATOM      9  C   LIG d   1      -3.755  80.407 118.939  0.00  0.00     0.028 C 
ATOM     10  C   LIG d   1      -2.892  81.678 119.013  0.00  0.00     0.006 C 
ENDBRANCH   8   9
BRANCH   8  11
ATOM     11  C   LIG d   1      -5.962  80.200 117.912  0.00  0.00     0.028 C 
ATOM     12  C   LIG d   1      -6.595  81.592 118.059  0.00  0.00     0.006 C 
ENDBRANCH   8  11
ENDBRANCH   7   8
ENDBRANCH   1   7
BRANCH   6  13
ATOM     13  N   LIG d   1      -1.746  77.032 117.016  0.00  0.00    -0.311 N 
ATOM     14  C   LIG d   1      -2.241  75.919 117.555  0.00  0.00     0.210 C 
ATOM     15  C   LIG d   1      -1.508  75.425 118.806  0.00  0.00     0.109 C 
ATOM     16  O   LIG d   1      -3.198  75.277 117.097  0.00  0.00    -0.276 OA
ATOM     17  H   LIG d   1      -0.949  77.470 117.433  0.00  0.00     0.149 HD
ENDBRANCH   6  13
BRANCH   5  18
ATOM     18  N   LIG d   1      -0.951  76.396 114.135  0.00  0.00     0.381 N 
ATOM     19  H   LIG d   1      -0.124  76.462 113.576  0.00  0.00    -0.090 HD
ATOM     20  H   LIG d   1      -1.694  76.043 113.559  0.00  0.00    -0.090 HD
ATOM     21  H   LIG d   1      -0.793  75.780 114.902  0.00  0.00    -0.090 HD
ENDBRANCH   5  18
BRANCH   3  22
ATOM     22  C   LIG d   1      -2.503  80.755 112.899  0.00  0.00     0.382 C 
ATOM     23  O   LIG d   1      -3.591  81.291 112.577  0.00  0.00    -0.241 OA
ATOM     24  O   LIG d   1      -1.453  81.110 112.332  0.00  0.00    -0.241 OA
ENDBRANCH   3  22
TORSDOF 7
ENDMDL
MODEL 5
REMARK VINA RESULT:      -4.4      1.167      1.815
REMARK  7 active torsions:
REMARK  status: ('A' for Active; 'I' for Inactive)
REMARK    1  A    between atoms: C_2  and  C_3 
REMARK    2  A    between atoms: C_3  and  O_6 
REMARK    3  A    between atoms: C_3  and  C_4 
REMARK    4  A    between atoms: C_7  and  O_6 
REMARK    5  A    between atoms: C_9  and  C_10 
REMARK    6  A    between atoms: N_15  and  C_14 
REMARK    7  A    between atoms: N_20  and  C_19 
REMARK       I    between atoms: C_22  and  N_20 
ROOT
ATOM      1  C   LIG d   1      -2.273  77.252 115.557  0.00  0.00     0.161 C 
ATOM      2  C   LIG d   1      -2.701  77.337 114.221  0.00  0.00     0.016 C 
ATOM      3  C   LIG d   1      -2.240  78.323 113.318  0.00  0.00     0.038 C 
ATOM      4  C   LIG d   1      -1.200  79.204 113.649  0.00  0.00     0.028 C 
ATOM      5  C   LIG d   1      -1.094  79.482 115.144  0.00  0.00    -0.047 C 
ATOM      6  C   LIG d   1      -1.056  78.136 115.904  0.00  0.00     0.091 C 
ENDROOT
BRANCH   1   7
ATOM      7  O   LIG d   1      -2.008  75.878 115.898  0.00  0.00    -0.368 OA
BRANCH   7   8
ATOM      8  C   LIG d   1      -3.006  75.220 116.716  0.00  0.00     0.119 C 
BRANCH   8   9
ATOM      9  C   LIG d   1      -3.867  74.347 115.784  0.00  0.00     0.028 C 
ATOM     10  C   LIG d   1      -5.252  74.961 115.517  0.00  0.00     0.006 C 
ENDBRANCH   8   9
BRANCH   8  11
ATOM     11  C   LIG d   1      -3.976  76.232 117.333  0.00  0.00     0.028 C 
ATOM     12  C   LIG d   1      -3.754  76.428 118.841  0.00  0.00     0.006 C 
ENDBRANCH   8  11
ENDBRANCH   7   8
ENDBRANCH   1   7
BRANCH   6  13
ATOM     13  N   LIG d   1      -1.038  78.317 117.378  0.00  0.00    -0.311 N 
ATOM     14  C   LIG d   1      -0.177  77.697 118.183  0.00  0.00     0.210 C 
ATOM     15  C   LIG d   1      -0.343  78.009 119.673  0.00  0.00     0.109 C 
ATOM     16  O   LIG d   1       0.730  76.942 117.801  0.00  0.00    -0.276 OA
ATOM     17  H   LIG d   1      -1.721  78.936 117.770  0.00  0.00     0.149 HD
ENDBRANCH   6  13
BRANCH   5  18
ATOM     18  N   LIG d   1       0.112  80.302 115.361  0.00  0.00     0.381 N 
ATOM     19  H   LIG d   1       0.469  80.619 114.482  0.00  0.00    -0.090 HD
ATOM     20  H   LIG d   1       0.816  79.735 115.801  0.00  0.00    -0.090 HD
ATOM     21  H   LIG d   1      -0.106  81.083 115.940  0.00  0.00    -0.090 HD
ENDBRANCH   5  18
BRANCH   3  22
ATOM     22  C   LIG d   1      -2.850  78.459 112.080  0.00  0.00     0.382 C 
ATOM     23  O   LIG d   1      -2.184  78.852 111.092  0.00  0.00    -0.241 OA
ATOM     24  O   LIG d   1      -4.069  78.238 111.949  0.00  0.00    -0.241 OA
ENDBRANCH   3  22
TORSDOF 7
ENDMDL
MODEL 6
REMARK VINA RESULT:      -4.2      1.570      2.057
REMARK  7 active torsions:
REMARK  status: ('A' for Active; 'I' for Inactive)
REMARK    1  A    between atoms: C_2  and  C_3 
REMARK    2  A    between atoms: C_3  and  O_6 
REMARK    3  A    between atoms: C_3  and  C_4 
REMARK    4  A    between atoms: C_7  and  O_6 
REMARK    5  A    between atoms: C_9  and  C_10 
REMARK    6  A    between atoms: N_15  and  C_14 
REMARK    7  A    between atoms: N_20  and  C_19 
REMARK       I    between atoms: C_22  and  N_20 
ROOT
ATOM      1  C   LIG d   1      -3.085  77.941 115.002  0.00  0.00     0.161 C 
ATOM      2  C   LIG d   1      -3.021  77.868 113.601  0.00  0.00     0.016 C 
ATOM      3  C   LIG d   1      -2.023  78.512 112.833  0.00  0.00     0.038 C 
ATOM      4  C   LIG d   1      -0.927  79.153 113.429  0.00  0.00     0.028 C 
ATOM      5  C   LIG d   1      -1.222  79.681 114.829  0.00  0.00    -0.047 C 
ATOM      6  C   LIG d   1      -1.834  78.542 115.677  0.00  0.00     0.091 C 
ENDROOT
BRANCH   1   7
ATOM      7  O   LIG d   1      -3.369  76.637 115.547  0.00  0.00    -0.368 OA
BRANCH   7   8
ATOM      8  C   LIG d   1      -4.614  76.509 116.276  0.00  0.00     0.119 C 
BRANCH   8   9
ATOM      9  C   LIG d   1      -4.261  76.203 117.745  0.00  0.00     0.028 C 
ATOM     10  C   LIG d   1      -2.934  75.437 117.882  0.00  0.00     0.006 C 
ENDBRANCH   8   9
BRANCH   8  11
ATOM     11  C   LIG d   1      -5.421  75.300 115.793  0.00  0.00     0.028 C 
ATOM     12  C   LIG d   1      -4.722  74.530 114.662  0.00  0.00     0.006 C 
ENDBRANCH   8  11
ENDBRANCH   7   8
ENDBRANCH   1   7
BRANCH   6  13
ATOM     13  N   LIG d   1      -2.230  78.997 117.035  0.00  0.00    -0.311 N 
ATOM     14  C   LIG d   1      -1.457  78.853 118.110  0.00  0.00     0.210 C 
ATOM     15  C   LIG d   1      -2.065  79.373 119.417  0.00  0.00     0.109 C 
ATOM     16  O   LIG d   1      -0.314  78.374 118.101  0.00  0.00    -0.276 OA
ATOM     17  H   LIG d   1      -3.130  79.425 117.128  0.00  0.00     0.149 HD
ENDBRANCH   6  13
BRANCH   5  18
ATOM     18  N   LIG d   1       0.042  80.200 115.385  0.00  0.00     0.381 N 
ATOM     19  H   LIG d   1      -0.144  80.728 116.214  0.00  0.00    -0.090 HD
ATOM     20  H   LIG d   1       0.467  80.812 114.711  0.00  0.00    -0.090 HD
ATOM     21  H   LIG d   1       0.658  79.445 115.594  0.00  0.00    -0.090 HD
ENDBRANCH   5  18
BRANCH   3  22
ATOM     22  C   LIG d   1      -2.139  78.553 111.452  0.00  0.00     0.382 C 
ATOM     23  O   LIG d   1      -3.018  77.869 110.876  0.00  0.00    -0.241 OA
ATOM     24  O   LIG d   1      -1.346  79.232 110.772  0.00  0.00    -0.241 OA
ENDBRANCH   3  22
TORSDOF 7
ENDMDL
MODEL 7
REMARK VINA RESULT:      -4.1      2.572      5.119
REMARK  7 active torsions:
REMARK  status: ('A' for Active; 'I' for Inactive)
REMARK    1  A    between atoms: C_2  and  C_3 
REMARK    2  A    between atoms: C_3  and  O_6 
REMARK    3  A    between atoms: C_3  and  C_4 
REMARK    4  A    between atoms: C_7  and  O_6 
REMARK    5  A    between atoms: C_9  and  C_10 
REMARK    6  A    between atoms: N_15  and  C_14 
REMARK    7  A    between atoms: N_20  and  C_19 
REMARK       I    between atoms: C_22  and  N_20 
ROOT
ATOM      1  C   LIG d   1      -1.041  79.436 113.775  0.00  0.00     0.161 C 
ATOM      2  C   LIG d   1      -2.107  78.571 113.475  0.00  0.00     0.016 C 
ATOM      3  C   LIG d   1      -2.800  77.821 114.453  0.00  0.00     0.038 C 
ATOM      4  C   LIG d   1      -2.572  78.002 115.825  0.00  0.00     0.028 C 
ATOM      5  C   LIG d   1      -1.163  78.489 116.145  0.00  0.00    -0.047 C 
ATOM      6  C   LIG d   1      -0.851  79.730 115.278  0.00  0.00     0.091 C 
ENDROOT
BRANCH   1   7
ATOM      7  O   LIG d   1      -1.188  80.666 113.038  0.00  0.00    -0.368 OA
BRANCH   7   8
ATOM      8  C   LIG d   1      -0.140  80.965 112.083  0.00  0.00     0.119 C 
BRANCH   8   9
ATOM      9  C   LIG d   1      -0.451  82.345 111.472  0.00  0.00     0.028 C 
ATOM     10  C   LIG d   1       0.709  83.340 111.648  0.00  0.00     0.006 C 
ENDBRANCH   8   9
BRANCH   8  11
ATOM     11  C   LIG d   1      -0.162  79.986 110.906  0.00  0.00     0.028 C 
ATOM     12  C   LIG d   1       1.178  79.925 110.156  0.00  0.00     0.006 C 
ENDBRANCH   8  11
ENDBRANCH   7   8
ENDBRANCH   1   7
BRANCH   6  13
ATOM     13  N   LIG d   1       0.539  80.220 115.468  0.00  0.00    -0.311 N 
ATOM     14  C   LIG d   1       0.878  81.127 116.383  0.00  0.00     0.210 C 
ATOM     15  C   LIG d   1       2.361  81.508 116.397  0.00  0.00     0.109 C 
ATOM     16  O   LIG d   1       0.096  81.628 117.205  0.00  0.00    -0.276 OA
ATOM     17  H   LIG d   1       1.242  79.843 114.863  0.00  0.00     0.149 HD
ENDBRANCH   6  13
BRANCH   5  18
ATOM     18  N   LIG d   1      -1.106  78.767 117.593  0.00  0.00     0.381 N 
ATOM     19  H   LIG d   1      -1.953  79.212 117.886  0.00  0.00    -0.090 HD
ATOM     20  H   LIG d   1      -0.341  79.393 117.774  0.00  0.00    -0.090 HD
ATOM     21  H   LIG d   1      -0.976  77.918 118.098  0.00  0.00    -0.090 HD
ENDBRANCH   5  18
BRANCH   3  22
ATOM     22  C   LIG d   1      -3.706  76.849 114.058  0.00  0.00     0.382 C 
ATOM     23  O   LIG d   1      -4.581  77.118 113.201  0.00  0.00    -0.241 OA
ATOM     24  O   LIG d   1      -3.688  75.719 114.582  0.00  0.00    -0.241 OA
ENDBRANCH   3  22
TORSDOF 7
ENDMDL
MODEL 8
REMARK VINA RESULT:      -4.1      2.832      4.917
REMARK  7 active torsions:
REMARK  status: ('A' for Active; 'I' for Inactive)
REMARK    1  A    between atoms: C_2  and  C_3 
REMARK    2  A    between atoms: C_3  and  O_6 
REMARK    3  A    between atoms: C_3  and  C_4 
REMARK    4  A    between atoms: C_7  and  O_6 
REMARK    5  A    between atoms: C_9  and  C_10 
REMARK    6  A    between atoms: N_15  and  C_14 
REMARK    7  A    between atoms: N_20  and  C_19 
REMARK       I    between atoms: C_22  and  N_20 
ROOT
ATOM      1  C   LIG d   1      -1.121  80.263 114.063  0.00  0.00     0.161 C 
ATOM      2  C   LIG d   1      -2.159  79.320 113.988  0.00  0.00     0.016 C 
ATOM      3  C   LIG d   1      -2.501  78.631 112.801  0.00  0.00     0.038 C 
ATOM      4  C   LIG d   1      -1.723  78.729 111.638  0.00  0.00     0.028 C 
ATOM      5  C   LIG d   1      -0.971  80.050 111.521  0.00  0.00    -0.047 C 
ATOM      6  C   LIG d   1      -0.191  80.301 112.833  0.00  0.00     0.091 C 
ENDROOT
BRANCH   1   7
ATOM      7  O   LIG d   1      -0.353  80.050 115.265  0.00  0.00    -0.368 OA
BRANCH   7   8
ATOM      8  C   LIG d   1      -1.098  79.611 116.427  0.00  0.00     0.119 C 
BRANCH   8   9
ATOM      9  C   LIG d   1      -1.028  80.738 117.476  0.00  0.00     0.028 C 
ATOM     10  C   LIG d   1      -2.322  80.856 118.298  0.00  0.00     0.006 C 
ENDBRANCH   8   9
BRANCH   8  11
ATOM     11  C   LIG d   1      -0.434  78.399 117.089  0.00  0.00     0.028 C 
ATOM     12  C   LIG d   1      -1.368  77.181 117.175  0.00  0.00     0.006 C 
ENDBRANCH   8  11
ENDBRANCH   7   8
ENDBRANCH   1   7
BRANCH   6  13
ATOM     13  N   LIG d   1       0.506  81.613 112.836  0.00  0.00    -0.311 N 
ATOM     14  C   LIG d   1       1.789  81.763 112.511  0.00  0.00     0.210 C 
ATOM     15  C   LIG d   1       2.316  83.199 112.600  0.00  0.00     0.109 C 
ATOM     16  O   LIG d   1       2.533  80.847 112.128  0.00  0.00    -0.276 OA
ATOM     17  H   LIG d   1      -0.031  82.414 113.104  0.00  0.00     0.149 HD
ENDBRANCH   6  13
BRANCH   5  18
ATOM     18  N   LIG d   1      -0.096  79.962 110.337  0.00  0.00     0.381 N 
ATOM     19  H   LIG d   1       0.617  80.662 110.389  0.00  0.00    -0.090 HD
ATOM     20  H   LIG d   1      -0.646  80.133 109.513  0.00  0.00    -0.090 HD
ATOM     21  H   LIG d   1       0.319  79.058 110.286  0.00  0.00    -0.090 HD
ENDBRANCH   5  18
BRANCH   3  22
ATOM     22  C   LIG d   1      -3.655  77.864 112.760  0.00  0.00     0.382 C 
ATOM     23  O   LIG d   1      -4.505  78.058 111.857  0.00  0.00    -0.241 OA
ATOM     24  O   LIG d   1      -3.878  77.011 113.639  0.00  0.00    -0.241 OA
ENDBRANCH   3  22
TORSDOF 7
ENDMDL
MODEL 9
REMARK VINA RESULT:      -4.0      2.589      5.247
REMARK  7 active torsions:
REMARK  status: ('A' for Active; 'I' for Inactive)
REMARK    1  A    between atoms: C_2  and  C_3 
REMARK    2  A    between atoms: C_3  and  O_6 
REMARK    3  A    between atoms: C_3  and  C_4 
REMARK    4  A    between atoms: C_7  and  O_6 
REMARK    5  A    between atoms: C_9  and  C_10 
REMARK    6  A    between atoms: N_15  and  C_14 
REMARK    7  A    between atoms: N_20  and  C_19 
REMARK       I    between atoms: C_22  and  N_20 
ROOT
ATOM      1  C   LIG d   1      -1.999  79.934 114.544  0.00  0.00     0.161 C 
ATOM      2  C   LIG d   1      -2.605  78.763 115.029  0.00  0.00     0.016 C 
ATOM      3  C   LIG d   1      -2.920  77.654 114.210  0.00  0.00     0.038 C 
ATOM      4  C   LIG d   1      -2.511  77.582 112.870  0.00  0.00     0.028 C 
ATOM      5  C   LIG d   1      -2.344  78.947 112.213  0.00  0.00    -0.047 C 
ATOM      6  C   LIG d   1      -1.444  79.829 113.108  0.00  0.00     0.091 C 
ENDROOT
BRANCH   1   7
ATOM      7  O   LIG d   1      -0.963  80.359 115.452  0.00  0.00    -0.368 OA
BRANCH   7   8
ATOM      8  C   LIG d   1      -1.037  79.828 116.798  0.00  0.00     0.119 C 
BRANCH   8   9
ATOM      9  C   LIG d   1      -1.427  80.989 117.733  0.00  0.00     0.028 C 
ATOM     10  C   LIG d   1      -2.765  80.742 118.449  0.00  0.00     0.006 C 
ENDBRANCH   8   9
BRANCH   8  11
ATOM     11  C   LIG d   1       0.336  79.357 117.287  0.00  0.00     0.028 C 
ATOM     12  C   LIG d   1       0.275  78.010 118.025  0.00  0.00     0.006 C 
ENDBRANCH   8  11
ENDBRANCH   7   8
ENDBRANCH   1   7
BRANCH   6  13
ATOM     13  N   LIG d   1      -1.299  81.211 112.580  0.00  0.00    -0.311 N 
ATOM     14  C   LIG d   1      -0.351  81.569 111.716  0.00  0.00     0.210 C 
ATOM     15  C   LIG d   1      -0.367  83.047 111.315  0.00  0.00     0.109 C 
ATOM     16  O   LIG d   1       0.481  80.796 111.218  0.00  0.00    -0.276 OA
ATOM     17  H   LIG d   1      -1.952  81.895 112.908  0.00  0.00     0.149 HD
ENDBRANCH   6  13
BRANCH   5  18
ATOM     18  N   LIG d   1      -1.783  78.729 110.866  0.00  0.00     0.381 N 
ATOM     19  H   LIG d   1      -1.368  77.820 110.816  0.00  0.00    -0.090 HD
ATOM     20  H   LIG d   1      -1.067  79.413 110.697  0.00  0.00    -0.090 HD
ATOM     21  H   LIG d   1      -2.501  78.812 110.180  0.00  0.00    -0.090 HD
ENDBRANCH   5  18
BRANCH   3  22
ATOM     22  C   LIG d   1      -3.688  76.619 114.721  0.00  0.00     0.382 C 
ATOM     23  O   LIG d   1      -3.565  76.281 115.923  0.00  0.00    -0.241 OA
ATOM     24  O   LIG d   1      -4.472  75.990 113.984  0.00  0.00    -0.241 OA
ENDBRANCH   3  22
TORSDOF 7
ENDMDL
