MODEL 1
REMARK VINA RESULT:      -5.2      0.000      0.000
REMARK  7 active torsions:
REMARK  status: ('A' for Active; 'I' for Inactive)
REMARK    1  A    between atoms: C_2  and  C_3 
REMARK    2  A    between atoms: C_3  and  O_6 
REMARK    3  A    between atoms: C_3  and  C_4 
REMARK    4  A    between atoms: C_7  and  O_6 
REMARK    5  A    between atoms: C_9  and  C_10 
REMARK    6  A    between atoms: N_15  and  C_14 
REMARK    7  A    between atoms: N_20  and  C_19 
REMARK       I    between atoms: C_22  and  N_20 
ROOT
ATOM      1  C   LIG d   1      -2.719  77.464 116.388  0.00  0.00     0.161 C 
ATOM      2  C   LIG d   1      -3.084  78.037 115.158  0.00  0.00     0.016 C 
ATOM      3  C   LIG d   1      -2.292  77.944 113.991  0.00  0.00     0.038 C 
ATOM      4  C   LIG d   1      -1.146  77.138 113.935  0.00  0.00     0.028 C 
ATOM      5  C   LIG d   1      -0.470  76.951 115.289  0.00  0.00    -0.047 C 
ATOM      6  C   LIG d   1      -1.527  76.487 116.317  0.00  0.00     0.091 C 
ENDROOT
BRANCH   1   7
ATOM      7  O   LIG d   1      -3.861  76.819 116.984  0.00  0.00    -0.368 OA
BRANCH   7   8
ATOM      8  C   LIG d   1      -4.883  76.357 116.067  0.00  0.00     0.119 C 
BRANCH   8   9
ATOM      9  C   LIG d   1      -6.247  76.551 116.758  0.00  0.00     0.028 C 
ATOM     10  C   LIG d   1      -6.380  77.935 117.416  0.00  0.00     0.006 C 
ENDBRANCH   8   9
BRANCH   8  11
ATOM     11  C   LIG d   1      -4.767  74.851 115.816  0.00  0.00     0.028 C 
ATOM     12  C   LIG d   1      -4.804  74.492 114.322  0.00  0.00     0.006 C 
ENDBRANCH   8  11
ENDBRANCH   7   8
ENDBRANCH   1   7
BRANCH   6  13
ATOM     13  N   LIG d   1      -0.966  76.361 117.688  0.00  0.00    -0.311 N 
ATOM     14  C   LIG d   1      -0.444  75.233 118.166  0.00  0.00     0.210 C 
ATOM     15  C   LIG d   1       0.059  75.315 119.610  0.00  0.00     0.109 C 
ATOM     16  O   LIG d   1      -0.319  74.182 117.519  0.00  0.00    -0.276 OA
ATOM     17  H   LIG d   1      -0.998  77.175 118.270  0.00  0.00     0.149 HD
ENDBRANCH   6  13
BRANCH   5  18
ATOM     18  N   LIG d   1       0.627  75.981 115.109  0.00  0.00     0.381 N 
ATOM     19  H   LIG d   1       1.508  76.448 115.187  0.00  0.00    -0.090 HD
ATOM     20  H   LIG d   1       0.561  75.583 114.189  0.00  0.00    -0.090 HD
ATOM     21  H   LIG d   1       0.562  75.262 115.796  0.00  0.00    -0.090 HD
ENDBRANCH   5  18
BRANCH   3  22
ATOM     22  C   LIG d   1      -2.624  78.696 112.874  0.00  0.00     0.382 C 
ATOM     23  O   LIG d   1      -2.892  79.916 112.995  0.00  0.00    -0.241 OA
ATOM     24  O   LIG d   1      -2.702  78.160 111.752  0.00  0.00    -0.241 OA
ENDBRANCH   3  22
TORSDOF 7
ENDMDL
MODEL 2
REMARK VINA RESULT:      -5.2      2.302      4.477
REMARK  7 active torsions:
REMARK  status: ('A' for Active; 'I' for Inactive)
REMARK    1  A    between atoms: C_2  and  C_3 
REMARK    2  A    between atoms: C_3  and  O_6 
REMARK    3  A    between atoms: C_3  and  C_4 
REMARK    4  A    between atoms: C_7  and  O_6 
REMARK    5  A    between atoms: C_9  and  C_10 
REMARK    6  A    between atoms: N_15  and  C_14 
REMARK    7  A    between atoms: N_20  and  C_19 
REMARK       I    between atoms: C_22  and  N_20 
ROOT
ATOM      1  C   LIG d   1      -2.676  77.059 117.101  0.00  0.00     0.161 C 
ATOM      2  C   LIG d   1      -1.730  77.781 117.847  0.00  0.00     0.016 C 
ATOM      3  C   LIG d   1      -0.341  77.748 117.584  0.00  0.00     0.038 C 
ATOM      4  C   LIG d   1       0.184  77.104 116.454  0.00  0.00     0.028 C 
ATOM      5  C   LIG d   1      -0.677  75.946 115.962  0.00  0.00    -0.047 C 
ATOM      6  C   LIG d   1      -2.133  76.439 115.796  0.00  0.00     0.091 C 
ENDROOT
BRANCH   1   7
ATOM      7  O   LIG d   1      -3.818  77.892 116.823  0.00  0.00    -0.368 OA
BRANCH   7   8
ATOM      8  C   LIG d   1      -4.952  77.737 117.711  0.00  0.00     0.119 C 
BRANCH   8   9
ATOM      9  C   LIG d   1      -6.130  77.209 116.870  0.00  0.00     0.028 C 
ATOM     10  C   LIG d   1      -6.401  75.714 117.113  0.00  0.00     0.006 C 
ENDBRANCH   8   9
BRANCH   8  11
ATOM     11  C   LIG d   1      -5.419  79.088 118.260  0.00  0.00     0.028 C 
ATOM     12  C   LIG d   1      -6.730  79.571 117.619  0.00  0.00     0.006 C 
ENDBRANCH   8  11
ENDBRANCH   7   8
ENDBRANCH   1   7
BRANCH   6  13
ATOM     13  N   LIG d   1      -3.059  75.347 115.398  0.00  0.00    -0.311 N 
ATOM     14  C   LIG d   1      -3.848  75.409 114.326  0.00  0.00     0.210 C 
ATOM     15  C   LIG d   1      -4.740  74.183 114.108  0.00  0.00     0.109 C 
ATOM     16  O   LIG d   1      -3.870  76.349 113.518  0.00  0.00    -0.276 OA
ATOM     17  H   LIG d   1      -3.082  74.533 115.981  0.00  0.00     0.149 HD
ENDBRANCH   6  13
BRANCH   5  18
ATOM     18  N   LIG d   1      -0.086  75.455 114.702  0.00  0.00     0.381 N 
ATOM     19  H   LIG d   1       0.912  75.498 114.757  0.00  0.00    -0.090 HD
ATOM     20  H   LIG d   1      -0.387  76.049 113.949  0.00  0.00    -0.090 HD
ATOM     21  H   LIG d   1      -0.377  74.517 114.532  0.00  0.00    -0.090 HD
ENDBRANCH   5  18
BRANCH   3  22
ATOM     22  C   LIG d   1       0.542  78.331 118.480  0.00  0.00     0.382 C 
ATOM     23  O   LIG d   1       1.155  77.618 119.311  0.00  0.00    -0.241 OA
ATOM     24  O   LIG d   1       0.701  79.567 118.497  0.00  0.00    -0.241 OA
ENDBRANCH   3  22
TORSDOF 7
ENDMDL
MODEL 3
REMARK VINA RESULT:      -5.1      2.467      4.840
REMARK  7 active torsions:
REMARK  status: ('A' for Active; 'I' for Inactive)
REMARK    1  A    between atoms: C_2  and  C_3 
REMARK    2  A    between atoms: C_3  and  O_6 
REMARK    3  A    between atoms: C_3  and  C_4 
REMARK    4  A    between atoms: C_7  and  O_6 
REMARK    5  A    between atoms: C_9  and  C_10 
REMARK    6  A    between atoms: N_15  and  C_14 
REMARK    7  A    between atoms: N_20  and  C_19 
REMARK       I    between atoms: C_22  and  N_20 
ROOT
ATOM      1  C   LIG d   1      -1.114  77.572 114.629  0.00  0.00     0.161 C 
ATOM      2  C   LIG d   1      -2.320  77.005 114.184  0.00  0.00     0.016 C 
ATOM      3  C   LIG d   1      -3.231  76.344 115.039  0.00  0.00     0.038 C 
ATOM      4  C   LIG d   1      -3.068  76.336 116.432  0.00  0.00     0.028 C 
ATOM      5  C   LIG d   1      -1.613  76.456 116.873  0.00  0.00    -0.047 C 
ATOM      6  C   LIG d   1      -0.972  77.670 116.162  0.00  0.00     0.091 C 
ENDROOT
BRANCH   1   7
ATOM      7  O   LIG d   1      -0.930  78.867 114.024  0.00  0.00    -0.368 OA
BRANCH   7   8
ATOM      8  C   LIG d   1      -1.799  79.178 112.907  0.00  0.00     0.119 C 
BRANCH   8   9
ATOM      9  C   LIG d   1      -0.935  79.160 111.631  0.00  0.00     0.028 C 
ATOM     10  C   LIG d   1      -1.288  77.987 110.700  0.00  0.00     0.006 C 
ENDBRANCH   8   9
BRANCH   8  11
ATOM     11  C   LIG d   1      -2.346  80.605 113.006  0.00  0.00     0.028 C 
ATOM     12  C   LIG d   1      -1.257  81.675 112.825  0.00  0.00     0.006 C 
ENDBRANCH   8  11
ENDBRANCH   7   8
ENDBRANCH   1   7
BRANCH   6  13
ATOM     13  N   LIG d   1       0.474  77.810 116.472  0.00  0.00    -0.311 N 
ATOM     14  C   LIG d   1       0.937  78.502 117.512  0.00  0.00     0.210 C 
ATOM     15  C   LIG d   1       2.464  78.535 117.638  0.00  0.00     0.109 C 
ATOM     16  O   LIG d   1       0.228  79.063 118.361  0.00  0.00    -0.276 OA
ATOM     17  H   LIG d   1       1.119  77.360 115.853  0.00  0.00     0.149 HD
ENDBRANCH   6  13
BRANCH   5  18
ATOM     18  N   LIG d   1      -1.601  76.574 118.343  0.00  0.00     0.381 N 
ATOM     19  H   LIG d   1      -2.247  77.281 118.632  0.00  0.00    -0.090 HD
ATOM     20  H   LIG d   1      -0.681  76.848 118.639  0.00  0.00    -0.090 HD
ATOM     21  H   LIG d   1      -1.845  75.702 118.757  0.00  0.00    -0.090 HD
ENDBRANCH   5  18
BRANCH   3  22
ATOM     22  C   LIG d   1      -4.300  75.646 114.497  0.00  0.00     0.382 C 
ATOM     23  O   LIG d   1      -4.094  74.606 113.826  0.00  0.00    -0.241 OA
ATOM     24  O   LIG d   1      -5.464  76.067 114.633  0.00  0.00    -0.241 OA
ENDBRANCH   3  22
TORSDOF 7
ENDMDL
MODEL 4
REMARK VINA RESULT:      -5.0      2.341      4.361
REMARK  7 active torsions:
REMARK  status: ('A' for Active; 'I' for Inactive)
REMARK    1  A    between atoms: C_2  and  C_3 
REMARK    2  A    between atoms: C_3  and  O_6 
REMARK    3  A    between atoms: C_3  and  C_4 
REMARK    4  A    between atoms: C_7  and  O_6 
REMARK    5  A    between atoms: C_9  and  C_10 
REMARK    6  A    between atoms: N_15  and  C_14 
REMARK    7  A    between atoms: N_20  and  C_19 
REMARK       I    between atoms: C_22  and  N_20 
ROOT
ATOM      1  C   LIG d   1      -3.429  77.311 117.166  0.00  0.00     0.161 C 
ATOM      2  C   LIG d   1      -2.677  78.077 118.072  0.00  0.00     0.016 C 
ATOM      3  C   LIG d   1      -1.276  77.955 118.219  0.00  0.00     0.038 C 
ATOM      4  C   LIG d   1      -0.507  77.160 117.356  0.00  0.00     0.028 C 
ATOM      5  C   LIG d   1      -1.281  75.989 116.761  0.00  0.00    -0.047 C 
ATOM      6  C   LIG d   1      -2.594  76.518 116.139  0.00  0.00     0.091 C 
ENDROOT
BRANCH   1   7
ATOM      7  O   LIG d   1      -4.386  78.152 116.491  0.00  0.00    -0.368 OA
BRANCH   7   8
ATOM      8  C   LIG d   1      -5.764  78.020 116.917  0.00  0.00     0.119 C 
BRANCH   8   9
ATOM      9  C   LIG d   1      -5.998  79.037 118.051  0.00  0.00     0.028 C 
ATOM     10  C   LIG d   1      -6.908  80.199 117.618  0.00  0.00     0.006 C 
ENDBRANCH   8   9
BRANCH   8  11
ATOM     11  C   LIG d   1      -6.024  76.647 117.544  0.00  0.00     0.028 C 
ATOM     12  C   LIG d   1      -6.955  75.769 116.693  0.00  0.00     0.006 C 
ENDBRANCH   8  11
ENDBRANCH   7   8
ENDBRANCH   1   7
BRANCH   6  13
ATOM     13  N   LIG d   1      -3.451  75.427 115.609  0.00  0.00    -0.311 N 
ATOM     14  C   LIG d   1      -3.947  75.419 114.373  0.00  0.00     0.210 C 
ATOM     15  C   LIG d   1      -4.823  74.209 114.035  0.00  0.00     0.109 C 
ATOM     16  O   LIG d   1      -3.720  76.285 113.514  0.00  0.00    -0.276 OA
ATOM     17  H   LIG d   1      -3.660  74.669 116.229  0.00  0.00     0.149 HD
ENDBRANCH   6  13
BRANCH   5  18
ATOM     18  N   LIG d   1      -0.402  75.327 115.778  0.00  0.00     0.381 N 
ATOM     19  H   LIG d   1       0.040  76.015 115.201  0.00  0.00    -0.090 HD
ATOM     20  H   LIG d   1      -0.961  74.734 115.189  0.00  0.00    -0.090 HD
ATOM     21  H   LIG d   1       0.288  74.785 116.249  0.00  0.00    -0.090 HD
ENDBRANCH   5  18
BRANCH   3  22
ATOM     22  C   LIG d   1      -0.636  78.603 119.263  0.00  0.00     0.382 C 
ATOM     23  O   LIG d   1      -0.904  79.803 119.516  0.00  0.00    -0.241 OA
ATOM     24  O   LIG d   1       0.240  78.018 119.928  0.00  0.00    -0.241 OA
ENDBRANCH   3  22
TORSDOF 7
ENDMDL
MODEL 5
REMARK VINA RESULT:      -5.0      1.722      4.909
REMARK  7 active torsions:
REMARK  status: ('A' for Active; 'I' for Inactive)
REMARK    1  A    between atoms: C_2  and  C_3 
REMARK    2  A    between atoms: C_3  and  O_6 
REMARK    3  A    between atoms: C_3  and  C_4 
REMARK    4  A    between atoms: C_7  and  O_6 
REMARK    5  A    between atoms: C_9  and  C_10 
REMARK    6  A    between atoms: N_15  and  C_14 
REMARK    7  A    between atoms: N_20  and  C_19 
REMARK       I    between atoms: C_22  and  N_20 
ROOT
ATOM      1  C   LIG d   1      -1.897  75.548 114.952  0.00  0.00     0.161 C 
ATOM      2  C   LIG d   1      -1.612  75.194 116.282  0.00  0.00     0.016 C 
ATOM      3  C   LIG d   1      -0.839  75.997 117.152  0.00  0.00     0.038 C 
ATOM      4  C   LIG d   1      -0.424  77.289 116.796  0.00  0.00     0.028 C 
ATOM      5  C   LIG d   1      -0.258  77.478 115.292  0.00  0.00    -0.047 C 
ATOM      6  C   LIG d   1      -1.546  77.004 114.581  0.00  0.00     0.091 C 
ENDROOT
BRANCH   1   7
ATOM      7  O   LIG d   1      -3.283  75.277 114.661  0.00  0.00    -0.368 OA
BRANCH   7   8
ATOM      8  C   LIG d   1      -4.173  75.215 115.802  0.00  0.00     0.119 C 
BRANCH   8   9
ATOM      9  C   LIG d   1      -5.269  74.181 115.479  0.00  0.00     0.028 C 
ATOM     10  C   LIG d   1      -6.672  74.669 115.877  0.00  0.00     0.006 C 
ENDBRANCH   8   9
BRANCH   8  11
ATOM     11  C   LIG d   1      -4.913  76.541 116.003  0.00  0.00     0.028 C 
ATOM     12  C   LIG d   1      -4.348  77.368 117.169  0.00  0.00     0.006 C 
ENDBRANCH   8  11
ENDBRANCH   7   8
ENDBRANCH   1   7
BRANCH   6  13
ATOM     13  N   LIG d   1      -1.436  77.076 113.101  0.00  0.00    -0.311 N 
ATOM     14  C   LIG d   1      -1.946  78.070 112.376  0.00  0.00     0.210 C 
ATOM     15  C   LIG d   1      -1.738  77.941 110.863  0.00  0.00     0.109 C 
ATOM     16  O   LIG d   1      -2.523  79.063 112.844  0.00  0.00    -0.276 OA
ATOM     17  H   LIG d   1      -0.956  76.327 112.642  0.00  0.00     0.149 HD
ENDBRANCH   6  13
BRANCH   5  18
ATOM     18  N   LIG d   1       0.043  78.902 115.053  0.00  0.00     0.381 N 
ATOM     19  H   LIG d   1       0.699  78.989 114.302  0.00  0.00    -0.090 HD
ATOM     20  H   LIG d   1       0.459  79.290 115.881  0.00  0.00    -0.090 HD
ATOM     21  H   LIG d   1      -0.794  79.395 114.831  0.00  0.00    -0.090 HD
ENDBRANCH   5  18
BRANCH   3  22
ATOM     22  C   LIG d   1      -0.441  75.492 118.381  0.00  0.00     0.382 C 
ATOM     23  O   LIG d   1      -0.838  76.035 119.440  0.00  0.00    -0.241 OA
ATOM     24  O   LIG d   1       0.346  74.529 118.443  0.00  0.00    -0.241 OA
ENDBRANCH   3  22
TORSDOF 7
ENDMDL
MODEL 6
REMARK VINA RESULT:      -4.8      4.543      7.528
REMARK  7 active torsions:
REMARK  status: ('A' for Active; 'I' for Inactive)
REMARK    1  A    between atoms: C_2  and  C_3 
REMARK    2  A    between atoms: C_3  and  O_6 
REMARK    3  A    between atoms: C_3  and  C_4 
REMARK    4  A    between atoms: C_7  and  O_6 
REMARK    5  A    between atoms: C_9  and  C_10 
REMARK    6  A    between atoms: N_15  and  C_14 
REMARK    7  A    between atoms: N_20  and  C_19 
REMARK       I    between atoms: C_22  and  N_20 
ROOT
ATOM      1  C   LIG d   1      -0.626  80.492 112.719  0.00  0.00     0.161 C 
ATOM      2  C   LIG d   1      -1.398  79.563 113.436  0.00  0.00     0.016 C 
ATOM      3  C   LIG d   1      -1.843  78.336 112.892  0.00  0.00     0.038 C 
ATOM      4  C   LIG d   1      -1.417  77.885 111.635  0.00  0.00     0.028 C 
ATOM      5  C   LIG d   1      -1.050  79.014 110.678  0.00  0.00    -0.047 C 
ATOM      6  C   LIG d   1      -0.059  79.968 111.383  0.00  0.00     0.091 C 
ENDROOT
BRANCH   1   7
ATOM      7  O   LIG d   1       0.437  80.993 113.553  0.00  0.00    -0.368 OA
BRANCH   7   8
ATOM      8  C   LIG d   1       0.622  82.430 113.556  0.00  0.00     0.119 C 
BRANCH   8   9
ATOM      9  C   LIG d   1       1.253  82.812 114.909  0.00  0.00     0.028 C 
ATOM     10  C   LIG d   1       2.353  81.829 115.342  0.00  0.00     0.006 C 
ENDBRANCH   8   9
BRANCH   8  11
ATOM     11  C   LIG d   1      -0.721  83.165 113.513  0.00  0.00     0.028 C 
ATOM     12  C   LIG d   1      -0.730  84.440 114.371  0.00  0.00     0.006 C 
ENDBRANCH   8  11
ENDBRANCH   7   8
ENDBRANCH   1   7
BRANCH   6  13
ATOM     13  N   LIG d   1       0.287  81.147 110.547  0.00  0.00    -0.311 N 
ATOM     14  C   LIG d   1       1.538  81.529 110.300  0.00  0.00     0.210 C 
ATOM     15  C   LIG d   1       1.672  82.783 109.431  0.00  0.00     0.109 C 
ATOM     16  O   LIG d   1       2.551  80.930 110.692  0.00  0.00    -0.276 OA
ATOM     17  H   LIG d   1      -0.474  81.672 110.163  0.00  0.00     0.149 HD
ENDBRANCH   6  13
BRANCH   5  18
ATOM     18  N   LIG d   1      -0.493  78.401 109.457  0.00  0.00     0.381 N 
ATOM     19  H   LIG d   1       0.274  78.949 109.123  0.00  0.00    -0.090 HD
ATOM     20  H   LIG d   1      -1.204  78.388 108.747  0.00  0.00    -0.090 HD
ATOM     21  H   LIG d   1      -0.189  77.473 109.650  0.00  0.00    -0.090 HD
ENDBRANCH   5  18
BRANCH   3  22
ATOM     22  C   LIG d   1      -2.757  77.565 113.594  0.00  0.00     0.382 C 
ATOM     23  O   LIG d   1      -3.503  76.764 112.981  0.00  0.00    -0.241 OA
ATOM     24  O   LIG d   1      -2.876  77.692 114.827  0.00  0.00    -0.241 OA
ENDBRANCH   3  22
TORSDOF 7
ENDMDL
MODEL 7
REMARK VINA RESULT:      -4.7      5.681      8.608
REMARK  7 active torsions:
REMARK  status: ('A' for Active; 'I' for Inactive)
REMARK    1  A    between atoms: C_2  and  C_3 
REMARK    2  A    between atoms: C_3  and  O_6 
REMARK    3  A    between atoms: C_3  and  C_4 
REMARK    4  A    between atoms: C_7  and  O_6 
REMARK    5  A    between atoms: C_9  and  C_10 
REMARK    6  A    between atoms: N_15  and  C_14 
REMARK    7  A    between atoms: N_20  and  C_19 
REMARK       I    between atoms: C_22  and  N_20 
ROOT
ATOM      1  C   LIG d   1       0.690  81.105 111.429  0.00  0.00     0.161 C 
ATOM      2  C   LIG d   1       0.698  79.925 110.666  0.00  0.00     0.016 C 
ATOM      3  C   LIG d   1      -0.231  78.875 110.848  0.00  0.00     0.038 C 
ATOM      4  C   LIG d   1      -1.333  79.000 111.708  0.00  0.00     0.028 C 
ATOM      5  C   LIG d   1      -1.092  79.966 112.863  0.00  0.00    -0.047 C 
ATOM      6  C   LIG d   1      -0.571  81.306 112.295  0.00  0.00     0.091 C 
ENDROOT
BRANCH   1   7
ATOM      7  O   LIG d   1       0.894  82.243 110.569  0.00  0.00    -0.368 OA
BRANCH   7   8
ATOM      8  C   LIG d   1       2.272  82.618 110.324  0.00  0.00     0.119 C 
BRANCH   8   9
ATOM      9  C   LIG d   1       3.029  82.499 111.661  0.00  0.00     0.028 C 
ATOM     10  C   LIG d   1       3.105  83.837 112.414  0.00  0.00     0.006 C 
ENDBRANCH   8   9
BRANCH   8  11
ATOM     11  C   LIG d   1       2.386  84.092 109.924  0.00  0.00     0.028 C 
ATOM     12  C   LIG d   1       1.055  84.680 109.430  0.00  0.00     0.006 C 
ENDBRANCH   8  11
ENDBRANCH   7   8
ENDBRANCH   1   7
BRANCH   6  13
ATOM     13  N   LIG d   1      -0.230  82.280 113.365  0.00  0.00    -0.311 N 
ATOM     14  C   LIG d   1      -0.437  83.591 113.255  0.00  0.00     0.210 C 
ATOM     15  C   LIG d   1       0.004  84.419 114.466  0.00  0.00     0.109 C 
ATOM     16  O   LIG d   1      -0.974  84.144 112.283  0.00  0.00    -0.276 OA
ATOM     17  H   LIG d   1       0.181  81.914 114.201  0.00  0.00     0.149 HD
ENDBRANCH   6  13
BRANCH   5  18
ATOM     18  N   LIG d   1      -2.363  80.106 113.599  0.00  0.00     0.381 N 
ATOM     19  H   LIG d   1      -2.304  79.621 114.472  0.00  0.00    -0.090 HD
ATOM     20  H   LIG d   1      -3.100  79.690 113.057  0.00  0.00    -0.090 HD
ATOM     21  H   LIG d   1      -2.561  81.069 113.758  0.00  0.00    -0.090 HD
ENDBRANCH   5  18
BRANCH   3  22
ATOM     22  C   LIG d   1      -0.041  77.668 110.193  0.00  0.00     0.382 C 
ATOM     23  O   LIG d   1      -0.946  76.798 110.204  0.00  0.00    -0.241 OA
ATOM     24  O   LIG d   1       1.041  77.419 109.628  0.00  0.00    -0.241 OA
ENDBRANCH   3  22
TORSDOF 7
ENDMDL
MODEL 8
REMARK VINA RESULT:      -4.3      2.214      4.991
REMARK  7 active torsions:
REMARK  status: ('A' for Active; 'I' for Inactive)
REMARK    1  A    between atoms: C_2  and  C_3 
REMARK    2  A    between atoms: C_3  and  O_6 
REMARK    3  A    between atoms: C_3  and  C_4 
REMARK    4  A    between atoms: C_7  and  O_6 
REMARK    5  A    between atoms: C_9  and  C_10 
REMARK    6  A    between atoms: N_15  and  C_14 
REMARK    7  A    between atoms: N_20  and  C_19 
REMARK       I    between atoms: C_22  and  N_20 
ROOT
ATOM      1  C   LIG d   1      -1.698  77.674 114.953  0.00  0.00     0.161 C 
ATOM      2  C   LIG d   1      -2.832  78.133 115.644  0.00  0.00     0.016 C 
ATOM      3  C   LIG d   1      -3.067  77.872 117.014  0.00  0.00     0.038 C 
ATOM      4  C   LIG d   1      -2.103  77.259 117.828  0.00  0.00     0.028 C 
ATOM      5  C   LIG d   1      -1.163  76.334 117.063  0.00  0.00    -0.047 C 
ATOM      6  C   LIG d   1      -0.582  77.099 115.851  0.00  0.00     0.091 C 
ENDROOT
BRANCH   1   7
ATOM      7  O   LIG d   1      -1.176  78.726 114.118  0.00  0.00    -0.368 OA
BRANCH   7   8
ATOM      8  C   LIG d   1      -1.952  79.045 112.936  0.00  0.00     0.119 C 
BRANCH   8   9
ATOM      9  C   LIG d   1      -1.006  78.952 111.723  0.00  0.00     0.028 C 
ATOM     10  C   LIG d   1      -1.497  77.943 110.671  0.00  0.00     0.006 C 
ENDBRANCH   8   9
BRANCH   8  11
ATOM     11  C   LIG d   1      -2.436  80.498 112.962  0.00  0.00     0.028 C 
ATOM     12  C   LIG d   1      -1.284  81.511 112.868  0.00  0.00     0.006 C 
ENDBRANCH   8  11
ENDBRANCH   7   8
ENDBRANCH   1   7
BRANCH   6  13
ATOM     13  N   LIG d   1       0.282  76.241 115.000  0.00  0.00    -0.311 N 
ATOM     14  C   LIG d   1      -0.151  75.137 114.394  0.00  0.00     0.210 C 
ATOM     15  C   LIG d   1       0.910  74.388 113.580  0.00  0.00     0.109 C 
ATOM     16  O   LIG d   1      -1.320  74.724 114.426  0.00  0.00    -0.276 OA
ATOM     17  H   LIG d   1       1.238  76.519 114.894  0.00  0.00     0.149 HD
ENDBRANCH   6  13
BRANCH   5  18
ATOM     18  N   LIG d   1      -0.127  75.872 118.005  0.00  0.00     0.381 N 
ATOM     19  H   LIG d   1       0.377  75.106 117.606  0.00  0.00    -0.090 HD
ATOM     20  H   LIG d   1      -0.573  75.551 118.847  0.00  0.00    -0.090 HD
ATOM     21  H   LIG d   1       0.500  76.617 118.216  0.00  0.00    -0.090 HD
ENDBRANCH   5  18
BRANCH   3  22
ATOM     22  C   LIG d   1      -4.295  78.191 117.573  0.00  0.00     0.382 C 
ATOM     23  O   LIG d   1      -5.289  78.385 116.833  0.00  0.00    -0.241 OA
ATOM     24  O   LIG d   1      -4.411  78.331 118.806  0.00  0.00    -0.241 OA
ENDBRANCH   3  22
TORSDOF 7
ENDMDL
MODEL 9
REMARK VINA RESULT:      -4.1      2.499      5.357
REMARK  7 active torsions:
REMARK  status: ('A' for Active; 'I' for Inactive)
REMARK    1  A    between atoms: C_2  and  C_3 
REMARK    2  A    between atoms: C_3  and  O_6 
REMARK    3  A    between atoms: C_3  and  C_4 
REMARK    4  A    between atoms: C_7  and  O_6 
REMARK    5  A    between atoms: C_9  and  C_10 
REMARK    6  A    between atoms: N_15  and  C_14 
REMARK    7  A    between atoms: N_20  and  C_19 
REMARK       I    between atoms: C_22  and  N_20 
ROOT
ATOM      1  C   LIG d   1      -2.034  77.696 114.717  0.00  0.00     0.161 C 
ATOM      2  C   LIG d   1      -0.804  77.956 115.344  0.00  0.00     0.016 C 
ATOM      3  C   LIG d   1      -0.227  77.100 116.311  0.00  0.00     0.038 C 
ATOM      4  C   LIG d   1      -0.772  75.842 116.607  0.00  0.00     0.028 C 
ATOM      5  C   LIG d   1      -2.277  75.763 116.371  0.00  0.00    -0.047 C 
ATOM      6  C   LIG d   1      -2.589  76.274 114.946  0.00  0.00     0.091 C 
ENDROOT
BRANCH   1   7
ATOM      7  O   LIG d   1      -1.931  77.973 113.307  0.00  0.00    -0.368 OA
BRANCH   7   8
ATOM      8  C   LIG d   1      -1.272  79.212 112.947  0.00  0.00     0.119 C 
BRANCH   8   9
ATOM      9  C   LIG d   1      -2.332  80.330 112.993  0.00  0.00     0.028 C 
ATOM     10  C   LIG d   1      -1.704  81.733 113.038  0.00  0.00     0.006 C 
ENDBRANCH   8   9
BRANCH   8  11
ATOM     11  C   LIG d   1      -0.780  79.180 111.497  0.00  0.00     0.028 C 
ATOM     12  C   LIG d   1      -1.315  77.972 110.712  0.00  0.00     0.006 C 
ENDBRANCH   8  11
ENDBRANCH   7   8
ENDBRANCH   1   7
BRANCH   6  13
ATOM     13  N   LIG d   1      -4.047  76.310 114.663  0.00  0.00    -0.311 N 
ATOM     14  C   LIG d   1      -4.706  75.309 114.081  0.00  0.00     0.210 C 
ATOM     15  C   LIG d   1      -6.201  75.560 113.864  0.00  0.00     0.109 C 
ATOM     16  O   LIG d   1      -4.200  74.226 113.753  0.00  0.00    -0.276 OA
ATOM     17  H   LIG d   1      -4.542  77.140 114.925  0.00  0.00     0.149 HD
ENDBRANCH   6  13
BRANCH   5  18
ATOM     18  N   LIG d   1      -2.689  74.363 116.586  0.00  0.00     0.381 N 
ATOM     19  H   LIG d   1      -2.522  73.830 115.757  0.00  0.00    -0.090 HD
ATOM     20  H   LIG d   1      -3.674  74.341 116.783  0.00  0.00    -0.090 HD
ATOM     21  H   LIG d   1      -2.182  73.972 117.349  0.00  0.00    -0.090 HD
ENDBRANCH   5  18
BRANCH   3  22
ATOM     22  C   LIG d   1       0.888  77.519 117.022  0.00  0.00     0.382 C 
ATOM     23  O   LIG d   1       1.599  76.679 117.624  0.00  0.00    -0.241 OA
ATOM     24  O   LIG d   1       1.165  78.730 117.105  0.00  0.00    -0.241 OA
ENDBRANCH   3  22
TORSDOF 7
ENDMDL
