MODEL 1
REMARK VINA RESULT:      -5.7      0.000      0.000
REMARK  7 active torsions:
REMARK  status: ('A' for Active; 'I' for Inactive)
REMARK    1  A    between atoms: C_2  and  C_3 
REMARK    2  A    between atoms: C_3  and  O_6 
REMARK    3  A    between atoms: C_3  and  C_4 
REMARK    4  A    between atoms: C_7  and  O_6 
REMARK    5  A    between atoms: C_9  and  C_10 
REMARK    6  A    between atoms: N_15  and  C_14 
REMARK    7  A    between atoms: N_20  and  C_19 
REMARK       I    between atoms: C_22  and  N_20 
ROOT
ATOM      1  C   LIG d   1      -1.492  77.448 113.478  0.00  0.00     0.161 C 
ATOM      2  C   LIG d   1      -2.171  78.677 113.446  0.00  0.00     0.016 C 
ATOM      3  C   LIG d   1      -1.895  79.695 112.504  0.00  0.00     0.038 C 
ATOM      4  C   LIG d   1      -1.020  79.490 111.427  0.00  0.00     0.028 C 
ATOM      5  C   LIG d   1       0.059  78.450 111.712  0.00  0.00    -0.047 C 
ATOM      6  C   LIG d   1      -0.612  77.163 112.243  0.00  0.00     0.091 C 
ENDROOT
BRANCH   1   7
ATOM      7  O   LIG d   1      -2.434  76.375 113.680  0.00  0.00    -0.368 OA
BRANCH   7   8
ATOM      8  C   LIG d   1      -2.383  75.717 114.969  0.00  0.00     0.119 C 
BRANCH   8   9
ATOM      9  C   LIG d   1      -3.724  75.984 115.679  0.00  0.00     0.028 C 
ATOM     10  C   LIG d   1      -4.867  75.121 115.119  0.00  0.00     0.006 C 
ENDBRANCH   8   9
BRANCH   8  11
ATOM     11  C   LIG d   1      -1.315  76.341 115.872  0.00  0.00     0.028 C 
ATOM     12  C   LIG d   1      -0.355  75.299 116.468  0.00  0.00     0.006 C 
ENDBRANCH   8  11
ENDBRANCH   7   8
ENDBRANCH   1   7
BRANCH   6  13
ATOM     13  N   LIG d   1       0.378  76.124 112.626  0.00  0.00    -0.311 N 
ATOM     14  C   LIG d   1       0.787  75.161 111.802  0.00  0.00     0.210 C 
ATOM     15  C   LIG d   1       1.798  74.180 112.404  0.00  0.00     0.109 C 
ATOM     16  O   LIG d   1       0.434  75.045 110.619  0.00  0.00    -0.276 OA
ATOM     17  H   LIG d   1       0.741  76.161 113.559  0.00  0.00     0.149 HD
ENDBRANCH   6  13
BRANCH   5  18
ATOM     18  N   LIG d   1       0.813  78.237 110.463  0.00  0.00     0.381 N 
ATOM     19  H   LIG d   1       0.204  77.877 109.756  0.00  0.00    -0.090 HD
ATOM     20  H   LIG d   1       1.536  77.559 110.631  0.00  0.00    -0.090 HD
ATOM     21  H   LIG d   1       1.218  79.094 110.158  0.00  0.00    -0.090 HD
ENDBRANCH   5  18
BRANCH   3  22
ATOM     22  C   LIG d   1      -2.469  80.948 112.658  0.00  0.00     0.382 C 
ATOM     23  O   LIG d   1      -3.676  81.049 112.983  0.00  0.00    -0.241 OA
ATOM     24  O   LIG d   1      -1.806  81.978 112.432  0.00  0.00    -0.241 OA
ENDBRANCH   3  22
TORSDOF 7
ENDMDL
MODEL 2
REMARK VINA RESULT:      -5.1      2.321      3.442
REMARK  7 active torsions:
REMARK  status: ('A' for Active; 'I' for Inactive)
REMARK    1  A    between atoms: C_2  and  C_3 
REMARK    2  A    between atoms: C_3  and  O_6 
REMARK    3  A    between atoms: C_3  and  C_4 
REMARK    4  A    between atoms: C_7  and  O_6 
REMARK    5  A    between atoms: C_9  and  C_10 
REMARK    6  A    between atoms: N_15  and  C_14 
REMARK    7  A    between atoms: N_20  and  C_19 
REMARK       I    between atoms: C_22  and  N_20 
ROOT
ATOM      1  C   LIG d   1      -2.190  78.113 115.279  0.00  0.00     0.161 C 
ATOM      2  C   LIG d   1      -2.606  79.256 114.577  0.00  0.00     0.016 C 
ATOM      3  C   LIG d   1      -2.231  79.527 113.241  0.00  0.00     0.038 C 
ATOM      4  C   LIG d   1      -1.533  78.593 112.462  0.00  0.00     0.028 C 
ATOM      5  C   LIG d   1      -0.662  77.649 113.285  0.00  0.00    -0.047 C 
ATOM      6  C   LIG d   1      -1.520  77.028 114.411  0.00  0.00     0.091 C 
ENDROOT
BRANCH   1   7
ATOM      7  O   LIG d   1      -3.302  77.555 116.007  0.00  0.00    -0.368 OA
BRANCH   7   8
ATOM      8  C   LIG d   1      -3.519  78.080 117.340  0.00  0.00     0.119 C 
BRANCH   8   9
ATOM      9  C   LIG d   1      -2.856  77.108 118.335  0.00  0.00     0.028 C 
ATOM     10  C   LIG d   1      -2.763  77.693 119.754  0.00  0.00     0.006 C 
ENDBRANCH   8   9
BRANCH   8  11
ATOM     11  C   LIG d   1      -5.007  78.080 117.704  0.00  0.00     0.028 C 
ATOM     12  C   LIG d   1      -5.628  79.486 117.676  0.00  0.00     0.006 C 
ENDBRANCH   8  11
ENDBRANCH   7   8
ENDBRANCH   1   7
BRANCH   6  13
ATOM     13  N   LIG d   1      -0.725  76.156 115.314  0.00  0.00    -0.311 N 
ATOM     14  C   LIG d   1      -1.058  74.898 115.600  0.00  0.00     0.210 C 
ATOM     15  C   LIG d   1      -0.111  74.183 116.569  0.00  0.00     0.109 C 
ATOM     16  O   LIG d   1      -2.029  74.297 115.117  0.00  0.00    -0.276 OA
ATOM     17  H   LIG d   1       0.097  76.554 115.725  0.00  0.00     0.149 HD
ENDBRANCH   6  13
BRANCH   5  18
ATOM     18  N   LIG d   1      -0.101  76.643 112.363  0.00  0.00     0.381 N 
ATOM     19  H   LIG d   1      -0.706  76.533 111.574  0.00  0.00    -0.090 HD
ATOM     20  H   LIG d   1      -0.043  75.761 112.841  0.00  0.00    -0.090 HD
ATOM     21  H   LIG d   1       0.805  76.925 112.060  0.00  0.00    -0.090 HD
ENDBRANCH   5  18
BRANCH   3  22
ATOM     22  C   LIG d   1      -2.521  80.764 112.684  0.00  0.00     0.382 C 
ATOM     23  O   LIG d   1      -1.594  81.485 112.243  0.00  0.00    -0.241 OA
ATOM     24  O   LIG d   1      -3.693  81.185 112.656  0.00  0.00    -0.241 OA
ENDBRANCH   3  22
TORSDOF 7
ENDMDL
MODEL 3
REMARK VINA RESULT:      -5.1      2.410      3.744
REMARK  7 active torsions:
REMARK  status: ('A' for Active; 'I' for Inactive)
REMARK    1  A    between atoms: C_2  and  C_3 
REMARK    2  A    between atoms: C_3  and  O_6 
REMARK    3  A    between atoms: C_3  and  C_4 
REMARK    4  A    between atoms: C_7  and  O_6 
REMARK    5  A    between atoms: C_9  and  C_10 
REMARK    6  A    between atoms: N_15  and  C_14 
REMARK    7  A    between atoms: N_20  and  C_19 
REMARK       I    between atoms: C_22  and  N_20 
ROOT
ATOM      1  C   LIG d   1      -3.305  77.172 114.154  0.00  0.00     0.161 C 
ATOM      2  C   LIG d   1      -3.366  78.431 113.533  0.00  0.00     0.016 C 
ATOM      3  C   LIG d   1      -2.220  79.180 113.178  0.00  0.00     0.038 C 
ATOM      4  C   LIG d   1      -0.926  78.649 113.284  0.00  0.00     0.028 C 
ATOM      5  C   LIG d   1      -0.793  77.587 114.371  0.00  0.00    -0.047 C 
ATOM      6  C   LIG d   1      -1.903  76.529 114.176  0.00  0.00     0.091 C 
ENDROOT
BRANCH   1   7
ATOM      7  O   LIG d   1      -4.256  76.279 113.542  0.00  0.00    -0.368 OA
BRANCH   7   8
ATOM      8  C   LIG d   1      -5.362  75.855 114.377  0.00  0.00     0.119 C 
BRANCH   8   9
ATOM      9  C   LIG d   1      -6.659  76.374 113.726  0.00  0.00     0.028 C 
ATOM     10  C   LIG d   1      -6.459  76.768 112.253  0.00  0.00     0.006 C 
ENDBRANCH   8   9
BRANCH   8  11
ATOM     11  C   LIG d   1      -5.306  76.521 115.755  0.00  0.00     0.028 C 
ATOM     12  C   LIG d   1      -6.698  76.862 116.309  0.00  0.00     0.006 C 
ENDBRANCH   8  11
ENDBRANCH   7   8
ENDBRANCH   1   7
BRANCH   6  13
ATOM     13  N   LIG d   1      -1.897  75.498 115.247  0.00  0.00    -0.311 N 
ATOM     14  C   LIG d   1      -1.914  75.791 116.546  0.00  0.00     0.210 C 
ATOM     15  C   LIG d   1      -1.884  74.579 117.483  0.00  0.00     0.109 C 
ATOM     16  O   LIG d   1      -1.983  76.939 117.012  0.00  0.00    -0.276 OA
ATOM     17  H   LIG d   1      -1.873  74.540 114.958  0.00  0.00     0.149 HD
ENDBRANCH   6  13
BRANCH   5  18
ATOM     18  N   LIG d   1       0.567  77.023 114.279  0.00  0.00     0.381 N 
ATOM     19  H   LIG d   1       1.231  77.680 114.637  0.00  0.00    -0.090 HD
ATOM     20  H   LIG d   1       0.783  76.852 113.313  0.00  0.00    -0.090 HD
ATOM     21  H   LIG d   1       0.618  76.172 114.795  0.00  0.00    -0.090 HD
ENDBRANCH   5  18
BRANCH   3  22
ATOM     22  C   LIG d   1      -2.362  80.490 112.749  0.00  0.00     0.382 C 
ATOM     23  O   LIG d   1      -1.352  81.150 112.404  0.00  0.00    -0.241 OA
ATOM     24  O   LIG d   1      -3.482  81.036 112.743  0.00  0.00    -0.241 OA
ENDBRANCH   3  22
TORSDOF 7
ENDMDL
MODEL 4
REMARK VINA RESULT:      -5.0      2.463      4.098
REMARK  7 active torsions:
REMARK  status: ('A' for Active; 'I' for Inactive)
REMARK    1  A    between atoms: C_2  and  C_3 
REMARK    2  A    between atoms: C_3  and  O_6 
REMARK    3  A    between atoms: C_3  and  C_4 
REMARK    4  A    between atoms: C_7  and  O_6 
REMARK    5  A    between atoms: C_9  and  C_10 
REMARK    6  A    between atoms: N_15  and  C_14 
REMARK    7  A    between atoms: N_20  and  C_19 
REMARK       I    between atoms: C_22  and  N_20 
ROOT
ATOM      1  C   LIG d   1      -2.417  76.955 115.543  0.00  0.00     0.161 C 
ATOM      2  C   LIG d   1      -2.763  77.366 114.245  0.00  0.00     0.016 C 
ATOM      3  C   LIG d   1      -1.872  77.314 113.149  0.00  0.00     0.038 C 
ATOM      4  C   LIG d   1      -0.613  76.702 113.245  0.00  0.00     0.028 C 
ATOM      5  C   LIG d   1      -0.032  76.730 114.654  0.00  0.00    -0.047 C 
ATOM      6  C   LIG d   1      -1.086  76.181 115.643  0.00  0.00     0.091 C 
ENDROOT
BRANCH   1   7
ATOM      7  O   LIG d   1      -3.491  76.180 116.113  0.00  0.00    -0.368 OA
BRANCH   7   8
ATOM      8  C   LIG d   1      -4.833  76.612 115.782  0.00  0.00     0.119 C 
BRANCH   8   9
ATOM      9  C   LIG d   1      -5.482  77.139 117.077  0.00  0.00     0.028 C 
ATOM     10  C   LIG d   1      -6.999  77.346 116.931  0.00  0.00     0.006 C 
ENDBRANCH   8   9
BRANCH   8  11
ATOM     11  C   LIG d   1      -5.706  75.432 115.343  0.00  0.00     0.028 C 
ATOM     12  C   LIG d   1      -4.885  74.180 114.997  0.00  0.00     0.006 C 
ENDBRANCH   8  11
ENDBRANCH   7   8
ENDBRANCH   1   7
BRANCH   6  13
ATOM     13  N   LIG d   1      -0.629  76.252 117.055  0.00  0.00    -0.311 N 
ATOM     14  C   LIG d   1       0.003  75.255 117.673  0.00  0.00     0.210 C 
ATOM     15  C   LIG d   1       0.369  75.528 119.135  0.00  0.00     0.109 C 
ATOM     16  O   LIG d   1       0.324  74.183 117.138  0.00  0.00    -0.276 OA
ATOM     17  H   LIG d   1      -0.821  77.098 117.555  0.00  0.00     0.149 HD
ENDBRANCH   6  13
BRANCH   5  18
ATOM     18  N   LIG d   1       1.214  75.940 114.639  0.00  0.00     0.381 N 
ATOM     19  H   LIG d   1       1.187  75.280 113.887  0.00  0.00    -0.090 HD
ATOM     20  H   LIG d   1       1.287  75.431 115.502  0.00  0.00    -0.090 HD
ATOM     21  H   LIG d   1       1.999  76.543 114.532  0.00  0.00    -0.090 HD
ENDBRANCH   5  18
BRANCH   3  22
ATOM     22  C   LIG d   1      -2.222  77.915 111.949  0.00  0.00     0.382 C 
ATOM     23  O   LIG d   1      -2.909  77.284 111.110  0.00  0.00    -0.241 OA
ATOM     24  O   LIG d   1      -1.823  79.063 111.677  0.00  0.00    -0.241 OA
ENDBRANCH   3  22
TORSDOF 7
ENDMDL
MODEL 5
REMARK VINA RESULT:      -4.8      1.412      2.178
REMARK  7 active torsions:
REMARK  status: ('A' for Active; 'I' for Inactive)
REMARK    1  A    between atoms: C_2  and  C_3 
REMARK    2  A    between atoms: C_3  and  O_6 
REMARK    3  A    between atoms: C_3  and  C_4 
REMARK    4  A    between atoms: C_7  and  O_6 
REMARK    5  A    between atoms: C_9  and  C_10 
REMARK    6  A    between atoms: N_15  and  C_14 
REMARK    7  A    between atoms: N_20  and  C_19 
REMARK       I    between atoms: C_22  and  N_20 
ROOT
ATOM      1  C   LIG d   1      -2.071  77.389 113.391  0.00  0.00     0.161 C 
ATOM      2  C   LIG d   1      -2.563  78.705 113.374  0.00  0.00     0.016 C 
ATOM      3  C   LIG d   1      -2.075  79.707 112.503  0.00  0.00     0.038 C 
ATOM      4  C   LIG d   1      -1.159  79.418 111.481  0.00  0.00     0.028 C 
ATOM      5  C   LIG d   1      -0.264  78.222 111.788  0.00  0.00    -0.047 C 
ATOM      6  C   LIG d   1      -1.150  77.027 112.207  0.00  0.00     0.091 C 
ENDROOT
BRANCH   1   7
ATOM      7  O   LIG d   1      -3.169  76.459 113.475  0.00  0.00    -0.368 OA
BRANCH   7   8
ATOM      8  C   LIG d   1      -3.883  76.428 114.736  0.00  0.00     0.119 C 
BRANCH   8   9
ATOM      9  C   LIG d   1      -2.910  75.894 115.806  0.00  0.00     0.028 C 
ATOM     10  C   LIG d   1      -2.685  74.377 115.690  0.00  0.00     0.006 C 
ENDBRANCH   8   9
BRANCH   8  11
ATOM     11  C   LIG d   1      -5.036  75.421 114.698  0.00  0.00     0.028 C 
ATOM     12  C   LIG d   1      -6.384  76.071 114.350  0.00  0.00     0.006 C 
ENDBRANCH   8  11
ENDBRANCH   7   8
ENDBRANCH   1   7
BRANCH   6  13
ATOM     13  N   LIG d   1      -0.350  75.841 112.607  0.00  0.00    -0.311 N 
ATOM     14  C   LIG d   1       0.347  75.774 113.740  0.00  0.00     0.210 C 
ATOM     15  C   LIG d   1       1.119  74.467 113.949  0.00  0.00     0.109 C 
ATOM     16  O   LIG d   1       0.373  76.660 114.607  0.00  0.00    -0.276 OA
ATOM     17  H   LIG d   1      -0.340  75.063 111.976  0.00  0.00     0.149 HD
ENDBRANCH   6  13
BRANCH   5  18
ATOM     18  N   LIG d   1       0.544  77.949 110.585  0.00  0.00     0.381 N 
ATOM     19  H   LIG d   1       0.932  77.029 110.639  0.00  0.00    -0.090 HD
ATOM     20  H   LIG d   1       1.301  78.609 110.545  0.00  0.00    -0.090 HD
ATOM     21  H   LIG d   1      -0.022  78.031 109.769  0.00  0.00    -0.090 HD
ENDBRANCH   5  18
BRANCH   3  22
ATOM     22  C   LIG d   1      -2.474  81.023 112.678  0.00  0.00     0.382 C 
ATOM     23  O   LIG d   1      -3.641  81.279 113.060  0.00  0.00    -0.241 OA
ATOM     24  O   LIG d   1      -1.695  81.959 112.417  0.00  0.00    -0.241 OA
ENDBRANCH   3  22
TORSDOF 7
ENDMDL
MODEL 6
REMARK VINA RESULT:      -4.8      2.769      4.253
REMARK  7 active torsions:
REMARK  status: ('A' for Active; 'I' for Inactive)
REMARK    1  A    between atoms: C_2  and  C_3 
REMARK    2  A    between atoms: C_3  and  O_6 
REMARK    3  A    between atoms: C_3  and  C_4 
REMARK    4  A    between atoms: C_7  and  O_6 
REMARK    5  A    between atoms: C_9  and  C_10 
REMARK    6  A    between atoms: N_15  and  C_14 
REMARK    7  A    between atoms: N_20  and  C_19 
REMARK       I    between atoms: C_22  and  N_20 
ROOT
ATOM      1  C   LIG d   1      -2.909  77.618 115.178  0.00  0.00     0.161 C 
ATOM      2  C   LIG d   1      -2.984  77.508 113.780  0.00  0.00     0.016 C 
ATOM      3  C   LIG d   1      -1.885  77.740 112.921  0.00  0.00     0.038 C 
ATOM      4  C   LIG d   1      -0.589  77.952 113.415  0.00  0.00     0.028 C 
ATOM      5  C   LIG d   1      -0.566  78.570 114.809  0.00  0.00    -0.047 C 
ATOM      6  C   LIG d   1      -1.477  77.739 115.742  0.00  0.00     0.091 C 
ENDROOT
BRANCH   1   7
ATOM      7  O   LIG d   1      -3.597  76.511 115.793  0.00  0.00    -0.368 OA
BRANCH   7   8
ATOM      8  C   LIG d   1      -3.471  75.231 115.124  0.00  0.00     0.119 C 
BRANCH   8   9
ATOM      9  C   LIG d   1      -4.883  74.623 115.020  0.00  0.00     0.028 C 
ATOM     10  C   LIG d   1      -5.933  75.650 114.564  0.00  0.00     0.006 C 
ENDBRANCH   8   9
BRANCH   8  11
ATOM     11  C   LIG d   1      -2.663  74.240 115.966  0.00  0.00     0.028 C 
ATOM     12  C   LIG d   1      -1.180  74.187 115.566  0.00  0.00     0.006 C 
ENDBRANCH   8  11
ENDBRANCH   7   8
ENDBRANCH   1   7
BRANCH   6  13
ATOM     13  N   LIG d   1      -1.578  78.324 117.104  0.00  0.00    -0.311 N 
ATOM     14  C   LIG d   1      -1.307  77.643 118.216  0.00  0.00     0.210 C 
ATOM     15  C   LIG d   1      -1.495  78.429 119.518  0.00  0.00     0.109 C 
ATOM     16  O   LIG d   1      -0.899  76.472 118.247  0.00  0.00    -0.276 OA
ATOM     17  H   LIG d   1      -1.873  79.279 117.170  0.00  0.00     0.149 HD
ENDBRANCH   6  13
BRANCH   5  18
ATOM     18  N   LIG d   1       0.839  78.608 115.257  0.00  0.00     0.381 N 
ATOM     19  H   LIG d   1       1.421  78.152 114.584  0.00  0.00    -0.090 HD
ATOM     20  H   LIG d   1       0.916  78.112 116.128  0.00  0.00    -0.090 HD
ATOM     21  H   LIG d   1       1.133  79.552 115.377  0.00  0.00    -0.090 HD
ENDBRANCH   5  18
BRANCH   3  22
ATOM     22  C   LIG d   1      -2.085  77.801 111.550  0.00  0.00     0.382 C 
ATOM     23  O   LIG d   1      -1.331  78.507 110.838  0.00  0.00    -0.241 OA
ATOM     24  O   LIG d   1      -3.036  77.195 111.023  0.00  0.00    -0.241 OA
ENDBRANCH   3  22
TORSDOF 7
ENDMDL
MODEL 7
REMARK VINA RESULT:      -4.7      2.560      5.196
REMARK  7 active torsions:
REMARK  status: ('A' for Active; 'I' for Inactive)
REMARK    1  A    between atoms: C_2  and  C_3 
REMARK    2  A    between atoms: C_3  and  O_6 
REMARK    3  A    between atoms: C_3  and  C_4 
REMARK    4  A    between atoms: C_7  and  O_6 
REMARK    5  A    between atoms: C_9  and  C_10 
REMARK    6  A    between atoms: N_15  and  C_14 
REMARK    7  A    between atoms: N_20  and  C_19 
REMARK       I    between atoms: C_22  and  N_20 
ROOT
ATOM      1  C   LIG d   1      -1.566  75.327 114.721  0.00  0.00     0.161 C 
ATOM      2  C   LIG d   1      -1.232  74.730 115.948  0.00  0.00     0.016 C 
ATOM      3  C   LIG d   1      -0.320  75.298 116.867  0.00  0.00     0.038 C 
ATOM      4  C   LIG d   1       0.209  76.584 116.687  0.00  0.00     0.028 C 
ATOM      5  C   LIG d   1       0.293  77.006 115.224  0.00  0.00    -0.047 C 
ATOM      6  C   LIG d   1      -1.084  76.783 114.558  0.00  0.00     0.091 C 
ENDROOT
BRANCH   1   7
ATOM      7  O   LIG d   1      -2.989  75.243 114.509  0.00  0.00    -0.368 OA
BRANCH   7   8
ATOM      8  C   LIG d   1      -3.805  75.106 115.699  0.00  0.00     0.119 C 
BRANCH   8   9
ATOM      9  C   LIG d   1      -4.988  74.185 115.346  0.00  0.00     0.028 C 
ATOM     10  C   LIG d   1      -6.347  74.889 115.506  0.00  0.00     0.006 C 
ENDBRANCH   8   9
BRANCH   8  11
ATOM     11  C   LIG d   1      -4.436  76.443 116.098  0.00  0.00     0.028 C 
ATOM     12  C   LIG d   1      -3.819  77.036 117.375  0.00  0.00     0.006 C 
ENDBRANCH   8  11
ENDBRANCH   7   8
ENDBRANCH   1   7
BRANCH   6  13
ATOM     13  N   LIG d   1      -1.068  77.092 113.105  0.00  0.00    -0.311 N 
ATOM     14  C   LIG d   1      -2.025  77.785 112.491  0.00  0.00     0.210 C 
ATOM     15  C   LIG d   1      -1.823  77.973 110.984  0.00  0.00     0.109 C 
ATOM     16  O   LIG d   1      -3.006  78.291 113.058  0.00  0.00    -0.276 OA
ATOM     17  H   LIG d   1      -0.292  76.746 112.574  0.00  0.00     0.149 HD
ENDBRANCH   6  13
BRANCH   5  18
ATOM     18  N   LIG d   1       0.730  78.414 115.190  0.00  0.00     0.381 N 
ATOM     19  H   LIG d   1      -0.066  79.018 115.243  0.00  0.00    -0.090 HD
ATOM     20  H   LIG d   1       1.201  78.588 114.319  0.00  0.00    -0.090 HD
ATOM     21  H   LIG d   1       1.346  78.598 115.951  0.00  0.00    -0.090 HD
ENDBRANCH   5  18
BRANCH   3  22
ATOM     22  C   LIG d   1       0.103  74.559 117.961  0.00  0.00     0.382 C 
ATOM     23  O   LIG d   1       1.309  74.228 118.067  0.00  0.00    -0.241 OA
ATOM     24  O   LIG d   1      -0.714  74.180 118.822  0.00  0.00    -0.241 OA
ENDBRANCH   3  22
TORSDOF 7
ENDMDL
MODEL 8
REMARK VINA RESULT:      -4.6      2.157      2.717
REMARK  7 active torsions:
REMARK  status: ('A' for Active; 'I' for Inactive)
REMARK    1  A    between atoms: C_2  and  C_3 
REMARK    2  A    between atoms: C_3  and  O_6 
REMARK    3  A    between atoms: C_3  and  C_4 
REMARK    4  A    between atoms: C_7  and  O_6 
REMARK    5  A    between atoms: C_9  and  C_10 
REMARK    6  A    between atoms: N_15  and  C_14 
REMARK    7  A    between atoms: N_20  and  C_19 
REMARK       I    between atoms: C_22  and  N_20 
ROOT
ATOM      1  C   LIG d   1      -2.750  77.715 114.784  0.00  0.00     0.161 C 
ATOM      2  C   LIG d   1      -2.998  78.976 114.216  0.00  0.00     0.016 C 
ATOM      3  C   LIG d   1      -2.320  79.462 113.074  0.00  0.00     0.038 C 
ATOM      4  C   LIG d   1      -1.450  78.654 112.328  0.00  0.00     0.028 C 
ATOM      5  C   LIG d   1      -0.790  77.553 113.152  0.00  0.00    -0.047 C 
ATOM      6  C   LIG d   1      -1.884  76.775 113.919  0.00  0.00     0.091 C 
ENDROOT
BRANCH   1   7
ATOM      7  O   LIG d   1      -3.998  77.077 115.122  0.00  0.00    -0.368 OA
BRANCH   7   8
ATOM      8  C   LIG d   1      -4.201  76.778 116.525  0.00  0.00     0.119 C 
BRANCH   8   9
ATOM      9  C   LIG d   1      -5.698  76.984 116.829  0.00  0.00     0.028 C 
ATOM     10  C   LIG d   1      -6.606  76.341 115.767  0.00  0.00     0.006 C 
ENDBRANCH   8   9
BRANCH   8  11
ATOM     11  C   LIG d   1      -3.465  77.779 117.420  0.00  0.00     0.028 C 
ATOM     12  C   LIG d   1      -2.640  77.097 118.523  0.00  0.00     0.006 C 
ENDBRANCH   8  11
ENDBRANCH   7   8
ENDBRANCH   1   7
BRANCH   6  13
ATOM     13  N   LIG d   1      -1.317  75.734 114.815  0.00  0.00    -0.311 N 
ATOM     14  C   LIG d   1      -0.437  75.997 115.779  0.00  0.00     0.210 C 
ATOM     15  C   LIG d   1       0.035  74.776 116.574  0.00  0.00     0.109 C 
ATOM     16  O   LIG d   1      -0.027  77.130 116.073  0.00  0.00    -0.276 OA
ATOM     17  H   LIG d   1      -1.619  74.791 114.667  0.00  0.00     0.149 HD
ENDBRANCH   6  13
BRANCH   5  18
ATOM     18  N   LIG d   1      -0.019  76.704 112.225  0.00  0.00     0.381 N 
ATOM     19  H   LIG d   1       0.165  75.817 112.651  0.00  0.00    -0.090 HD
ATOM     20  H   LIG d   1       0.861  77.149 112.031  0.00  0.00    -0.090 HD
ATOM     21  H   LIG d   1      -0.528  76.574 111.378  0.00  0.00    -0.090 HD
ENDBRANCH   5  18
BRANCH   3  22
ATOM     22  C   LIG d   1      -2.481  80.785 112.692  0.00  0.00     0.382 C 
ATOM     23  O   LIG d   1      -3.616  81.318 112.738  0.00  0.00    -0.241 OA
ATOM     24  O   LIG d   1      -1.514  81.439 112.258  0.00  0.00    -0.241 OA
ENDBRANCH   3  22
TORSDOF 7
ENDMDL
MODEL 9
REMARK VINA RESULT:      -4.5      2.351      4.651
REMARK  7 active torsions:
REMARK  status: ('A' for Active; 'I' for Inactive)
REMARK    1  A    between atoms: C_2  and  C_3 
REMARK    2  A    between atoms: C_3  and  O_6 
REMARK    3  A    between atoms: C_3  and  C_4 
REMARK    4  A    between atoms: C_7  and  O_6 
REMARK    5  A    between atoms: C_9  and  C_10 
REMARK    6  A    between atoms: N_15  and  C_14 
REMARK    7  A    between atoms: N_20  and  C_19 
REMARK       I    between atoms: C_22  and  N_20 
ROOT
ATOM      1  C   LIG d   1      -1.274  79.285 114.240  0.00  0.00     0.161 C 
ATOM      2  C   LIG d   1      -2.117  78.207 114.561  0.00  0.00     0.016 C 
ATOM      3  C   LIG d   1      -2.577  77.269 113.608  0.00  0.00     0.038 C 
ATOM      4  C   LIG d   1      -2.100  77.257 112.289  0.00  0.00     0.028 C 
ATOM      5  C   LIG d   1      -1.640  78.626 111.799  0.00  0.00    -0.047 C 
ATOM      6  C   LIG d   1      -0.654  79.223 112.828  0.00  0.00     0.091 C 
ENDROOT
BRANCH   1   7
ATOM      7  O   LIG d   1      -0.239  79.409 115.236  0.00  0.00    -0.368 OA
BRANCH   7   8
ATOM      8  C   LIG d   1      -0.346  78.524 116.379  0.00  0.00     0.119 C 
BRANCH   8   9
ATOM      9  C   LIG d   1      -0.416  79.405 117.641  0.00  0.00     0.028 C 
ATOM     10  C   LIG d   1      -1.841  79.497 118.214  0.00  0.00     0.006 C 
ENDBRANCH   8   9
BRANCH   8  11
ATOM     11  C   LIG d   1       0.918  77.676 116.547  0.00  0.00     0.028 C 
ATOM     12  C   LIG d   1       0.755  76.249 116.000  0.00  0.00     0.006 C 
ENDBRANCH   8  11
ENDBRANCH   7   8
ENDBRANCH   1   7
BRANCH   6  13
ATOM     13  N   LIG d   1      -0.220  80.598 112.467  0.00  0.00    -0.311 N 
ATOM     14  C   LIG d   1      -1.066  81.612 112.295  0.00  0.00     0.210 C 
ATOM     15  C   LIG d   1      -0.412  82.941 111.906  0.00  0.00     0.109 C 
ATOM     16  O   LIG d   1      -2.294  81.545 112.459  0.00  0.00    -0.276 OA
ATOM     17  H   LIG d   1       0.762  80.749 112.345  0.00  0.00     0.149 HD
ENDBRANCH   6  13
BRANCH   5  18
ATOM     18  N   LIG d   1      -1.041  78.443 110.463  0.00  0.00     0.381 N 
ATOM     19  H   LIG d   1      -1.672  78.774 109.761  0.00  0.00    -0.090 HD
ATOM     20  H   LIG d   1      -0.884  77.463 110.309  0.00  0.00    -0.090 HD
ATOM     21  H   LIG d   1      -0.179  78.938 110.405  0.00  0.00    -0.090 HD
ENDBRANCH   5  18
BRANCH   3  22
ATOM     22  C   LIG d   1      -3.556  76.354 113.963  0.00  0.00     0.382 C 
ATOM     23  O   LIG d   1      -4.768  76.642 113.814  0.00  0.00    -0.241 OA
ATOM     24  O   LIG d   1      -3.244  75.260 114.471  0.00  0.00    -0.241 OA
ENDBRANCH   3  22
TORSDOF 7
ENDMDL
