MODEL 1
REMARK VINA RESULT:      -5.5      0.000      0.000
REMARK  7 active torsions:
REMARK  status: ('A' for Active; 'I' for Inactive)
REMARK    1  A    between atoms: C_2  and  C_3 
REMARK    2  A    between atoms: C_3  and  O_6 
REMARK    3  A    between atoms: C_3  and  C_4 
REMARK    4  A    between atoms: C_7  and  O_6 
REMARK    5  A    between atoms: C_9  and  C_10 
REMARK    6  A    between atoms: N_15  and  C_14 
REMARK    7  A    between atoms: N_20  and  C_19 
REMARK       I    between atoms: C_22  and  N_20 
ROOT
ATOM      1  C   LIG d   1      -0.004  80.254 111.530  0.00  0.00     0.161 C 
ATOM      2  C   LIG d   1      -0.987  79.307 111.196  0.00  0.00     0.016 C 
ATOM      3  C   LIG d   1      -1.903  78.773 112.131  0.00  0.00     0.038 C 
ATOM      4  C   LIG d   1      -1.998  79.267 113.440  0.00  0.00     0.028 C 
ATOM      5  C   LIG d   1      -0.694  79.862 113.959  0.00  0.00    -0.047 C 
ATOM      6  C   LIG d   1      -0.165  80.886 112.929  0.00  0.00     0.091 C 
ENDROOT
BRANCH   1   7
ATOM      7  O   LIG d   1       0.049  81.280 110.520  0.00  0.00    -0.368 OA
BRANCH   7   8
ATOM      8  C   LIG d   1       1.127  81.173 109.558  0.00  0.00     0.119 C 
BRANCH   8   9
ATOM      9  C   LIG d   1       2.147  80.162 110.117  0.00  0.00     0.028 C 
ATOM     10  C   LIG d   1       3.439  80.839 110.603  0.00  0.00     0.006 C 
ENDBRANCH   8   9
BRANCH   8  11
ATOM     11  C   LIG d   1       1.894  82.493 109.430  0.00  0.00     0.028 C 
ATOM     12  C   LIG d   1       0.971  83.722 109.447  0.00  0.00     0.006 C 
ENDBRANCH   8  11
ENDBRANCH   7   8
ENDBRANCH   1   7
BRANCH   6  13
ATOM     13  N   LIG d   1       1.152  81.454 113.319  0.00  0.00    -0.311 N 
ATOM     14  C   LIG d   1       1.453  82.747 113.213  0.00  0.00     0.210 C 
ATOM     15  C   LIG d   1       2.872  83.119 113.652  0.00  0.00     0.109 C 
ATOM     16  O   LIG d   1       0.668  83.627 112.827  0.00  0.00    -0.276 OA
ATOM     17  H   LIG d   1       1.838  80.816 113.672  0.00  0.00     0.149 HD
ENDBRANCH   6  13
BRANCH   5  18
ATOM     18  N   LIG d   1      -0.971  80.461 115.279  0.00  0.00     0.381 N 
ATOM     19  H   LIG d   1      -1.942  80.364 115.497  0.00  0.00    -0.090 HD
ATOM     20  H   LIG d   1      -0.751  81.441 115.244  0.00  0.00    -0.090 HD
ATOM     21  H   LIG d   1      -0.420  80.014 115.978  0.00  0.00    -0.090 HD
ENDBRANCH   5  18
BRANCH   3  22
ATOM     22  C   LIG d   1      -2.711  77.706 111.768  0.00  0.00     0.382 C 
ATOM     23  O   LIG d   1      -2.305  76.870 110.927  0.00  0.00    -0.241 OA
ATOM     24  O   LIG d   1      -3.859  77.595 112.240  0.00  0.00    -0.241 OA
ENDBRANCH   3  22
TORSDOF 7
ENDMDL
MODEL 2
REMARK VINA RESULT:      -5.4      3.409      7.188
REMARK  7 active torsions:
REMARK  status: ('A' for Active; 'I' for Inactive)
REMARK    1  A    between atoms: C_2  and  C_3 
REMARK    2  A    between atoms: C_3  and  O_6 
REMARK    3  A    between atoms: C_3  and  C_4 
REMARK    4  A    between atoms: C_7  and  O_6 
REMARK    5  A    between atoms: C_9  and  C_10 
REMARK    6  A    between atoms: N_15  and  C_14 
REMARK    7  A    between atoms: N_20  and  C_19 
REMARK       I    between atoms: C_22  and  N_20 
ROOT
ATOM      1  C   LIG d   1      -2.720  79.801 114.675  0.00  0.00     0.161 C 
ATOM      2  C   LIG d   1      -2.245  81.004 114.127  0.00  0.00     0.016 C 
ATOM      3  C   LIG d   1      -1.548  81.079 112.900  0.00  0.00     0.038 C 
ATOM      4  C   LIG d   1      -1.410  79.966 112.057  0.00  0.00     0.028 C 
ATOM      5  C   LIG d   1      -1.431  78.636 112.802  0.00  0.00    -0.047 C 
ATOM      6  C   LIG d   1      -2.676  78.593 113.716  0.00  0.00     0.091 C 
ENDROOT
BRANCH   1   7
ATOM      7  O   LIG d   1      -4.056  79.989 115.183  0.00  0.00    -0.368 OA
BRANCH   7   8
ATOM      8  C   LIG d   1      -4.182  80.089 116.623  0.00  0.00     0.119 C 
BRANCH   8   9
ATOM      9  C   LIG d   1      -4.897  78.815 117.114  0.00  0.00     0.028 C 
ATOM     10  C   LIG d   1      -3.997  77.944 118.007  0.00  0.00     0.006 C 
ENDBRANCH   8   9
BRANCH   8  11
ATOM     11  C   LIG d   1      -5.098  81.249 117.023  0.00  0.00     0.028 C 
ATOM     12  C   LIG d   1      -4.880  81.706 118.474  0.00  0.00     0.006 C 
ENDBRANCH   8  11
ENDBRANCH   7   8
ENDBRANCH   1   7
BRANCH   6  13
ATOM     13  N   LIG d   1      -2.729  77.360 114.544  0.00  0.00    -0.311 N 
ATOM     14  C   LIG d   1      -3.700  76.453 114.449  0.00  0.00     0.210 C 
ATOM     15  C   LIG d   1      -3.574  75.266 115.409  0.00  0.00     0.109 C 
ATOM     16  O   LIG d   1      -4.637  76.503 113.637  0.00  0.00    -0.276 OA
ATOM     17  H   LIG d   1      -1.991  77.224 115.207  0.00  0.00     0.149 HD
ENDBRANCH   6  13
BRANCH   5  18
ATOM     18  N   LIG d   1      -1.417  77.560 111.793  0.00  0.00     0.381 N 
ATOM     19  H   LIG d   1      -1.804  76.724 112.183  0.00  0.00    -0.090 HD
ATOM     20  H   LIG d   1      -0.465  77.373 111.529  0.00  0.00    -0.090 HD
ATOM     21  H   LIG d   1      -1.942  77.836 110.992  0.00  0.00    -0.090 HD
ENDBRANCH   5  18
BRANCH   3  22
ATOM     22  C   LIG d   1      -0.945  82.270 112.523  0.00  0.00     0.382 C 
ATOM     23  O   LIG d   1      -0.052  82.776 113.244  0.00  0.00    -0.241 OA
ATOM     24  O   LIG d   1      -1.314  82.867 111.494  0.00  0.00    -0.241 OA
ENDBRANCH   3  22
TORSDOF 7
ENDMDL
MODEL 3
REMARK VINA RESULT:      -5.1      2.845      5.910
REMARK  7 active torsions:
REMARK  status: ('A' for Active; 'I' for Inactive)
REMARK    1  A    between atoms: C_2  and  C_3 
REMARK    2  A    between atoms: C_3  and  O_6 
REMARK    3  A    between atoms: C_3  and  C_4 
REMARK    4  A    between atoms: C_7  and  O_6 
REMARK    5  A    between atoms: C_9  and  C_10 
REMARK    6  A    between atoms: N_15  and  C_14 
REMARK    7  A    between atoms: N_20  and  C_19 
REMARK       I    between atoms: C_22  and  N_20 
ROOT
ATOM      1  C   LIG d   1      -2.660  80.376 114.549  0.00  0.00     0.161 C 
ATOM      2  C   LIG d   1      -2.422  81.219 113.451  0.00  0.00     0.016 C 
ATOM      3  C   LIG d   1      -1.164  81.803 113.177  0.00  0.00     0.038 C 
ATOM      4  C   LIG d   1      -0.013  81.460 113.902  0.00  0.00     0.028 C 
ATOM      5  C   LIG d   1      -0.309  81.005 115.327  0.00  0.00    -0.047 C 
ATOM      6  C   LIG d   1      -1.391  79.902 115.288  0.00  0.00     0.091 C 
ENDROOT
BRANCH   1   7
ATOM      7  O   LIG d   1      -3.451  79.245 114.134  0.00  0.00    -0.368 OA
BRANCH   7   8
ATOM      8  C   LIG d   1      -2.717  78.122 113.586  0.00  0.00     0.119 C 
BRANCH   8   9
ATOM      9  C   LIG d   1      -3.218  77.900 112.146  0.00  0.00     0.028 C 
ATOM     10  C   LIG d   1      -2.066  77.692 111.149  0.00  0.00     0.006 C 
ENDBRANCH   8   9
BRANCH   8  11
ATOM     11  C   LIG d   1      -3.044  76.825 114.333  0.00  0.00     0.028 C 
ATOM     12  C   LIG d   1      -4.197  76.989 115.336  0.00  0.00     0.006 C 
ENDBRANCH   8  11
ENDBRANCH   7   8
ENDBRANCH   1   7
BRANCH   6  13
ATOM     13  N   LIG d   1      -1.800  79.460 116.647  0.00  0.00    -0.311 N 
ATOM     14  C   LIG d   1      -1.278  78.400 117.261  0.00  0.00     0.210 C 
ATOM     15  C   LIG d   1      -1.856  78.108 118.649  0.00  0.00     0.109 C 
ATOM     16  O   LIG d   1      -0.369  77.692 116.801  0.00  0.00    -0.276 OA
ATOM     17  H   LIG d   1      -2.510  79.996 117.106  0.00  0.00     0.149 HD
ENDBRANCH   6  13
BRANCH   5  18
ATOM     18  N   LIG d   1       0.961  80.548 115.922  0.00  0.00     0.381 N 
ATOM     19  H   LIG d   1       1.661  81.254 115.810  0.00  0.00    -0.090 HD
ATOM     20  H   LIG d   1       1.267  79.721 115.440  0.00  0.00    -0.090 HD
ATOM     21  H   LIG d   1       0.832  80.348 116.890  0.00  0.00    -0.090 HD
ENDBRANCH   5  18
BRANCH   3  22
ATOM     22  C   LIG d   1      -1.056  82.772 112.191  0.00  0.00     0.382 C 
ATOM     23  O   LIG d   1      -0.676  82.454 111.038  0.00  0.00    -0.241 OA
ATOM     24  O   LIG d   1      -1.292  83.967 112.451  0.00  0.00    -0.241 OA
ENDBRANCH   3  22
TORSDOF 7
ENDMDL
MODEL 4
REMARK VINA RESULT:      -4.9      2.779      5.038
REMARK  7 active torsions:
REMARK  status: ('A' for Active; 'I' for Inactive)
REMARK    1  A    between atoms: C_2  and  C_3 
REMARK    2  A    between atoms: C_3  and  O_6 
REMARK    3  A    between atoms: C_3  and  C_4 
REMARK    4  A    between atoms: C_7  and  O_6 
REMARK    5  A    between atoms: C_9  and  C_10 
REMARK    6  A    between atoms: N_15  and  C_14 
REMARK    7  A    between atoms: N_20  and  C_19 
REMARK       I    between atoms: C_22  and  N_20 
ROOT
ATOM      1  C   LIG d   1      -2.745  80.170 114.022  0.00  0.00     0.161 C 
ATOM      2  C   LIG d   1      -3.232  78.928 114.462  0.00  0.00     0.016 C 
ATOM      3  C   LIG d   1      -2.916  77.701 113.833  0.00  0.00     0.038 C 
ATOM      4  C   LIG d   1      -1.964  77.618 112.806  0.00  0.00     0.028 C 
ATOM      5  C   LIG d   1      -1.828  78.905 112.000  0.00  0.00    -0.047 C 
ATOM      6  C   LIG d   1      -1.616  80.087 112.973  0.00  0.00     0.091 C 
ENDROOT
BRANCH   1   7
ATOM      7  O   LIG d   1      -2.321  80.956 115.154  0.00  0.00    -0.368 OA
BRANCH   7   8
ATOM      8  C   LIG d   1      -1.920  80.213 116.331  0.00  0.00     0.119 C 
BRANCH   8   9
ATOM      9  C   LIG d   1      -2.497  80.944 117.559  0.00  0.00     0.028 C 
ATOM     10  C   LIG d   1      -4.035  80.939 117.575  0.00  0.00     0.006 C 
ENDBRANCH   8   9
BRANCH   8  11
ATOM     11  C   LIG d   1      -0.400  80.244 116.519  0.00  0.00     0.028 C 
ATOM     12  C   LIG d   1       0.256  81.471 115.866  0.00  0.00     0.006 C 
ENDBRANCH   8  11
ENDBRANCH   7   8
ENDBRANCH   1   7
BRANCH   6  13
ATOM     13  N   LIG d   1      -1.558  81.396 112.271  0.00  0.00    -0.311 N 
ATOM     14  C   LIG d   1      -0.419  81.991 111.922  0.00  0.00     0.210 C 
ATOM     15  C   LIG d   1      -0.583  83.345 111.225  0.00  0.00     0.109 C 
ATOM     16  O   LIG d   1       0.712  81.510 112.095  0.00  0.00    -0.276 OA
ATOM     17  H   LIG d   1      -2.430  81.842 112.064  0.00  0.00     0.149 HD
ENDBRANCH   6  13
BRANCH   5  18
ATOM     18  N   LIG d   1      -0.708  78.725 111.057  0.00  0.00     0.381 N 
ATOM     19  H   LIG d   1      -0.307  79.613 110.834  0.00  0.00    -0.090 HD
ATOM     20  H   LIG d   1      -1.060  78.315 110.209  0.00  0.00    -0.090 HD
ATOM     21  H   LIG d   1      -0.016  78.131 111.459  0.00  0.00    -0.090 HD
ENDBRANCH   5  18
BRANCH   3  22
ATOM     22  C   LIG d   1      -3.587  76.546 114.204  0.00  0.00     0.382 C 
ATOM     23  O   LIG d   1      -2.988  75.654 114.852  0.00  0.00    -0.241 OA
ATOM     24  O   LIG d   1      -4.770  76.364 113.861  0.00  0.00    -0.241 OA
ENDBRANCH   3  22
TORSDOF 7
ENDMDL
MODEL 5
REMARK VINA RESULT:      -4.8      4.273      7.524
REMARK  7 active torsions:
REMARK  status: ('A' for Active; 'I' for Inactive)
REMARK    1  A    between atoms: C_2  and  C_3 
REMARK    2  A    between atoms: C_3  and  O_6 
REMARK    3  A    between atoms: C_3  and  C_4 
REMARK    4  A    between atoms: C_7  and  O_6 
REMARK    5  A    between atoms: C_9  and  C_10 
REMARK    6  A    between atoms: N_15  and  C_14 
REMARK    7  A    between atoms: N_20  and  C_19 
REMARK       I    between atoms: C_22  and  N_20 
ROOT
ATOM      1  C   LIG d   1      -2.379  79.567 116.602  0.00  0.00     0.161 C 
ATOM      2  C   LIG d   1      -2.749  80.405 115.537  0.00  0.00     0.016 C 
ATOM      3  C   LIG d   1      -2.404  80.148 114.190  0.00  0.00     0.038 C 
ATOM      4  C   LIG d   1      -1.792  78.948 113.797  0.00  0.00     0.028 C 
ATOM      5  C   LIG d   1      -0.953  78.308 114.897  0.00  0.00    -0.047 C 
ATOM      6  C   LIG d   1      -1.807  78.197 116.180  0.00  0.00     0.091 C 
ENDROOT
BRANCH   1   7
ATOM      7  O   LIG d   1      -3.497  79.390 117.495  0.00  0.00    -0.368 OA
BRANCH   7   8
ATOM      8  C   LIG d   1      -4.810  79.414 116.884  0.00  0.00     0.119 C 
BRANCH   8   9
ATOM      9  C   LIG d   1      -5.720  80.280 117.777  0.00  0.00     0.028 C 
ATOM     10  C   LIG d   1      -5.810  81.735 117.288  0.00  0.00     0.006 C 
ENDBRANCH   8   9
BRANCH   8  11
ATOM     11  C   LIG d   1      -5.450  78.023 116.881  0.00  0.00     0.028 C 
ATOM     12  C   LIG d   1      -6.922  78.043 117.321  0.00  0.00     0.006 C 
ENDBRANCH   8  11
ENDBRANCH   7   8
ENDBRANCH   1   7
BRANCH   6  13
ATOM     13  N   LIG d   1      -1.036  77.658 117.330  0.00  0.00    -0.311 N 
ATOM     14  C   LIG d   1      -0.988  76.363 117.638  0.00  0.00     0.210 C 
ATOM     15  C   LIG d   1      -0.150  76.024 118.875  0.00  0.00     0.109 C 
ATOM     16  O   LIG d   1      -1.533  75.460 116.986  0.00  0.00    -0.276 OA
ATOM     17  H   LIG d   1      -0.538  78.318 117.895  0.00  0.00     0.149 HD
ENDBRANCH   6  13
BRANCH   5  18
ATOM     18  N   LIG d   1      -0.487  77.000 114.398  0.00  0.00     0.381 N 
ATOM     19  H   LIG d   1      -0.945  76.784 113.535  0.00  0.00    -0.090 HD
ATOM     20  H   LIG d   1      -0.729  76.291 115.068  0.00  0.00    -0.090 HD
ATOM     21  H   LIG d   1       0.500  77.018 114.264  0.00  0.00    -0.090 HD
ENDBRANCH   5  18
BRANCH   3  22
ATOM     22  C   LIG d   1      -2.637  81.115 113.224  0.00  0.00     0.382 C 
ATOM     23  O   LIG d   1      -3.814  81.422 112.915  0.00  0.00    -0.241 OA
ATOM     24  O   LIG d   1      -1.686  81.654 112.627  0.00  0.00    -0.241 OA
ENDBRANCH   3  22
TORSDOF 7
ENDMDL
MODEL 6
REMARK VINA RESULT:      -4.7      4.087      6.721
REMARK  7 active torsions:
REMARK  status: ('A' for Active; 'I' for Inactive)
REMARK    1  A    between atoms: C_2  and  C_3 
REMARK    2  A    between atoms: C_3  and  O_6 
REMARK    3  A    between atoms: C_3  and  C_4 
REMARK    4  A    between atoms: C_7  and  O_6 
REMARK    5  A    between atoms: C_9  and  C_10 
REMARK    6  A    between atoms: N_15  and  C_14 
REMARK    7  A    between atoms: N_20  and  C_19 
REMARK       I    between atoms: C_22  and  N_20 
ROOT
ATOM      1  C   LIG d   1      -0.643  79.997 116.061  0.00  0.00     0.161 C 
ATOM      2  C   LIG d   1      -1.380  80.840 115.213  0.00  0.00     0.016 C 
ATOM      3  C   LIG d   1      -2.007  80.393 114.026  0.00  0.00     0.038 C 
ATOM      4  C   LIG d   1      -2.066  79.034 113.686  0.00  0.00     0.028 C 
ATOM      5  C   LIG d   1      -0.908  78.217 114.247  0.00  0.00    -0.047 C 
ATOM      6  C   LIG d   1      -0.791  78.490 115.764  0.00  0.00     0.091 C 
ENDROOT
BRANCH   1   7
ATOM      7  O   LIG d   1      -0.980  80.272 117.436  0.00  0.00    -0.368 OA
BRANCH   7   8
ATOM      8  C   LIG d   1      -1.934  81.340 117.656  0.00  0.00     0.119 C 
BRANCH   8   9
ATOM      9  C   LIG d   1      -1.321  82.301 118.694  0.00  0.00     0.028 C 
ATOM     10  C   LIG d   1      -2.352  82.781 119.730  0.00  0.00     0.006 C 
ENDBRANCH   8   9
BRANCH   8  11
ATOM     11  C   LIG d   1      -3.220  80.814 118.301  0.00  0.00     0.028 C 
ATOM     12  C   LIG d   1      -4.414  80.813 117.333  0.00  0.00     0.006 C 
ENDBRANCH   8  11
ENDBRANCH   7   8
ENDBRANCH   1   7
BRANCH   6  13
ATOM     13  N   LIG d   1       0.371  77.795 116.377  0.00  0.00    -0.311 N 
ATOM     14  C   LIG d   1       0.289  76.597 116.953  0.00  0.00     0.210 C 
ATOM     15  C   LIG d   1       1.601  76.070 117.541  0.00  0.00     0.109 C 
ATOM     16  O   LIG d   1      -0.740  75.907 117.005  0.00  0.00    -0.276 OA
ATOM     17  H   LIG d   1       1.252  78.270 116.352  0.00  0.00     0.149 HD
ENDBRANCH   6  13
BRANCH   5  18
ATOM     18  N   LIG d   1      -1.168  76.800 113.933  0.00  0.00     0.381 N 
ATOM     19  H   LIG d   1      -1.602  76.726 113.035  0.00  0.00    -0.090 HD
ATOM     20  H   LIG d   1      -1.799  76.425 114.620  0.00  0.00    -0.090 HD
ATOM     21  H   LIG d   1      -0.314  76.286 113.942  0.00  0.00    -0.090 HD
ENDBRANCH   5  18
BRANCH   3  22
ATOM     22  C   LIG d   1      -2.549  81.318 113.146  0.00  0.00     0.382 C 
ATOM     23  O   LIG d   1      -1.796  82.088 112.504  0.00  0.00    -0.241 OA
ATOM     24  O   LIG d   1      -3.784  81.420 113.019  0.00  0.00    -0.241 OA
ENDBRANCH   3  22
TORSDOF 7
ENDMDL
MODEL 7
REMARK VINA RESULT:      -4.7      4.485      7.861
REMARK  7 active torsions:
REMARK  status: ('A' for Active; 'I' for Inactive)
REMARK    1  A    between atoms: C_2  and  C_3 
REMARK    2  A    between atoms: C_3  and  O_6 
REMARK    3  A    between atoms: C_3  and  C_4 
REMARK    4  A    between atoms: C_7  and  O_6 
REMARK    5  A    between atoms: C_9  and  C_10 
REMARK    6  A    between atoms: N_15  and  C_14 
REMARK    7  A    between atoms: N_20  and  C_19 
REMARK       I    between atoms: C_22  and  N_20 
ROOT
ATOM      1  C   LIG d   1      -3.532  77.170 115.521  0.00  0.00     0.161 C 
ATOM      2  C   LIG d   1      -3.554  77.374 114.131  0.00  0.00     0.016 C 
ATOM      3  C   LIG d   1      -2.388  77.576 113.357  0.00  0.00     0.038 C 
ATOM      4  C   LIG d   1      -1.103  77.436 113.901  0.00  0.00     0.028 C 
ATOM      5  C   LIG d   1      -1.042  77.730 115.396  0.00  0.00    -0.047 C 
ATOM      6  C   LIG d   1      -2.133  76.903 116.114  0.00  0.00     0.091 C 
ENDROOT
BRANCH   1   7
ATOM      7  O   LIG d   1      -4.437  76.103 115.872  0.00  0.00    -0.368 OA
BRANCH   7   8
ATOM      8  C   LIG d   1      -5.848  76.428 115.839  0.00  0.00     0.119 C 
BRANCH   8   9
ATOM      9  C   LIG d   1      -6.256  76.862 117.261  0.00  0.00     0.028 C 
ATOM     10  C   LIG d   1      -6.629  78.352 117.335  0.00  0.00     0.006 C 
ENDBRANCH   8   9
BRANCH   8  11
ATOM     11  C   LIG d   1      -6.698  75.192 115.533  0.00  0.00     0.028 C 
ATOM     12  C   LIG d   1      -5.989  74.199 114.597  0.00  0.00     0.006 C 
ENDBRANCH   8  11
ENDBRANCH   7   8
ENDBRANCH   1   7
BRANCH   6  13
ATOM     13  N   LIG d   1      -2.199  77.194 117.570  0.00  0.00    -0.311 N 
ATOM     14  C   LIG d   1      -1.490  76.532 118.483  0.00  0.00     0.210 C 
ATOM     15  C   LIG d   1      -1.721  76.979 119.930  0.00  0.00     0.109 C 
ATOM     16  O   LIG d   1      -0.667  75.640 118.229  0.00  0.00    -0.276 OA
ATOM     17  H   LIG d   1      -2.818  77.925 117.861  0.00  0.00     0.149 HD
ENDBRANCH   6  13
BRANCH   5  18
ATOM     18  N   LIG d   1       0.322  77.413 115.858  0.00  0.00     0.381 N 
ATOM     19  H   LIG d   1       0.741  78.226 116.262  0.00  0.00    -0.090 HD
ATOM     20  H   LIG d   1       0.876  77.132 115.067  0.00  0.00    -0.090 HD
ATOM     21  H   LIG d   1       0.292  76.677 116.529  0.00  0.00    -0.090 HD
ENDBRANCH   5  18
BRANCH   3  22
ATOM     22  C   LIG d   1      -2.503  77.962 112.030  0.00  0.00     0.382 C 
ATOM     23  O   LIG d   1      -3.008  77.178 111.190  0.00  0.00    -0.241 OA
ATOM     24  O   LIG d   1      -2.069  79.067 111.653  0.00  0.00    -0.241 OA
ENDBRANCH   3  22
TORSDOF 7
ENDMDL
MODEL 8
REMARK VINA RESULT:      -4.7      3.627      6.409
REMARK  7 active torsions:
REMARK  status: ('A' for Active; 'I' for Inactive)
REMARK    1  A    between atoms: C_2  and  C_3 
REMARK    2  A    between atoms: C_3  and  O_6 
REMARK    3  A    between atoms: C_3  and  C_4 
REMARK    4  A    between atoms: C_7  and  O_6 
REMARK    5  A    between atoms: C_9  and  C_10 
REMARK    6  A    between atoms: N_15  and  C_14 
REMARK    7  A    between atoms: N_20  and  C_19 
REMARK       I    between atoms: C_22  and  N_20 
ROOT
ATOM      1  C   LIG d   1      -3.683  78.326 114.156  0.00  0.00     0.161 C 
ATOM      2  C   LIG d   1      -3.132  77.804 112.974  0.00  0.00     0.016 C 
ATOM      3  C   LIG d   1      -1.950  78.303 112.380  0.00  0.00     0.038 C 
ATOM      4  C   LIG d   1      -1.151  79.266 113.014  0.00  0.00     0.028 C 
ATOM      5  C   LIG d   1      -1.932  80.176 113.956  0.00  0.00    -0.047 C 
ATOM      6  C   LIG d   1      -2.765  79.302 114.921  0.00  0.00     0.091 C 
ENDROOT
BRANCH   1   7
ATOM      7  O   LIG d   1      -4.099  77.249 115.018  0.00  0.00    -0.368 OA
BRANCH   7   8
ATOM      8  C   LIG d   1      -3.459  75.969 114.793  0.00  0.00     0.119 C 
BRANCH   8   9
ATOM      9  C   LIG d   1      -4.526  74.876 114.995  0.00  0.00     0.028 C 
ATOM     10  C   LIG d   1      -5.937  75.460 115.181  0.00  0.00     0.006 C 
ENDBRANCH   8   9
BRANCH   8  11
ATOM     11  C   LIG d   1      -2.386  75.688 115.849  0.00  0.00     0.028 C 
ATOM     12  C   LIG d   1      -0.958  75.874 115.311  0.00  0.00     0.006 C 
ENDBRANCH   8  11
ENDBRANCH   7   8
ENDBRANCH   1   7
BRANCH   6  13
ATOM     13  N   LIG d   1      -3.624  80.114 115.822  0.00  0.00    -0.311 N 
ATOM     14  C   LIG d   1      -3.261  80.478 117.051  0.00  0.00     0.210 C 
ATOM     15  C   LIG d   1      -4.304  81.296 117.818  0.00  0.00     0.109 C 
ATOM     16  O   LIG d   1      -2.161  80.227 117.566  0.00  0.00    -0.276 OA
ATOM     17  H   LIG d   1      -4.522  80.388 115.472  0.00  0.00     0.149 HD
ENDBRANCH   6  13
BRANCH   5  18
ATOM     18  N   LIG d   1      -0.958  81.038 114.652  0.00  0.00     0.381 N 
ATOM     19  H   LIG d   1      -1.236  81.163 115.605  0.00  0.00    -0.090 HD
ATOM     20  H   LIG d   1      -0.945  81.939 114.207  0.00  0.00    -0.090 HD
ATOM     21  H   LIG d   1      -0.051  80.628 114.613  0.00  0.00    -0.090 HD
ENDBRANCH   5  18
BRANCH   3  22
ATOM     22  C   LIG d   1      -1.578  77.866 111.118  0.00  0.00     0.382 C 
ATOM     23  O   LIG d   1      -1.274  78.699 110.230  0.00  0.00    -0.241 OA
ATOM     24  O   LIG d   1      -1.585  76.651 110.842  0.00  0.00    -0.241 OA
ENDBRANCH   3  22
TORSDOF 7
ENDMDL
MODEL 9
REMARK VINA RESULT:      -4.6      3.433      7.008
REMARK  7 active torsions:
REMARK  status: ('A' for Active; 'I' for Inactive)
REMARK    1  A    between atoms: C_2  and  C_3 
REMARK    2  A    between atoms: C_3  and  O_6 
REMARK    3  A    between atoms: C_3  and  C_4 
REMARK    4  A    between atoms: C_7  and  O_6 
REMARK    5  A    between atoms: C_9  and  C_10 
REMARK    6  A    between atoms: N_15  and  C_14 
REMARK    7  A    between atoms: N_20  and  C_19 
REMARK       I    between atoms: C_22  and  N_20 
ROOT
ATOM      1  C   LIG d   1      -1.083  79.469 115.490  0.00  0.00     0.161 C 
ATOM      2  C   LIG d   1      -1.056  80.731 114.874  0.00  0.00     0.016 C 
ATOM      3  C   LIG d   1      -1.212  80.921 113.482  0.00  0.00     0.038 C 
ATOM      4  C   LIG d   1      -1.559  79.866 112.624  0.00  0.00     0.028 C 
ATOM      5  C   LIG d   1      -1.098  78.502 113.126  0.00  0.00    -0.047 C 
ATOM      6  C   LIG d   1      -1.571  78.318 114.586  0.00  0.00     0.091 C 
ENDROOT
BRANCH   1   7
ATOM      7  O   LIG d   1      -1.874  79.530 116.694  0.00  0.00    -0.368 OA
BRANCH   7   8
ATOM      8  C   LIG d   1      -3.301  79.341 116.530  0.00  0.00     0.119 C 
BRANCH   8   9
ATOM      9  C   LIG d   1      -3.995  80.643 116.973  0.00  0.00     0.028 C 
ATOM     10  C   LIG d   1      -3.268  81.325 118.145  0.00  0.00     0.006 C 
ENDBRANCH   8   9
BRANCH   8  11
ATOM     11  C   LIG d   1      -3.831  78.257 117.473  0.00  0.00     0.028 C 
ATOM     12  C   LIG d   1      -2.739  77.670 118.380  0.00  0.00     0.006 C 
ENDBRANCH   8  11
ENDBRANCH   7   8
ENDBRANCH   1   7
BRANCH   6  13
ATOM     13  N   LIG d   1      -1.090  77.044 115.181  0.00  0.00    -0.311 N 
ATOM     14  C   LIG d   1      -1.820  75.930 115.216  0.00  0.00     0.210 C 
ATOM     15  C   LIG d   1      -1.143  74.735 115.893  0.00  0.00     0.109 C 
ATOM     16  O   LIG d   1      -2.951  75.810 114.722  0.00  0.00    -0.276 OA
ATOM     17  H   LIG d   1      -0.171  77.044 115.577  0.00  0.00     0.149 HD
ENDBRANCH   6  13
BRANCH   5  18
ATOM     18  N   LIG d   1      -1.644  77.483 112.209  0.00  0.00     0.381 N 
ATOM     19  H   LIG d   1      -2.153  77.928 111.472  0.00  0.00    -0.090 HD
ATOM     20  H   LIG d   1      -2.279  76.893 112.719  0.00  0.00    -0.090 HD
ATOM     21  H   LIG d   1      -0.904  76.935 111.828  0.00  0.00    -0.090 HD
ENDBRANCH   5  18
BRANCH   3  22
ATOM     22  C   LIG d   1      -0.981  82.171 112.928  0.00  0.00     0.382 C 
ATOM     23  O   LIG d   1       0.031  82.830 113.268  0.00  0.00    -0.241 OA
ATOM     24  O   LIG d   1      -1.796  82.667 112.127  0.00  0.00    -0.241 OA
ENDBRANCH   3  22
TORSDOF 7
ENDMDL
