MODEL 1
REMARK VINA RESULT:      -4.9      0.000      0.000
REMARK  7 active torsions:
REMARK  status: ('A' for Active; 'I' for Inactive)
REMARK    1  A    between atoms: C_2  and  C_3 
REMARK    2  A    between atoms: C_3  and  O_6 
REMARK    3  A    between atoms: C_3  and  C_4 
REMARK    4  A    between atoms: C_7  and  O_6 
REMARK    5  A    between atoms: C_9  and  C_10 
REMARK    6  A    between atoms: N_15  and  C_14 
REMARK    7  A    between atoms: N_20  and  C_19 
REMARK       I    between atoms: C_22  and  N_20 
ROOT
ATOM      1  C   LIG d   1      -2.834  76.809 114.815  0.00  0.00     0.161 C 
ATOM      2  C   LIG d   1      -3.024  77.785 113.822  0.00  0.00     0.016 C 
ATOM      3  C   LIG d   1      -2.187  78.914 113.670  0.00  0.00     0.038 C 
ATOM      4  C   LIG d   1      -1.005  79.066 114.411  0.00  0.00     0.028 C 
ATOM      5  C   LIG d   1      -1.046  78.368 115.766  0.00  0.00    -0.047 C 
ATOM      6  C   LIG d   1      -1.486  76.900 115.561  0.00  0.00     0.091 C 
ENDROOT
BRANCH   1   7
ATOM      7  O   LIG d   1      -3.005  75.495 114.248  0.00  0.00    -0.368 OA
BRANCH   7   8
ATOM      8  C   LIG d   1      -4.209  74.787 114.634  0.00  0.00     0.119 C 
BRANCH   8   9
ATOM      9  C   LIG d   1      -5.233  74.962 113.496  0.00  0.00     0.028 C 
ATOM     10  C   LIG d   1      -6.311  76.006 113.832  0.00  0.00     0.006 C 
ENDBRANCH   8   9
BRANCH   8  11
ATOM     11  C   LIG d   1      -4.859  75.422 115.866  0.00  0.00     0.028 C 
ATOM     12  C   LIG d   1      -5.003  74.438 117.038  0.00  0.00     0.006 C 
ENDBRANCH   8  11
ENDBRANCH   7   8
ENDBRANCH   1   7
BRANCH   6  13
ATOM     13  N   LIG d   1      -1.633  76.168 116.846  0.00  0.00    -0.311 N 
ATOM     14  C   LIG d   1      -1.254  74.902 117.015  0.00  0.00     0.210 C 
ATOM     15  C   LIG d   1      -1.513  74.331 118.413  0.00  0.00     0.109 C 
ATOM     16  O   LIG d   1      -0.698  74.208 116.151  0.00  0.00    -0.276 OA
ATOM     17  H   LIG d   1      -2.046  76.665 117.610  0.00  0.00     0.149 HD
ENDBRANCH   6  13
BRANCH   5  18
ATOM     18  N   LIG d   1       0.294  78.490 116.371  0.00  0.00     0.381 N 
ATOM     19  H   LIG d   1       0.209  78.632 117.357  0.00  0.00    -0.090 HD
ATOM     20  H   LIG d   1       0.757  79.290 115.976  0.00  0.00    -0.090 HD
ATOM     21  H   LIG d   1       0.826  77.667 116.191  0.00  0.00    -0.090 HD
ENDBRANCH   5  18
BRANCH   3  22
ATOM     22  C   LIG d   1      -2.551  79.927 112.796  0.00  0.00     0.382 C 
ATOM     23  O   LIG d   1      -2.033  79.987 111.655  0.00  0.00    -0.241 OA
ATOM     24  O   LIG d   1      -3.359  80.807 113.150  0.00  0.00    -0.241 OA
ENDBRANCH   3  22
TORSDOF 7
ENDMDL
MODEL 2
REMARK VINA RESULT:      -4.8      1.681      4.944
REMARK  7 active torsions:
REMARK  status: ('A' for Active; 'I' for Inactive)
REMARK    1  A    between atoms: C_2  and  C_3 
REMARK    2  A    between atoms: C_3  and  O_6 
REMARK    3  A    between atoms: C_3  and  C_4 
REMARK    4  A    between atoms: C_7  and  O_6 
REMARK    5  A    between atoms: C_9  and  C_10 
REMARK    6  A    between atoms: N_15  and  C_14 
REMARK    7  A    between atoms: N_20  and  C_19 
REMARK       I    between atoms: C_22  and  N_20 
ROOT
ATOM      1  C   LIG d   1      -1.032  76.186 114.996  0.00  0.00     0.161 C 
ATOM      2  C   LIG d   1      -0.723  75.478 116.170  0.00  0.00     0.016 C 
ATOM      3  C   LIG d   1      -0.396  76.106 117.394  0.00  0.00     0.038 C 
ATOM      4  C   LIG d   1      -0.505  77.494 117.568  0.00  0.00     0.028 C 
ATOM      5  C   LIG d   1      -0.324  78.282 116.275  0.00  0.00    -0.047 C 
ATOM      6  C   LIG d   1      -1.264  77.699 115.196  0.00  0.00     0.091 C 
ENDROOT
BRANCH   1   7
ATOM      7  O   LIG d   1      -2.171  75.585 114.349  0.00  0.00    -0.368 OA
BRANCH   7   8
ATOM      8  C   LIG d   1      -3.469  76.095 114.741  0.00  0.00     0.119 C 
BRANCH   8   9
ATOM      9  C   LIG d   1      -4.193  74.973 115.511  0.00  0.00     0.028 C 
ATOM     10  C   LIG d   1      -4.262  75.249 117.022  0.00  0.00     0.006 C 
ENDBRANCH   8   9
BRANCH   8  11
ATOM     11  C   LIG d   1      -4.348  76.381 113.520  0.00  0.00     0.028 C 
ATOM     12  C   LIG d   1      -5.700  75.653 113.575  0.00  0.00     0.006 C 
ENDBRANCH   8  11
ENDBRANCH   7   8
ENDBRANCH   1   7
BRANCH   6  13
ATOM     13  N   LIG d   1      -1.089  78.358 113.875  0.00  0.00    -0.311 N 
ATOM     14  C   LIG d   1      -1.894  79.318 113.423  0.00  0.00     0.210 C 
ATOM     15  C   LIG d   1      -1.548  79.848 112.028  0.00  0.00     0.109 C 
ATOM     16  O   LIG d   1      -2.843  79.803 114.058  0.00  0.00    -0.276 OA
ATOM     17  H   LIG d   1      -0.325  78.047 113.308  0.00  0.00     0.149 HD
ENDBRANCH   6  13
BRANCH   5  18
ATOM     18  N   LIG d   1      -0.599  79.700 116.576  0.00  0.00     0.381 N 
ATOM     19  H   LIG d   1      -1.541  79.802 116.896  0.00  0.00    -0.090 HD
ATOM     20  H   LIG d   1      -0.492  80.237 115.733  0.00  0.00    -0.090 HD
ATOM     21  H   LIG d   1       0.034  80.030 117.271  0.00  0.00    -0.090 HD
ENDBRANCH   5  18
BRANCH   3  22
ATOM     22  C   LIG d   1       0.083  75.345 118.450  0.00  0.00     0.382 C 
ATOM     23  O   LIG d   1       1.103  75.718 119.078  0.00  0.00    -0.241 OA
ATOM     24  O   LIG d   1      -0.466  74.269 118.753  0.00  0.00    -0.241 OA
ENDBRANCH   3  22
TORSDOF 7
ENDMDL
MODEL 3
REMARK VINA RESULT:      -4.7      2.003      2.573
REMARK  7 active torsions:
REMARK  status: ('A' for Active; 'I' for Inactive)
REMARK    1  A    between atoms: C_2  and  C_3 
REMARK    2  A    between atoms: C_3  and  O_6 
REMARK    3  A    between atoms: C_3  and  C_4 
REMARK    4  A    between atoms: C_7  and  O_6 
REMARK    5  A    between atoms: C_9  and  C_10 
REMARK    6  A    between atoms: N_15  and  C_14 
REMARK    7  A    between atoms: N_20  and  C_19 
REMARK       I    between atoms: C_22  and  N_20 
ROOT
ATOM      1  C   LIG d   1      -2.457  78.002 116.346  0.00  0.00     0.161 C 
ATOM      2  C   LIG d   1      -2.843  78.873 115.314  0.00  0.00     0.016 C 
ATOM      3  C   LIG d   1      -2.421  78.725 113.972  0.00  0.00     0.038 C 
ATOM      4  C   LIG d   1      -1.701  77.601 113.541  0.00  0.00     0.028 C 
ATOM      5  C   LIG d   1      -0.864  76.959 114.642  0.00  0.00    -0.047 C 
ATOM      6  C   LIG d   1      -1.763  76.707 115.874  0.00  0.00     0.091 C 
ENDROOT
BRANCH   1   7
ATOM      7  O   LIG d   1      -3.596  77.688 117.171  0.00  0.00    -0.368 OA
BRANCH   7   8
ATOM      8  C   LIG d   1      -4.878  77.639 116.497  0.00  0.00     0.119 C 
BRANCH   8   9
ATOM      9  C   LIG d   1      -5.927  78.239 117.453  0.00  0.00     0.028 C 
ATOM     10  C   LIG d   1      -5.712  79.744 117.690  0.00  0.00     0.006 C 
ENDBRANCH   8   9
BRANCH   8  11
ATOM     11  C   LIG d   1      -5.327  76.195 116.257  0.00  0.00     0.028 C 
ATOM     12  C   LIG d   1      -5.268  75.791 114.775  0.00  0.00     0.006 C 
ENDBRANCH   8  11
ENDBRANCH   7   8
ENDBRANCH   1   7
BRANCH   6  13
ATOM     13  N   LIG d   1      -1.003  76.158 117.027  0.00  0.00    -0.311 N 
ATOM     14  C   LIG d   1      -1.265  74.975 117.581  0.00  0.00     0.210 C 
ATOM     15  C   LIG d   1      -0.375  74.608 118.773  0.00  0.00     0.109 C 
ATOM     16  O   LIG d   1      -2.127  74.181 117.177  0.00  0.00    -0.276 OA
ATOM     17  H   LIG d   1      -0.265  76.724 117.398  0.00  0.00     0.149 HD
ENDBRANCH   6  13
BRANCH   5  18
ATOM     18  N   LIG d   1      -0.277  75.723 114.092  0.00  0.00     0.381 N 
ATOM     19  H   LIG d   1      -0.995  75.161 113.680  0.00  0.00    -0.090 HD
ATOM     20  H   LIG d   1       0.142  75.200 114.842  0.00  0.00    -0.090 HD
ATOM     21  H   LIG d   1       0.413  75.947 113.409  0.00  0.00    -0.090 HD
ENDBRANCH   5  18
BRANCH   3  22
ATOM     22  C   LIG d   1      -2.685  79.730 113.054  0.00  0.00     0.382 C 
ATOM     23  O   LIG d   1      -3.387  80.715 113.387  0.00  0.00    -0.241 OA
ATOM     24  O   LIG d   1      -2.268  79.642 111.884  0.00  0.00    -0.241 OA
ENDBRANCH   3  22
TORSDOF 7
ENDMDL
MODEL 4
REMARK VINA RESULT:      -4.7      3.189      4.282
REMARK  7 active torsions:
REMARK  status: ('A' for Active; 'I' for Inactive)
REMARK    1  A    between atoms: C_2  and  C_3 
REMARK    2  A    between atoms: C_3  and  O_6 
REMARK    3  A    between atoms: C_3  and  C_4 
REMARK    4  A    between atoms: C_7  and  O_6 
REMARK    5  A    between atoms: C_9  and  C_10 
REMARK    6  A    between atoms: N_15  and  C_14 
REMARK    7  A    between atoms: N_20  and  C_19 
REMARK       I    between atoms: C_22  and  N_20 
ROOT
ATOM      1  C   LIG d   1      -3.607  77.989 116.612  0.00  0.00     0.161 C 
ATOM      2  C   LIG d   1      -2.807  78.956 117.243  0.00  0.00     0.016 C 
ATOM      3  C   LIG d   1      -1.499  79.283 116.817  0.00  0.00     0.038 C 
ATOM      4  C   LIG d   1      -0.955  78.767 115.631  0.00  0.00     0.028 C 
ATOM      5  C   LIG d   1      -1.529  77.410 115.242  0.00  0.00    -0.047 C 
ATOM      6  C   LIG d   1      -3.073  77.496 115.251  0.00  0.00     0.091 C 
ENDROOT
BRANCH   1   7
ATOM      7  O   LIG d   1      -4.953  78.483 116.473  0.00  0.00    -0.368 OA
BRANCH   7   8
ATOM      8  C   LIG d   1      -5.916  77.990 117.437  0.00  0.00     0.119 C 
BRANCH   8   9
ATOM      9  C   LIG d   1      -6.737  76.884 116.747  0.00  0.00     0.028 C 
ATOM     10  C   LIG d   1      -6.383  75.480 117.264  0.00  0.00     0.006 C 
ENDBRANCH   8   9
BRANCH   8  11
ATOM     11  C   LIG d   1      -6.931  79.073 117.815  0.00  0.00     0.028 C 
ATOM     12  C   LIG d   1      -6.339  80.490 117.761  0.00  0.00     0.006 C 
ENDBRANCH   8  11
ENDBRANCH   7   8
ENDBRANCH   1   7
BRANCH   6  13
ATOM     13  N   LIG d   1      -3.716  76.188 114.963  0.00  0.00    -0.311 N 
ATOM     14  C   LIG d   1      -4.371  75.926 113.833  0.00  0.00     0.210 C 
ATOM     15  C   LIG d   1      -4.976  74.521 113.747  0.00  0.00     0.109 C 
ATOM     16  O   LIG d   1      -4.482  76.713 112.881  0.00  0.00    -0.276 OA
ATOM     17  H   LIG d   1      -3.647  75.481 115.668  0.00  0.00     0.149 HD
ENDBRANCH   6  13
BRANCH   5  18
ATOM     18  N   LIG d   1      -0.978  77.055 113.920  0.00  0.00     0.381 N 
ATOM     19  H   LIG d   1      -1.289  76.141 113.657  0.00  0.00    -0.090 HD
ATOM     20  H   LIG d   1       0.025  77.042 113.979  0.00  0.00    -0.090 HD
ATOM     21  H   LIG d   1      -1.270  77.722 113.239  0.00  0.00    -0.090 HD
ENDBRANCH   5  18
BRANCH   3  22
ATOM     22  C   LIG d   1      -0.705  80.104 117.603  0.00  0.00     0.382 C 
ATOM     23  O   LIG d   1       0.191  80.804 117.073  0.00  0.00    -0.241 OA
ATOM     24  O   LIG d   1      -0.845  80.121 118.841  0.00  0.00    -0.241 OA
ENDBRANCH   3  22
TORSDOF 7
ENDMDL
MODEL 5
REMARK VINA RESULT:      -4.6      1.810      2.605
REMARK  7 active torsions:
REMARK  status: ('A' for Active; 'I' for Inactive)
REMARK    1  A    between atoms: C_2  and  C_3 
REMARK    2  A    between atoms: C_3  and  O_6 
REMARK    3  A    between atoms: C_3  and  C_4 
REMARK    4  A    between atoms: C_7  and  O_6 
REMARK    5  A    between atoms: C_9  and  C_10 
REMARK    6  A    between atoms: N_15  and  C_14 
REMARK    7  A    between atoms: N_20  and  C_19 
REMARK       I    between atoms: C_22  and  N_20 
ROOT
ATOM      1  C   LIG d   1      -2.572  75.792 116.442  0.00  0.00     0.161 C 
ATOM      2  C   LIG d   1      -3.068  76.815 115.617  0.00  0.00     0.016 C 
ATOM      3  C   LIG d   1      -2.306  77.430 114.596  0.00  0.00     0.038 C 
ATOM      4  C   LIG d   1      -1.038  76.955 114.229  0.00  0.00     0.028 C 
ATOM      5  C   LIG d   1      -0.301  76.256 115.366  0.00  0.00    -0.047 C 
ATOM      6  C   LIG d   1      -1.229  75.185 115.983  0.00  0.00     0.091 C 
ENDROOT
BRANCH   1   7
ATOM      7  O   LIG d   1      -3.565  74.758 116.588  0.00  0.00    -0.368 OA
BRANCH   7   8
ATOM      8  C   LIG d   1      -4.928  75.133 116.268  0.00  0.00     0.119 C 
BRANCH   8   9
ATOM      9  C   LIG d   1      -5.777  74.915 117.536  0.00  0.00     0.028 C 
ATOM     10  C   LIG d   1      -5.622  76.061 118.550  0.00  0.00     0.006 C 
ENDBRANCH   8   9
BRANCH   8  11
ATOM     11  C   LIG d   1      -5.529  74.201 115.212  0.00  0.00     0.028 C 
ATOM     12  C   LIG d   1      -5.002  74.486 113.797  0.00  0.00     0.006 C 
ENDBRANCH   8  11
ENDBRANCH   7   8
ENDBRANCH   1   7
BRANCH   6  13
ATOM     13  N   LIG d   1      -0.616  74.511 117.157  0.00  0.00    -0.311 N 
ATOM     14  C   LIG d   1      -0.221  75.160 118.251  0.00  0.00     0.210 C 
ATOM     15  C   LIG d   1       0.405  74.278 119.336  0.00  0.00     0.109 C 
ATOM     16  O   LIG d   1      -0.358  76.379 118.439  0.00  0.00    -0.276 OA
ATOM     17  H   LIG d   1      -0.496  73.519 117.102  0.00  0.00     0.149 HD
ENDBRANCH   6  13
BRANCH   5  18
ATOM     18  N   LIG d   1       0.943  75.692 114.810  0.00  0.00     0.381 N 
ATOM     19  H   LIG d   1       1.377  76.359 114.204  0.00  0.00    -0.090 HD
ATOM     20  H   LIG d   1       0.717  74.875 114.270  0.00  0.00    -0.090 HD
ATOM     21  H   LIG d   1       1.567  75.448 115.548  0.00  0.00    -0.090 HD
ENDBRANCH   5  18
BRANCH   3  22
ATOM     22  C   LIG d   1      -2.797  78.558 113.957  0.00  0.00     0.382 C 
ATOM     23  O   LIG d   1      -2.883  79.644 114.580  0.00  0.00    -0.241 OA
ATOM     24  O   LIG d   1      -3.197  78.493 112.779  0.00  0.00    -0.241 OA
ENDBRANCH   3  22
TORSDOF 7
ENDMDL
MODEL 6
REMARK VINA RESULT:      -4.6      1.492      4.651
REMARK  7 active torsions:
REMARK  status: ('A' for Active; 'I' for Inactive)
REMARK    1  A    between atoms: C_2  and  C_3 
REMARK    2  A    between atoms: C_3  and  O_6 
REMARK    3  A    between atoms: C_3  and  C_4 
REMARK    4  A    between atoms: C_7  and  O_6 
REMARK    5  A    between atoms: C_9  and  C_10 
REMARK    6  A    between atoms: N_15  and  C_14 
REMARK    7  A    between atoms: N_20  and  C_19 
REMARK       I    between atoms: C_22  and  N_20 
ROOT
ATOM      1  C   LIG d   1      -1.709  76.269 114.600  0.00  0.00     0.161 C 
ATOM      2  C   LIG d   1      -1.613  75.458 115.743  0.00  0.00     0.016 C 
ATOM      3  C   LIG d   1      -1.096  75.912 116.979  0.00  0.00     0.038 C 
ATOM      4  C   LIG d   1      -0.780  77.261 117.199  0.00  0.00     0.028 C 
ATOM      5  C   LIG d   1      -0.387  78.006 115.928  0.00  0.00    -0.047 C 
ATOM      6  C   LIG d   1      -1.473  77.773 114.853  0.00  0.00     0.091 C 
ENDROOT
BRANCH   1   7
ATOM      7  O   LIG d   1      -2.985  76.063 113.961  0.00  0.00    -0.368 OA
BRANCH   7   8
ATOM      8  C   LIG d   1      -3.996  75.397 114.758  0.00  0.00     0.119 C 
BRANCH   8   9
ATOM      9  C   LIG d   1      -5.053  74.835 113.787  0.00  0.00     0.028 C 
ATOM     10  C   LIG d   1      -5.662  75.924 112.888  0.00  0.00     0.006 C 
ENDBRANCH   8   9
BRANCH   8  11
ATOM     11  C   LIG d   1      -4.750  76.392 115.646  0.00  0.00     0.028 C 
ATOM     12  C   LIG d   1      -5.622  75.702 116.706  0.00  0.00     0.006 C 
ENDBRANCH   8  11
ENDBRANCH   7   8
ENDBRANCH   1   7
BRANCH   6  13
ATOM     13  N   LIG d   1      -1.125  78.398 113.550  0.00  0.00    -0.311 N 
ATOM     14  C   LIG d   1      -1.806  79.412 113.019  0.00  0.00     0.210 C 
ATOM     15  C   LIG d   1      -1.291  79.894 111.659  0.00  0.00     0.109 C 
ATOM     16  O   LIG d   1      -2.767  79.979 113.559  0.00  0.00    -0.276 OA
ATOM     17  H   LIG d   1      -0.339  78.020 113.058  0.00  0.00     0.149 HD
ENDBRANCH   6  13
BRANCH   5  18
ATOM     18  N   LIG d   1      -0.218  79.429 116.279  0.00  0.00     0.381 N 
ATOM     19  H   LIG d   1       0.091  79.941 115.478  0.00  0.00    -0.090 HD
ATOM     20  H   LIG d   1       0.485  79.506 116.993  0.00  0.00    -0.090 HD
ATOM     21  H   LIG d   1      -1.080  79.803 116.610  0.00  0.00    -0.090 HD
ENDBRANCH   5  18
BRANCH   3  22
ATOM     22  C   LIG d   1      -0.855  75.004 117.998  0.00  0.00     0.382 C 
ATOM     23  O   LIG d   1       0.267  74.977 118.561  0.00  0.00    -0.241 OA
ATOM     24  O   LIG d   1      -1.729  74.182 118.332  0.00  0.00    -0.241 OA
ENDBRANCH   3  22
TORSDOF 7
ENDMDL
MODEL 7
REMARK VINA RESULT:      -4.4      2.415      4.186
REMARK  7 active torsions:
REMARK  status: ('A' for Active; 'I' for Inactive)
REMARK    1  A    between atoms: C_2  and  C_3 
REMARK    2  A    between atoms: C_3  and  O_6 
REMARK    3  A    between atoms: C_3  and  C_4 
REMARK    4  A    between atoms: C_7  and  O_6 
REMARK    5  A    between atoms: C_9  and  C_10 
REMARK    6  A    between atoms: N_15  and  C_14 
REMARK    7  A    between atoms: N_20  and  C_19 
REMARK       I    between atoms: C_22  and  N_20 
ROOT
ATOM      1  C   LIG d   1      -2.674  77.860 116.460  0.00  0.00     0.161 C 
ATOM      2  C   LIG d   1      -3.434  76.998 115.653  0.00  0.00     0.016 C 
ATOM      3  C   LIG d   1      -3.332  76.960 114.243  0.00  0.00     0.038 C 
ATOM      4  C   LIG d   1      -2.348  77.682 113.551  0.00  0.00     0.028 C 
ATOM      5  C   LIG d   1      -1.897  78.943 114.280  0.00  0.00    -0.047 C 
ATOM      6  C   LIG d   1      -1.516  78.575 115.732  0.00  0.00     0.091 C 
ENDROOT
BRANCH   1   7
ATOM      7  O   LIG d   1      -2.177  77.144 117.608  0.00  0.00    -0.368 OA
BRANCH   7   8
ATOM      8  C   LIG d   1      -2.934  75.975 118.006  0.00  0.00     0.119 C 
BRANCH   8   9
ATOM      9  C   LIG d   1      -3.579  76.283 119.371  0.00  0.00     0.028 C 
ATOM     10  C   LIG d   1      -5.084  76.579 119.256  0.00  0.00     0.006 C 
ENDBRANCH   8   9
BRANCH   8  11
ATOM     11  C   LIG d   1      -2.016  74.774 118.253  0.00  0.00     0.028 C 
ATOM     12  C   LIG d   1      -1.045  74.517 117.090  0.00  0.00     0.006 C 
ENDBRANCH   8  11
ENDBRANCH   7   8
ENDBRANCH   1   7
BRANCH   6  13
ATOM     13  N   LIG d   1      -1.143  79.766 116.539  0.00  0.00    -0.311 N 
ATOM     14  C   LIG d   1       0.001  79.866 117.213  0.00  0.00     0.210 C 
ATOM     15  C   LIG d   1       0.178  81.170 117.997  0.00  0.00     0.109 C 
ATOM     16  O   LIG d   1       0.901  79.012 117.209  0.00  0.00    -0.276 OA
ATOM     17  H   LIG d   1      -1.802  80.519 116.572  0.00  0.00     0.149 HD
ENDBRANCH   6  13
BRANCH   5  18
ATOM     18  N   LIG d   1      -0.775  79.522 113.516  0.00  0.00     0.381 N 
ATOM     19  H   LIG d   1       0.076  79.415 114.032  0.00  0.00    -0.090 HD
ATOM     20  H   LIG d   1      -0.943  80.504 113.385  0.00  0.00    -0.090 HD
ATOM     21  H   LIG d   1      -0.695  79.070 112.632  0.00  0.00    -0.090 HD
ENDBRANCH   5  18
BRANCH   3  22
ATOM     22  C   LIG d   1      -4.249  76.225 113.507  0.00  0.00     0.382 C 
ATOM     23  O   LIG d   1      -4.377  74.994 113.716  0.00  0.00    -0.241 OA
ATOM     24  O   LIG d   1      -4.917  76.767 112.607  0.00  0.00    -0.241 OA
ENDBRANCH   3  22
TORSDOF 7
ENDMDL
MODEL 8
REMARK VINA RESULT:      -4.4      2.216      4.581
REMARK  7 active torsions:
REMARK  status: ('A' for Active; 'I' for Inactive)
REMARK    1  A    between atoms: C_2  and  C_3 
REMARK    2  A    between atoms: C_3  and  O_6 
REMARK    3  A    between atoms: C_3  and  C_4 
REMARK    4  A    between atoms: C_7  and  O_6 
REMARK    5  A    between atoms: C_9  and  C_10 
REMARK    6  A    between atoms: N_15  and  C_14 
REMARK    7  A    between atoms: N_20  and  C_19 
REMARK       I    between atoms: C_22  and  N_20 
ROOT
ATOM      1  C   LIG d   1      -1.628  75.879 114.971  0.00  0.00     0.161 C 
ATOM      2  C   LIG d   1      -2.972  75.529 114.761  0.00  0.00     0.016 C 
ATOM      3  C   LIG d   1      -3.828  75.072 115.789  0.00  0.00     0.038 C 
ATOM      4  C   LIG d   1      -3.437  75.079 117.137  0.00  0.00     0.028 C 
ATOM      5  C   LIG d   1      -1.930  74.945 117.331  0.00  0.00    -0.047 C 
ATOM      6  C   LIG d   1      -1.216  75.999 116.453  0.00  0.00     0.091 C 
ENDROOT
BRANCH   1   7
ATOM      7  O   LIG d   1      -1.325  77.100 114.267  0.00  0.00    -0.368 OA
BRANCH   7   8
ATOM      8  C   LIG d   1      -2.435  78.006 114.056  0.00  0.00     0.119 C 
BRANCH   8   9
ATOM      9  C   LIG d   1      -2.210  78.708 112.703  0.00  0.00     0.028 C 
ATOM     10  C   LIG d   1      -2.788  80.133 112.677  0.00  0.00     0.006 C 
ENDBRANCH   8   9
BRANCH   8  11
ATOM     11  C   LIG d   1      -2.443  79.129 115.098  0.00  0.00     0.028 C 
ATOM     12  C   LIG d   1      -3.488  78.908 116.204  0.00  0.00     0.006 C 
ENDBRANCH   8  11
ENDBRANCH   7   8
ENDBRANCH   1   7
BRANCH   6  13
ATOM     13  N   LIG d   1       0.264  75.882 116.519  0.00  0.00    -0.311 N 
ATOM     14  C   LIG d   1       1.067  76.897 116.833  0.00  0.00     0.210 C 
ATOM     15  C   LIG d   1       2.562  76.567 116.824  0.00  0.00     0.109 C 
ATOM     16  O   LIG d   1       0.680  78.032 117.150  0.00  0.00    -0.276 OA
ATOM     17  H   LIG d   1       0.661  74.987 116.307  0.00  0.00     0.149 HD
ENDBRANCH   6  13
BRANCH   5  18
ATOM     18  N   LIG d   1      -1.650  75.106 118.770  0.00  0.00     0.381 N 
ATOM     19  H   LIG d   1      -2.504  75.052 119.289  0.00  0.00    -0.090 HD
ATOM     20  H   LIG d   1      -1.244  76.012 118.923  0.00  0.00    -0.090 HD
ATOM     21  H   LIG d   1      -1.022  74.396 119.076  0.00  0.00    -0.090 HD
ENDBRANCH   5  18
BRANCH   3  22
ATOM     22  C   LIG d   1      -5.078  74.565 115.469  0.00  0.00     0.382 C 
ATOM     23  O   LIG d   1      -5.411  74.432 114.267  0.00  0.00    -0.241 OA
ATOM     24  O   LIG d   1      -5.893  74.280 116.367  0.00  0.00    -0.241 OA
ENDBRANCH   3  22
TORSDOF 7
ENDMDL
MODEL 9
REMARK VINA RESULT:      -4.3      2.195      3.910
REMARK  7 active torsions:
REMARK  status: ('A' for Active; 'I' for Inactive)
REMARK    1  A    between atoms: C_2  and  C_3 
REMARK    2  A    between atoms: C_3  and  O_6 
REMARK    3  A    between atoms: C_3  and  C_4 
REMARK    4  A    between atoms: C_7  and  O_6 
REMARK    5  A    between atoms: C_9  and  C_10 
REMARK    6  A    between atoms: N_15  and  C_14 
REMARK    7  A    between atoms: N_20  and  C_19 
REMARK       I    between atoms: C_22  and  N_20 
ROOT
ATOM      1  C   LIG d   1      -3.216  76.260 114.396  0.00  0.00     0.161 C 
ATOM      2  C   LIG d   1      -2.656  77.397 113.792  0.00  0.00     0.016 C 
ATOM      3  C   LIG d   1      -2.678  78.682 114.381  0.00  0.00     0.038 C 
ATOM      4  C   LIG d   1      -3.132  78.889 115.692  0.00  0.00     0.028 C 
ATOM      5  C   LIG d   1      -4.167  77.864 116.143  0.00  0.00    -0.047 C 
ATOM      6  C   LIG d   1      -3.617  76.445 115.875  0.00  0.00     0.091 C 
ENDROOT
BRANCH   1   7
ATOM      7  O   LIG d   1      -2.320  75.140 114.256  0.00  0.00    -0.368 OA
BRANCH   7   8
ATOM      8  C   LIG d   1      -0.913  75.421 114.459  0.00  0.00     0.119 C 
BRANCH   8   9
ATOM      9  C   LIG d   1      -0.122  74.181 113.999  0.00  0.00     0.028 C 
ATOM     10  C   LIG d   1       0.766  74.471 112.777  0.00  0.00     0.006 C 
ENDBRANCH   8   9
BRANCH   8  11
ATOM     11  C   LIG d   1      -0.585  75.582 115.946  0.00  0.00     0.028 C 
ATOM     12  C   LIG d   1       0.523  76.615 116.204  0.00  0.00     0.006 C 
ENDBRANCH   8  11
ENDBRANCH   7   8
ENDBRANCH   1   7
BRANCH   6  13
ATOM     13  N   LIG d   1      -4.601  75.383 116.210  0.00  0.00    -0.311 N 
ATOM     14  C   LIG d   1      -5.840  75.351 115.723  0.00  0.00     0.210 C 
ATOM     15  C   LIG d   1      -6.698  74.180 116.212  0.00  0.00     0.109 C 
ATOM     16  O   LIG d   1      -6.300  76.163 114.906  0.00  0.00    -0.276 OA
ATOM     17  H   LIG d   1      -4.302  74.666 116.842  0.00  0.00     0.149 HD
ENDBRANCH   6  13
BRANCH   5  18
ATOM     18  N   LIG d   1      -4.449  78.115 117.569  0.00  0.00     0.381 N 
ATOM     19  H   LIG d   1      -3.592  78.149 118.084  0.00  0.00    -0.090 HD
ATOM     20  H   LIG d   1      -5.003  77.357 117.929  0.00  0.00    -0.090 HD
ATOM     21  H   LIG d   1      -4.942  78.975 117.673  0.00  0.00    -0.090 HD
ENDBRANCH   5  18
BRANCH   3  22
ATOM     22  C   LIG d   1      -2.279  79.784 113.640  0.00  0.00     0.382 C 
ATOM     23  O   LIG d   1      -3.131  80.614 113.242  0.00  0.00    -0.241 OA
ATOM     24  O   LIG d   1      -1.082  79.936 113.328  0.00  0.00    -0.241 OA
ENDBRANCH   3  22
TORSDOF 7
ENDMDL
