MODEL 1
REMARK VINA RESULT:      -4.9      0.000      0.000
REMARK  7 active torsions:
REMARK  status: ('A' for Active; 'I' for Inactive)
REMARK    1  A    between atoms: C_2  and  C_3 
REMARK    2  A    between atoms: C_3  and  O_6 
REMARK    3  A    between atoms: C_3  and  C_4 
REMARK    4  A    between atoms: C_7  and  O_6 
REMARK    5  A    between atoms: C_9  and  C_10 
REMARK    6  A    between atoms: N_15  and  C_14 
REMARK    7  A    between atoms: N_20  and  C_19 
REMARK       I    between atoms: C_22  and  N_20 
ROOT
ATOM      1  C   LIG d   1      -2.743  77.207 115.306  0.00  0.00     0.161 C 
ATOM      2  C   LIG d   1      -2.885  78.033 114.178  0.00  0.00     0.016 C 
ATOM      3  C   LIG d   1      -1.951  79.034 113.824  0.00  0.00     0.038 C 
ATOM      4  C   LIG d   1      -0.727  79.176 114.494  0.00  0.00     0.028 C 
ATOM      5  C   LIG d   1      -0.770  78.702 115.943  0.00  0.00    -0.047 C 
ATOM      6  C   LIG d   1      -1.359  77.273 115.986  0.00  0.00     0.091 C 
ENDROOT
BRANCH   1   7
ATOM      7  O   LIG d   1      -3.066  75.846 114.959  0.00  0.00    -0.368 OA
BRANCH   7   8
ATOM      8  C   LIG d   1      -4.230  75.281 115.612  0.00  0.00     0.119 C 
BRANCH   8   9
ATOM      9  C   LIG d   1      -5.191  74.798 114.508  0.00  0.00     0.028 C 
ATOM     10  C   LIG d   1      -6.242  75.859 114.139  0.00  0.00     0.006 C 
ENDBRANCH   8   9
BRANCH   8  11
ATOM     11  C   LIG d   1      -5.007  76.349 116.387  0.00  0.00     0.028 C 
ATOM     12  C   LIG d   1      -5.164  76.008 117.877  0.00  0.00     0.006 C 
ENDBRANCH   8  11
ENDBRANCH   7   8
ENDBRANCH   1   7
BRANCH   6  13
ATOM     13  N   LIG d   1      -1.515  76.766 117.374  0.00  0.00    -0.311 N 
ATOM     14  C   LIG d   1      -1.155  75.540 117.751  0.00  0.00     0.210 C 
ATOM     15  C   LIG d   1      -1.421  75.213 119.224  0.00  0.00     0.109 C 
ATOM     16  O   LIG d   1      -0.611  74.704 117.014  0.00  0.00    -0.276 OA
ATOM     17  H   LIG d   1      -1.920  77.389 118.044  0.00  0.00     0.149 HD
ENDBRANCH   6  13
BRANCH   5  18
ATOM     18  N   LIG d   1       0.602  78.778 116.479  0.00  0.00     0.381 N 
ATOM     19  H   LIG d   1       1.062  79.589 116.117  0.00  0.00    -0.090 HD
ATOM     20  H   LIG d   1       1.113  77.966 116.180  0.00  0.00    -0.090 HD
ATOM     21  H   LIG d   1       0.578  78.817 117.474  0.00  0.00    -0.090 HD
ENDBRANCH   5  18
BRANCH   3  22
ATOM     22  C   LIG d   1      -2.256  79.932 112.813  0.00  0.00     0.382 C 
ATOM     23  O   LIG d   1      -3.236  80.705 112.936  0.00  0.00    -0.241 OA
ATOM     24  O   LIG d   1      -1.591  79.948 111.760  0.00  0.00    -0.241 OA
ENDBRANCH   3  22
TORSDOF 7
ENDMDL
MODEL 2
REMARK VINA RESULT:      -4.7      1.402      1.816
REMARK  7 active torsions:
REMARK  status: ('A' for Active; 'I' for Inactive)
REMARK    1  A    between atoms: C_2  and  C_3 
REMARK    2  A    between atoms: C_3  and  O_6 
REMARK    3  A    between atoms: C_3  and  C_4 
REMARK    4  A    between atoms: C_7  and  O_6 
REMARK    5  A    between atoms: C_9  and  C_10 
REMARK    6  A    between atoms: N_15  and  C_14 
REMARK    7  A    between atoms: N_20  and  C_19 
REMARK       I    between atoms: C_22  and  N_20 
ROOT
ATOM      1  C   LIG d   1      -3.056  77.775 116.614  0.00  0.00     0.161 C 
ATOM      2  C   LIG d   1      -3.258  78.577 115.478  0.00  0.00     0.016 C 
ATOM      3  C   LIG d   1      -2.346  78.644 114.400  0.00  0.00     0.038 C 
ATOM      4  C   LIG d   1      -1.235  77.792 114.315  0.00  0.00     0.028 C 
ATOM      5  C   LIG d   1      -0.722  77.327 115.674  0.00  0.00    -0.047 C 
ATOM      6  C   LIG d   1      -1.905  76.755 116.488  0.00  0.00     0.091 C 
ENDROOT
BRANCH   1   7
ATOM      7  O   LIG d   1      -4.283  77.105 116.963  0.00  0.00    -0.368 OA
BRANCH   7   8
ATOM      8  C   LIG d   1      -5.128  76.705 115.857  0.00  0.00     0.119 C 
BRANCH   8   9
ATOM      9  C   LIG d   1      -6.590  76.781 116.339  0.00  0.00     0.028 C 
ATOM     10  C   LIG d   1      -6.865  78.040 117.179  0.00  0.00     0.006 C 
ENDBRANCH   8   9
BRANCH   8  11
ATOM     11  C   LIG d   1      -4.901  75.237 115.484  0.00  0.00     0.028 C 
ATOM     12  C   LIG d   1      -6.195  74.409 115.506  0.00  0.00     0.006 C 
ENDBRANCH   8  11
ENDBRANCH   7   8
ENDBRANCH   1   7
BRANCH   6  13
ATOM     13  N   LIG d   1      -1.506  76.355 117.863  0.00  0.00    -0.311 N 
ATOM     14  C   LIG d   1      -1.126  75.120 118.186  0.00  0.00     0.210 C 
ATOM     15  C   LIG d   1      -0.776  74.917 119.663  0.00  0.00     0.109 C 
ATOM     16  O   LIG d   1      -1.014  74.182 117.382  0.00  0.00    -0.276 OA
ATOM     17  H   LIG d   1      -1.538  77.062 118.571  0.00  0.00     0.149 HD
ENDBRANCH   6  13
BRANCH   5  18
ATOM     18  N   LIG d   1       0.346  76.339 115.434  0.00  0.00     0.381 N 
ATOM     19  H   LIG d   1      -0.025  75.413 115.510  0.00  0.00    -0.090 HD
ATOM     20  H   LIG d   1       1.058  76.452 116.134  0.00  0.00    -0.090 HD
ATOM     21  H   LIG d   1       0.738  76.474 114.527  0.00  0.00    -0.090 HD
ENDBRANCH   5  18
BRANCH   3  22
ATOM     22  C   LIG d   1      -2.520  79.600 113.411  0.00  0.00     0.382 C 
ATOM     23  O   LIG d   1      -3.096  80.682 113.679  0.00  0.00    -0.241 OA
ATOM     24  O   LIG d   1      -2.147  79.376 112.243  0.00  0.00    -0.241 OA
ENDBRANCH   3  22
TORSDOF 7
ENDMDL
MODEL 3
REMARK VINA RESULT:      -4.5      3.759      7.016
REMARK  7 active torsions:
REMARK  status: ('A' for Active; 'I' for Inactive)
REMARK    1  A    between atoms: C_2  and  C_3 
REMARK    2  A    between atoms: C_3  and  O_6 
REMARK    3  A    between atoms: C_3  and  C_4 
REMARK    4  A    between atoms: C_7  and  O_6 
REMARK    5  A    between atoms: C_9  and  C_10 
REMARK    6  A    between atoms: N_15  and  C_14 
REMARK    7  A    between atoms: N_20  and  C_19 
REMARK       I    between atoms: C_22  and  N_20 
ROOT
ATOM      1  C   LIG d   1       0.379  80.466 112.635  0.00  0.00     0.161 C 
ATOM      2  C   LIG d   1      -0.692  79.811 112.005  0.00  0.00     0.016 C 
ATOM      3  C   LIG d   1      -1.660  79.053 112.704  0.00  0.00     0.038 C 
ATOM      4  C   LIG d   1      -1.707  79.024 114.106  0.00  0.00     0.028 C 
ATOM      5  C   LIG d   1      -0.351  79.256 114.763  0.00  0.00    -0.047 C 
ATOM      6  C   LIG d   1       0.280  80.537 114.173  0.00  0.00     0.091 C 
ENDROOT
BRANCH   1   7
ATOM      7  O   LIG d   1       0.537  81.788 112.081  0.00  0.00    -0.368 OA
BRANCH   7   8
ATOM      8  C   LIG d   1       1.173  81.863 110.782  0.00  0.00     0.119 C 
BRANCH   8   9
ATOM      9  C   LIG d   1       2.696  81.800 111.008  0.00  0.00     0.028 C 
ATOM     10  C   LIG d   1       3.440  82.960 110.326  0.00  0.00     0.006 C 
ENDBRANCH   8   9
BRANCH   8  11
ATOM     11  C   LIG d   1       0.919  83.218 110.114  0.00  0.00     0.028 C 
ATOM     12  C   LIG d   1      -0.223  84.004 110.777  0.00  0.00     0.006 C 
ENDBRANCH   8  11
ENDBRANCH   7   8
ENDBRANCH   1   7
BRANCH   6  13
ATOM     13  N   LIG d   1       1.646  80.791 114.700  0.00  0.00    -0.311 N 
ATOM     14  C   LIG d   1       1.884  81.464 115.825  0.00  0.00     0.210 C 
ATOM     15  C   LIG d   1       3.366  81.630 116.178  0.00  0.00     0.109 C 
ATOM     16  O   LIG d   1       1.008  81.910 116.581  0.00  0.00    -0.276 OA
ATOM     17  H   LIG d   1       2.415  80.437 114.166  0.00  0.00     0.149 HD
ENDBRANCH   6  13
BRANCH   5  18
ATOM     18  N   LIG d   1      -0.569  79.337 116.220  0.00  0.00     0.381 N 
ATOM     19  H   LIG d   1      -0.008  78.652 116.685  0.00  0.00    -0.090 HD
ATOM     20  H   LIG d   1      -1.535  79.138 116.415  0.00  0.00    -0.090 HD
ATOM     21  H   LIG d   1      -0.336  80.247 116.549  0.00  0.00    -0.090 HD
ENDBRANCH   5  18
BRANCH   3  22
ATOM     22  C   LIG d   1      -2.570  78.282 111.998  0.00  0.00     0.382 C 
ATOM     23  O   LIG d   1      -3.614  77.872 112.560  0.00  0.00    -0.241 OA
ATOM     24  O   LIG d   1      -2.338  77.952 110.819  0.00  0.00    -0.241 OA
ENDBRANCH   3  22
TORSDOF 7
ENDMDL
MODEL 4
REMARK VINA RESULT:      -4.5      1.544      4.772
REMARK  7 active torsions:
REMARK  status: ('A' for Active; 'I' for Inactive)
REMARK    1  A    between atoms: C_2  and  C_3 
REMARK    2  A    between atoms: C_3  and  O_6 
REMARK    3  A    between atoms: C_3  and  C_4 
REMARK    4  A    between atoms: C_7  and  O_6 
REMARK    5  A    between atoms: C_9  and  C_10 
REMARK    6  A    between atoms: N_15  and  C_14 
REMARK    7  A    between atoms: N_20  and  C_19 
REMARK       I    between atoms: C_22  and  N_20 
ROOT
ATOM      1  C   LIG d   1      -1.662  75.611 115.368  0.00  0.00     0.161 C 
ATOM      2  C   LIG d   1      -1.389  74.927 116.564  0.00  0.00     0.016 C 
ATOM      3  C   LIG d   1      -0.576  75.454 117.594  0.00  0.00     0.038 C 
ATOM      4  C   LIG d   1      -0.101  76.774 117.562  0.00  0.00     0.028 C 
ATOM      5  C   LIG d   1       0.067  77.323 116.149  0.00  0.00    -0.047 C 
ATOM      6  C   LIG d   1      -1.245  77.097 115.363  0.00  0.00     0.091 C 
ENDROOT
BRANCH   1   7
ATOM      7  O   LIG d   1      -3.060  75.483 115.041  0.00  0.00    -0.368 OA
BRANCH   7   8
ATOM      8  C   LIG d   1      -3.963  75.299 116.159  0.00  0.00     0.119 C 
BRANCH   8   9
ATOM      9  C   LIG d   1      -5.195  74.534 115.639  0.00  0.00     0.028 C 
ATOM     10  C   LIG d   1      -6.075  75.397 114.718  0.00  0.00     0.006 C 
ENDBRANCH   8   9
BRANCH   8  11
ATOM     11  C   LIG d   1      -4.502  76.639 116.667  0.00  0.00     0.028 C 
ATOM     12  C   LIG d   1      -4.554  76.718 118.201  0.00  0.00     0.006 C 
ENDBRANCH   8  11
ENDBRANCH   7   8
ENDBRANCH   1   7
BRANCH   6  13
ATOM     13  N   LIG d   1      -1.138  77.529 113.945  0.00  0.00    -0.311 N 
ATOM     14  C   LIG d   1      -1.983  78.385 113.374  0.00  0.00     0.210 C 
ATOM     15  C   LIG d   1      -1.704  78.680 111.897  0.00  0.00     0.109 C 
ATOM     16  O   LIG d   1      -2.917  78.953 113.959  0.00  0.00    -0.276 OA
ATOM     17  H   LIG d   1      -0.389  77.140 113.405  0.00  0.00     0.149 HD
ENDBRANCH   6  13
BRANCH   5  18
ATOM     18  N   LIG d   1       0.434  78.747 116.264  0.00  0.00     0.381 N 
ATOM     19  H   LIG d   1      -0.079  79.284 115.594  0.00  0.00    -0.090 HD
ATOM     20  H   LIG d   1       1.414  78.847 116.066  0.00  0.00    -0.090 HD
ATOM     21  H   LIG d   1       0.239  79.075 117.184  0.00  0.00    -0.090 HD
ENDBRANCH   5  18
BRANCH   3  22
ATOM     22  C   LIG d   1      -0.197  74.644 118.653  0.00  0.00     0.382 C 
ATOM     23  O   LIG d   1      -1.066  74.180 119.430  0.00  0.00    -0.241 OA
ATOM     24  O   LIG d   1       1.007  74.407 118.868  0.00  0.00    -0.241 OA
ENDBRANCH   3  22
TORSDOF 7
ENDMDL
MODEL 5
REMARK VINA RESULT:      -4.3      2.730      4.370
REMARK  7 active torsions:
REMARK  status: ('A' for Active; 'I' for Inactive)
REMARK    1  A    between atoms: C_2  and  C_3 
REMARK    2  A    between atoms: C_3  and  O_6 
REMARK    3  A    between atoms: C_3  and  C_4 
REMARK    4  A    between atoms: C_7  and  O_6 
REMARK    5  A    between atoms: C_9  and  C_10 
REMARK    6  A    between atoms: N_15  and  C_14 
REMARK    7  A    between atoms: N_20  and  C_19 
REMARK       I    between atoms: C_22  and  N_20 
ROOT
ATOM      1  C   LIG d   1       0.121  78.085 116.324  0.00  0.00     0.161 C 
ATOM      2  C   LIG d   1      -0.959  78.545 115.552  0.00  0.00     0.016 C 
ATOM      3  C   LIG d   1      -1.875  77.684 114.904  0.00  0.00     0.038 C 
ATOM      4  C   LIG d   1      -1.861  76.296 115.109  0.00  0.00     0.028 C 
ATOM      5  C   LIG d   1      -0.484  75.752 115.474  0.00  0.00    -0.047 C 
ATOM      6  C   LIG d   1       0.086  76.577 116.650  0.00  0.00     0.091 C 
ENDROOT
BRANCH   1   7
ATOM      7  O   LIG d   1       0.219  78.858 117.536  0.00  0.00    -0.368 OA
BRANCH   7   8
ATOM      8  C   LIG d   1      -1.003  79.490 117.990  0.00  0.00     0.119 C 
BRANCH   8   9
ATOM      9  C   LIG d   1      -0.635  80.896 118.503  0.00  0.00     0.028 C 
ATOM     10  C   LIG d   1      -1.690  81.464 119.466  0.00  0.00     0.006 C 
ENDBRANCH   8   9
BRANCH   8  11
ATOM     11  C   LIG d   1      -1.593  78.759 119.199  0.00  0.00     0.028 C 
ATOM     12  C   LIG d   1      -2.728  77.795 118.818  0.00  0.00     0.006 C 
ENDBRANCH   8  11
ENDBRANCH   7   8
ENDBRANCH   1   7
BRANCH   6  13
ATOM     13  N   LIG d   1       1.467  76.164 117.016  0.00  0.00    -0.311 N 
ATOM     14  C   LIG d   1       1.814  75.770 118.239  0.00  0.00     0.210 C 
ATOM     15  C   LIG d   1       3.293  75.407 118.406  0.00  0.00     0.109 C 
ATOM     16  O   LIG d   1       1.032  75.655 119.194  0.00  0.00    -0.276 OA
ATOM     17  H   LIG d   1       2.159  76.197 116.293  0.00  0.00     0.149 HD
ENDBRANCH   6  13
BRANCH   5  18
ATOM     18  N   LIG d   1      -0.641  74.321 115.795  0.00  0.00     0.381 N 
ATOM     19  H   LIG d   1       0.172  73.816 115.502  0.00  0.00    -0.090 HD
ATOM     20  H   LIG d   1      -1.434  73.960 115.293  0.00  0.00    -0.090 HD
ATOM     21  H   LIG d   1      -0.778  74.204 116.775  0.00  0.00    -0.090 HD
ENDBRANCH   5  18
BRANCH   3  22
ATOM     22  C   LIG d   1      -2.793  78.208 114.007  0.00  0.00     0.382 C 
ATOM     23  O   LIG d   1      -3.001  79.444 113.973  0.00  0.00    -0.241 OA
ATOM     24  O   LIG d   1      -3.449  77.455 113.262  0.00  0.00    -0.241 OA
ENDBRANCH   3  22
TORSDOF 7
ENDMDL
MODEL 6
REMARK VINA RESULT:      -4.2      3.992      6.071
REMARK  7 active torsions:
REMARK  status: ('A' for Active; 'I' for Inactive)
REMARK    1  A    between atoms: C_2  and  C_3 
REMARK    2  A    between atoms: C_3  and  O_6 
REMARK    3  A    between atoms: C_3  and  C_4 
REMARK    4  A    between atoms: C_7  and  O_6 
REMARK    5  A    between atoms: C_9  and  C_10 
REMARK    6  A    between atoms: N_15  and  C_14 
REMARK    7  A    between atoms: N_20  and  C_19 
REMARK       I    between atoms: C_22  and  N_20 
ROOT
ATOM      1  C   LIG d   1      -0.658  80.263 113.367  0.00  0.00     0.161 C 
ATOM      2  C   LIG d   1      -1.068  79.097 112.698  0.00  0.00     0.016 C 
ATOM      3  C   LIG d   1      -0.654  78.766 111.388  0.00  0.00     0.038 C 
ATOM      4  C   LIG d   1       0.326  79.507 110.710  0.00  0.00     0.028 C 
ATOM      5  C   LIG d   1       0.390  80.967 111.146  0.00  0.00    -0.047 C 
ATOM      6  C   LIG d   1       0.498  81.026 112.686  0.00  0.00     0.091 C 
ENDROOT
BRANCH   1   7
ATOM      7  O   LIG d   1      -0.315  79.948 114.731  0.00  0.00    -0.368 OA
BRANCH   7   8
ATOM      8  C   LIG d   1      -0.941  78.766 115.289  0.00  0.00     0.119 C 
BRANCH   8   9
ATOM      9  C   LIG d   1      -2.026  79.240 116.276  0.00  0.00     0.028 C 
ATOM     10  C   LIG d   1      -1.432  79.751 117.600  0.00  0.00     0.006 C 
ENDBRANCH   8   9
BRANCH   8  11
ATOM     11  C   LIG d   1       0.048  77.957 116.132  0.00  0.00     0.028 C 
ATOM     12  C   LIG d   1      -0.008  76.450 115.834  0.00  0.00     0.006 C 
ENDBRANCH   8  11
ENDBRANCH   7   8
ENDBRANCH   1   7
BRANCH   6  13
ATOM     13  N   LIG d   1       0.481  82.420 113.202  0.00  0.00    -0.311 N 
ATOM     14  C   LIG d   1       1.584  83.132 113.427  0.00  0.00     0.210 C 
ATOM     15  C   LIG d   1       1.343  84.541 113.979  0.00  0.00     0.109 C 
ATOM     16  O   LIG d   1       2.737  82.742 113.192  0.00  0.00    -0.276 OA
ATOM     17  H   LIG d   1      -0.415  82.826 113.391  0.00  0.00     0.149 HD
ENDBRANCH   6  13
BRANCH   5  18
ATOM     18  N   LIG d   1       1.541  81.586 110.461  0.00  0.00     0.381 N 
ATOM     19  H   LIG d   1       2.321  81.633 111.086  0.00  0.00    -0.090 HD
ATOM     20  H   LIG d   1       1.295  82.523 110.194  0.00  0.00    -0.090 HD
ATOM     21  H   LIG d   1       1.784  81.055 109.654  0.00  0.00    -0.090 HD
ENDBRANCH   5  18
BRANCH   3  22
ATOM     22  C   LIG d   1      -1.251  77.704 110.726  0.00  0.00     0.382 C 
ATOM     23  O   LIG d   1      -0.562  76.715 110.377  0.00  0.00    -0.241 OA
ATOM     24  O   LIG d   1      -2.461  77.741 110.435  0.00  0.00    -0.241 OA
ENDBRANCH   3  22
TORSDOF 7
ENDMDL
MODEL 7
REMARK VINA RESULT:      -4.2      2.213      5.087
REMARK  7 active torsions:
REMARK  status: ('A' for Active; 'I' for Inactive)
REMARK    1  A    between atoms: C_2  and  C_3 
REMARK    2  A    between atoms: C_3  and  O_6 
REMARK    3  A    between atoms: C_3  and  C_4 
REMARK    4  A    between atoms: C_7  and  O_6 
REMARK    5  A    between atoms: C_9  and  C_10 
REMARK    6  A    between atoms: N_15  and  C_14 
REMARK    7  A    between atoms: N_20  and  C_19 
REMARK       I    between atoms: C_22  and  N_20 
ROOT
ATOM      1  C   LIG d   1      -2.651  78.770 115.626  0.00  0.00     0.161 C 
ATOM      2  C   LIG d   1      -1.382  79.173 116.074  0.00  0.00     0.016 C 
ATOM      3  C   LIG d   1      -0.447  78.289 116.660  0.00  0.00     0.038 C 
ATOM      4  C   LIG d   1      -0.661  76.903 116.700  0.00  0.00     0.028 C 
ATOM      5  C   LIG d   1      -2.136  76.519 116.719  0.00  0.00    -0.047 C 
ATOM      6  C   LIG d   1      -2.859  77.242 115.559  0.00  0.00     0.091 C 
ENDROOT
BRANCH   1   7
ATOM      7  O   LIG d   1      -2.930  79.370 114.345  0.00  0.00    -0.368 OA
BRANCH   7   8
ATOM      8  C   LIG d   1      -2.023  79.025 113.269  0.00  0.00     0.119 C 
BRANCH   8   9
ATOM      9  C   LIG d   1      -1.506  80.343 112.660  0.00  0.00     0.028 C 
ATOM     10  C   LIG d   1       0.007  80.530 112.863  0.00  0.00     0.006 C 
ENDBRANCH   8   9
BRANCH   8  11
ATOM     11  C   LIG d   1      -2.756  78.311 112.129  0.00  0.00     0.028 C 
ATOM     12  C   LIG d   1      -1.908  78.203 110.852  0.00  0.00     0.006 C 
ENDBRANCH   8  11
ENDBRANCH   7   8
ENDBRANCH   1   7
BRANCH   6  13
ATOM     13  N   LIG d   1      -4.323  76.987 115.556  0.00  0.00    -0.311 N 
ATOM     14  C   LIG d   1      -4.894  76.006 114.860  0.00  0.00     0.210 C 
ATOM     15  C   LIG d   1      -6.419  75.931 114.981  0.00  0.00     0.109 C 
ATOM     16  O   LIG d   1      -4.280  75.172 114.179  0.00  0.00    -0.276 OA
ATOM     17  H   LIG d   1      -4.893  77.598 116.107  0.00  0.00     0.149 HD
ENDBRANCH   6  13
BRANCH   5  18
ATOM     18  N   LIG d   1      -2.215  75.049 116.621  0.00  0.00     0.381 N 
ATOM     19  H   LIG d   1      -3.168  74.767 116.509  0.00  0.00    -0.090 HD
ATOM     20  H   LIG d   1      -1.865  74.647 117.472  0.00  0.00    -0.090 HD
ATOM     21  H   LIG d   1      -1.674  74.729 115.847  0.00  0.00    -0.090 HD
ENDBRANCH   5  18
BRANCH   3  22
ATOM     22  C   LIG d   1       0.701  78.796 117.250  0.00  0.00     0.382 C 
ATOM     23  O   LIG d   1       1.136  79.922 116.910  0.00  0.00    -0.241 OA
ATOM     24  O   LIG d   1       1.331  78.122 118.087  0.00  0.00    -0.241 OA
ENDBRANCH   3  22
TORSDOF 7
ENDMDL
MODEL 8
REMARK VINA RESULT:      -4.1      4.298      7.651
REMARK  7 active torsions:
REMARK  status: ('A' for Active; 'I' for Inactive)
REMARK    1  A    between atoms: C_2  and  C_3 
REMARK    2  A    between atoms: C_3  and  O_6 
REMARK    3  A    between atoms: C_3  and  C_4 
REMARK    4  A    between atoms: C_7  and  O_6 
REMARK    5  A    between atoms: C_9  and  C_10 
REMARK    6  A    between atoms: N_15  and  C_14 
REMARK    7  A    between atoms: N_20  and  C_19 
REMARK       I    between atoms: C_22  and  N_20 
ROOT
ATOM      1  C   LIG d   1       0.292  80.925 113.206  0.00  0.00     0.161 C 
ATOM      2  C   LIG d   1      -0.595  79.931 113.652  0.00  0.00     0.016 C 
ATOM      3  C   LIG d   1      -1.321  79.088 112.779  0.00  0.00     0.038 C 
ATOM      4  C   LIG d   1      -1.094  79.081 111.395  0.00  0.00     0.028 C 
ATOM      5  C   LIG d   1      -0.579  80.413 110.859  0.00  0.00    -0.047 C 
ATOM      6  C   LIG d   1       0.637  80.857 111.703  0.00  0.00     0.091 C 
ENDROOT
BRANCH   1   7
ATOM      7  O   LIG d   1       1.496  80.896 113.998  0.00  0.00    -0.368 OA
BRANCH   7   8
ATOM      8  C   LIG d   1       1.521  81.771 115.152  0.00  0.00     0.119 C 
BRANCH   8   9
ATOM      9  C   LIG d   1       2.352  83.012 114.775  0.00  0.00     0.028 C 
ATOM     10  C   LIG d   1       1.473  84.230 114.445  0.00  0.00     0.006 C 
ENDBRANCH   8   9
BRANCH   8  11
ATOM     11  C   LIG d   1       2.265  81.125 116.325  0.00  0.00     0.028 C 
ATOM     12  C   LIG d   1       2.248  81.995 117.592  0.00  0.00     0.006 C 
ENDBRANCH   8  11
ENDBRANCH   7   8
ENDBRANCH   1   7
BRANCH   6  13
ATOM     13  N   LIG d   1       1.151  82.192 111.299  0.00  0.00    -0.311 N 
ATOM     14  C   LIG d   1       2.442  82.452 111.102  0.00  0.00     0.210 C 
ATOM     15  C   LIG d   1       2.758  83.899 110.709  0.00  0.00     0.109 C 
ATOM     16  O   LIG d   1       3.353  81.614 111.184  0.00  0.00    -0.276 OA
ATOM     17  H   LIG d   1       0.477  82.923 111.180  0.00  0.00     0.149 HD
ENDBRANCH   6  13
BRANCH   5  18
ATOM     18  N   LIG d   1      -0.254  80.224 109.432  0.00  0.00     0.381 N 
ATOM     19  H   LIG d   1       0.048  81.091 109.036  0.00  0.00    -0.090 HD
ATOM     20  H   LIG d   1      -1.083  79.927 108.947  0.00  0.00    -0.090 HD
ATOM     21  H   LIG d   1       0.461  79.537 109.334  0.00  0.00    -0.090 HD
ENDBRANCH   5  18
BRANCH   3  22
ATOM     22  C   LIG d   1      -2.317  78.268 113.287  0.00  0.00     0.382 C 
ATOM     23  O   LIG d   1      -2.269  77.891 114.483  0.00  0.00    -0.241 OA
ATOM     24  O   LIG d   1      -3.239  77.864 112.553  0.00  0.00    -0.241 OA
ENDBRANCH   3  22
TORSDOF 7
ENDMDL
MODEL 9
REMARK VINA RESULT:      -4.1      2.862      5.153
REMARK  7 active torsions:
REMARK  status: ('A' for Active; 'I' for Inactive)
REMARK    1  A    between atoms: C_2  and  C_3 
REMARK    2  A    between atoms: C_3  and  O_6 
REMARK    3  A    between atoms: C_3  and  C_4 
REMARK    4  A    between atoms: C_7  and  O_6 
REMARK    5  A    between atoms: C_9  and  C_10 
REMARK    6  A    between atoms: N_15  and  C_14 
REMARK    7  A    between atoms: N_20  and  C_19 
REMARK       I    between atoms: C_22  and  N_20 
ROOT
ATOM      1  C   LIG d   1       0.057  78.204 116.366  0.00  0.00     0.161 C 
ATOM      2  C   LIG d   1      -1.005  78.635 115.553  0.00  0.00     0.016 C 
ATOM      3  C   LIG d   1      -1.876  77.750 114.877  0.00  0.00     0.038 C 
ATOM      4  C   LIG d   1      -1.837  76.364 115.090  0.00  0.00     0.028 C 
ATOM      5  C   LIG d   1      -0.462  75.854 115.508  0.00  0.00    -0.047 C 
ATOM      6  C   LIG d   1       0.046  76.698 116.700  0.00  0.00     0.091 C 
ENDROOT
BRANCH   1   7
ATOM      7  O   LIG d   1       0.092  78.985 117.577  0.00  0.00    -0.368 OA
BRANCH   7   8
ATOM      8  C   LIG d   1       1.152  79.969 117.670  0.00  0.00     0.119 C 
BRANCH   8   9
ATOM      9  C   LIG d   1       2.061  79.561 118.846  0.00  0.00     0.028 C 
ATOM     10  C   LIG d   1       3.440  79.067 118.378  0.00  0.00     0.006 C 
ENDBRANCH   8   9
BRANCH   8  11
ATOM     11  C   LIG d   1       0.601  81.348 118.043  0.00  0.00     0.028 C 
ATOM     12  C   LIG d   1      -0.727  81.271 118.813  0.00  0.00     0.006 C 
ENDBRANCH   8  11
ENDBRANCH   7   8
ENDBRANCH   1   7
BRANCH   6  13
ATOM     13  N   LIG d   1       1.421  76.319 117.117  0.00  0.00    -0.311 N 
ATOM     14  C   LIG d   1       1.680  75.528 118.157  0.00  0.00     0.210 C 
ATOM     15  C   LIG d   1       3.167  75.280 118.426  0.00  0.00     0.109 C 
ATOM     16  O   LIG d   1       0.818  74.981 118.861  0.00  0.00    -0.276 OA
ATOM     17  H   LIG d   1       2.179  76.693 116.581  0.00  0.00     0.149 HD
ENDBRANCH   6  13
BRANCH   5  18
ATOM     18  N   LIG d   1      -0.597  74.421 115.830  0.00  0.00     0.381 N 
ATOM     19  H   LIG d   1      -1.561  74.198 115.984  0.00  0.00    -0.090 HD
ATOM     20  H   LIG d   1      -0.090  74.229 116.676  0.00  0.00    -0.090 HD
ATOM     21  H   LIG d   1      -0.236  73.868 115.085  0.00  0.00    -0.090 HD
ENDBRANCH   5  18
BRANCH   3  22
ATOM     22  C   LIG d   1      -2.773  78.248 113.944  0.00  0.00     0.382 C 
ATOM     23  O   LIG d   1      -3.359  77.465 113.158  0.00  0.00    -0.241 OA
ATOM     24  O   LIG d   1      -2.970  79.474 113.849  0.00  0.00    -0.241 OA
ENDBRANCH   3  22
TORSDOF 7
ENDMDL
