MODEL 1
REMARK VINA RESULT:      -5.7      0.000      0.000
REMARK  7 active torsions:
REMARK  status: ('A' for Active; 'I' for Inactive)
REMARK    1  A    between atoms: C_2  and  C_3 
REMARK    2  A    between atoms: C_3  and  O_6 
REMARK    3  A    between atoms: C_3  and  C_4 
REMARK    4  A    between atoms: C_7  and  O_6 
REMARK    5  A    between atoms: C_9  and  C_10 
REMARK    6  A    between atoms: N_15  and  C_14 
REMARK    7  A    between atoms: N_20  and  C_19 
REMARK       I    between atoms: C_22  and  N_20 
ROOT
ATOM      1  C   LIG d   1      -3.146  77.647 114.219  0.00  0.00     0.161 C 
ATOM      2  C   LIG d   1      -3.289  78.830 113.476  0.00  0.00     0.016 C 
ATOM      3  C   LIG d   1      -2.242  79.762 113.288  0.00  0.00     0.038 C 
ATOM      4  C   LIG d   1      -0.930  79.497 113.706  0.00  0.00     0.028 C 
ATOM      5  C   LIG d   1      -0.854  78.548 114.897  0.00  0.00    -0.047 C 
ATOM      6  C   LIG d   1      -1.692  77.286 114.589  0.00  0.00     0.091 C 
ENDROOT
BRANCH   1   7
ATOM      7  O   LIG d   1      -3.771  76.552 113.519  0.00  0.00    -0.368 OA
BRANCH   7   8
ATOM      8  C   LIG d   1      -4.898  75.930 114.184  0.00  0.00     0.119 C 
BRANCH   8   9
ATOM      9  C   LIG d   1      -6.180  76.436 113.495  0.00  0.00     0.028 C 
ATOM     10  C   LIG d   1      -5.943  76.821 112.025  0.00  0.00     0.006 C 
ENDBRANCH   8   9
BRANCH   8  11
ATOM     11  C   LIG d   1      -5.010  76.393 115.640  0.00  0.00     0.028 C 
ATOM     12  C   LIG d   1      -6.457  76.702 116.056  0.00  0.00     0.006 C 
ENDBRANCH   8  11
ENDBRANCH   7   8
ENDBRANCH   1   7
BRANCH   6  13
ATOM     13  N   LIG d   1      -1.741  76.343 115.736  0.00  0.00    -0.311 N 
ATOM     14  C   LIG d   1      -1.355  75.071 115.656  0.00  0.00     0.210 C 
ATOM     15  C   LIG d   1      -1.506  74.266 116.951  0.00  0.00     0.109 C 
ATOM     16  O   LIG d   1      -0.873  74.540 114.644  0.00  0.00    -0.276 OA
ATOM     17  H   LIG d   1      -2.089  76.699 116.605  0.00  0.00     0.149 HD
ENDBRANCH   6  13
BRANCH   5  18
ATOM     18  N   LIG d   1       0.571  78.250 115.140  0.00  0.00     0.381 N 
ATOM     19  H   LIG d   1       0.927  77.676 114.402  0.00  0.00    -0.090 HD
ATOM     20  H   LIG d   1       0.654  77.742 116.003  0.00  0.00    -0.090 HD
ATOM     21  H   LIG d   1       1.092  79.097 115.193  0.00  0.00    -0.090 HD
ENDBRANCH   5  18
BRANCH   3  22
ATOM     22  C   LIG d   1      -2.513  80.992 112.709  0.00  0.00     0.382 C 
ATOM     23  O   LIG d   1      -3.701  81.351 112.526  0.00  0.00    -0.241 OA
ATOM     24  O   LIG d   1      -1.584  81.729 112.327  0.00  0.00    -0.241 OA
ENDBRANCH   3  22
TORSDOF 7
ENDMDL
MODEL 2
REMARK VINA RESULT:      -5.2      2.324      4.838
REMARK  7 active torsions:
REMARK  status: ('A' for Active; 'I' for Inactive)
REMARK    1  A    between atoms: C_2  and  C_3 
REMARK    2  A    between atoms: C_3  and  O_6 
REMARK    3  A    between atoms: C_3  and  C_4 
REMARK    4  A    between atoms: C_7  and  O_6 
REMARK    5  A    between atoms: C_9  and  C_10 
REMARK    6  A    between atoms: N_15  and  C_14 
REMARK    7  A    between atoms: N_20  and  C_19 
REMARK       I    between atoms: C_22  and  N_20 
ROOT
ATOM      1  C   LIG d   1      -2.996  75.739 114.755  0.00  0.00     0.161 C 
ATOM      2  C   LIG d   1      -3.076  75.390 116.114  0.00  0.00     0.016 C 
ATOM      3  C   LIG d   1      -2.682  76.253 117.163  0.00  0.00     0.038 C 
ATOM      4  C   LIG d   1      -2.322  77.588 116.929  0.00  0.00     0.028 C 
ATOM      5  C   LIG d   1      -1.744  77.825 115.538  0.00  0.00    -0.047 C 
ATOM      6  C   LIG d   1      -2.709  77.231 114.486  0.00  0.00     0.091 C 
ENDROOT
BRANCH   1   7
ATOM      7  O   LIG d   1      -4.198  75.328 114.074  0.00  0.00    -0.368 OA
BRANCH   7   8
ATOM      8  C   LIG d   1      -5.345  76.200 114.225  0.00  0.00     0.119 C 
BRANCH   8   9
ATOM      9  C   LIG d   1      -6.168  75.680 115.420  0.00  0.00     0.028 C 
ATOM     10  C   LIG d   1      -6.645  76.814 116.342  0.00  0.00     0.006 C 
ENDBRANCH   8   9
BRANCH   8  11
ATOM     11  C   LIG d   1      -6.281  76.104 113.016  0.00  0.00     0.028 C 
ATOM     12  C   LIG d   1      -6.073  77.247 112.010  0.00  0.00     0.006 C 
ENDBRANCH   8  11
ENDBRANCH   7   8
ENDBRANCH   1   7
BRANCH   6  13
ATOM     13  N   LIG d   1      -2.180  77.345 113.103  0.00  0.00    -0.311 N 
ATOM     14  C   LIG d   1      -2.496  78.341 112.276  0.00  0.00     0.210 C 
ATOM     15  C   LIG d   1      -1.855  78.256 110.887  0.00  0.00     0.109 C 
ATOM     16  O   LIG d   1      -3.221  79.302 112.573  0.00  0.00    -0.276 OA
ATOM     17  H   LIG d   1      -1.560  76.623 112.791  0.00  0.00     0.149 HD
ENDBRANCH   6  13
BRANCH   5  18
ATOM     18  N   LIG d   1      -1.541  79.277 115.381  0.00  0.00     0.381 N 
ATOM     19  H   LIG d   1      -1.881  79.572 114.488  0.00  0.00    -0.090 HD
ATOM     20  H   LIG d   1      -0.557  79.474 115.424  0.00  0.00    -0.090 HD
ATOM     21  H   LIG d   1      -2.018  79.768 116.105  0.00  0.00    -0.090 HD
ENDBRANCH   5  18
BRANCH   3  22
ATOM     22  C   LIG d   1      -2.609  75.768 118.460  0.00  0.00     0.382 C 
ATOM     23  O   LIG d   1      -2.279  74.575 118.666  0.00  0.00    -0.241 OA
ATOM     24  O   LIG d   1      -2.912  76.496 119.425  0.00  0.00    -0.241 OA
ENDBRANCH   3  22
TORSDOF 7
ENDMDL
MODEL 3
REMARK VINA RESULT:      -5.1      2.292      2.850
REMARK  7 active torsions:
REMARK  status: ('A' for Active; 'I' for Inactive)
REMARK    1  A    between atoms: C_2  and  C_3 
REMARK    2  A    between atoms: C_3  and  O_6 
REMARK    3  A    between atoms: C_3  and  C_4 
REMARK    4  A    between atoms: C_7  and  O_6 
REMARK    5  A    between atoms: C_9  and  C_10 
REMARK    6  A    between atoms: N_15  and  C_14 
REMARK    7  A    between atoms: N_20  and  C_19 
REMARK       I    between atoms: C_22  and  N_20 
ROOT
ATOM      1  C   LIG d   1      -2.110  78.651 115.378  0.00  0.00     0.161 C 
ATOM      2  C   LIG d   1      -2.602  79.759 114.666  0.00  0.00     0.016 C 
ATOM      3  C   LIG d   1      -2.404  79.943 113.279  0.00  0.00     0.038 C 
ATOM      4  C   LIG d   1      -1.825  78.950 112.474  0.00  0.00     0.028 C 
ATOM      5  C   LIG d   1      -0.864  78.040 113.232  0.00  0.00    -0.047 C 
ATOM      6  C   LIG d   1      -1.573  77.504 114.497  0.00  0.00     0.091 C 
ENDROOT
BRANCH   1   7
ATOM      7  O   LIG d   1      -3.123  78.160 116.278  0.00  0.00    -0.368 OA
BRANCH   7   8
ATOM      8  C   LIG d   1      -2.972  78.531 117.670  0.00  0.00     0.119 C 
BRANCH   8   9
ATOM      9  C   LIG d   1      -3.141  77.252 118.512  0.00  0.00     0.028 C 
ATOM     10  C   LIG d   1      -3.269  75.990 117.642  0.00  0.00     0.006 C 
ENDBRANCH   8   9
BRANCH   8  11
ATOM     11  C   LIG d   1      -4.099  79.466 118.122  0.00  0.00     0.028 C 
ATOM     12  C   LIG d   1      -5.485  79.000 117.650  0.00  0.00     0.006 C 
ENDBRANCH   8  11
ENDBRANCH   7   8
ENDBRANCH   1   7
BRANCH   6  13
ATOM     13  N   LIG d   1      -0.675  76.672 115.340  0.00  0.00    -0.311 N 
ATOM     14  C   LIG d   1      -0.611  75.345 115.254  0.00  0.00     0.210 C 
ATOM     15  C   LIG d   1       0.366  74.680 116.230  0.00  0.00     0.109 C 
ATOM     16  O   LIG d   1      -1.246  74.657 114.441  0.00  0.00    -0.276 OA
ATOM     17  H   LIG d   1      -0.101  77.152 116.006  0.00  0.00     0.149 HD
ENDBRANCH   6  13
BRANCH   5  18
ATOM     18  N   LIG d   1      -0.441  76.971 112.309  0.00  0.00     0.381 N 
ATOM     19  H   LIG d   1      -1.244  76.556 111.880  0.00  0.00    -0.090 HD
ATOM     20  H   LIG d   1       0.039  76.260 112.833  0.00  0.00    -0.090 HD
ATOM     21  H   LIG d   1       0.163  77.343 111.610  0.00  0.00    -0.090 HD
ENDBRANCH   5  18
BRANCH   3  22
ATOM     22  C   LIG d   1      -2.750  81.149 112.689  0.00  0.00     0.382 C 
ATOM     23  O   LIG d   1      -3.954  81.402 112.440  0.00  0.00    -0.241 OA
ATOM     24  O   LIG d   1      -1.871  81.969 112.363  0.00  0.00    -0.241 OA
ENDBRANCH   3  22
TORSDOF 7
ENDMDL
MODEL 4
REMARK VINA RESULT:      -5.0      1.771      2.555
REMARK  7 active torsions:
REMARK  status: ('A' for Active; 'I' for Inactive)
REMARK    1  A    between atoms: C_2  and  C_3 
REMARK    2  A    between atoms: C_3  and  O_6 
REMARK    3  A    between atoms: C_3  and  C_4 
REMARK    4  A    between atoms: C_7  and  O_6 
REMARK    5  A    between atoms: C_9  and  C_10 
REMARK    6  A    between atoms: N_15  and  C_14 
REMARK    7  A    between atoms: N_20  and  C_19 
REMARK       I    between atoms: C_22  and  N_20 
ROOT
ATOM      1  C   LIG d   1      -2.252  77.772 116.139  0.00  0.00     0.161 C 
ATOM      2  C   LIG d   1      -2.663  78.699 115.167  0.00  0.00     0.016 C 
ATOM      3  C   LIG d   1      -2.146  78.728 113.851  0.00  0.00     0.038 C 
ATOM      4  C   LIG d   1      -1.286  77.729 113.370  0.00  0.00     0.028 C 
ATOM      5  C   LIG d   1      -0.455  77.067 114.464  0.00  0.00    -0.047 C 
ATOM      6  C   LIG d   1      -1.397  76.606 115.600  0.00  0.00     0.091 C 
ENDROOT
BRANCH   1   7
ATOM      7  O   LIG d   1      -3.400  77.265 116.848  0.00  0.00    -0.368 OA
BRANCH   7   8
ATOM      8  C   LIG d   1      -4.624  77.153 116.081  0.00  0.00     0.119 C 
BRANCH   8   9
ATOM      9  C   LIG d   1      -5.792  77.524 117.016  0.00  0.00     0.028 C 
ATOM     10  C   LIG d   1      -5.321  78.277 118.272  0.00  0.00     0.006 C 
ENDBRANCH   8   9
BRANCH   8  11
ATOM     11  C   LIG d   1      -4.887  75.705 115.659  0.00  0.00     0.028 C 
ATOM     12  C   LIG d   1      -5.584  75.599 114.294  0.00  0.00     0.006 C 
ENDBRANCH   8  11
ENDBRANCH   7   8
ENDBRANCH   1   7
BRANCH   6  13
ATOM     13  N   LIG d   1      -0.656  76.023 116.749  0.00  0.00    -0.311 N 
ATOM     14  C   LIG d   1      -1.018  74.895 117.358  0.00  0.00     0.210 C 
ATOM     15  C   LIG d   1      -0.128  74.481 118.534  0.00  0.00     0.109 C 
ATOM     16  O   LIG d   1      -1.973  74.182 117.016  0.00  0.00    -0.276 OA
ATOM     17  H   LIG d   1       0.150  76.521 117.072  0.00  0.00     0.149 HD
ENDBRANCH   6  13
BRANCH   5  18
ATOM     18  N   LIG d   1       0.292  75.956 113.845  0.00  0.00     0.381 N 
ATOM     19  H   LIG d   1      -0.327  75.192 113.662  0.00  0.00    -0.090 HD
ATOM     20  H   LIG d   1       0.999  75.643 114.487  0.00  0.00    -0.090 HD
ATOM     21  H   LIG d   1       0.716  76.261 112.997  0.00  0.00    -0.090 HD
ENDBRANCH   5  18
BRANCH   3  22
ATOM     22  C   LIG d   1      -2.458  79.788 113.013  0.00  0.00     0.382 C 
ATOM     23  O   LIG d   1      -1.892  79.894 111.899  0.00  0.00    -0.241 OA
ATOM     24  O   LIG d   1      -3.266  80.664 113.377  0.00  0.00    -0.241 OA
ENDBRANCH   3  22
TORSDOF 7
ENDMDL
MODEL 5
REMARK VINA RESULT:      -5.0      2.477      5.763
REMARK  7 active torsions:
REMARK  status: ('A' for Active; 'I' for Inactive)
REMARK    1  A    between atoms: C_2  and  C_3 
REMARK    2  A    between atoms: C_3  and  O_6 
REMARK    3  A    between atoms: C_3  and  C_4 
REMARK    4  A    between atoms: C_7  and  O_6 
REMARK    5  A    between atoms: C_9  and  C_10 
REMARK    6  A    between atoms: N_15  and  C_14 
REMARK    7  A    between atoms: N_20  and  C_19 
REMARK       I    between atoms: C_22  and  N_20 
ROOT
ATOM      1  C   LIG d   1      -1.650  79.622 114.086  0.00  0.00     0.161 C 
ATOM      2  C   LIG d   1      -2.524  78.539 114.277  0.00  0.00     0.016 C 
ATOM      3  C   LIG d   1      -2.842  77.608 113.262  0.00  0.00     0.038 C 
ATOM      4  C   LIG d   1      -2.185  77.609 112.022  0.00  0.00     0.028 C 
ATOM      5  C   LIG d   1      -1.668  78.983 111.612  0.00  0.00    -0.047 C 
ATOM      6  C   LIG d   1      -0.838  79.575 112.775  0.00  0.00     0.091 C 
ENDROOT
BRANCH   1   7
ATOM      7  O   LIG d   1      -0.766  79.741 115.218  0.00  0.00    -0.368 OA
BRANCH   7   8
ATOM      8  C   LIG d   1      -0.821  78.665 116.186  0.00  0.00     0.119 C 
BRANCH   8   9
ATOM      9  C   LIG d   1      -0.959  79.304 117.582  0.00  0.00     0.028 C 
ATOM     10  C   LIG d   1      -1.937  78.534 118.486  0.00  0.00     0.006 C 
ENDBRANCH   8   9
BRANCH   8  11
ATOM     11  C   LIG d   1       0.495  77.883 116.227  0.00  0.00     0.028 C 
ATOM     12  C   LIG d   1       0.411  76.536 115.492  0.00  0.00     0.006 C 
ENDBRANCH   8  11
ENDBRANCH   7   8
ENDBRANCH   1   7
BRANCH   6  13
ATOM     13  N   LIG d   1      -0.364  80.954 112.489  0.00  0.00    -0.311 N 
ATOM     14  C   LIG d   1      -1.185  81.986 112.300  0.00  0.00     0.210 C 
ATOM     15  C   LIG d   1      -0.490  83.318 111.998  0.00  0.00     0.109 C 
ATOM     16  O   LIG d   1      -2.421  81.932 112.385  0.00  0.00    -0.276 OA
ATOM     17  H   LIG d   1       0.625  81.094 112.433  0.00  0.00     0.149 HD
ENDBRANCH   6  13
BRANCH   5  18
ATOM     18  N   LIG d   1      -0.887  78.814 110.372  0.00  0.00     0.381 N 
ATOM     19  H   LIG d   1      -0.018  78.362 110.578  0.00  0.00    -0.090 HD
ATOM     20  H   LIG d   1      -0.687  79.720 109.987  0.00  0.00    -0.090 HD
ATOM     21  H   LIG d   1      -1.403  78.272 109.715  0.00  0.00    -0.090 HD
ENDBRANCH   5  18
BRANCH   3  22
ATOM     22  C   LIG d   1      -3.857  76.686 113.469  0.00  0.00     0.382 C 
ATOM     23  O   LIG d   1      -3.597  75.574 113.990  0.00  0.00    -0.241 OA
ATOM     24  O   LIG d   1      -5.020  76.933 113.100  0.00  0.00    -0.241 OA
ENDBRANCH   3  22
TORSDOF 7
ENDMDL
MODEL 6
REMARK VINA RESULT:      -4.9      2.477      3.488
REMARK  7 active torsions:
REMARK  status: ('A' for Active; 'I' for Inactive)
REMARK    1  A    between atoms: C_2  and  C_3 
REMARK    2  A    between atoms: C_3  and  O_6 
REMARK    3  A    between atoms: C_3  and  C_4 
REMARK    4  A    between atoms: C_7  and  O_6 
REMARK    5  A    between atoms: C_9  and  C_10 
REMARK    6  A    between atoms: N_15  and  C_14 
REMARK    7  A    between atoms: N_20  and  C_19 
REMARK       I    between atoms: C_22  and  N_20 
ROOT
ATOM      1  C   LIG d   1      -2.731  78.109 114.369  0.00  0.00     0.161 C 
ATOM      2  C   LIG d   1      -2.829  77.766 113.010  0.00  0.00     0.016 C 
ATOM      3  C   LIG d   1      -1.891  78.174 112.035  0.00  0.00     0.038 C 
ATOM      4  C   LIG d   1      -0.700  78.831 112.381  0.00  0.00     0.028 C 
ATOM      5  C   LIG d   1      -0.805  79.637 113.671  0.00  0.00    -0.047 C 
ATOM      6  C   LIG d   1      -1.381  78.730 114.783  0.00  0.00     0.091 C 
ENDROOT
BRANCH   1   7
ATOM      7  O   LIG d   1      -3.024  76.958 115.186  0.00  0.00    -0.368 OA
BRANCH   7   8
ATOM      8  C   LIG d   1      -4.347  76.914 115.775  0.00  0.00     0.119 C 
BRANCH   8   9
ATOM      9  C   LIG d   1      -4.180  77.075 117.298  0.00  0.00     0.028 C 
ATOM     10  C   LIG d   1      -2.861  76.474 117.811  0.00  0.00     0.006 C 
ENDBRANCH   8   9
BRANCH   8  11
ATOM     11  C   LIG d   1      -4.999  75.542 115.581  0.00  0.00     0.028 C 
ATOM     12  C   LIG d   1      -5.566  75.347 114.165  0.00  0.00     0.006 C 
ENDBRANCH   8  11
ENDBRANCH   7   8
ENDBRANCH   1   7
BRANCH   6  13
ATOM     13  N   LIG d   1      -1.595  79.464 116.058  0.00  0.00    -0.311 N 
ATOM     14  C   LIG d   1      -0.708  79.481 117.052  0.00  0.00     0.210 C 
ATOM     15  C   LIG d   1      -1.136  80.282 118.286  0.00  0.00     0.109 C 
ATOM     16  O   LIG d   1       0.405  78.937 117.016  0.00  0.00    -0.276 OA
ATOM     17  H   LIG d   1      -2.459  79.959 116.159  0.00  0.00     0.149 HD
ENDBRANCH   6  13
BRANCH   5  18
ATOM     18  N   LIG d   1       0.540  80.154 113.985  0.00  0.00     0.381 N 
ATOM     19  H   LIG d   1       0.578  80.441 114.942  0.00  0.00    -0.090 HD
ATOM     20  H   LIG d   1       0.723  80.956 113.407  0.00  0.00    -0.090 HD
ATOM     21  H   LIG d   1       1.224  79.450 113.815  0.00  0.00    -0.090 HD
ENDBRANCH   5  18
BRANCH   3  22
ATOM     22  C   LIG d   1      -2.159  77.961 110.691  0.00  0.00     0.382 C 
ATOM     23  O   LIG d   1      -3.162  77.289 110.351  0.00  0.00    -0.241 OA
ATOM     24  O   LIG d   1      -1.385  78.394 109.816  0.00  0.00    -0.241 OA
ENDBRANCH   3  22
TORSDOF 7
ENDMDL
MODEL 7
REMARK VINA RESULT:      -4.9      2.528      5.323
REMARK  7 active torsions:
REMARK  status: ('A' for Active; 'I' for Inactive)
REMARK    1  A    between atoms: C_2  and  C_3 
REMARK    2  A    between atoms: C_3  and  O_6 
REMARK    3  A    between atoms: C_3  and  C_4 
REMARK    4  A    between atoms: C_7  and  O_6 
REMARK    5  A    between atoms: C_9  and  C_10 
REMARK    6  A    between atoms: N_15  and  C_14 
REMARK    7  A    between atoms: N_20  and  C_19 
REMARK       I    between atoms: C_22  and  N_20 
ROOT
ATOM      1  C   LIG d   1      -2.038  77.062 114.102  0.00  0.00     0.161 C 
ATOM      2  C   LIG d   1      -0.864  76.888 114.854  0.00  0.00     0.016 C 
ATOM      3  C   LIG d   1      -0.792  76.070 116.005  0.00  0.00     0.038 C 
ATOM      4  C   LIG d   1      -1.857  75.245 116.397  0.00  0.00     0.028 C 
ATOM      5  C   LIG d   1      -3.221  75.771 115.962  0.00  0.00    -0.047 C 
ATOM      6  C   LIG d   1      -3.180  76.084 114.449  0.00  0.00     0.091 C 
ENDROOT
BRANCH   1   7
ATOM      7  O   LIG d   1      -1.731  76.995 112.695  0.00  0.00    -0.368 OA
BRANCH   7   8
ATOM      8  C   LIG d   1      -2.241  78.078 111.879  0.00  0.00     0.119 C 
BRANCH   8   9
ATOM      9  C   LIG d   1      -1.821  77.798 110.423  0.00  0.00     0.028 C 
ATOM     10  C   LIG d   1      -0.539  78.550 110.027  0.00  0.00     0.006 C 
ENDBRANCH   8   9
BRANCH   8  11
ATOM     11  C   LIG d   1      -1.578  79.410 112.243  0.00  0.00     0.028 C 
ATOM     12  C   LIG d   1      -2.571  80.430 112.822  0.00  0.00     0.006 C 
ENDBRANCH   8  11
ENDBRANCH   7   8
ENDBRANCH   1   7
BRANCH   6  13
ATOM     13  N   LIG d   1      -4.449  76.683 113.959  0.00  0.00    -0.311 N 
ATOM     14  C   LIG d   1      -5.486  75.960 113.538  0.00  0.00     0.210 C 
ATOM     15  C   LIG d   1      -6.689  76.776 113.056  0.00  0.00     0.109 C 
ATOM     16  O   LIG d   1      -5.535  74.721 113.548  0.00  0.00    -0.276 OA
ATOM     17  H   LIG d   1      -4.507  77.682 113.947  0.00  0.00     0.149 HD
ENDBRANCH   6  13
BRANCH   5  18
ATOM     18  N   LIG d   1      -4.226  74.749 116.314  0.00  0.00     0.381 N 
ATOM     19  H   LIG d   1      -3.966  74.300 117.169  0.00  0.00    -0.090 HD
ATOM     20  H   LIG d   1      -4.251  74.055 115.588  0.00  0.00    -0.090 HD
ATOM     21  H   LIG d   1      -5.123  75.171 116.411  0.00  0.00    -0.090 HD
ENDBRANCH   5  18
BRANCH   3  22
ATOM     22  C   LIG d   1       0.343  76.101 116.800  0.00  0.00     0.382 C 
ATOM     23  O   LIG d   1       1.404  76.606 116.359  0.00  0.00    -0.241 OA
ATOM     24  O   LIG d   1       0.333  75.591 117.937  0.00  0.00    -0.241 OA
ENDBRANCH   3  22
TORSDOF 7
ENDMDL
MODEL 8
REMARK VINA RESULT:      -4.8      2.419      4.387
REMARK  7 active torsions:
REMARK  status: ('A' for Active; 'I' for Inactive)
REMARK    1  A    between atoms: C_2  and  C_3 
REMARK    2  A    between atoms: C_3  and  O_6 
REMARK    3  A    between atoms: C_3  and  C_4 
REMARK    4  A    between atoms: C_7  and  O_6 
REMARK    5  A    between atoms: C_9  and  C_10 
REMARK    6  A    between atoms: N_15  and  C_14 
REMARK    7  A    between atoms: N_20  and  C_19 
REMARK       I    between atoms: C_22  and  N_20 
ROOT
ATOM      1  C   LIG d   1      -2.239  76.668 114.045  0.00  0.00     0.161 C 
ATOM      2  C   LIG d   1      -1.401  77.519 113.305  0.00  0.00     0.016 C 
ATOM      3  C   LIG d   1      -1.862  78.339 112.249  0.00  0.00     0.038 C 
ATOM      4  C   LIG d   1      -3.227  78.477 111.960  0.00  0.00     0.028 C 
ATOM      5  C   LIG d   1      -4.056  77.257 112.348  0.00  0.00    -0.047 C 
ATOM      6  C   LIG d   1      -3.749  76.889 113.817  0.00  0.00     0.091 C 
ENDROOT
BRANCH   1   7
ATOM      7  O   LIG d   1      -1.923  76.771 115.448  0.00  0.00    -0.368 OA
BRANCH   7   8
ATOM      8  C   LIG d   1      -1.435  75.563 116.082  0.00  0.00     0.119 C 
BRANCH   8   9
ATOM      9  C   LIG d   1      -2.416  75.207 117.216  0.00  0.00     0.028 C 
ATOM     10  C   LIG d   1      -3.154  76.441 117.762  0.00  0.00     0.006 C 
ENDBRANCH   8   9
BRANCH   8  11
ATOM     11  C   LIG d   1      -0.088  75.801 116.770  0.00  0.00     0.028 C 
ATOM     12  C   LIG d   1       0.444  74.549 117.486  0.00  0.00     0.006 C 
ENDBRANCH   8  11
ENDBRANCH   7   8
ENDBRANCH   1   7
BRANCH   6  13
ATOM     13  N   LIG d   1      -4.454  75.655 114.251  0.00  0.00    -0.311 N 
ATOM     14  C   LIG d   1      -5.640  75.663 114.857  0.00  0.00     0.210 C 
ATOM     15  C   LIG d   1      -6.181  74.281 115.239  0.00  0.00     0.109 C 
ATOM     16  O   LIG d   1      -6.311  76.681 115.085  0.00  0.00    -0.276 OA
ATOM     17  H   LIG d   1      -3.995  74.782 114.077  0.00  0.00     0.149 HD
ENDBRANCH   6  13
BRANCH   5  18
ATOM     18  N   LIG d   1      -5.474  77.590 112.119  0.00  0.00     0.381 N 
ATOM     19  H   LIG d   1      -5.912  77.822 112.988  0.00  0.00    -0.090 HD
ATOM     20  H   LIG d   1      -5.940  76.786 111.737  0.00  0.00    -0.090 HD
ATOM     21  H   LIG d   1      -5.547  78.357 111.487  0.00  0.00    -0.090 HD
ENDBRANCH   5  18
BRANCH   3  22
ATOM     22  C   LIG d   1      -0.948  79.001 111.444  0.00  0.00     0.382 C 
ATOM     23  O   LIG d   1      -0.954  78.814 110.204  0.00  0.00    -0.241 OA
ATOM     24  O   LIG d   1      -0.088  79.749 111.947  0.00  0.00    -0.241 OA
ENDBRANCH   3  22
TORSDOF 7
ENDMDL
MODEL 9
REMARK VINA RESULT:      -4.8      2.457      4.302
REMARK  7 active torsions:
REMARK  status: ('A' for Active; 'I' for Inactive)
REMARK    1  A    between atoms: C_2  and  C_3 
REMARK    2  A    between atoms: C_3  and  O_6 
REMARK    3  A    between atoms: C_3  and  C_4 
REMARK    4  A    between atoms: C_7  and  O_6 
REMARK    5  A    between atoms: C_9  and  C_10 
REMARK    6  A    between atoms: N_15  and  C_14 
REMARK    7  A    between atoms: N_20  and  C_19 
REMARK       I    between atoms: C_22  and  N_20 
ROOT
ATOM      1  C   LIG d   1      -2.747  77.221 114.857  0.00  0.00     0.161 C 
ATOM      2  C   LIG d   1      -2.695  77.144 116.258  0.00  0.00     0.016 C 
ATOM      3  C   LIG d   1      -1.666  77.729 117.032  0.00  0.00     0.038 C 
ATOM      4  C   LIG d   1      -0.694  78.565 116.463  0.00  0.00     0.028 C 
ATOM      5  C   LIG d   1      -0.416  78.258 114.995  0.00  0.00    -0.047 C 
ATOM      6  C   LIG d   1      -1.757  78.222 114.227  0.00  0.00     0.091 C 
ENDROOT
BRANCH   1   7
ATOM      7  O   LIG d   1      -4.093  77.514 114.433  0.00  0.00    -0.368 OA
BRANCH   7   8
ATOM      8  C   LIG d   1      -4.712  76.540 113.557  0.00  0.00     0.119 C 
BRANCH   8   9
ATOM      9  C   LIG d   1      -5.104  77.269 112.257  0.00  0.00     0.028 C 
ATOM     10  C   LIG d   1      -6.569  77.020 111.863  0.00  0.00     0.006 C 
ENDBRANCH   8   9
BRANCH   8  11
ATOM     11  C   LIG d   1      -6.028  76.020 114.143  0.00  0.00     0.028 C 
ATOM     12  C   LIG d   1      -5.827  74.841 115.107  0.00  0.00     0.006 C 
ENDBRANCH   8  11
ENDBRANCH   7   8
ENDBRANCH   1   7
BRANCH   6  13
ATOM     13  N   LIG d   1      -1.582  77.845 112.800  0.00  0.00    -0.311 N 
ATOM     14  C   LIG d   1      -1.592  78.727 111.802  0.00  0.00     0.210 C 
ATOM     15  C   LIG d   1      -1.416  78.125 110.404  0.00  0.00     0.109 C 
ATOM     16  O   LIG d   1      -1.699  79.954 111.944  0.00  0.00    -0.276 OA
ATOM     17  H   LIG d   1      -1.459  76.872 112.597  0.00  0.00     0.149 HD
ENDBRANCH   6  13
BRANCH   5  18
ATOM     18  N   LIG d   1       0.512  79.288 114.492  0.00  0.00     0.381 N 
ATOM     19  H   LIG d   1       0.536  79.263 113.492  0.00  0.00    -0.090 HD
ATOM     20  H   LIG d   1       1.435  79.090 114.835  0.00  0.00    -0.090 HD
ATOM     21  H   LIG d   1       0.220  80.189 114.802  0.00  0.00    -0.090 HD
ENDBRANCH   5  18
BRANCH   3  22
ATOM     22  C   LIG d   1      -1.580  77.446 118.387  0.00  0.00     0.382 C 
ATOM     23  O   LIG d   1      -0.459  77.404 118.948  0.00  0.00    -0.241 OA
ATOM     24  O   LIG d   1      -2.606  77.190 119.045  0.00  0.00    -0.241 OA
ENDBRANCH   3  22
TORSDOF 7
ENDMDL
