MODEL 1
REMARK VINA RESULT:      -4.7      0.000      0.000
REMARK  7 active torsions:
REMARK  status: ('A' for Active; 'I' for Inactive)
REMARK    1  A    between atoms: C_2  and  C_3 
REMARK    2  A    between atoms: C_3  and  O_6 
REMARK    3  A    between atoms: C_3  and  C_4 
REMARK    4  A    between atoms: C_7  and  O_6 
REMARK    5  A    between atoms: C_9  and  C_10 
REMARK    6  A    between atoms: N_15  and  C_14 
REMARK    7  A    between atoms: N_20  and  C_19 
REMARK       I    between atoms: C_22  and  N_20 
ROOT
ATOM      1  C   LIG d   1      -2.850  78.363 115.393  0.00  0.00     0.161 C 
ATOM      2  C   LIG d   1      -2.877  79.429 114.478  0.00  0.00     0.016 C 
ATOM      3  C   LIG d   1      -2.251  79.384 113.211  0.00  0.00     0.038 C 
ATOM      4  C   LIG d   1      -1.681  78.205 112.708  0.00  0.00     0.028 C 
ATOM      5  C   LIG d   1      -1.188  77.258 113.796  0.00  0.00    -0.047 C 
ATOM      6  C   LIG d   1      -2.327  77.030 114.816  0.00  0.00     0.091 C 
ENDROOT
BRANCH   1   7
ATOM      7  O   LIG d   1      -4.158  78.181 115.970  0.00  0.00    -0.368 OA
BRANCH   7   8
ATOM      8  C   LIG d   1      -4.406  78.875 117.217  0.00  0.00     0.119 C 
BRANCH   8   9
ATOM      9  C   LIG d   1      -3.861  77.990 118.355  0.00  0.00     0.028 C 
ATOM     10  C   LIG d   1      -4.590  76.639 118.449  0.00  0.00     0.006 C 
ENDBRANCH   8   9
BRANCH   8  11
ATOM     11  C   LIG d   1      -5.907  79.009 117.491  0.00  0.00     0.028 C 
ATOM     12  C   LIG d   1      -6.339  80.462 117.746  0.00  0.00     0.006 C 
ENDBRANCH   8  11
ENDBRANCH   7   8
ENDBRANCH   1   7
BRANCH   6  13
ATOM     13  N   LIG d   1      -1.903  76.182 115.960  0.00  0.00    -0.311 N 
ATOM     14  C   LIG d   1      -2.077  74.862 115.997  0.00  0.00     0.210 C 
ATOM     15  C   LIG d   1      -1.585  74.181 117.279  0.00  0.00     0.109 C 
ATOM     16  O   LIG d   1      -2.562  74.186 115.078  0.00  0.00    -0.276 OA
ATOM     17  H   LIG d   1      -1.472  76.644 116.736  0.00  0.00     0.149 HD
ENDBRANCH   6  13
BRANCH   5  18
ATOM     18  N   LIG d   1      -0.745  76.014 113.138  0.00  0.00     0.381 N 
ATOM     19  H   LIG d   1      -1.180  75.932 112.241  0.00  0.00    -0.090 HD
ATOM     20  H   LIG d   1      -1.029  75.231 113.699  0.00  0.00    -0.090 HD
ATOM     21  H   LIG d   1       0.246  76.018 113.035  0.00  0.00    -0.090 HD
ENDBRANCH   5  18
BRANCH   3  22
ATOM     22  C   LIG d   1      -2.157  80.539 112.449  0.00  0.00     0.382 C 
ATOM     23  O   LIG d   1      -3.109  81.356 112.429  0.00  0.00    -0.241 OA
ATOM     24  O   LIG d   1      -1.151  80.752 111.747  0.00  0.00    -0.241 OA
ENDBRANCH   3  22
TORSDOF 7
ENDMDL
MODEL 2
REMARK VINA RESULT:      -4.6      0.690      1.779
REMARK  7 active torsions:
REMARK  status: ('A' for Active; 'I' for Inactive)
REMARK    1  A    between atoms: C_2  and  C_3 
REMARK    2  A    between atoms: C_3  and  O_6 
REMARK    3  A    between atoms: C_3  and  C_4 
REMARK    4  A    between atoms: C_7  and  O_6 
REMARK    5  A    between atoms: C_9  and  C_10 
REMARK    6  A    between atoms: N_15  and  C_14 
REMARK    7  A    between atoms: N_20  and  C_19 
REMARK       I    between atoms: C_22  and  N_20 
ROOT
ATOM      1  C   LIG d   1      -2.919  78.390 115.521  0.00  0.00     0.161 C 
ATOM      2  C   LIG d   1      -2.976  79.479 114.635  0.00  0.00     0.016 C 
ATOM      3  C   LIG d   1      -2.345  79.485 113.370  0.00  0.00     0.038 C 
ATOM      4  C   LIG d   1      -1.738  78.338 112.838  0.00  0.00     0.028 C 
ATOM      5  C   LIG d   1      -1.221  77.377 113.903  0.00  0.00    -0.047 C 
ATOM      6  C   LIG d   1      -2.356  77.089 114.913  0.00  0.00     0.091 C 
ENDROOT
BRANCH   1   7
ATOM      7  O   LIG d   1      -4.223  78.154 116.089  0.00  0.00    -0.368 OA
BRANCH   7   8
ATOM      8  C   LIG d   1      -4.391  78.528 117.478  0.00  0.00     0.119 C 
BRANCH   8   9
ATOM      9  C   LIG d   1      -5.240  79.813 117.512  0.00  0.00     0.028 C 
ATOM     10  C   LIG d   1      -5.029  80.622 118.803  0.00  0.00     0.006 C 
ENDBRANCH   8   9
BRANCH   8  11
ATOM     11  C   LIG d   1      -3.053  78.909 118.118  0.00  0.00     0.028 C 
ATOM     12  C   LIG d   1      -2.582  77.889 119.167  0.00  0.00     0.006 C 
ENDBRANCH   8  11
ENDBRANCH   7   8
ENDBRANCH   1   7
BRANCH   6  13
ATOM     13  N   LIG d   1      -1.909  76.224 116.035  0.00  0.00    -0.311 N 
ATOM     14  C   LIG d   1      -2.036  74.898 116.034  0.00  0.00     0.210 C 
ATOM     15  C   LIG d   1      -1.529  74.199 117.300  0.00  0.00     0.109 C 
ATOM     16  O   LIG d   1      -2.490  74.232 115.092  0.00  0.00    -0.276 OA
ATOM     17  H   LIG d   1      -1.500  76.679 116.828  0.00  0.00     0.149 HD
ENDBRANCH   6  13
BRANCH   5  18
ATOM     18  N   LIG d   1      -0.738  76.165 113.214  0.00  0.00     0.381 N 
ATOM     19  H   LIG d   1      -0.472  75.476 113.888  0.00  0.00    -0.090 HD
ATOM     20  H   LIG d   1       0.071  76.403 112.668  0.00  0.00    -0.090 HD
ATOM     21  H   LIG d   1      -1.453  75.803 112.622  0.00  0.00    -0.090 HD
ENDBRANCH   5  18
BRANCH   3  22
ATOM     22  C   LIG d   1      -2.284  80.662 112.639  0.00  0.00     0.382 C 
ATOM     23  O   LIG d   1      -1.181  81.074 112.205  0.00  0.00    -0.241 OA
ATOM     24  O   LIG d   1      -3.311  81.339 112.445  0.00  0.00    -0.241 OA
ENDBRANCH   3  22
TORSDOF 7
ENDMDL
MODEL 3
REMARK VINA RESULT:      -4.5      2.426      3.115
REMARK  7 active torsions:
REMARK  status: ('A' for Active; 'I' for Inactive)
REMARK    1  A    between atoms: C_2  and  C_3 
REMARK    2  A    between atoms: C_3  and  O_6 
REMARK    3  A    between atoms: C_3  and  C_4 
REMARK    4  A    between atoms: C_7  and  O_6 
REMARK    5  A    between atoms: C_9  and  C_10 
REMARK    6  A    between atoms: N_15  and  C_14 
REMARK    7  A    between atoms: N_20  and  C_19 
REMARK       I    between atoms: C_22  and  N_20 
ROOT
ATOM      1  C   LIG d   1      -2.728  76.686 115.304  0.00  0.00     0.161 C 
ATOM      2  C   LIG d   1      -2.888  77.599 114.248  0.00  0.00     0.016 C 
ATOM      3  C   LIG d   1      -1.960  78.626 113.961  0.00  0.00     0.038 C 
ATOM      4  C   LIG d   1      -0.725  78.716 114.621  0.00  0.00     0.028 C 
ATOM      5  C   LIG d   1      -0.746  78.128 116.027  0.00  0.00    -0.047 C 
ATOM      6  C   LIG d   1      -1.333  76.699 115.965  0.00  0.00     0.091 C 
ENDROOT
BRANCH   1   7
ATOM      7  O   LIG d   1      -3.056  75.356 114.854  0.00  0.00    -0.368 OA
BRANCH   7   8
ATOM      8  C   LIG d   1      -4.275  74.785 115.390  0.00  0.00     0.119 C 
BRANCH   8   9
ATOM      9  C   LIG d   1      -5.386  75.001 114.346  0.00  0.00     0.028 C 
ATOM     10  C   LIG d   1      -6.434  76.028 114.808  0.00  0.00     0.006 C 
ENDBRANCH   8   9
BRANCH   8  11
ATOM     11  C   LIG d   1      -4.740  75.538 116.640  0.00  0.00     0.028 C 
ATOM     12  C   LIG d   1      -4.810  74.639 117.885  0.00  0.00     0.006 C 
ENDBRANCH   8  11
ENDBRANCH   7   8
ENDBRANCH   1   7
BRANCH   6  13
ATOM     13  N   LIG d   1      -1.467  76.082 117.310  0.00  0.00    -0.311 N 
ATOM     14  C   LIG d   1      -0.966  74.888 117.623  0.00  0.00     0.210 C 
ATOM     15  C   LIG d   1      -1.234  74.430 119.059  0.00  0.00     0.109 C 
ATOM     16  O   LIG d   1      -0.296  74.180 116.856  0.00  0.00    -0.276 OA
ATOM     17  H   LIG d   1      -1.970  76.602 118.003  0.00  0.00     0.149 HD
ENDBRANCH   6  13
BRANCH   5  18
ATOM     18  N   LIG d   1       0.635  78.163 116.546  0.00  0.00     0.381 N 
ATOM     19  H   LIG d   1       0.789  79.019 117.041  0.00  0.00    -0.090 HD
ATOM     20  H   LIG d   1       1.274  78.127 115.771  0.00  0.00    -0.090 HD
ATOM     21  H   LIG d   1       0.791  77.388 117.151  0.00  0.00    -0.090 HD
ENDBRANCH   5  18
BRANCH   3  22
ATOM     22  C   LIG d   1      -2.282  79.602 113.029  0.00  0.00     0.382 C 
ATOM     23  O   LIG d   1      -1.846  79.517 111.856  0.00  0.00    -0.241 OA
ATOM     24  O   LIG d   1      -2.966  80.589 113.359  0.00  0.00    -0.241 OA
ENDBRANCH   3  22
TORSDOF 7
ENDMDL
MODEL 4
REMARK VINA RESULT:      -4.2      2.755      5.588
REMARK  7 active torsions:
REMARK  status: ('A' for Active; 'I' for Inactive)
REMARK    1  A    between atoms: C_2  and  C_3 
REMARK    2  A    between atoms: C_3  and  O_6 
REMARK    3  A    between atoms: C_3  and  C_4 
REMARK    4  A    between atoms: C_7  and  O_6 
REMARK    5  A    between atoms: C_9  and  C_10 
REMARK    6  A    between atoms: N_15  and  C_14 
REMARK    7  A    between atoms: N_20  and  C_19 
REMARK       I    between atoms: C_22  and  N_20 
ROOT
ATOM      1  C   LIG d   1      -1.131  75.799 115.301  0.00  0.00     0.161 C 
ATOM      2  C   LIG d   1      -0.868  75.168 116.528  0.00  0.00     0.016 C 
ATOM      3  C   LIG d   1      -0.433  75.860 117.681  0.00  0.00     0.038 C 
ATOM      4  C   LIG d   1      -0.376  77.261 117.727  0.00  0.00     0.028 C 
ATOM      5  C   LIG d   1      -0.147  77.904 116.363  0.00  0.00    -0.047 C 
ATOM      6  C   LIG d   1      -1.182  77.339 115.363  0.00  0.00     0.091 C 
ENDROOT
BRANCH   1   7
ATOM      7  O   LIG d   1      -2.352  75.280 114.737  0.00  0.00    -0.368 OA
BRANCH   7   8
ATOM      8  C   LIG d   1      -3.576  75.646 115.420  0.00  0.00     0.119 C 
BRANCH   8   9
ATOM      9  C   LIG d   1      -4.305  74.342 115.795  0.00  0.00     0.028 C 
ATOM     10  C   LIG d   1      -4.475  74.180 117.315  0.00  0.00     0.006 C 
ENDBRANCH   8   9
BRANCH   8  11
ATOM     11  C   LIG d   1      -4.533  76.392 114.486  0.00  0.00     0.028 C 
ATOM     12  C   LIG d   1      -5.669  75.500 113.961  0.00  0.00     0.006 C 
ENDBRANCH   8  11
ENDBRANCH   7   8
ENDBRANCH   1   7
BRANCH   6  13
ATOM     13  N   LIG d   1      -0.975  77.852 113.984  0.00  0.00    -0.311 N 
ATOM     14  C   LIG d   1      -1.646  78.886 113.478  0.00  0.00     0.210 C 
ATOM     15  C   LIG d   1      -1.293  79.238 112.029  0.00  0.00     0.109 C 
ATOM     16  O   LIG d   1      -2.476  79.564 114.101  0.00  0.00    -0.276 OA
ATOM     17  H   LIG d   1      -0.297  77.380 113.418  0.00  0.00     0.149 HD
ENDBRANCH   6  13
BRANCH   5  18
ATOM     18  N   LIG d   1      -0.247  79.365 116.536  0.00  0.00     0.381 N 
ATOM     19  H   LIG d   1       0.640  79.790 116.352  0.00  0.00    -0.090 HD
ATOM     20  H   LIG d   1      -0.500  79.563 117.488  0.00  0.00    -0.090 HD
ATOM     21  H   LIG d   1      -0.935  79.735 115.918  0.00  0.00    -0.090 HD
ENDBRANCH   5  18
BRANCH   3  22
ATOM     22  C   LIG d   1      -0.010  75.147 118.793  0.00  0.00     0.382 C 
ATOM     23  O   LIG d   1      -0.849  74.554 119.513  0.00  0.00    -0.241 OA
ATOM     24  O   LIG d   1       1.194  75.126 119.109  0.00  0.00    -0.241 OA
ENDBRANCH   3  22
TORSDOF 7
ENDMDL
MODEL 5
REMARK VINA RESULT:      -4.2      2.564      5.491
REMARK  7 active torsions:
REMARK  status: ('A' for Active; 'I' for Inactive)
REMARK    1  A    between atoms: C_2  and  C_3 
REMARK    2  A    between atoms: C_3  and  O_6 
REMARK    3  A    between atoms: C_3  and  C_4 
REMARK    4  A    between atoms: C_7  and  O_6 
REMARK    5  A    between atoms: C_9  and  C_10 
REMARK    6  A    between atoms: N_15  and  C_14 
REMARK    7  A    between atoms: N_20  and  C_19 
REMARK       I    between atoms: C_22  and  N_20 
ROOT
ATOM      1  C   LIG d   1      -1.728  76.035 115.063  0.00  0.00     0.161 C 
ATOM      2  C   LIG d   1      -1.678  75.215 116.202  0.00  0.00     0.016 C 
ATOM      3  C   LIG d   1      -0.988  75.568 117.385  0.00  0.00     0.038 C 
ATOM      4  C   LIG d   1      -0.423  76.839 117.562  0.00  0.00     0.028 C 
ATOM      5  C   LIG d   1      -0.014  77.509 116.254  0.00  0.00    -0.047 C 
ATOM      6  C   LIG d   1      -1.212  77.473 115.277  0.00  0.00     0.091 C 
ENDROOT
BRANCH   1   7
ATOM      7  O   LIG d   1      -3.070  76.058 114.536  0.00  0.00    -0.368 OA
BRANCH   7   8
ATOM      8  C   LIG d   1      -4.125  75.703 115.463  0.00  0.00     0.119 C 
BRANCH   8   9
ATOM      9  C   LIG d   1      -5.166  74.875 114.685  0.00  0.00     0.028 C 
ATOM     10  C   LIG d   1      -6.016  75.741 113.739  0.00  0.00     0.006 C 
ENDBRANCH   8   9
BRANCH   8  11
ATOM     11  C   LIG d   1      -4.878  76.944 115.952  0.00  0.00     0.028 C 
ATOM     12  C   LIG d   1      -4.446  77.386 117.359  0.00  0.00     0.006 C 
ENDBRANCH   8  11
ENDBRANCH   7   8
ENDBRANCH   1   7
BRANCH   6  13
ATOM     13  N   LIG d   1      -0.871  78.033 113.943  0.00  0.00    -0.311 N 
ATOM     14  C   LIG d   1      -1.519  79.057 113.391  0.00  0.00     0.210 C 
ATOM     15  C   LIG d   1      -1.020  79.464 112.001  0.00  0.00     0.109 C 
ATOM     16  O   LIG d   1      -2.438  79.689 113.934  0.00  0.00    -0.276 OA
ATOM     17  H   LIG d   1      -0.117  77.600 113.446  0.00  0.00     0.149 HD
ENDBRANCH   6  13
BRANCH   5  18
ATOM     18  N   LIG d   1       0.431  78.878 116.575  0.00  0.00     0.381 N 
ATOM     19  H   LIG d   1       1.276  79.084 116.081  0.00  0.00    -0.090 HD
ATOM     20  H   LIG d   1       0.618  78.937 117.560  0.00  0.00    -0.090 HD
ATOM     21  H   LIG d   1      -0.277  79.534 116.324  0.00  0.00    -0.090 HD
ENDBRANCH   5  18
BRANCH   3  22
ATOM     22  C   LIG d   1      -0.823  74.627 118.390  0.00  0.00     0.382 C 
ATOM     23  O   LIG d   1       0.320  74.180 118.649  0.00  0.00    -0.241 OA
ATOM     24  O   LIG d   1      -1.809  74.188 119.012  0.00  0.00    -0.241 OA
ENDBRANCH   3  22
TORSDOF 7
ENDMDL
MODEL 6
REMARK VINA RESULT:      -4.0      2.074      2.621
REMARK  7 active torsions:
REMARK  status: ('A' for Active; 'I' for Inactive)
REMARK    1  A    between atoms: C_2  and  C_3 
REMARK    2  A    between atoms: C_3  and  O_6 
REMARK    3  A    between atoms: C_3  and  C_4 
REMARK    4  A    between atoms: C_7  and  O_6 
REMARK    5  A    between atoms: C_9  and  C_10 
REMARK    6  A    between atoms: N_15  and  C_14 
REMARK    7  A    between atoms: N_20  and  C_19 
REMARK       I    between atoms: C_22  and  N_20 
ROOT
ATOM      1  C   LIG d   1      -2.756  76.908 116.170  0.00  0.00     0.161 C 
ATOM      2  C   LIG d   1      -2.969  77.959 115.263  0.00  0.00     0.016 C 
ATOM      3  C   LIG d   1      -2.249  78.102 114.055  0.00  0.00     0.038 C 
ATOM      4  C   LIG d   1      -1.365  77.113 113.597  0.00  0.00     0.028 C 
ATOM      5  C   LIG d   1      -0.746  76.287 114.719  0.00  0.00    -0.047 C 
ATOM      6  C   LIG d   1      -1.875  75.760 115.635  0.00  0.00     0.091 C 
ENDROOT
BRANCH   1   7
ATOM      7  O   LIG d   1      -4.022  76.395 116.630  0.00  0.00    -0.368 OA
BRANCH   7   8
ATOM      8  C   LIG d   1      -5.195  76.859 115.917  0.00  0.00     0.119 C 
BRANCH   8   9
ATOM      9  C   LIG d   1      -6.208  77.357 116.966  0.00  0.00     0.028 C 
ATOM     10  C   LIG d   1      -5.958  78.818 117.376  0.00  0.00     0.006 C 
ENDBRANCH   8   9
BRANCH   8  11
ATOM     11  C   LIG d   1      -5.896  75.708 115.190  0.00  0.00     0.028 C 
ATOM     12  C   LIG d   1      -5.811  75.829 113.660  0.00  0.00     0.006 C 
ENDBRANCH   8  11
ENDBRANCH   7   8
ENDBRANCH   1   7
BRANCH   6  13
ATOM     13  N   LIG d   1      -1.351  75.011 116.807  0.00  0.00    -0.311 N 
ATOM     14  C   LIG d   1      -0.482  75.525 117.677  0.00  0.00     0.210 C 
ATOM     15  C   LIG d   1      -0.056  74.576 118.801  0.00  0.00     0.109 C 
ATOM     16  O   LIG d   1      -0.050  76.687 117.641  0.00  0.00    -0.276 OA
ATOM     17  H   LIG d   1      -1.673  74.071 116.930  0.00  0.00     0.149 HD
ENDBRANCH   6  13
BRANCH   5  18
ATOM     18  N   LIG d   1       0.043  75.208 114.096  0.00  0.00     0.381 N 
ATOM     19  H   LIG d   1      -0.106  75.208 113.106  0.00  0.00    -0.090 HD
ATOM     20  H   LIG d   1      -0.266  74.325 114.462  0.00  0.00    -0.090 HD
ATOM     21  H   LIG d   1       1.011  75.336 114.293  0.00  0.00    -0.090 HD
ENDBRANCH   5  18
BRANCH   3  22
ATOM     22  C   LIG d   1      -2.380  79.264 113.310  0.00  0.00     0.382 C 
ATOM     23  O   LIG d   1      -2.969  80.258 113.798  0.00  0.00    -0.241 OA
ATOM     24  O   LIG d   1      -1.955  79.316 112.140  0.00  0.00    -0.241 OA
ENDBRANCH   3  22
TORSDOF 7
ENDMDL
MODEL 7
REMARK VINA RESULT:      -3.9      2.678      3.421
REMARK  7 active torsions:
REMARK  status: ('A' for Active; 'I' for Inactive)
REMARK    1  A    between atoms: C_2  and  C_3 
REMARK    2  A    between atoms: C_3  and  O_6 
REMARK    3  A    between atoms: C_3  and  C_4 
REMARK    4  A    between atoms: C_7  and  O_6 
REMARK    5  A    between atoms: C_9  and  C_10 
REMARK    6  A    between atoms: N_15  and  C_14 
REMARK    7  A    between atoms: N_20  and  C_19 
REMARK       I    between atoms: C_22  and  N_20 
ROOT
ATOM      1  C   LIG d   1      -3.256  78.426 116.850  0.00  0.00     0.161 C 
ATOM      2  C   LIG d   1      -2.194  79.171 117.391  0.00  0.00     0.016 C 
ATOM      3  C   LIG d   1      -0.876  79.131 116.881  0.00  0.00     0.038 C 
ATOM      4  C   LIG d   1      -0.562  78.455 115.693  0.00  0.00     0.028 C 
ATOM      5  C   LIG d   1      -1.491  77.282 115.399  0.00  0.00    -0.047 C 
ATOM      6  C   LIG d   1      -2.956  77.769 115.487  0.00  0.00     0.091 C 
ENDROOT
BRANCH   1   7
ATOM      7  O   LIG d   1      -4.435  79.250 116.761  0.00  0.00    -0.368 OA
BRANCH   7   8
ATOM      8  C   LIG d   1      -5.236  79.349 117.964  0.00  0.00     0.119 C 
BRANCH   8   9
ATOM      9  C   LIG d   1      -5.680  77.923 118.343  0.00  0.00     0.028 C 
ATOM     10  C   LIG d   1      -6.791  77.390 117.422  0.00  0.00     0.006 C 
ENDBRANCH   8   9
BRANCH   8  11
ATOM     11  C   LIG d   1      -6.533  80.123 117.707  0.00  0.00     0.028 C 
ATOM     12  C   LIG d   1      -6.473  81.572 118.215  0.00  0.00     0.006 C 
ENDBRANCH   8  11
ENDBRANCH   7   8
ENDBRANCH   1   7
BRANCH   6  13
ATOM     13  N   LIG d   1      -3.932  76.665 115.295  0.00  0.00    -0.311 N 
ATOM     14  C   LIG d   1      -4.497  76.381 114.123  0.00  0.00     0.210 C 
ATOM     15  C   LIG d   1      -5.491  75.216 114.149  0.00  0.00     0.109 C 
ATOM     16  O   LIG d   1      -4.245  76.963 113.057  0.00  0.00    -0.276 OA
ATOM     17  H   LIG d   1      -4.171  76.122 116.102  0.00  0.00     0.149 HD
ENDBRANCH   6  13
BRANCH   5  18
ATOM     18  N   LIG d   1      -1.136  76.755 114.067  0.00  0.00     0.381 N 
ATOM     19  H   LIG d   1      -0.961  75.772 114.128  0.00  0.00    -0.090 HD
ATOM     20  H   LIG d   1      -0.295  77.207 113.753  0.00  0.00    -0.090 HD
ATOM     21  H   LIG d   1      -1.876  76.929 113.423  0.00  0.00    -0.090 HD
ENDBRANCH   5  18
BRANCH   3  22
ATOM     22  C   LIG d   1       0.151  79.741 117.584  0.00  0.00     0.382 C 
ATOM     23  O   LIG d   1       0.060  80.951 117.905  0.00  0.00    -0.241 OA
ATOM     24  O   LIG d   1       1.188  79.109 117.862  0.00  0.00    -0.241 OA
ENDBRANCH   3  22
TORSDOF 7
ENDMDL
MODEL 8
REMARK VINA RESULT:      -3.8      2.720      5.136
REMARK  7 active torsions:
REMARK  status: ('A' for Active; 'I' for Inactive)
REMARK    1  A    between atoms: C_2  and  C_3 
REMARK    2  A    between atoms: C_3  and  O_6 
REMARK    3  A    between atoms: C_3  and  C_4 
REMARK    4  A    between atoms: C_7  and  O_6 
REMARK    5  A    between atoms: C_9  and  C_10 
REMARK    6  A    between atoms: N_15  and  C_14 
REMARK    7  A    between atoms: N_20  and  C_19 
REMARK       I    between atoms: C_22  and  N_20 
ROOT
ATOM      1  C   LIG d   1      -3.198  78.555 115.862  0.00  0.00     0.161 C 
ATOM      2  C   LIG d   1      -2.039  79.144 116.393  0.00  0.00     0.016 C 
ATOM      3  C   LIG d   1      -1.334  78.616 117.499  0.00  0.00     0.038 C 
ATOM      4  C   LIG d   1      -1.656  77.370 118.057  0.00  0.00     0.028 C 
ATOM      5  C   LIG d   1      -3.122  76.987 117.879  0.00  0.00    -0.047 C 
ATOM      6  C   LIG d   1      -3.501  77.136 116.387  0.00  0.00     0.091 C 
ENDROOT
BRANCH   1   7
ATOM      7  O   LIG d   1      -3.129  78.551 114.422  0.00  0.00    -0.368 OA
BRANCH   7   8
ATOM      8  C   LIG d   1      -1.801  78.469 113.848  0.00  0.00     0.119 C 
BRANCH   8   9
ATOM      9  C   LIG d   1      -1.780  79.370 112.598  0.00  0.00     0.028 C 
ATOM     10  C   LIG d   1      -2.596  80.659 112.790  0.00  0.00     0.006 C 
ENDBRANCH   8   9
BRANCH   8  11
ATOM     11  C   LIG d   1      -1.501  77.057 113.336  0.00  0.00     0.028 C 
ATOM     12  C   LIG d   1      -0.809  76.176 114.389  0.00  0.00     0.006 C 
ENDBRANCH   8  11
ENDBRANCH   7   8
ENDBRANCH   1   7
BRANCH   6  13
ATOM     13  N   LIG d   1      -4.940  76.861 116.138  0.00  0.00    -0.311 N 
ATOM     14  C   LIG d   1      -5.378  76.081 115.152  0.00  0.00     0.210 C 
ATOM     15  C   LIG d   1      -6.901  75.948 115.060  0.00  0.00     0.109 C 
ATOM     16  O   LIG d   1      -4.648  75.461 114.364  0.00  0.00    -0.276 OA
ATOM     17  H   LIG d   1      -5.600  77.299 116.750  0.00  0.00     0.149 HD
ENDBRANCH   6  13
BRANCH   5  18
ATOM     18  N   LIG d   1      -3.287  75.611 118.383  0.00  0.00     0.381 N 
ATOM     19  H   LIG d   1      -2.506  75.365 118.958  0.00  0.00    -0.090 HD
ATOM     20  H   LIG d   1      -3.316  74.980 117.602  0.00  0.00    -0.090 HD
ATOM     21  H   LIG d   1      -4.131  75.540 118.908  0.00  0.00    -0.090 HD
ENDBRANCH   5  18
BRANCH   3  22
ATOM     22  C   LIG d   1      -0.317  79.357 118.083  0.00  0.00     0.382 C 
ATOM     23  O   LIG d   1       0.425  78.830 118.946  0.00  0.00    -0.241 OA
ATOM     24  O   LIG d   1      -0.162  80.557 117.790  0.00  0.00    -0.241 OA
ENDBRANCH   3  22
TORSDOF 7
ENDMDL
MODEL 9
REMARK VINA RESULT:      -3.8      2.877      4.602
REMARK  7 active torsions:
REMARK  status: ('A' for Active; 'I' for Inactive)
REMARK    1  A    between atoms: C_2  and  C_3 
REMARK    2  A    between atoms: C_3  and  O_6 
REMARK    3  A    between atoms: C_3  and  C_4 
REMARK    4  A    between atoms: C_7  and  O_6 
REMARK    5  A    between atoms: C_9  and  C_10 
REMARK    6  A    between atoms: N_15  and  C_14 
REMARK    7  A    between atoms: N_20  and  C_19 
REMARK       I    between atoms: C_22  and  N_20 
ROOT
ATOM      1  C   LIG d   1      -2.739  77.908 117.044  0.00  0.00     0.161 C 
ATOM      2  C   LIG d   1      -3.654  77.093 116.355  0.00  0.00     0.016 C 
ATOM      3  C   LIG d   1      -3.572  76.833 114.968  0.00  0.00     0.038 C 
ATOM      4  C   LIG d   1      -2.476  77.250 114.198  0.00  0.00     0.028 C 
ATOM      5  C   LIG d   1      -1.792  78.498 114.745  0.00  0.00    -0.047 C 
ATOM      6  C   LIG d   1      -1.475  78.281 116.243  0.00  0.00     0.091 C 
ENDROOT
BRANCH   1   7
ATOM      7  O   LIG d   1      -2.376  77.287 118.293  0.00  0.00    -0.368 OA
BRANCH   7   8
ATOM      8  C   LIG d   1      -2.498  75.844 118.347  0.00  0.00     0.119 C 
BRANCH   8   9
ATOM      9  C   LIG d   1      -3.042  75.477 119.741  0.00  0.00     0.028 C 
ATOM     10  C   LIG d   1      -4.578  75.518 119.801  0.00  0.00     0.006 C 
ENDBRANCH   8   9
BRANCH   8  11
ATOM     11  C   LIG d   1      -1.128  75.166 118.254  0.00  0.00     0.028 C 
ATOM     12  C   LIG d   1      -0.828  74.616 116.851  0.00  0.00     0.006 C 
ENDBRANCH   8  11
ENDBRANCH   7   8
ENDBRANCH   1   7
BRANCH   6  13
ATOM     13  N   LIG d   1      -0.880  79.486 116.877  0.00  0.00    -0.311 N 
ATOM     14  C   LIG d   1       0.322  79.495 117.450  0.00  0.00     0.210 C 
ATOM     15  C   LIG d   1       0.737  80.837 118.061  0.00  0.00     0.109 C 
ATOM     16  O   LIG d   1       1.098  78.528 117.481  0.00  0.00    -0.276 OA
ATOM     17  H   LIG d   1      -1.428  80.324 116.868  0.00  0.00     0.149 HD
ENDBRANCH   6  13
BRANCH   5  18
ATOM     18  N   LIG d   1      -0.588  78.740 113.929  0.00  0.00     0.381 N 
ATOM     19  H   LIG d   1       0.224  78.741 114.513  0.00  0.00    -0.090 HD
ATOM     20  H   LIG d   1      -0.665  79.643 113.495  0.00  0.00    -0.090 HD
ATOM     21  H   LIG d   1      -0.502  78.035 113.230  0.00  0.00    -0.090 HD
ENDBRANCH   5  18
BRANCH   3  22
ATOM     22  C   LIG d   1      -4.616  76.181 114.329  0.00  0.00     0.382 C 
ATOM     23  O   LIG d   1      -5.192  75.218 114.891  0.00  0.00    -0.241 OA
ATOM     24  O   LIG d   1      -4.960  76.515 113.179  0.00  0.00    -0.241 OA
ENDBRANCH   3  22
TORSDOF 7
ENDMDL
