MODEL 1
REMARK VINA RESULT:      -5.4      0.000      0.000
REMARK  7 active torsions:
REMARK  status: ('A' for Active; 'I' for Inactive)
REMARK    1  A    between atoms: C_2  and  C_3 
REMARK    2  A    between atoms: C_3  and  O_6 
REMARK    3  A    between atoms: C_3  and  C_4 
REMARK    4  A    between atoms: C_7  and  O_6 
REMARK    5  A    between atoms: C_9  and  C_10 
REMARK    6  A    between atoms: N_15  and  C_14 
REMARK    7  A    between atoms: N_20  and  C_19 
REMARK       I    between atoms: C_22  and  N_20 
ROOT
ATOM      1  C   LIG d   1      -3.256  78.256 114.927  0.00  0.00     0.161 C 
ATOM      2  C   LIG d   1      -3.268  79.368 114.068  0.00  0.00     0.016 C 
ATOM      3  C   LIG d   1      -2.307  79.578 113.053  0.00  0.00     0.038 C 
ATOM      4  C   LIG d   1      -1.349  78.606 112.727  0.00  0.00     0.028 C 
ATOM      5  C   LIG d   1      -0.986  77.697 113.896  0.00  0.00    -0.047 C 
ATOM      6  C   LIG d   1      -2.285  77.131 114.513  0.00  0.00     0.091 C 
ENDROOT
BRANCH   1   7
ATOM      7  O   LIG d   1      -4.593  77.737 115.071  0.00  0.00    -0.368 OA
BRANCH   7   8
ATOM      8  C   LIG d   1      -5.050  77.522 116.430  0.00  0.00     0.119 C 
BRANCH   8   9
ATOM      9  C   LIG d   1      -5.496  76.051 116.541  0.00  0.00     0.028 C 
ATOM     10  C   LIG d   1      -5.612  75.368 115.168  0.00  0.00     0.006 C 
ENDBRANCH   8   9
BRANCH   8  11
ATOM     11  C   LIG d   1      -6.302  78.350 116.734  0.00  0.00     0.028 C 
ATOM     12  C   LIG d   1      -5.979  79.809 117.092  0.00  0.00     0.006 C 
ENDBRANCH   8  11
ENDBRANCH   7   8
ENDBRANCH   1   7
BRANCH   6  13
ATOM     13  N   LIG d   1      -2.025  76.297 115.716  0.00  0.00    -0.311 N 
ATOM     14  C   LIG d   1      -1.657  75.018 115.656  0.00  0.00     0.210 C 
ATOM     15  C   LIG d   1      -1.460  74.338 117.014  0.00  0.00     0.109 C 
ATOM     16  O   LIG d   1      -1.445  74.392 114.606  0.00  0.00    -0.276 OA
ATOM     17  H   LIG d   1      -2.143  76.735 116.608  0.00  0.00     0.149 HD
ENDBRANCH   6  13
BRANCH   5  18
ATOM     18  N   LIG d   1      -0.086  76.648 113.381  0.00  0.00     0.381 N 
ATOM     19  H   LIG d   1       0.446  76.259 114.134  0.00  0.00    -0.090 HD
ATOM     20  H   LIG d   1       0.553  77.061 112.725  0.00  0.00    -0.090 HD
ATOM     21  H   LIG d   1      -0.616  75.932 112.935  0.00  0.00    -0.090 HD
ENDBRANCH   5  18
BRANCH   3  22
ATOM     22  C   LIG d   1      -2.273  80.789 112.379  0.00  0.00     0.382 C 
ATOM     23  O   LIG d   1      -3.303  81.502 112.318  0.00  0.00    -0.241 OA
ATOM     24  O   LIG d   1      -1.237  81.157 111.792  0.00  0.00    -0.241 OA
ENDBRANCH   3  22
TORSDOF 7
ENDMDL
MODEL 2
REMARK VINA RESULT:      -5.4      1.129      2.141
REMARK  7 active torsions:
REMARK  status: ('A' for Active; 'I' for Inactive)
REMARK    1  A    between atoms: C_2  and  C_3 
REMARK    2  A    between atoms: C_3  and  O_6 
REMARK    3  A    between atoms: C_3  and  C_4 
REMARK    4  A    between atoms: C_7  and  O_6 
REMARK    5  A    between atoms: C_9  and  C_10 
REMARK    6  A    between atoms: N_15  and  C_14 
REMARK    7  A    between atoms: N_20  and  C_19 
REMARK       I    between atoms: C_22  and  N_20 
ROOT
ATOM      1  C   LIG d   1      -2.469  77.906 115.782  0.00  0.00     0.161 C 
ATOM      2  C   LIG d   1      -2.808  78.833 114.782  0.00  0.00     0.016 C 
ATOM      3  C   LIG d   1      -2.241  78.822 113.486  0.00  0.00     0.038 C 
ATOM      4  C   LIG d   1      -1.403  77.784 113.052  0.00  0.00     0.028 C 
ATOM      5  C   LIG d   1      -0.640  77.108 114.186  0.00  0.00    -0.047 C 
ATOM      6  C   LIG d   1      -1.640  76.700 115.292  0.00  0.00     0.091 C 
ENDROOT
BRANCH   1   7
ATOM      7  O   LIG d   1      -3.661  77.455 116.454  0.00  0.00    -0.368 OA
BRANCH   7   8
ATOM      8  C   LIG d   1      -4.870  77.425 115.656  0.00  0.00     0.119 C 
BRANCH   8   9
ATOM      9  C   LIG d   1      -6.004  78.023 116.510  0.00  0.00     0.028 C 
ATOM     10  C   LIG d   1      -5.726  79.480 116.917  0.00  0.00     0.006 C 
ENDBRANCH   8   9
BRANCH   8  11
ATOM     11  C   LIG d   1      -5.304  75.987 115.356  0.00  0.00     0.028 C 
ATOM     12  C   LIG d   1      -5.300  75.664 113.853  0.00  0.00     0.006 C 
ENDBRANCH   8  11
ENDBRANCH   7   8
ENDBRANCH   1   7
BRANCH   6  13
ATOM     13  N   LIG d   1      -0.965  76.107 116.476  0.00  0.00    -0.311 N 
ATOM     14  C   LIG d   1      -1.313  74.937 117.008  0.00  0.00     0.210 C 
ATOM     15  C   LIG d   1      -0.502  74.519 118.238  0.00  0.00     0.109 C 
ATOM     16  O   LIG d   1      -2.196  74.190 116.559  0.00  0.00    -0.276 OA
ATOM     17  H   LIG d   1      -0.217  76.632 116.885  0.00  0.00     0.149 HD
ENDBRANCH   6  13
BRANCH   5  18
ATOM     18  N   LIG d   1       0.087  75.960 113.611  0.00  0.00     0.381 N 
ATOM     19  H   LIG d   1       0.757  75.619 114.271  0.00  0.00    -0.090 HD
ATOM     20  H   LIG d   1       0.579  76.264 112.790  0.00  0.00    -0.090 HD
ATOM     21  H   LIG d   1      -0.555  75.235 113.374  0.00  0.00    -0.090 HD
ENDBRANCH   5  18
BRANCH   3  22
ATOM     22  C   LIG d   1      -2.481  79.880 112.623  0.00  0.00     0.382 C 
ATOM     23  O   LIG d   1      -2.190  79.775 111.407  0.00  0.00    -0.241 OA
ATOM     24  O   LIG d   1      -2.942  80.954 113.052  0.00  0.00    -0.241 OA
ENDBRANCH   3  22
TORSDOF 7
ENDMDL
MODEL 3
REMARK VINA RESULT:      -5.3      1.721      2.176
REMARK  7 active torsions:
REMARK  status: ('A' for Active; 'I' for Inactive)
REMARK    1  A    between atoms: C_2  and  C_3 
REMARK    2  A    between atoms: C_3  and  O_6 
REMARK    3  A    between atoms: C_3  and  C_4 
REMARK    4  A    between atoms: C_7  and  O_6 
REMARK    5  A    between atoms: C_9  and  C_10 
REMARK    6  A    between atoms: N_15  and  C_14 
REMARK    7  A    between atoms: N_20  and  C_19 
REMARK       I    between atoms: C_22  and  N_20 
ROOT
ATOM      1  C   LIG d   1      -3.409  77.810 113.854  0.00  0.00     0.161 C 
ATOM      2  C   LIG d   1      -3.383  78.992 113.096  0.00  0.00     0.016 C 
ATOM      3  C   LIG d   1      -2.209  79.746 112.869  0.00  0.00     0.038 C 
ATOM      4  C   LIG d   1      -0.944  79.284 113.262  0.00  0.00     0.028 C 
ATOM      5  C   LIG d   1      -0.988  78.350 114.467  0.00  0.00    -0.047 C 
ATOM      6  C   LIG d   1      -2.020  77.232 114.198  0.00  0.00     0.091 C 
ENDROOT
BRANCH   1   7
ATOM      7  O   LIG d   1      -4.214  76.818 113.186  0.00  0.00    -0.368 OA
BRANCH   7   8
ATOM      8  C   LIG d   1      -5.418  76.405 113.877  0.00  0.00     0.119 C 
BRANCH   8   9
ATOM      9  C   LIG d   1      -5.307  74.889 114.135  0.00  0.00     0.028 C 
ATOM     10  C   LIG d   1      -5.505  74.530 115.617  0.00  0.00     0.006 C 
ENDBRANCH   8   9
BRANCH   8  11
ATOM     11  C   LIG d   1      -6.655  76.575 112.990  0.00  0.00     0.028 C 
ATOM     12  C   LIG d   1      -6.305  76.994 111.553  0.00  0.00     0.006 C 
ENDBRANCH   8  11
ENDBRANCH   7   8
ENDBRANCH   1   7
BRANCH   6  13
ATOM     13  N   LIG d   1      -2.187  76.322 115.361  0.00  0.00    -0.311 N 
ATOM     14  C   LIG d   1      -1.580  75.141 115.461  0.00  0.00     0.210 C 
ATOM     15  C   LIG d   1      -1.905  74.352 116.733  0.00  0.00     0.109 C 
ATOM     16  O   LIG d   1      -0.779  74.685 114.631  0.00  0.00    -0.276 OA
ATOM     17  H   LIG d   1      -2.795  76.628 116.095  0.00  0.00     0.149 HD
ENDBRANCH   6  13
BRANCH   5  18
ATOM     18  N   LIG d   1       0.378  77.837 114.682  0.00  0.00     0.381 N 
ATOM     19  H   LIG d   1       0.997  78.595 114.888  0.00  0.00    -0.090 HD
ATOM     20  H   LIG d   1       0.695  77.391 113.839  0.00  0.00    -0.090 HD
ATOM     21  H   LIG d   1       0.382  77.183 115.434  0.00  0.00    -0.090 HD
ENDBRANCH   5  18
BRANCH   3  22
ATOM     22  C   LIG d   1      -2.298  80.996 112.276  0.00  0.00     0.382 C 
ATOM     23  O   LIG d   1      -1.297  81.494 111.707  0.00  0.00    -0.241 OA
ATOM     24  O   LIG d   1      -3.355  81.652 112.342  0.00  0.00    -0.241 OA
ENDBRANCH   3  22
TORSDOF 7
ENDMDL
MODEL 4
REMARK VINA RESULT:      -5.2      1.736      2.129
REMARK  7 active torsions:
REMARK  status: ('A' for Active; 'I' for Inactive)
REMARK    1  A    between atoms: C_2  and  C_3 
REMARK    2  A    between atoms: C_3  and  O_6 
REMARK    3  A    between atoms: C_3  and  C_4 
REMARK    4  A    between atoms: C_7  and  O_6 
REMARK    5  A    between atoms: C_9  and  C_10 
REMARK    6  A    between atoms: N_15  and  C_14 
REMARK    7  A    between atoms: N_20  and  C_19 
REMARK       I    between atoms: C_22  and  N_20 
ROOT
ATOM      1  C   LIG d   1      -2.812  77.067 114.935  0.00  0.00     0.161 C 
ATOM      2  C   LIG d   1      -3.004  78.036 113.936  0.00  0.00     0.016 C 
ATOM      3  C   LIG d   1      -2.014  78.974 113.562  0.00  0.00     0.038 C 
ATOM      4  C   LIG d   1      -0.705  78.909 114.060  0.00  0.00     0.028 C 
ATOM      5  C   LIG d   1      -0.613  78.266 115.440  0.00  0.00    -0.047 C 
ATOM      6  C   LIG d   1      -1.353  76.909 115.411  0.00  0.00     0.091 C 
ENDROOT
BRANCH   1   7
ATOM      7  O   LIG d   1      -3.334  75.799 114.493  0.00  0.00    -0.368 OA
BRANCH   7   8
ATOM      8  C   LIG d   1      -4.425  75.251 115.274  0.00  0.00     0.119 C 
BRANCH   8   9
ATOM      9  C   LIG d   1      -5.569  74.913 114.298  0.00  0.00     0.028 C 
ATOM     10  C   LIG d   1      -6.007  76.129 113.463  0.00  0.00     0.006 C 
ENDBRANCH   8   9
BRANCH   8  11
ATOM     11  C   LIG d   1      -5.005  76.297 116.231  0.00  0.00     0.028 C 
ATOM     12  C   LIG d   1      -6.296  75.825 116.917  0.00  0.00     0.006 C 
ENDBRANCH   8  11
ENDBRANCH   7   8
ENDBRANCH   1   7
BRANCH   6  13
ATOM     13  N   LIG d   1      -1.383  76.253 116.744  0.00  0.00    -0.311 N 
ATOM     14  C   LIG d   1      -0.491  75.344 117.134  0.00  0.00     0.210 C 
ATOM     15  C   LIG d   1      -0.717  74.777 118.540  0.00  0.00     0.109 C 
ATOM     16  O   LIG d   1       0.485  74.977 116.463  0.00  0.00    -0.276 OA
ATOM     17  H   LIG d   1      -2.124  76.515 117.365  0.00  0.00     0.149 HD
ENDBRANCH   6  13
BRANCH   5  18
ATOM     18  N   LIG d   1       0.818  78.138 115.777  0.00  0.00     0.381 N 
ATOM     19  H   LIG d   1       1.358  78.061 114.938  0.00  0.00    -0.090 HD
ATOM     20  H   LIG d   1       0.951  77.300 116.315  0.00  0.00    -0.090 HD
ATOM     21  H   LIG d   1       1.117  78.930 116.302  0.00  0.00    -0.090 HD
ENDBRANCH   5  18
BRANCH   3  22
ATOM     22  C   LIG d   1      -2.344  80.016 112.708  0.00  0.00     0.382 C 
ATOM     23  O   LIG d   1      -1.921  80.017 111.527  0.00  0.00    -0.241 OA
ATOM     24  O   LIG d   1      -3.021  80.978 113.118  0.00  0.00    -0.241 OA
ENDBRANCH   3  22
TORSDOF 7
ENDMDL
MODEL 5
REMARK VINA RESULT:      -5.1      2.481      3.164
REMARK  7 active torsions:
REMARK  status: ('A' for Active; 'I' for Inactive)
REMARK    1  A    between atoms: C_2  and  C_3 
REMARK    2  A    between atoms: C_3  and  O_6 
REMARK    3  A    between atoms: C_3  and  C_4 
REMARK    4  A    between atoms: C_7  and  O_6 
REMARK    5  A    between atoms: C_9  and  C_10 
REMARK    6  A    between atoms: N_15  and  C_14 
REMARK    7  A    between atoms: N_20  and  C_19 
REMARK       I    between atoms: C_22  and  N_20 
ROOT
ATOM      1  C   LIG d   1      -3.376  78.107 114.533  0.00  0.00     0.161 C 
ATOM      2  C   LIG d   1      -3.082  78.026 113.162  0.00  0.00     0.016 C 
ATOM      3  C   LIG d   1      -1.787  77.766 112.657  0.00  0.00     0.038 C 
ATOM      4  C   LIG d   1      -0.720  77.418 113.499  0.00  0.00     0.028 C 
ATOM      5  C   LIG d   1      -0.852  77.982 114.909  0.00  0.00    -0.047 C 
ATOM      6  C   LIG d   1      -2.248  77.620 115.466  0.00  0.00     0.091 C 
ENDROOT
BRANCH   1   7
ATOM      7  O   LIG d   1      -4.599  77.398 114.813  0.00  0.00    -0.368 OA
BRANCH   7   8
ATOM      8  C   LIG d   1      -4.927  76.312 113.912  0.00  0.00     0.119 C 
BRANCH   8   9
ATOM      9  C   LIG d   1      -6.421  76.443 113.554  0.00  0.00     0.028 C 
ATOM     10  C   LIG d   1      -6.638  76.906 112.104  0.00  0.00     0.006 C 
ENDBRANCH   8   9
BRANCH   8  11
ATOM     11  C   LIG d   1      -4.794  74.953 114.604  0.00  0.00     0.028 C 
ATOM     12  C   LIG d   1      -6.147  74.374 115.046  0.00  0.00     0.006 C 
ENDBRANCH   8  11
ENDBRANCH   7   8
ENDBRANCH   1   7
BRANCH   6  13
ATOM     13  N   LIG d   1      -2.491  78.206 116.810  0.00  0.00    -0.311 N 
ATOM     14  C   LIG d   1      -2.239  77.561 117.948  0.00  0.00     0.210 C 
ATOM     15  C   LIG d   1      -2.581  78.339 119.222  0.00  0.00     0.109 C 
ATOM     16  O   LIG d   1      -1.734  76.431 118.023  0.00  0.00    -0.276 OA
ATOM     17  H   LIG d   1      -2.871  79.132 116.842  0.00  0.00     0.149 HD
ENDBRANCH   6  13
BRANCH   5  18
ATOM     18  N   LIG d   1       0.253  77.430 115.715  0.00  0.00     0.381 N 
ATOM     19  H   LIG d   1       0.402  78.001 116.523  0.00  0.00    -0.090 HD
ATOM     20  H   LIG d   1       1.093  77.438 115.164  0.00  0.00    -0.090 HD
ATOM     21  H   LIG d   1       0.039  76.498 115.994  0.00  0.00    -0.090 HD
ENDBRANCH   5  18
BRANCH   3  22
ATOM     22  C   LIG d   1      -1.540  77.893 111.299  0.00  0.00     0.382 C 
ATOM     23  O   LIG d   1      -1.122  76.909 110.643  0.00  0.00    -0.241 OA
ATOM     24  O   LIG d   1      -1.688  78.991 110.730  0.00  0.00    -0.241 OA
ENDBRANCH   3  22
TORSDOF 7
ENDMDL
MODEL 6
REMARK VINA RESULT:      -5.0      1.151      2.015
REMARK  7 active torsions:
REMARK  status: ('A' for Active; 'I' for Inactive)
REMARK    1  A    between atoms: C_2  and  C_3 
REMARK    2  A    between atoms: C_3  and  O_6 
REMARK    3  A    between atoms: C_3  and  C_4 
REMARK    4  A    between atoms: C_7  and  O_6 
REMARK    5  A    between atoms: C_9  and  C_10 
REMARK    6  A    between atoms: N_15  and  C_14 
REMARK    7  A    between atoms: N_20  and  C_19 
REMARK       I    between atoms: C_22  and  N_20 
ROOT
ATOM      1  C   LIG d   1      -2.921  78.525 114.941  0.00  0.00     0.161 C 
ATOM      2  C   LIG d   1      -3.034  79.664 114.126  0.00  0.00     0.016 C 
ATOM      3  C   LIG d   1      -2.310  79.835 112.924  0.00  0.00     0.038 C 
ATOM      4  C   LIG d   1      -1.531  78.806 112.374  0.00  0.00     0.028 C 
ATOM      5  C   LIG d   1      -0.991  77.832 113.416  0.00  0.00    -0.047 C 
ATOM      6  C   LIG d   1      -2.161  77.345 114.301  0.00  0.00     0.091 C 
ENDROOT
BRANCH   1   7
ATOM      7  O   LIG d   1      -4.229  78.103 115.375  0.00  0.00    -0.368 OA
BRANCH   7   8
ATOM      8  C   LIG d   1      -4.530  78.302 116.778  0.00  0.00     0.119 C 
BRANCH   8   9
ATOM      9  C   LIG d   1      -5.666  79.340 116.865  0.00  0.00     0.028 C 
ATOM     10  C   LIG d   1      -6.111  79.602 118.314  0.00  0.00     0.006 C 
ENDBRANCH   8   9
BRANCH   8  11
ATOM     11  C   LIG d   1      -3.346  78.934 117.518  0.00  0.00     0.028 C 
ATOM     12  C   LIG d   1      -2.735  77.998 118.572  0.00  0.00     0.006 C 
ENDBRANCH   8  11
ENDBRANCH   7   8
ENDBRANCH   1   7
BRANCH   6  13
ATOM     13  N   LIG d   1      -1.707  76.453 115.400  0.00  0.00    -0.311 N 
ATOM     14  C   LIG d   1      -2.261  75.270 115.661  0.00  0.00     0.210 C 
ATOM     15  C   LIG d   1      -1.654  74.521 116.851  0.00  0.00     0.109 C 
ATOM     16  O   LIG d   1      -3.176  74.757 115.000  0.00  0.00    -0.276 OA
ATOM     17  H   LIG d   1      -0.948  76.778 115.967  0.00  0.00     0.149 HD
ENDBRANCH   6  13
BRANCH   5  18
ATOM     18  N   LIG d   1      -0.316  76.737 112.695  0.00  0.00     0.381 N 
ATOM     19  H   LIG d   1       0.675  76.858 112.745  0.00  0.00    -0.090 HD
ATOM     20  H   LIG d   1      -0.589  76.767 111.728  0.00  0.00    -0.090 HD
ATOM     21  H   LIG d   1      -0.571  75.859 113.092  0.00  0.00    -0.090 HD
ENDBRANCH   5  18
BRANCH   3  22
ATOM     22  C   LIG d   1      -2.329  81.062 112.279  0.00  0.00     0.382 C 
ATOM     23  O   LIG d   1      -1.296  81.486 111.707  0.00  0.00    -0.241 OA
ATOM     24  O   LIG d   1      -3.353  81.771 112.300  0.00  0.00    -0.241 OA
ENDBRANCH   3  22
TORSDOF 7
ENDMDL
MODEL 7
REMARK VINA RESULT:      -4.9      2.097      4.711
REMARK  7 active torsions:
REMARK  status: ('A' for Active; 'I' for Inactive)
REMARK    1  A    between atoms: C_2  and  C_3 
REMARK    2  A    between atoms: C_3  and  O_6 
REMARK    3  A    between atoms: C_3  and  C_4 
REMARK    4  A    between atoms: C_7  and  O_6 
REMARK    5  A    between atoms: C_9  and  C_10 
REMARK    6  A    between atoms: N_15  and  C_14 
REMARK    7  A    between atoms: N_20  and  C_19 
REMARK       I    between atoms: C_22  and  N_20 
ROOT
ATOM      1  C   LIG d   1      -2.262  76.201 114.434  0.00  0.00     0.161 C 
ATOM      2  C   LIG d   1      -2.173  75.751 115.762  0.00  0.00     0.016 C 
ATOM      3  C   LIG d   1      -1.378  76.383 116.746  0.00  0.00     0.038 C 
ATOM      4  C   LIG d   1      -0.732  77.605 116.505  0.00  0.00     0.028 C 
ATOM      5  C   LIG d   1      -0.386  77.828 115.037  0.00  0.00    -0.047 C 
ATOM      6  C   LIG d   1      -1.653  77.596 114.182  0.00  0.00     0.091 C 
ENDROOT
BRANCH   1   7
ATOM      7  O   LIG d   1      -3.635  76.168 113.998  0.00  0.00    -0.368 OA
BRANCH   7   8
ATOM      8  C   LIG d   1      -4.623  75.894 115.023  0.00  0.00     0.119 C 
BRANCH   8   9
ATOM      9  C   LIG d   1      -5.551  74.787 114.487  0.00  0.00     0.028 C 
ATOM     10  C   LIG d   1      -6.440  74.183 115.587  0.00  0.00     0.006 C 
ENDBRANCH   8   9
BRANCH   8  11
ATOM     11  C   LIG d   1      -5.531  77.105 115.260  0.00  0.00     0.028 C 
ATOM     12  C   LIG d   1      -5.156  77.892 116.525  0.00  0.00     0.006 C 
ENDBRANCH   8  11
ENDBRANCH   7   8
ENDBRANCH   1   7
BRANCH   6  13
ATOM     13  N   LIG d   1      -1.382  77.712 112.725  0.00  0.00    -0.311 N 
ATOM     14  C   LIG d   1      -2.125  78.444 111.897  0.00  0.00     0.210 C 
ATOM     15  C   LIG d   1      -1.684  78.409 110.430  0.00  0.00     0.109 C 
ATOM     16  O   LIG d   1      -3.089  79.144 112.243  0.00  0.00    -0.276 OA
ATOM     17  H   LIG d   1      -0.600  77.201 112.364  0.00  0.00     0.149 HD
ENDBRANCH   6  13
BRANCH   5  18
ATOM     18  N   LIG d   1       0.156  79.194 114.909  0.00  0.00     0.381 N 
ATOM     19  H   LIG d   1       1.145  79.181 115.055  0.00  0.00    -0.090 HD
ATOM     20  H   LIG d   1      -0.260  79.776 115.616  0.00  0.00    -0.090 HD
ATOM     21  H   LIG d   1      -0.049  79.559 114.005  0.00  0.00    -0.090 HD
ENDBRANCH   5  18
BRANCH   3  22
ATOM     22  C   LIG d   1      -1.191  75.771 117.976  0.00  0.00     0.382 C 
ATOM     23  O   LIG d   1      -1.335  76.431 119.033  0.00  0.00    -0.241 OA
ATOM     24  O   LIG d   1      -0.838  74.578 118.040  0.00  0.00    -0.241 OA
ENDBRANCH   3  22
TORSDOF 7
ENDMDL
MODEL 8
REMARK VINA RESULT:      -4.8      1.727      2.329
REMARK  7 active torsions:
REMARK  status: ('A' for Active; 'I' for Inactive)
REMARK    1  A    between atoms: C_2  and  C_3 
REMARK    2  A    between atoms: C_3  and  O_6 
REMARK    3  A    between atoms: C_3  and  C_4 
REMARK    4  A    between atoms: C_7  and  O_6 
REMARK    5  A    between atoms: C_9  and  C_10 
REMARK    6  A    between atoms: N_15  and  C_14 
REMARK    7  A    between atoms: N_20  and  C_19 
REMARK       I    between atoms: C_22  and  N_20 
ROOT
ATOM      1  C   LIG d   1      -1.673  78.474 114.490  0.00  0.00     0.161 C 
ATOM      2  C   LIG d   1      -2.139  79.681 113.941  0.00  0.00     0.016 C 
ATOM      3  C   LIG d   1      -2.062  79.990 112.563  0.00  0.00     0.038 C 
ATOM      4  C   LIG d   1      -1.647  79.045 111.613  0.00  0.00     0.028 C 
ATOM      5  C   LIG d   1      -0.696  77.996 112.178  0.00  0.00    -0.047 C 
ATOM      6  C   LIG d   1      -1.320  77.386 113.454  0.00  0.00     0.091 C 
ENDROOT
BRANCH   1   7
ATOM      7  O   LIG d   1      -2.630  77.969 115.441  0.00  0.00    -0.368 OA
BRANCH   7   8
ATOM      8  C   LIG d   1      -2.365  78.269 116.834  0.00  0.00     0.119 C 
BRANCH   8   9
ATOM      9  C   LIG d   1      -2.334  76.931 117.598  0.00  0.00     0.028 C 
ATOM     10  C   LIG d   1      -1.084  76.789 118.484  0.00  0.00     0.006 C 
ENDBRANCH   8   9
BRANCH   8  11
ATOM     11  C   LIG d   1      -3.511  79.067 117.460  0.00  0.00     0.028 C 
ATOM     12  C   LIG d   1      -4.807  78.996 116.636  0.00  0.00     0.006 C 
ENDBRANCH   8  11
ENDBRANCH   7   8
ENDBRANCH   1   7
BRANCH   6  13
ATOM     13  N   LIG d   1      -0.416  76.411 114.117  0.00  0.00    -0.311 N 
ATOM     14  C   LIG d   1      -0.845  75.291 114.696  0.00  0.00     0.210 C 
ATOM     15  C   LIG d   1       0.251  74.435 115.339  0.00  0.00     0.109 C 
ATOM     16  O   LIG d   1      -2.024  74.908 114.710  0.00  0.00    -0.276 OA
ATOM     17  H   LIG d   1       0.562  76.627 114.125  0.00  0.00     0.149 HD
ENDBRANCH   6  13
BRANCH   5  18
ATOM     18  N   LIG d   1      -0.454  76.997 111.119  0.00  0.00     0.381 N 
ATOM     19  H   LIG d   1      -0.015  77.435 110.334  0.00  0.00    -0.090 HD
ATOM     20  H   LIG d   1      -1.336  76.622 110.819  0.00  0.00    -0.090 HD
ATOM     21  H   LIG d   1       0.125  76.265 111.467  0.00  0.00    -0.090 HD
ENDBRANCH   5  18
BRANCH   3  22
ATOM     22  C   LIG d   1      -2.364  81.272 112.129  0.00  0.00     0.382 C 
ATOM     23  O   LIG d   1      -1.463  81.998 111.644  0.00  0.00    -0.241 OA
ATOM     24  O   LIG d   1      -3.516  81.727 112.257  0.00  0.00    -0.241 OA
ENDBRANCH   3  22
TORSDOF 7
ENDMDL
MODEL 9
REMARK VINA RESULT:      -4.7      2.339      4.918
REMARK  7 active torsions:
REMARK  status: ('A' for Active; 'I' for Inactive)
REMARK    1  A    between atoms: C_2  and  C_3 
REMARK    2  A    between atoms: C_3  and  O_6 
REMARK    3  A    between atoms: C_3  and  C_4 
REMARK    4  A    between atoms: C_7  and  O_6 
REMARK    5  A    between atoms: C_9  and  C_10 
REMARK    6  A    between atoms: N_15  and  C_14 
REMARK    7  A    between atoms: N_20  and  C_19 
REMARK       I    between atoms: C_22  and  N_20 
ROOT
ATOM      1  C   LIG d   1      -2.909  78.501 114.895  0.00  0.00     0.161 C 
ATOM      2  C   LIG d   1      -1.605  78.921 115.204  0.00  0.00     0.016 C 
ATOM      3  C   LIG d   1      -0.625  78.071 115.766  0.00  0.00     0.038 C 
ATOM      4  C   LIG d   1      -0.840  76.693 115.919  0.00  0.00     0.028 C 
ATOM      5  C   LIG d   1      -2.309  76.324 116.091  0.00  0.00    -0.047 C 
ATOM      6  C   LIG d   1      -3.127  76.974 114.951  0.00  0.00     0.091 C 
ENDROOT
BRANCH   1   7
ATOM      7  O   LIG d   1      -3.296  79.014 113.605  0.00  0.00    -0.368 OA
BRANCH   7   8
ATOM      8  C   LIG d   1      -2.229  79.560 112.791  0.00  0.00     0.119 C 
BRANCH   8   9
ATOM      9  C   LIG d   1      -2.593  81.023 112.470  0.00  0.00     0.028 C 
ATOM     10  C   LIG d   1      -1.351  81.900 112.239  0.00  0.00     0.006 C 
ENDBRANCH   8   9
BRANCH   8  11
ATOM     11  C   LIG d   1      -2.148  78.856 111.433  0.00  0.00     0.028 C 
ATOM     12  C   LIG d   1      -1.152  77.686 111.427  0.00  0.00     0.006 C 
ENDBRANCH   8  11
ENDBRANCH   7   8
ENDBRANCH   1   7
BRANCH   6  13
ATOM     13  N   LIG d   1      -4.586  76.733 115.092  0.00  0.00    -0.311 N 
ATOM     14  C   LIG d   1      -5.220  75.715 114.511  0.00  0.00     0.210 C 
ATOM     15  C   LIG d   1      -6.729  75.662 114.769  0.00  0.00     0.109 C 
ATOM     16  O   LIG d   1      -4.671  74.834 113.833  0.00  0.00    -0.276 OA
ATOM     17  H   LIG d   1      -5.105  77.382 115.650  0.00  0.00     0.149 HD
ENDBRANCH   6  13
BRANCH   5  18
ATOM     18  N   LIG d   1      -2.401  74.851 116.100  0.00  0.00     0.381 N 
ATOM     19  H   LIG d   1      -2.439  74.520 117.044  0.00  0.00    -0.090 HD
ATOM     20  H   LIG d   1      -1.578  74.472 115.666  0.00  0.00    -0.090 HD
ATOM     21  H   LIG d   1      -3.213  74.557 115.604  0.00  0.00    -0.090 HD
ENDBRANCH   5  18
BRANCH   3  22
ATOM     22  C   LIG d   1       0.571  78.605 116.220  0.00  0.00     0.382 C 
ATOM     23  O   LIG d   1       0.913  79.761 115.871  0.00  0.00    -0.241 OA
ATOM     24  O   LIG d   1       1.333  77.930 116.937  0.00  0.00    -0.241 OA
ENDBRANCH   3  22
TORSDOF 7
ENDMDL
