MODEL 1
REMARK VINA RESULT:      -5.6      0.000      0.000
REMARK  7 active torsions:
REMARK  status: ('A' for Active; 'I' for Inactive)
REMARK    1  A    between atoms: C_2  and  C_3 
REMARK    2  A    between atoms: C_3  and  O_6 
REMARK    3  A    between atoms: C_3  and  C_4 
REMARK    4  A    between atoms: C_7  and  O_6 
REMARK    5  A    between atoms: C_9  and  C_10 
REMARK    6  A    between atoms: N_15  and  C_14 
REMARK    7  A    between atoms: N_20  and  C_19 
REMARK       I    between atoms: C_22  and  N_20 
ROOT
ATOM      1  C   LIG d   1      -2.976  77.306 116.081  0.00  0.00     0.161 C 
ATOM      2  C   LIG d   1      -3.328  77.821 114.822  0.00  0.00     0.016 C 
ATOM      3  C   LIG d   1      -2.510  77.698 113.675  0.00  0.00     0.038 C 
ATOM      4  C   LIG d   1      -1.347  76.914 113.675  0.00  0.00     0.028 C 
ATOM      5  C   LIG d   1      -0.695  76.797 115.049  0.00  0.00    -0.047 C 
ATOM      6  C   LIG d   1      -1.763  76.353 116.074  0.00  0.00     0.091 C 
ENDROOT
BRANCH   1   7
ATOM      7  O   LIG d   1      -4.117  76.661 116.682  0.00  0.00    -0.368 OA
BRANCH   7   8
ATOM      8  C   LIG d   1      -5.205  76.327 115.785  0.00  0.00     0.119 C 
BRANCH   8   9
ATOM      9  C   LIG d   1      -6.521  76.691 116.499  0.00  0.00     0.028 C 
ATOM     10  C   LIG d   1      -6.299  77.628 117.698  0.00  0.00     0.006 C 
ENDBRANCH   8   9
BRANCH   8  11
ATOM     11  C   LIG d   1      -5.280  74.817 115.540  0.00  0.00     0.028 C 
ATOM     12  C   LIG d   1      -6.548  74.180 116.132  0.00  0.00     0.006 C 
ENDBRANCH   8  11
ENDBRANCH   7   8
ENDBRANCH   1   7
BRANCH   6  13
ATOM     13  N   LIG d   1      -1.228  76.295 117.460  0.00  0.00    -0.311 N 
ATOM     14  C   LIG d   1      -0.619  75.224 117.967  0.00  0.00     0.210 C 
ATOM     15  C   LIG d   1      -0.162  75.369 119.422  0.00  0.00     0.109 C 
ATOM     16  O   LIG d   1      -0.386  74.180 117.339  0.00  0.00    -0.276 OA
ATOM     17  H   LIG d   1      -1.347  77.110 118.029  0.00  0.00     0.149 HD
ENDBRANCH   6  13
BRANCH   5  18
ATOM     18  N   LIG d   1       0.425  75.844 114.931  0.00  0.00     0.381 N 
ATOM     19  H   LIG d   1       0.657  75.711 113.967  0.00  0.00    -0.090 HD
ATOM     20  H   LIG d   1       0.140  74.959 115.311  0.00  0.00    -0.090 HD
ATOM     21  H   LIG d   1       1.218  76.187 115.426  0.00  0.00    -0.090 HD
ENDBRANCH   5  18
BRANCH   3  22
ATOM     22  C   LIG d   1      -2.835  78.396 112.522  0.00  0.00     0.382 C 
ATOM     23  O   LIG d   1      -3.160  79.605 112.592  0.00  0.00    -0.241 OA
ATOM     24  O   LIG d   1      -2.849  77.820 111.418  0.00  0.00    -0.241 OA
ENDBRANCH   3  22
TORSDOF 7
ENDMDL
MODEL 2
REMARK VINA RESULT:      -5.6      1.678      4.958
REMARK  7 active torsions:
REMARK  status: ('A' for Active; 'I' for Inactive)
REMARK    1  A    between atoms: C_2  and  C_3 
REMARK    2  A    between atoms: C_3  and  O_6 
REMARK    3  A    between atoms: C_3  and  C_4 
REMARK    4  A    between atoms: C_7  and  O_6 
REMARK    5  A    between atoms: C_9  and  C_10 
REMARK    6  A    between atoms: N_15  and  C_14 
REMARK    7  A    between atoms: N_20  and  C_19 
REMARK       I    between atoms: C_22  and  N_20 
ROOT
ATOM      1  C   LIG d   1      -1.976  75.613 114.921  0.00  0.00     0.161 C 
ATOM      2  C   LIG d   1      -1.769  75.197 116.246  0.00  0.00     0.016 C 
ATOM      3  C   LIG d   1      -1.108  75.986 117.216  0.00  0.00     0.038 C 
ATOM      4  C   LIG d   1      -0.739  77.316 116.963  0.00  0.00     0.028 C 
ATOM      5  C   LIG d   1      -0.475  77.601 115.488  0.00  0.00    -0.047 C 
ATOM      6  C   LIG d   1      -1.679  77.104 114.657  0.00  0.00     0.091 C 
ENDROOT
BRANCH   1   7
ATOM      7  O   LIG d   1      -3.319  75.289 114.511  0.00  0.00    -0.368 OA
BRANCH   7   8
ATOM      8  C   LIG d   1      -4.314  75.248 115.563  0.00  0.00     0.119 C 
BRANCH   8   9
ATOM      9  C   LIG d   1      -5.356  74.180 115.173  0.00  0.00     0.028 C 
ATOM     10  C   LIG d   1      -6.575  74.181 116.110  0.00  0.00     0.006 C 
ENDBRANCH   8   9
BRANCH   8  11
ATOM     11  C   LIG d   1      -5.093  76.563 115.645  0.00  0.00     0.028 C 
ATOM     12  C   LIG d   1      -4.740  77.388 116.893  0.00  0.00     0.006 C 
ENDBRANCH   8  11
ENDBRANCH   7   8
ENDBRANCH   1   7
BRANCH   6  13
ATOM     13  N   LIG d   1      -1.466  77.268 113.195  0.00  0.00    -0.311 N 
ATOM     14  C   LIG d   1      -2.333  77.882 112.392  0.00  0.00     0.210 C 
ATOM     15  C   LIG d   1      -1.929  77.925 110.915  0.00  0.00     0.109 C 
ATOM     16  O   LIG d   1      -3.384  78.424 112.768  0.00  0.00    -0.276 OA
ATOM     17  H   LIG d   1      -0.624  76.886 112.811  0.00  0.00     0.149 HD
ENDBRANCH   6  13
BRANCH   5  18
ATOM     18  N   LIG d   1      -0.236  79.050 115.351  0.00  0.00     0.381 N 
ATOM     19  H   LIG d   1       0.518  79.210 114.713  0.00  0.00    -0.090 HD
ATOM     20  H   LIG d   1       0.025  79.423 116.247  0.00  0.00    -0.090 HD
ATOM     21  H   LIG d   1      -1.060  79.502 115.022  0.00  0.00    -0.090 HD
ENDBRANCH   5  18
BRANCH   3  22
ATOM     22  C   LIG d   1      -0.774  75.431 118.442  0.00  0.00     0.382 C 
ATOM     23  O   LIG d   1      -0.325  74.261 118.499  0.00  0.00    -0.241 OA
ATOM     24  O   LIG d   1      -0.956  76.071 119.495  0.00  0.00    -0.241 OA
ENDBRANCH   3  22
TORSDOF 7
ENDMDL
MODEL 3
REMARK VINA RESULT:      -5.0      2.447      3.186
REMARK  7 active torsions:
REMARK  status: ('A' for Active; 'I' for Inactive)
REMARK    1  A    between atoms: C_2  and  C_3 
REMARK    2  A    between atoms: C_3  and  O_6 
REMARK    3  A    between atoms: C_3  and  C_4 
REMARK    4  A    between atoms: C_7  and  O_6 
REMARK    5  A    between atoms: C_9  and  C_10 
REMARK    6  A    between atoms: N_15  and  C_14 
REMARK    7  A    between atoms: N_20  and  C_19 
REMARK       I    between atoms: C_22  and  N_20 
ROOT
ATOM      1  C   LIG d   1      -2.454  78.888 116.079  0.00  0.00     0.161 C 
ATOM      2  C   LIG d   1      -2.678  79.921 115.154  0.00  0.00     0.016 C 
ATOM      3  C   LIG d   1      -2.316  79.837 113.790  0.00  0.00     0.038 C 
ATOM      4  C   LIG d   1      -1.839  78.646 113.222  0.00  0.00     0.028 C 
ATOM      5  C   LIG d   1      -1.126  77.741 114.221  0.00  0.00    -0.047 C 
ATOM      6  C   LIG d   1      -2.036  77.540 115.454  0.00  0.00     0.091 C 
ENDROOT
BRANCH   1   7
ATOM      7  O   LIG d   1      -3.619  78.715 116.910  0.00  0.00    -0.368 OA
BRANCH   7   8
ATOM      8  C   LIG d   1      -4.156  79.918 117.513  0.00  0.00     0.119 C 
BRANCH   8   9
ATOM      9  C   LIG d   1      -3.580  80.019 118.938  0.00  0.00     0.028 C 
ATOM     10  C   LIG d   1      -3.285  78.640 119.551  0.00  0.00     0.006 C 
ENDBRANCH   8   9
BRANCH   8  11
ATOM     11  C   LIG d   1      -5.674  79.820 117.695  0.00  0.00     0.028 C 
ATOM     12  C   LIG d   1      -6.367  81.191 117.663  0.00  0.00     0.006 C 
ENDBRANCH   8  11
ENDBRANCH   7   8
ENDBRANCH   1   7
BRANCH   6  13
ATOM     13  N   LIG d   1      -1.381  76.735 116.517  0.00  0.00    -0.311 N 
ATOM     14  C   LIG d   1      -1.438  75.406 116.572  0.00  0.00     0.210 C 
ATOM     15  C   LIG d   1      -0.710  74.775 117.762  0.00  0.00     0.109 C 
ATOM     16  O   LIG d   1      -1.997  74.687 115.729  0.00  0.00    -0.276 OA
ATOM     17  H   LIG d   1      -0.879  77.236 117.225  0.00  0.00     0.149 HD
ENDBRANCH   6  13
BRANCH   5  18
ATOM     18  N   LIG d   1      -0.803  76.480 113.528  0.00  0.00     0.381 N 
ATOM     19  H   LIG d   1      -0.106  76.645 112.830  0.00  0.00    -0.090 HD
ATOM     20  H   LIG d   1      -1.631  76.138 113.073  0.00  0.00    -0.090 HD
ATOM     21  H   LIG d   1      -0.474  75.805 114.184  0.00  0.00    -0.090 HD
ENDBRANCH   5  18
BRANCH   3  22
ATOM     22  C   LIG d   1      -2.393  80.965 112.987  0.00  0.00     0.382 C 
ATOM     23  O   LIG d   1      -3.292  81.817 113.188  0.00  0.00    -0.241 OA
ATOM     24  O   LIG d   1      -1.602  81.120 112.038  0.00  0.00    -0.241 OA
ENDBRANCH   3  22
TORSDOF 7
ENDMDL
MODEL 4
REMARK VINA RESULT:      -4.8      2.547      3.996
REMARK  7 active torsions:
REMARK  status: ('A' for Active; 'I' for Inactive)
REMARK    1  A    between atoms: C_2  and  C_3 
REMARK    2  A    between atoms: C_3  and  O_6 
REMARK    3  A    between atoms: C_3  and  C_4 
REMARK    4  A    between atoms: C_7  and  O_6 
REMARK    5  A    between atoms: C_9  and  C_10 
REMARK    6  A    between atoms: N_15  and  C_14 
REMARK    7  A    between atoms: N_20  and  C_19 
REMARK       I    between atoms: C_22  and  N_20 
ROOT
ATOM      1  C   LIG d   1      -2.176  77.411 116.282  0.00  0.00     0.161 C 
ATOM      2  C   LIG d   1      -2.771  77.149 115.037  0.00  0.00     0.016 C 
ATOM      3  C   LIG d   1      -2.455  77.862 113.858  0.00  0.00     0.038 C 
ATOM      4  C   LIG d   1      -1.404  78.791 113.813  0.00  0.00     0.028 C 
ATOM      5  C   LIG d   1      -1.116  79.447 115.159  0.00  0.00    -0.047 C 
ATOM      6  C   LIG d   1      -0.948  78.344 116.229  0.00  0.00     0.091 C 
ENDROOT
BRANCH   1   7
ATOM      7  O   LIG d   1      -1.834  76.170 116.931  0.00  0.00    -0.368 OA
BRANCH   7   8
ATOM      8  C   LIG d   1      -0.518  75.640 116.639  0.00  0.00     0.119 C 
BRANCH   8   9
ATOM      9  C   LIG d   1      -0.710  74.340 115.834  0.00  0.00     0.028 C 
ATOM     10  C   LIG d   1      -0.331  74.505 114.353  0.00  0.00     0.006 C 
ENDBRANCH   8   9
BRANCH   8  11
ATOM     11  C   LIG d   1       0.210  75.220 117.920  0.00  0.00     0.028 C 
ATOM     12  C   LIG d   1      -0.557  75.605 119.194  0.00  0.00     0.006 C 
ENDBRANCH   8  11
ENDBRANCH   7   8
ENDBRANCH   1   7
BRANCH   6  13
ATOM     13  N   LIG d   1      -0.747  78.902 117.592  0.00  0.00    -0.311 N 
ATOM     14  C   LIG d   1       0.450  79.039 118.159  0.00  0.00     0.210 C 
ATOM     15  C   LIG d   1       0.431  79.617 119.577  0.00  0.00     0.109 C 
ATOM     16  O   LIG d   1       1.528  78.767 117.609  0.00  0.00    -0.276 OA
ATOM     17  H   LIG d   1      -1.567  79.178 118.097  0.00  0.00     0.149 HD
ENDBRANCH   6  13
BRANCH   5  18
ATOM     18  N   LIG d   1       0.087  80.285 114.998  0.00  0.00     0.381 N 
ATOM     19  H   LIG d   1      -0.153  81.248 115.121  0.00  0.00    -0.090 HD
ATOM     20  H   LIG d   1       0.444  80.166 114.067  0.00  0.00    -0.090 HD
ATOM     21  H   LIG d   1       0.779  80.020 115.664  0.00  0.00    -0.090 HD
ENDBRANCH   5  18
BRANCH   3  22
ATOM     22  C   LIG d   1      -3.220  77.678 112.717  0.00  0.00     0.382 C 
ATOM     23  O   LIG d   1      -4.351  77.141 112.801  0.00  0.00    -0.241 OA
ATOM     24  O   LIG d   1      -2.776  78.001 111.599  0.00  0.00    -0.241 OA
ENDBRANCH   3  22
TORSDOF 7
ENDMDL
MODEL 5
REMARK VINA RESULT:      -4.8      3.483      5.649
REMARK  7 active torsions:
REMARK  status: ('A' for Active; 'I' for Inactive)
REMARK    1  A    between atoms: C_2  and  C_3 
REMARK    2  A    between atoms: C_3  and  O_6 
REMARK    3  A    between atoms: C_3  and  C_4 
REMARK    4  A    between atoms: C_7  and  O_6 
REMARK    5  A    between atoms: C_9  and  C_10 
REMARK    6  A    between atoms: N_15  and  C_14 
REMARK    7  A    between atoms: N_20  and  C_19 
REMARK       I    between atoms: C_22  and  N_20 
ROOT
ATOM      1  C   LIG d   1      -1.789  79.969 114.333  0.00  0.00     0.161 C 
ATOM      2  C   LIG d   1      -2.538  78.798 114.533  0.00  0.00     0.016 C 
ATOM      3  C   LIG d   1      -2.648  77.770 113.569  0.00  0.00     0.038 C 
ATOM      4  C   LIG d   1      -1.888  77.776 112.389  0.00  0.00     0.028 C 
ATOM      5  C   LIG d   1      -1.508  79.177 111.921  0.00  0.00    -0.047 C 
ATOM      6  C   LIG d   1      -0.864  79.943 113.099  0.00  0.00     0.091 C 
ENDROOT
BRANCH   1   7
ATOM      7  O   LIG d   1      -1.031  80.273 115.521  0.00  0.00    -0.368 OA
BRANCH   7   8
ATOM      8  C   LIG d   1      -1.231  79.386 116.649  0.00  0.00     0.119 C 
BRANCH   8   9
ATOM      9  C   LIG d   1      -1.621  80.257 117.859  0.00  0.00     0.028 C 
ATOM     10  C   LIG d   1      -3.071  80.017 118.311  0.00  0.00     0.006 C 
ENDBRANCH   8   9
BRANCH   8  11
ATOM     11  C   LIG d   1       0.075  78.694 117.051  0.00  0.00     0.028 C 
ATOM     12  C   LIG d   1       0.062  77.184 116.764  0.00  0.00     0.006 C 
ENDBRANCH   8  11
ENDBRANCH   7   8
ENDBRANCH   1   7
BRANCH   6  13
ATOM     13  N   LIG d   1      -0.540  81.351 112.750  0.00  0.00    -0.311 N 
ATOM     14  C   LIG d   1       0.646  81.735 112.280  0.00  0.00     0.210 C 
ATOM     15  C   LIG d   1       0.776  83.236 112.004  0.00  0.00     0.109 C 
ATOM     16  O   LIG d   1       1.592  80.970 112.037  0.00  0.00    -0.276 OA
ATOM     17  H   LIG d   1      -1.260  82.032 112.887  0.00  0.00     0.149 HD
ENDBRANCH   6  13
BRANCH   5  18
ATOM     18  N   LIG d   1      -0.605  79.030 110.764  0.00  0.00     0.381 N 
ATOM     19  H   LIG d   1       0.251  78.603 111.055  0.00  0.00    -0.090 HD
ATOM     20  H   LIG d   1      -0.394  79.942 110.398  0.00  0.00    -0.090 HD
ATOM     21  H   LIG d   1      -1.040  78.475 110.060  0.00  0.00    -0.090 HD
ENDBRANCH   5  18
BRANCH   3  22
ATOM     22  C   LIG d   1      -3.556  76.740 113.761  0.00  0.00     0.382 C 
ATOM     23  O   LIG d   1      -3.263  75.779 114.512  0.00  0.00    -0.241 OA
ATOM     24  O   LIG d   1      -4.647  76.739 113.160  0.00  0.00    -0.241 OA
ENDBRANCH   3  22
TORSDOF 7
ENDMDL
MODEL 6
REMARK VINA RESULT:      -4.7      2.886      3.915
REMARK  7 active torsions:
REMARK  status: ('A' for Active; 'I' for Inactive)
REMARK    1  A    between atoms: C_2  and  C_3 
REMARK    2  A    between atoms: C_3  and  O_6 
REMARK    3  A    between atoms: C_3  and  C_4 
REMARK    4  A    between atoms: C_7  and  O_6 
REMARK    5  A    between atoms: C_9  and  C_10 
REMARK    6  A    between atoms: N_15  and  C_14 
REMARK    7  A    between atoms: N_20  and  C_19 
REMARK       I    between atoms: C_22  and  N_20 
ROOT
ATOM      1  C   LIG d   1      -2.315  78.691 114.308  0.00  0.00     0.161 C 
ATOM      2  C   LIG d   1      -2.377  78.254 112.975  0.00  0.00     0.016 C 
ATOM      3  C   LIG d   1      -1.487  78.696 111.968  0.00  0.00     0.038 C 
ATOM      4  C   LIG d   1      -0.373  79.495 112.263  0.00  0.00     0.028 C 
ATOM      5  C   LIG d   1      -0.563  80.367 113.500  0.00  0.00    -0.047 C 
ATOM      6  C   LIG d   1      -1.038  79.478 114.672  0.00  0.00     0.091 C 
ENDROOT
BRANCH   1   7
ATOM      7  O   LIG d   1      -2.483  77.570 115.199  0.00  0.00    -0.368 OA
BRANCH   7   8
ATOM      8  C   LIG d   1      -2.031  76.287 114.701  0.00  0.00     0.119 C 
BRANCH   8   9
ATOM      9  C   LIG d   1      -3.043  75.225 115.171  0.00  0.00     0.028 C 
ATOM     10  C   LIG d   1      -4.500  75.651 114.920  0.00  0.00     0.006 C 
ENDBRANCH   8   9
BRANCH   8  11
ATOM     11  C   LIG d   1      -0.696  75.883 115.334  0.00  0.00     0.028 C 
ATOM     12  C   LIG d   1      -0.662  74.408 115.762  0.00  0.00     0.006 C 
ENDBRANCH   8  11
ENDBRANCH   7   8
ENDBRANCH   1   7
BRANCH   6  13
ATOM     13  N   LIG d   1      -1.328  80.264 115.899  0.00  0.00    -0.311 N 
ATOM     14  C   LIG d   1      -0.723  80.052 117.066  0.00  0.00     0.210 C 
ATOM     15  C   LIG d   1      -1.185  80.962 118.209  0.00  0.00     0.109 C 
ATOM     16  O   LIG d   1       0.174  79.218 117.256  0.00  0.00    -0.276 OA
ATOM     17  H   LIG d   1      -2.022  80.983 115.826  0.00  0.00     0.149 HD
ENDBRANCH   6  13
BRANCH   5  18
ATOM     18  N   LIG d   1       0.720  81.042 113.770  0.00  0.00     0.381 N 
ATOM     19  H   LIG d   1       1.441  80.639 113.206  0.00  0.00    -0.090 HD
ATOM     20  H   LIG d   1       0.963  80.906 114.736  0.00  0.00    -0.090 HD
ATOM     21  H   LIG d   1       0.641  82.016 113.574  0.00  0.00    -0.090 HD
ENDBRANCH   5  18
BRANCH   3  22
ATOM     22  C   LIG d   1      -1.732  78.369 110.643  0.00  0.00     0.382 C 
ATOM     23  O   LIG d   1      -0.991  78.824 109.739  0.00  0.00    -0.241 OA
ATOM     24  O   LIG d   1      -2.711  77.662 110.337  0.00  0.00    -0.241 OA
ENDBRANCH   3  22
TORSDOF 7
ENDMDL
MODEL 7
REMARK VINA RESULT:      -4.6      2.483      5.066
REMARK  7 active torsions:
REMARK  status: ('A' for Active; 'I' for Inactive)
REMARK    1  A    between atoms: C_2  and  C_3 
REMARK    2  A    between atoms: C_3  and  O_6 
REMARK    3  A    between atoms: C_3  and  C_4 
REMARK    4  A    between atoms: C_7  and  O_6 
REMARK    5  A    between atoms: C_9  and  C_10 
REMARK    6  A    between atoms: N_15  and  C_14 
REMARK    7  A    between atoms: N_20  and  C_19 
REMARK       I    between atoms: C_22  and  N_20 
ROOT
ATOM      1  C   LIG d   1      -2.445  77.992 116.269  0.00  0.00     0.161 C 
ATOM      2  C   LIG d   1      -1.176  78.494 116.601  0.00  0.00     0.016 C 
ATOM      3  C   LIG d   1      -0.069  77.669 116.910  0.00  0.00     0.038 C 
ATOM      4  C   LIG d   1      -0.118  76.275 116.758  0.00  0.00     0.028 C 
ATOM      5  C   LIG d   1      -1.521  75.698 116.912  0.00  0.00    -0.047 C 
ATOM      6  C   LIG d   1      -2.488  76.475 115.990  0.00  0.00     0.091 C 
ENDROOT
BRANCH   1   7
ATOM      7  O   LIG d   1      -2.981  78.723 115.148  0.00  0.00    -0.368 OA
BRANCH   7   8
ATOM      8  C   LIG d   1      -2.231  78.635 113.912  0.00  0.00     0.119 C 
BRANCH   8   9
ATOM      9  C   LIG d   1      -1.903  80.073 113.466  0.00  0.00     0.028 C 
ATOM     10  C   LIG d   1      -0.389  80.328 113.371  0.00  0.00     0.006 C 
ENDBRANCH   8   9
BRANCH   8  11
ATOM     11  C   LIG d   1      -3.082  78.044 112.784  0.00  0.00     0.028 C 
ATOM     12  C   LIG d   1      -2.360  78.048 111.428  0.00  0.00     0.006 C 
ENDBRANCH   8  11
ENDBRANCH   7   8
ENDBRANCH   1   7
BRANCH   6  13
ATOM     13  N   LIG d   1      -3.898  76.030 116.142  0.00  0.00    -0.311 N 
ATOM     14  C   LIG d   1      -4.498  75.195 115.296  0.00  0.00     0.210 C 
ATOM     15  C   LIG d   1      -5.961  74.881 115.626  0.00  0.00     0.109 C 
ATOM     16  O   LIG d   1      -3.949  74.659 114.322  0.00  0.00    -0.276 OA
ATOM     17  H   LIG d   1      -4.409  76.392 116.923  0.00  0.00     0.149 HD
ENDBRANCH   6  13
BRANCH   5  18
ATOM     18  N   LIG d   1      -1.449  74.260 116.594  0.00  0.00     0.381 N 
ATOM     19  H   LIG d   1      -1.366  74.135 115.605  0.00  0.00    -0.090 HD
ATOM     20  H   LIG d   1      -2.299  73.817 116.897  0.00  0.00    -0.090 HD
ATOM     21  H   LIG d   1      -0.668  73.847 117.055  0.00  0.00    -0.090 HD
ENDBRANCH   5  18
BRANCH   3  22
ATOM     22  C   LIG d   1       1.091  78.236 117.414  0.00  0.00     0.382 C 
ATOM     23  O   LIG d   1       2.028  77.501 117.808  0.00  0.00    -0.241 OA
ATOM     24  O   LIG d   1       1.195  79.473 117.521  0.00  0.00    -0.241 OA
ENDBRANCH   3  22
TORSDOF 7
ENDMDL
MODEL 8
REMARK VINA RESULT:      -4.5      2.699      4.186
REMARK  7 active torsions:
REMARK  status: ('A' for Active; 'I' for Inactive)
REMARK    1  A    between atoms: C_2  and  C_3 
REMARK    2  A    between atoms: C_3  and  O_6 
REMARK    3  A    between atoms: C_3  and  C_4 
REMARK    4  A    between atoms: C_7  and  O_6 
REMARK    5  A    between atoms: C_9  and  C_10 
REMARK    6  A    between atoms: N_15  and  C_14 
REMARK    7  A    between atoms: N_20  and  C_19 
REMARK       I    between atoms: C_22  and  N_20 
ROOT
ATOM      1  C   LIG d   1      -0.945  77.639 115.135  0.00  0.00     0.161 C 
ATOM      2  C   LIG d   1      -2.202  77.366 114.571  0.00  0.00     0.016 C 
ATOM      3  C   LIG d   1      -2.949  76.201 114.862  0.00  0.00     0.038 C 
ATOM      4  C   LIG d   1      -2.555  75.298 115.860  0.00  0.00     0.028 C 
ATOM      5  C   LIG d   1      -1.048  75.273 116.094  0.00  0.00    -0.047 C 
ATOM      6  C   LIG d   1      -0.549  76.720 116.310  0.00  0.00     0.091 C 
ENDROOT
BRANCH   1   7
ATOM      7  O   LIG d   1      -0.880  79.022 115.537  0.00  0.00    -0.368 OA
BRANCH   7   8
ATOM      8  C   LIG d   1      -1.208  79.299 116.921  0.00  0.00     0.119 C 
BRANCH   8   9
ATOM      9  C   LIG d   1      -2.689  79.723 116.971  0.00  0.00     0.028 C 
ATOM     10  C   LIG d   1      -3.559  78.726 117.755  0.00  0.00     0.006 C 
ENDBRANCH   8   9
BRANCH   8  11
ATOM     11  C   LIG d   1      -0.423  80.504 117.449  0.00  0.00     0.028 C 
ATOM     12  C   LIG d   1       1.028  80.538 116.944  0.00  0.00     0.006 C 
ENDBRANCH   8  11
ENDBRANCH   7   8
ENDBRANCH   1   7
BRANCH   6  13
ATOM     13  N   LIG d   1       0.927  76.794 116.461  0.00  0.00    -0.311 N 
ATOM     14  C   LIG d   1       1.539  76.893 117.640  0.00  0.00     0.210 C 
ATOM     15  C   LIG d   1       3.067  76.976 117.571  0.00  0.00     0.109 C 
ATOM     16  O   LIG d   1       0.963  76.886 118.739  0.00  0.00    -0.276 OA
ATOM     17  H   LIG d   1       1.473  76.774 115.622  0.00  0.00     0.149 HD
ENDBRANCH   6  13
BRANCH   5  18
ATOM     18  N   LIG d   1      -0.790  74.394 117.250  0.00  0.00     0.381 N 
ATOM     19  H   LIG d   1      -1.389  73.593 117.207  0.00  0.00    -0.090 HD
ATOM     20  H   LIG d   1      -0.998  74.898 118.094  0.00  0.00    -0.090 HD
ATOM     21  H   LIG d   1       0.163  74.105 117.253  0.00  0.00    -0.090 HD
ENDBRANCH   5  18
BRANCH   3  22
ATOM     22  C   LIG d   1      -4.086  75.911 114.123  0.00  0.00     0.382 C 
ATOM     23  O   LIG d   1      -4.499  76.726 113.264  0.00  0.00    -0.241 OA
ATOM     24  O   LIG d   1      -4.727  74.865 114.335  0.00  0.00    -0.241 OA
ENDBRANCH   3  22
TORSDOF 7
ENDMDL
MODEL 9
REMARK VINA RESULT:      -4.5      2.420      4.473
REMARK  7 active torsions:
REMARK  status: ('A' for Active; 'I' for Inactive)
REMARK    1  A    between atoms: C_2  and  C_3 
REMARK    2  A    between atoms: C_3  and  O_6 
REMARK    3  A    between atoms: C_3  and  C_4 
REMARK    4  A    between atoms: C_7  and  O_6 
REMARK    5  A    between atoms: C_9  and  C_10 
REMARK    6  A    between atoms: N_15  and  C_14 
REMARK    7  A    between atoms: N_20  and  C_19 
REMARK       I    between atoms: C_22  and  N_20 
ROOT
ATOM      1  C   LIG d   1      -2.077  77.233 116.447  0.00  0.00     0.161 C 
ATOM      2  C   LIG d   1      -3.210  76.658 115.848  0.00  0.00     0.016 C 
ATOM      3  C   LIG d   1      -3.496  76.756 114.467  0.00  0.00     0.038 C 
ATOM      4  C   LIG d   1      -2.583  77.313 113.559  0.00  0.00     0.028 C 
ATOM      5  C   LIG d   1      -1.661  78.353 114.187  0.00  0.00    -0.047 C 
ATOM      6  C   LIG d   1      -1.014  77.749 115.454  0.00  0.00     0.091 C 
ENDROOT
BRANCH   1   7
ATOM      7  O   LIG d   1      -1.487  76.301 117.374  0.00  0.00    -0.368 OA
BRANCH   7   8
ATOM      8  C   LIG d   1      -0.279  75.637 116.928  0.00  0.00     0.119 C 
BRANCH   8   9
ATOM      9  C   LIG d   1      -0.697  74.306 116.273  0.00  0.00     0.028 C 
ATOM     10  C   LIG d   1      -0.424  74.285 114.760  0.00  0.00     0.006 C 
ENDBRANCH   8   9
BRANCH   8  11
ATOM     11  C   LIG d   1       0.611  75.245 118.111  0.00  0.00     0.028 C 
ATOM     12  C   LIG d   1      -0.135  74.415 119.168  0.00  0.00     0.006 C 
ENDBRANCH   8  11
ENDBRANCH   7   8
ENDBRANCH   1   7
BRANCH   6  13
ATOM     13  N   LIG d   1      -0.161  78.729 116.177  0.00  0.00    -0.311 N 
ATOM     14  C   LIG d   1      -0.573  79.949 116.516  0.00  0.00     0.210 C 
ATOM     15  C   LIG d   1       0.470  80.807 117.239  0.00  0.00     0.109 C 
ATOM     16  O   LIG d   1      -1.714  80.392 116.314  0.00  0.00    -0.276 OA
ATOM     17  H   LIG d   1       0.769  78.441 116.408  0.00  0.00     0.149 HD
ENDBRANCH   6  13
BRANCH   5  18
ATOM     18  N   LIG d   1      -0.674  78.748 113.166  0.00  0.00     0.381 N 
ATOM     19  H   LIG d   1      -1.085  78.689 112.256  0.00  0.00    -0.090 HD
ATOM     20  H   LIG d   1       0.104  78.113 113.202  0.00  0.00    -0.090 HD
ATOM     21  H   LIG d   1      -0.361  79.679 113.336  0.00  0.00    -0.090 HD
ENDBRANCH   5  18
BRANCH   3  22
ATOM     22  C   LIG d   1      -4.725  76.330 113.988  0.00  0.00     0.382 C 
ATOM     23  O   LIG d   1      -5.193  76.825 112.934  0.00  0.00    -0.241 OA
ATOM     24  O   LIG d   1      -5.393  75.489 114.619  0.00  0.00    -0.241 OA
ENDBRANCH   3  22
TORSDOF 7
ENDMDL
