MODEL 1
REMARK VINA RESULT:      -5.3      0.000      0.000
REMARK  7 active torsions:
REMARK  status: ('A' for Active; 'I' for Inactive)
REMARK    1  A    between atoms: C_2  and  C_3 
REMARK    2  A    between atoms: C_3  and  O_6 
REMARK    3  A    between atoms: C_3  and  C_4 
REMARK    4  A    between atoms: C_7  and  O_6 
REMARK    5  A    between atoms: C_9  and  C_10 
REMARK    6  A    between atoms: N_15  and  C_14 
REMARK    7  A    between atoms: N_20  and  C_19 
REMARK       I    between atoms: C_22  and  N_20 
ROOT
ATOM      1  C   LIG d   1      -2.863  77.759 114.210  0.00  0.00     0.161 C 
ATOM      2  C   LIG d   1      -3.155  78.875 113.409  0.00  0.00     0.016 C 
ATOM      3  C   LIG d   1      -2.379  80.057 113.407  0.00  0.00     0.038 C 
ATOM      4  C   LIG d   1      -1.161  80.145 114.098  0.00  0.00     0.028 C 
ATOM      5  C   LIG d   1      -1.088  79.228 115.315  0.00  0.00    -0.047 C 
ATOM      6  C   LIG d   1      -1.477  77.795 114.887  0.00  0.00     0.091 C 
ENDROOT
BRANCH   1   7
ATOM      7  O   LIG d   1      -3.012  76.551 113.438  0.00  0.00    -0.368 OA
BRANCH   7   8
ATOM      8  C   LIG d   1      -3.885  75.540 113.998  0.00  0.00     0.119 C 
BRANCH   8   9
ATOM      9  C   LIG d   1      -4.875  75.120 112.895  0.00  0.00     0.028 C 
ATOM     10  C   LIG d   1      -5.653  76.315 112.319  0.00  0.00     0.006 C 
ENDBRANCH   8   9
BRANCH   8  11
ATOM     11  C   LIG d   1      -4.751  76.113 115.124  0.00  0.00     0.028 C 
ATOM     12  C   LIG d   1      -4.815  75.193 116.354  0.00  0.00     0.006 C 
ENDBRANCH   8  11
ENDBRANCH   7   8
ENDBRANCH   1   7
BRANCH   6  13
ATOM     13  N   LIG d   1      -1.512  76.851 116.035  0.00  0.00    -0.311 N 
ATOM     14  C   LIG d   1      -1.021  75.614 115.982  0.00  0.00     0.210 C 
ATOM     15  C   LIG d   1      -1.178  74.801 117.271  0.00  0.00     0.109 C 
ATOM     16  O   LIG d   1      -0.440  75.125 115.002  0.00  0.00    -0.276 OA
ATOM     17  H   LIG d   1      -1.938  77.177 116.880  0.00  0.00     0.149 HD
ENDBRANCH   6  13
BRANCH   5  18
ATOM     18  N   LIG d   1       0.280  79.319 115.859  0.00  0.00     0.381 N 
ATOM     19  H   LIG d   1       0.776  78.471 115.670  0.00  0.00    -0.090 HD
ATOM     20  H   LIG d   1       0.226  79.438 116.856  0.00  0.00    -0.090 HD
ATOM     21  H   LIG d   1       0.759  80.091 115.451  0.00  0.00    -0.090 HD
ENDBRANCH   5  18
BRANCH   3  22
ATOM     22  C   LIG d   1      -2.839  81.181 112.738  0.00  0.00     0.382 C 
ATOM     23  O   LIG d   1      -4.060  81.297 112.474  0.00  0.00    -0.241 OA
ATOM     24  O   LIG d   1      -2.043  82.059 112.357  0.00  0.00    -0.241 OA
ENDBRANCH   3  22
TORSDOF 7
ENDMDL
MODEL 2
REMARK VINA RESULT:      -5.1      2.321      4.794
REMARK  7 active torsions:
REMARK  status: ('A' for Active; 'I' for Inactive)
REMARK    1  A    between atoms: C_2  and  C_3 
REMARK    2  A    between atoms: C_3  and  O_6 
REMARK    3  A    between atoms: C_3  and  C_4 
REMARK    4  A    between atoms: C_7  and  O_6 
REMARK    5  A    between atoms: C_9  and  C_10 
REMARK    6  A    between atoms: N_15  and  C_14 
REMARK    7  A    between atoms: N_20  and  C_19 
REMARK       I    between atoms: C_22  and  N_20 
ROOT
ATOM      1  C   LIG d   1      -1.214  77.622 114.680  0.00  0.00     0.161 C 
ATOM      2  C   LIG d   1      -2.524  77.305 114.284  0.00  0.00     0.016 C 
ATOM      3  C   LIG d   1      -3.141  76.063 114.560  0.00  0.00     0.038 C 
ATOM      4  C   LIG d   1      -2.539  75.103 115.387  0.00  0.00     0.028 C 
ATOM      5  C   LIG d   1      -1.016  75.175 115.389  0.00  0.00    -0.047 C 
ATOM      6  C   LIG d   1      -0.583  76.631 115.679  0.00  0.00     0.091 C 
ENDROOT
BRANCH   1   7
ATOM      7  O   LIG d   1      -1.175  78.962 115.210  0.00  0.00    -0.368 OA
BRANCH   7   8
ATOM      8  C   LIG d   1      -2.308  79.807 114.892  0.00  0.00     0.119 C 
BRANCH   8   9
ATOM      9  C   LIG d   1      -1.814  80.899 113.924  0.00  0.00     0.028 C 
ATOM     10  C   LIG d   1      -2.872  81.275 112.874  0.00  0.00     0.006 C 
ENDBRANCH   8   9
BRANCH   8  11
ATOM     11  C   LIG d   1      -2.808  80.558 116.130  0.00  0.00     0.028 C 
ATOM     12  C   LIG d   1      -1.670  80.980 117.071  0.00  0.00     0.006 C 
ENDBRANCH   8  11
ENDBRANCH   7   8
ENDBRANCH   1   7
BRANCH   6  13
ATOM     13  N   LIG d   1       0.892  76.806 115.616  0.00  0.00    -0.311 N 
ATOM     14  C   LIG d   1       1.594  77.451 116.546  0.00  0.00     0.210 C 
ATOM     15  C   LIG d   1       3.100  77.535 116.277  0.00  0.00     0.109 C 
ATOM     16  O   LIG d   1       1.117  77.934 117.584  0.00  0.00    -0.276 OA
ATOM     17  H   LIG d   1       1.364  76.419 114.823  0.00  0.00     0.149 HD
ENDBRANCH   6  13
BRANCH   5  18
ATOM     18  N   LIG d   1      -0.525  74.215 116.396  0.00  0.00     0.381 N 
ATOM     19  H   LIG d   1      -1.127  74.225 117.195  0.00  0.00    -0.090 HD
ATOM     20  H   LIG d   1       0.394  74.493 116.689  0.00  0.00    -0.090 HD
ATOM     21  H   LIG d   1      -0.495  73.298 116.006  0.00  0.00    -0.090 HD
ENDBRANCH   5  18
BRANCH   3  22
ATOM     22  C   LIG d   1      -4.358  75.754 113.971  0.00  0.00     0.382 C 
ATOM     23  O   LIG d   1      -5.413  76.283 114.399  0.00  0.00    -0.241 OA
ATOM     24  O   LIG d   1      -4.421  74.921 113.048  0.00  0.00    -0.241 OA
ENDBRANCH   3  22
TORSDOF 7
ENDMDL
MODEL 3
REMARK VINA RESULT:      -5.1      2.057      4.886
REMARK  7 active torsions:
REMARK  status: ('A' for Active; 'I' for Inactive)
REMARK    1  A    between atoms: C_2  and  C_3 
REMARK    2  A    between atoms: C_3  and  O_6 
REMARK    3  A    between atoms: C_3  and  C_4 
REMARK    4  A    between atoms: C_7  and  O_6 
REMARK    5  A    between atoms: C_9  and  C_10 
REMARK    6  A    between atoms: N_15  and  C_14 
REMARK    7  A    between atoms: N_20  and  C_19 
REMARK       I    between atoms: C_22  and  N_20 
ROOT
ATOM      1  C   LIG d   1      -2.144  76.143 114.436  0.00  0.00     0.161 C 
ATOM      2  C   LIG d   1      -2.333  75.466 115.653  0.00  0.00     0.016 C 
ATOM      3  C   LIG d   1      -2.379  76.118 116.907  0.00  0.00     0.038 C 
ATOM      4  C   LIG d   1      -2.389  77.516 117.016  0.00  0.00     0.028 C 
ATOM      5  C   LIG d   1      -1.692  78.219 115.856  0.00  0.00    -0.047 C 
ATOM      6  C   LIG d   1      -2.264  77.679 114.525  0.00  0.00     0.091 C 
ENDROOT
BRANCH   1   7
ATOM      7  O   LIG d   1      -3.051  75.626 113.443  0.00  0.00    -0.368 OA
BRANCH   7   8
ATOM      8  C   LIG d   1      -4.441  76.008 113.589  0.00  0.00     0.119 C 
BRANCH   8   9
ATOM      9  C   LIG d   1      -5.278  74.714 113.596  0.00  0.00     0.028 C 
ATOM     10  C   LIG d   1      -5.945  74.453 114.957  0.00  0.00     0.006 C 
ENDBRANCH   8   9
BRANCH   8  11
ATOM     11  C   LIG d   1      -4.932  76.802 112.375  0.00  0.00     0.028 C 
ATOM     12  C   LIG d   1      -6.394  76.496 112.015  0.00  0.00     0.006 C 
ENDBRANCH   8  11
ENDBRANCH   7   8
ENDBRANCH   1   7
BRANCH   6  13
ATOM     13  N   LIG d   1      -1.579  78.253 113.338  0.00  0.00    -0.311 N 
ATOM     14  C   LIG d   1      -2.049  79.293 112.652  0.00  0.00     0.210 C 
ATOM     15  C   LIG d   1      -1.197  79.713 111.450  0.00  0.00     0.109 C 
ATOM     16  O   LIG d   1      -3.074  79.927 112.943  0.00  0.00    -0.276 OA
ATOM     17  H   LIG d   1      -0.723  77.819 113.051  0.00  0.00     0.149 HD
ENDBRANCH   6  13
BRANCH   5  18
ATOM     18  N   LIG d   1      -1.897  79.670 116.026  0.00  0.00     0.381 N 
ATOM     19  H   LIG d   1      -2.263  79.856 116.939  0.00  0.00    -0.090 HD
ATOM     20  H   LIG d   1      -2.568  79.986 115.348  0.00  0.00    -0.090 HD
ATOM     21  H   LIG d   1      -1.035  80.153 115.901  0.00  0.00    -0.090 HD
ENDBRANCH   5  18
BRANCH   3  22
ATOM     22  C   LIG d   1      -2.374  75.366 118.072  0.00  0.00     0.382 C 
ATOM     23  O   LIG d   1      -1.965  74.180 118.052  0.00  0.00    -0.241 OA
ATOM     24  O   LIG d   1      -2.817  75.844 119.134  0.00  0.00    -0.241 OA
ENDBRANCH   3  22
TORSDOF 7
ENDMDL
MODEL 4
REMARK VINA RESULT:      -5.0      2.858      4.251
REMARK  7 active torsions:
REMARK  status: ('A' for Active; 'I' for Inactive)
REMARK    1  A    between atoms: C_2  and  C_3 
REMARK    2  A    between atoms: C_3  and  O_6 
REMARK    3  A    between atoms: C_3  and  C_4 
REMARK    4  A    between atoms: C_7  and  O_6 
REMARK    5  A    between atoms: C_9  and  C_10 
REMARK    6  A    between atoms: N_15  and  C_14 
REMARK    7  A    between atoms: N_20  and  C_19 
REMARK       I    between atoms: C_22  and  N_20 
ROOT
ATOM      1  C   LIG d   1      -2.091  79.634 116.068  0.00  0.00     0.161 C 
ATOM      2  C   LIG d   1      -2.545  80.529 115.086  0.00  0.00     0.016 C 
ATOM      3  C   LIG d   1      -2.626  80.202 113.713  0.00  0.00     0.038 C 
ATOM      4  C   LIG d   1      -2.400  78.898 113.247  0.00  0.00     0.028 C 
ATOM      5  C   LIG d   1      -1.453  78.094 114.132  0.00  0.00    -0.047 C 
ATOM      6  C   LIG d   1      -1.946  78.173 115.595  0.00  0.00     0.091 C 
ENDROOT
BRANCH   1   7
ATOM      7  O   LIG d   1      -2.948  79.703 117.225  0.00  0.00    -0.368 OA
BRANCH   7   8
ATOM      8  C   LIG d   1      -3.711  80.925 117.382  0.00  0.00     0.119 C 
BRANCH   8   9
ATOM      9  C   LIG d   1      -3.193  81.635 118.647  0.00  0.00     0.028 C 
ATOM     10  C   LIG d   1      -1.830  82.312 118.424  0.00  0.00     0.006 C 
ENDBRANCH   8   9
BRANCH   8  11
ATOM     11  C   LIG d   1      -5.188  80.628 117.659  0.00  0.00     0.028 C 
ATOM     12  C   LIG d   1      -6.002  81.894 117.971  0.00  0.00     0.006 C 
ENDBRANCH   8  11
ENDBRANCH   7   8
ENDBRANCH   1   7
BRANCH   6  13
ATOM     13  N   LIG d   1      -1.029  77.483 116.539  0.00  0.00    -0.311 N 
ATOM     14  C   LIG d   1      -1.181  76.214 116.913  0.00  0.00     0.210 C 
ATOM     15  C   LIG d   1      -0.135  75.704 117.910  0.00  0.00     0.109 C 
ATOM     16  O   LIG d   1      -2.062  75.452 116.489  0.00  0.00    -0.276 OA
ATOM     17  H   LIG d   1      -0.267  78.018 116.908  0.00  0.00     0.149 HD
ENDBRANCH   6  13
BRANCH   5  18
ATOM     18  N   LIG d   1      -1.415  76.716 113.608  0.00  0.00     0.381 N 
ATOM     19  H   LIG d   1      -1.073  76.720 112.668  0.00  0.00    -0.090 HD
ATOM     20  H   LIG d   1      -2.349  76.345 113.601  0.00  0.00    -0.090 HD
ATOM     21  H   LIG d   1      -0.829  76.149 114.180  0.00  0.00    -0.090 HD
ENDBRANCH   5  18
BRANCH   3  22
ATOM     22  C   LIG d   1      -2.899  81.195 112.784  0.00  0.00     0.382 C 
ATOM     23  O   LIG d   1      -1.962  81.875 112.301  0.00  0.00    -0.241 OA
ATOM     24  O   LIG d   1      -4.073  81.449 112.456  0.00  0.00    -0.241 OA
ENDBRANCH   3  22
TORSDOF 7
ENDMDL
MODEL 5
REMARK VINA RESULT:      -4.9      1.653      2.350
REMARK  7 active torsions:
REMARK  status: ('A' for Active; 'I' for Inactive)
REMARK    1  A    between atoms: C_2  and  C_3 
REMARK    2  A    between atoms: C_3  and  O_6 
REMARK    3  A    between atoms: C_3  and  C_4 
REMARK    4  A    between atoms: C_7  and  O_6 
REMARK    5  A    between atoms: C_9  and  C_10 
REMARK    6  A    between atoms: N_15  and  C_14 
REMARK    7  A    between atoms: N_20  and  C_19 
REMARK       I    between atoms: C_22  and  N_20 
ROOT
ATOM      1  C   LIG d   1      -2.171  78.520 115.050  0.00  0.00     0.161 C 
ATOM      2  C   LIG d   1      -2.619  79.348 114.007  0.00  0.00     0.016 C 
ATOM      3  C   LIG d   1      -2.013  80.583 113.679  0.00  0.00     0.038 C 
ATOM      4  C   LIG d   1      -0.816  81.004 114.278  0.00  0.00     0.028 C 
ATOM      5  C   LIG d   1      -0.611  80.443 115.681  0.00  0.00    -0.047 C 
ATOM      6  C   LIG d   1      -0.800  78.909 115.641  0.00  0.00     0.091 C 
ENDROOT
BRANCH   1   7
ATOM      7  O   LIG d   1      -2.155  77.147 114.611  0.00  0.00    -0.368 OA
BRANCH   7   8
ATOM      8  C   LIG d   1      -3.197  76.295 115.147  0.00  0.00     0.119 C 
BRANCH   8   9
ATOM      9  C   LIG d   1      -2.533  75.323 116.142  0.00  0.00     0.028 C 
ATOM     10  C   LIG d   1      -1.121  74.905 115.701  0.00  0.00     0.006 C 
ENDBRANCH   8   9
BRANCH   8  11
ATOM     11  C   LIG d   1      -3.806  75.406 114.058  0.00  0.00     0.028 C 
ATOM     12  C   LIG d   1      -5.334  75.289 114.171  0.00  0.00     0.006 C 
ENDBRANCH   8  11
ENDBRANCH   7   8
ENDBRANCH   1   7
BRANCH   6  13
ATOM     13  N   LIG d   1      -0.700  78.291 116.989  0.00  0.00    -0.311 N 
ATOM     14  C   LIG d   1       0.422  77.755 117.468  0.00  0.00     0.210 C 
ATOM     15  C   LIG d   1       0.302  77.153 118.872  0.00  0.00     0.109 C 
ATOM     16  O   LIG d   1       1.512  77.750 116.877  0.00  0.00    -0.276 OA
ATOM     17  H   LIG d   1      -1.530  78.280 117.549  0.00  0.00     0.149 HD
ENDBRANCH   6  13
BRANCH   5  18
ATOM     18  N   LIG d   1       0.734  80.849 116.131  0.00  0.00     0.381 N 
ATOM     19  H   LIG d   1       0.657  81.551 116.839  0.00  0.00    -0.090 HD
ATOM     20  H   LIG d   1       1.233  81.239 115.352  0.00  0.00    -0.090 HD
ATOM     21  H   LIG d   1       1.226  80.060 116.489  0.00  0.00    -0.090 HD
ENDBRANCH   5  18
BRANCH   3  22
ATOM     22  C   LIG d   1      -2.627  81.430 112.769  0.00  0.00     0.382 C 
ATOM     23  O   LIG d   1      -3.866  81.359 112.584  0.00  0.00    -0.241 OA
ATOM     24  O   LIG d   1      -1.952  82.233 112.098  0.00  0.00    -0.241 OA
ENDBRANCH   3  22
TORSDOF 7
ENDMDL
MODEL 6
REMARK VINA RESULT:      -4.8      2.092      2.972
REMARK  7 active torsions:
REMARK  status: ('A' for Active; 'I' for Inactive)
REMARK    1  A    between atoms: C_2  and  C_3 
REMARK    2  A    between atoms: C_3  and  O_6 
REMARK    3  A    between atoms: C_3  and  C_4 
REMARK    4  A    between atoms: C_7  and  O_6 
REMARK    5  A    between atoms: C_9  and  C_10 
REMARK    6  A    between atoms: N_15  and  C_14 
REMARK    7  A    between atoms: N_20  and  C_19 
REMARK       I    between atoms: C_22  and  N_20 
ROOT
ATOM      1  C   LIG d   1      -2.996  76.348 116.000  0.00  0.00     0.161 C 
ATOM      2  C   LIG d   1      -3.254  77.417 115.126  0.00  0.00     0.016 C 
ATOM      3  C   LIG d   1      -2.466  77.698 113.986  0.00  0.00     0.038 C 
ATOM      4  C   LIG d   1      -1.450  76.831 113.555  0.00  0.00     0.028 C 
ATOM      5  C   LIG d   1      -0.830  76.016 114.685  0.00  0.00    -0.047 C 
ATOM      6  C   LIG d   1      -1.960  75.328 115.485  0.00  0.00     0.091 C 
ENDROOT
BRANCH   1   7
ATOM      7  O   LIG d   1      -4.230  75.683 116.336  0.00  0.00    -0.368 OA
BRANCH   7   8
ATOM      8  C   LIG d   1      -5.321  75.853 115.399  0.00  0.00     0.119 C 
BRANCH   8   9
ATOM      9  C   LIG d   1      -6.611  76.042 116.219  0.00  0.00     0.028 C 
ATOM     10  C   LIG d   1      -6.976  74.792 117.036  0.00  0.00     0.006 C 
ENDBRANCH   8   9
BRANCH   8  11
ATOM     11  C   LIG d   1      -5.549  74.583 114.573  0.00  0.00     0.028 C 
ATOM     12  C   LIG d   1      -4.864  74.636 113.198  0.00  0.00     0.006 C 
ENDBRANCH   8  11
ENDBRANCH   7   8
ENDBRANCH   1   7
BRANCH   6  13
ATOM     13  N   LIG d   1      -1.445  74.577 116.660  0.00  0.00    -0.311 N 
ATOM     14  C   LIG d   1      -0.724  75.137 117.630  0.00  0.00     0.210 C 
ATOM     15  C   LIG d   1      -0.277  74.180 118.739  0.00  0.00     0.109 C 
ATOM     16  O   LIG d   1      -0.439  76.343 117.693  0.00  0.00    -0.276 OA
ATOM     17  H   LIG d   1      -1.656  73.599 116.705  0.00  0.00     0.149 HD
ENDBRANCH   6  13
BRANCH   5  18
ATOM     18  N   LIG d   1       0.114  75.060 114.078  0.00  0.00     0.381 N 
ATOM     19  H   LIG d   1      -0.377  74.443 113.462  0.00  0.00    -0.090 HD
ATOM     20  H   LIG d   1       0.534  74.510 114.807  0.00  0.00    -0.090 HD
ATOM     21  H   LIG d   1       0.820  75.550 113.574  0.00  0.00    -0.090 HD
ENDBRANCH   5  18
BRANCH   3  22
ATOM     22  C   LIG d   1      -2.667  78.877 113.285  0.00  0.00     0.382 C 
ATOM     23  O   LIG d   1      -3.220  79.854 113.847  0.00  0.00    -0.241 OA
ATOM     24  O   LIG d   1      -2.342  78.963 112.086  0.00  0.00    -0.241 OA
ENDBRANCH   3  22
TORSDOF 7
ENDMDL
MODEL 7
REMARK VINA RESULT:      -4.6      2.904      3.400
REMARK  7 active torsions:
REMARK  status: ('A' for Active; 'I' for Inactive)
REMARK    1  A    between atoms: C_2  and  C_3 
REMARK    2  A    between atoms: C_3  and  O_6 
REMARK    3  A    between atoms: C_3  and  C_4 
REMARK    4  A    between atoms: C_7  and  O_6 
REMARK    5  A    between atoms: C_9  and  C_10 
REMARK    6  A    between atoms: N_15  and  C_14 
REMARK    7  A    between atoms: N_20  and  C_19 
REMARK       I    between atoms: C_22  and  N_20 
ROOT
ATOM      1  C   LIG d   1      -4.144  77.473 116.526  0.00  0.00     0.161 C 
ATOM      2  C   LIG d   1      -4.660  78.625 117.143  0.00  0.00     0.016 C 
ATOM      3  C   LIG d   1      -4.032  79.890 117.078  0.00  0.00     0.038 C 
ATOM      4  C   LIG d   1      -2.917  80.123 116.260  0.00  0.00     0.028 C 
ATOM      5  C   LIG d   1      -2.070  78.878 116.022  0.00  0.00    -0.047 C 
ATOM      6  C   LIG d   1      -2.988  77.732 115.538  0.00  0.00     0.091 C 
ENDROOT
BRANCH   1   7
ATOM      7  O   LIG d   1      -5.207  76.749 115.875  0.00  0.00    -0.368 OA
BRANCH   7   8
ATOM      8  C   LIG d   1      -5.588  75.491 116.484  0.00  0.00     0.119 C 
BRANCH   8   9
ATOM      9  C   LIG d   1      -5.862  74.490 115.345  0.00  0.00     0.028 C 
ATOM     10  C   LIG d   1      -5.388  75.011 113.978  0.00  0.00     0.006 C 
ENDBRANCH   8   9
BRANCH   8  11
ATOM     11  C   LIG d   1      -6.913  75.617 117.242  0.00  0.00     0.028 C 
ATOM     12  C   LIG d   1      -6.721  75.749 118.761  0.00  0.00     0.006 C 
ENDBRANCH   8  11
ENDBRANCH   7   8
ENDBRANCH   1   7
BRANCH   6  13
ATOM     13  N   LIG d   1      -2.252  76.453 115.361  0.00  0.00    -0.311 N 
ATOM     14  C   LIG d   1      -1.758  76.046 114.192  0.00  0.00     0.210 C 
ATOM     15  C   LIG d   1      -1.053  74.687 114.226  0.00  0.00     0.109 C 
ATOM     16  O   LIG d   1      -1.810  76.697 113.138  0.00  0.00    -0.276 OA
ATOM     17  H   LIG d   1      -2.138  75.877 116.172  0.00  0.00     0.149 HD
ENDBRANCH   6  13
BRANCH   5  18
ATOM     18  N   LIG d   1      -1.023  79.231 115.045  0.00  0.00     0.381 N 
ATOM     19  H   LIG d   1      -0.564  80.074 115.330  0.00  0.00    -0.090 HD
ATOM     20  H   LIG d   1      -1.453  79.393 114.151  0.00  0.00    -0.090 HD
ATOM     21  H   LIG d   1      -0.359  78.491 114.974  0.00  0.00    -0.090 HD
ENDBRANCH   5  18
BRANCH   3  22
ATOM     22  C   LIG d   1      -4.498  80.929 117.869  0.00  0.00     0.382 C 
ATOM     23  O   LIG d   1      -5.453  81.640 117.473  0.00  0.00    -0.241 OA
ATOM     24  O   LIG d   1      -3.946  81.193 118.954  0.00  0.00    -0.241 OA
ENDBRANCH   3  22
TORSDOF 7
ENDMDL
MODEL 8
REMARK VINA RESULT:      -4.6      2.959      4.429
REMARK  7 active torsions:
REMARK  status: ('A' for Active; 'I' for Inactive)
REMARK    1  A    between atoms: C_2  and  C_3 
REMARK    2  A    between atoms: C_3  and  O_6 
REMARK    3  A    between atoms: C_3  and  C_4 
REMARK    4  A    between atoms: C_7  and  O_6 
REMARK    5  A    between atoms: C_9  and  C_10 
REMARK    6  A    between atoms: N_15  and  C_14 
REMARK    7  A    between atoms: N_20  and  C_19 
REMARK       I    between atoms: C_22  and  N_20 
ROOT
ATOM      1  C   LIG d   1      -2.263  79.727 116.177  0.00  0.00     0.161 C 
ATOM      2  C   LIG d   1      -2.689  80.589 115.152  0.00  0.00     0.016 C 
ATOM      3  C   LIG d   1      -2.622  80.258 113.779  0.00  0.00     0.038 C 
ATOM      4  C   LIG d   1      -2.263  78.974 113.343  0.00  0.00     0.028 C 
ATOM      5  C   LIG d   1      -1.345  78.239 114.314  0.00  0.00    -0.047 C 
ATOM      6  C   LIG d   1      -1.972  78.280 115.726  0.00  0.00     0.091 C 
ENDROOT
BRANCH   1   7
ATOM      7  O   LIG d   1      -3.224  79.733 117.251  0.00  0.00    -0.368 OA
BRANCH   7   8
ATOM      8  C   LIG d   1      -2.850  80.477 118.437  0.00  0.00     0.119 C 
BRANCH   8   9
ATOM      9  C   LIG d   1      -3.798  81.687 118.543  0.00  0.00     0.028 C 
ATOM     10  C   LIG d   1      -5.170  81.415 117.902  0.00  0.00     0.006 C 
ENDBRANCH   8   9
BRANCH   8  11
ATOM     11  C   LIG d   1      -1.445  81.073 118.301  0.00  0.00     0.028 C 
ATOM     12  C   LIG d   1      -1.417  82.591 118.539  0.00  0.00     0.006 C 
ENDBRANCH   8  11
ENDBRANCH   7   8
ENDBRANCH   1   7
BRANCH   6  13
ATOM     13  N   LIG d   1      -1.097  77.657 116.753  0.00  0.00    -0.311 N 
ATOM     14  C   LIG d   1       0.157  78.043 116.981  0.00  0.00     0.210 C 
ATOM     15  C   LIG d   1       0.890  77.254 118.070  0.00  0.00     0.109 C 
ATOM     16  O   LIG d   1       0.722  78.985 116.406  0.00  0.00    -0.276 OA
ATOM     17  H   LIG d   1      -1.486  76.905 117.288  0.00  0.00     0.149 HD
ENDBRANCH   6  13
BRANCH   5  18
ATOM     18  N   LIG d   1      -1.161  76.867 113.803  0.00  0.00     0.381 N 
ATOM     19  H   LIG d   1      -2.052  76.464 113.589  0.00  0.00    -0.090 HD
ATOM     20  H   LIG d   1      -0.726  76.310 114.516  0.00  0.00    -0.090 HD
ATOM     21  H   LIG d   1      -0.590  76.881 112.987  0.00  0.00    -0.090 HD
ENDBRANCH   5  18
BRANCH   3  22
ATOM     22  C   LIG d   1      -2.879  81.230 112.825  0.00  0.00     0.382 C 
ATOM     23  O   LIG d   1      -4.060  81.466 112.472  0.00  0.00    -0.241 OA
ATOM     24  O   LIG d   1      -1.942  81.843 112.280  0.00  0.00    -0.241 OA
ENDBRANCH   3  22
TORSDOF 7
ENDMDL
MODEL 9
REMARK VINA RESULT:      -4.5      2.561      5.252
REMARK  7 active torsions:
REMARK  status: ('A' for Active; 'I' for Inactive)
REMARK    1  A    between atoms: C_2  and  C_3 
REMARK    2  A    between atoms: C_3  and  O_6 
REMARK    3  A    between atoms: C_3  and  C_4 
REMARK    4  A    between atoms: C_7  and  O_6 
REMARK    5  A    between atoms: C_9  and  C_10 
REMARK    6  A    between atoms: N_15  and  C_14 
REMARK    7  A    between atoms: N_20  and  C_19 
REMARK       I    between atoms: C_22  and  N_20 
ROOT
ATOM      1  C   LIG d   1      -2.607  77.541 115.985  0.00  0.00     0.161 C 
ATOM      2  C   LIG d   1      -1.343  77.905 116.476  0.00  0.00     0.016 C 
ATOM      3  C   LIG d   1      -0.147  77.241 116.115  0.00  0.00     0.038 C 
ATOM      4  C   LIG d   1      -0.118  76.258 115.115  0.00  0.00     0.028 C 
ATOM      5  C   LIG d   1      -1.439  75.513 114.959  0.00  0.00    -0.047 C 
ATOM      6  C   LIG d   1      -2.581  76.543 114.808  0.00  0.00     0.091 C 
ENDROOT
BRANCH   1   7
ATOM      7  O   LIG d   1      -3.350  78.722 115.624  0.00  0.00    -0.368 OA
BRANCH   7   8
ATOM      8  C   LIG d   1      -2.631  79.977 115.709  0.00  0.00     0.119 C 
BRANCH   8   9
ATOM      9  C   LIG d   1      -3.447  80.917 116.619  0.00  0.00     0.028 C 
ATOM     10  C   LIG d   1      -4.478  80.159 117.472  0.00  0.00     0.006 C 
ENDBRANCH   8   9
BRANCH   8  11
ATOM     11  C   LIG d   1      -2.573  80.679 114.349  0.00  0.00     0.028 C 
ATOM     12  C   LIG d   1      -1.772  79.887 113.304  0.00  0.00     0.006 C 
ENDBRANCH   8  11
ENDBRANCH   7   8
ENDBRANCH   1   7
BRANCH   6  13
ATOM     13  N   LIG d   1      -3.919  75.899 114.734  0.00  0.00    -0.311 N 
ATOM     14  C   LIG d   1      -4.758  76.067 113.714  0.00  0.00     0.210 C 
ATOM     15  C   LIG d   1      -6.094  75.329 113.847  0.00  0.00     0.109 C 
ATOM     16  O   LIG d   1      -4.510  76.732 112.696  0.00  0.00    -0.276 OA
ATOM     17  H   LIG d   1      -4.188  75.318 115.504  0.00  0.00     0.149 HD
ENDBRANCH   6  13
BRANCH   5  18
ATOM     18  N   LIG d   1      -1.310  74.617 113.794  0.00  0.00     0.381 N 
ATOM     19  H   LIG d   1      -0.495  74.860 113.268  0.00  0.00    -0.090 HD
ATOM     20  H   LIG d   1      -2.114  74.736 113.203  0.00  0.00    -0.090 HD
ATOM     21  H   LIG d   1      -1.249  73.670 114.097  0.00  0.00    -0.090 HD
ENDBRANCH   5  18
BRANCH   3  22
ATOM     22  C   LIG d   1       1.030  77.533 116.787  0.00  0.00     0.382 C 
ATOM     23  O   LIG d   1       2.134  77.392 116.208  0.00  0.00    -0.241 OA
ATOM     24  O   LIG d   1       1.005  77.892 117.980  0.00  0.00    -0.241 OA
ENDBRANCH   3  22
TORSDOF 7
ENDMDL
