MODEL 1
REMARK VINA RESULT:      -5.5      0.000      0.000
REMARK  7 active torsions:
REMARK  status: ('A' for Active; 'I' for Inactive)
REMARK    1  A    between atoms: C_2  and  C_3 
REMARK    2  A    between atoms: C_3  and  O_6 
REMARK    3  A    between atoms: C_3  and  C_4 
REMARK    4  A    between atoms: C_7  and  O_6 
REMARK    5  A    between atoms: C_9  and  C_10 
REMARK    6  A    between atoms: N_15  and  C_14 
REMARK    7  A    between atoms: N_20  and  C_19 
REMARK       I    between atoms: C_22  and  N_20 
ROOT
ATOM      1  C   LIG d   1      -0.398  82.154 112.097  0.00  0.00     0.161 C 
ATOM      2  C   LIG d   1      -1.463  81.421 112.648  0.00  0.00     0.016 C 
ATOM      3  C   LIG d   1      -1.754  80.084 112.291  0.00  0.00     0.038 C 
ATOM      4  C   LIG d   1      -0.902  79.335 111.465  0.00  0.00     0.028 C 
ATOM      5  C   LIG d   1      -0.097  80.189 110.491  0.00  0.00    -0.047 C 
ATOM      6  C   LIG d   1       0.607  81.318 111.278  0.00  0.00     0.091 C 
ENDROOT
BRANCH   1   7
ATOM      7  O   LIG d   1       0.285  82.880 113.138  0.00  0.00    -0.368 OA
BRANCH   7   8
ATOM      8  C   LIG d   1      -0.060  82.519 114.499  0.00  0.00     0.119 C 
BRANCH   8   9
ATOM      9  C   LIG d   1      -0.363  83.823 115.261  0.00  0.00     0.028 C 
ATOM     10  C   LIG d   1      -1.492  84.636 114.607  0.00  0.00     0.006 C 
ENDBRANCH   8   9
BRANCH   8  11
ATOM     11  C   LIG d   1       1.133  81.891 115.227  0.00  0.00     0.028 C 
ATOM     12  C   LIG d   1       1.495  80.498 114.687  0.00  0.00     0.006 C 
ENDBRANCH   8  11
ENDBRANCH   7   8
ENDBRANCH   1   7
BRANCH   6  13
ATOM     13  N   LIG d   1       1.349  82.250 110.390  0.00  0.00    -0.311 N 
ATOM     14  C   LIG d   1       2.674  82.389 110.415  0.00  0.00     0.210 C 
ATOM     15  C   LIG d   1       3.235  83.419 109.430  0.00  0.00     0.109 C 
ATOM     16  O   LIG d   1       3.440  81.733 111.137  0.00  0.00    -0.276 OA
ATOM     17  H   LIG d   1       0.808  82.799 109.751  0.00  0.00     0.149 HD
ENDBRANCH   6  13
BRANCH   5  18
ATOM     18  N   LIG d   1       0.846  79.297 109.790  0.00  0.00     0.381 N 
ATOM     19  H   LIG d   1       0.833  78.391 110.214  0.00  0.00    -0.090 HD
ATOM     20  H   LIG d   1       1.774  79.673 109.877  0.00  0.00    -0.090 HD
ATOM     21  H   LIG d   1       0.597  79.226 108.828  0.00  0.00    -0.090 HD
ENDBRANCH   5  18
BRANCH   3  22
ATOM     22  C   LIG d   1      -2.930  79.495 112.730  0.00  0.00     0.382 C 
ATOM     23  O   LIG d   1      -3.465  79.885 113.796  0.00  0.00    -0.241 OA
ATOM     24  O   LIG d   1      -3.438  78.550 112.098  0.00  0.00    -0.241 OA
ENDBRANCH   3  22
TORSDOF 7
ENDMDL
MODEL 2
REMARK VINA RESULT:      -5.2      2.020      2.621
REMARK  7 active torsions:
REMARK  status: ('A' for Active; 'I' for Inactive)
REMARK    1  A    between atoms: C_2  and  C_3 
REMARK    2  A    between atoms: C_3  and  O_6 
REMARK    3  A    between atoms: C_3  and  C_4 
REMARK    4  A    between atoms: C_7  and  O_6 
REMARK    5  A    between atoms: C_9  and  C_10 
REMARK    6  A    between atoms: N_15  and  C_14 
REMARK    7  A    between atoms: N_20  and  C_19 
REMARK       I    between atoms: C_22  and  N_20 
ROOT
ATOM      1  C   LIG d   1      -2.557  81.444 112.707  0.00  0.00     0.161 C 
ATOM      2  C   LIG d   1      -2.970  80.259 113.340  0.00  0.00     0.016 C 
ATOM      3  C   LIG d   1      -2.285  79.029 113.211  0.00  0.00     0.038 C 
ATOM      4  C   LIG d   1      -1.047  78.934 112.559  0.00  0.00     0.028 C 
ATOM      5  C   LIG d   1      -0.848  79.993 111.480  0.00  0.00    -0.047 C 
ATOM      6  C   LIG d   1      -1.147  81.385 112.082  0.00  0.00     0.091 C 
ENDROOT
BRANCH   1   7
ATOM      7  O   LIG d   1      -2.651  82.548 113.629  0.00  0.00    -0.368 OA
BRANCH   7   8
ATOM      8  C   LIG d   1      -1.954  82.387 114.889  0.00  0.00     0.119 C 
BRANCH   8   9
ATOM      9  C   LIG d   1      -2.977  82.623 116.017  0.00  0.00     0.028 C 
ATOM     10  C   LIG d   1      -2.666  81.794 117.275  0.00  0.00     0.006 C 
ENDBRANCH   8   9
BRANCH   8  11
ATOM     11  C   LIG d   1      -0.887  83.469 115.078  0.00  0.00     0.028 C 
ATOM     12  C   LIG d   1      -1.094  84.679 114.153  0.00  0.00     0.006 C 
ENDBRANCH   8  11
ENDBRANCH   7   8
ENDBRANCH   1   7
BRANCH   6  13
ATOM     13  N   LIG d   1      -1.058  82.471 111.072  0.00  0.00    -0.311 N 
ATOM     14  C   LIG d   1       0.015  83.246 110.920  0.00  0.00     0.210 C 
ATOM     15  C   LIG d   1      -0.110  84.318 109.833  0.00  0.00     0.109 C 
ATOM     16  O   LIG d   1       1.070  83.125 111.561  0.00  0.00    -0.276 OA
ATOM     17  H   LIG d   1      -1.858  82.618 110.488  0.00  0.00     0.149 HD
ENDBRANCH   6  13
BRANCH   5  18
ATOM     18  N   LIG d   1       0.534  79.865 110.979  0.00  0.00     0.381 N 
ATOM     19  H   LIG d   1       1.085  80.634 111.305  0.00  0.00    -0.090 HD
ATOM     20  H   LIG d   1       0.519  79.891 109.974  0.00  0.00    -0.090 HD
ATOM     21  H   LIG d   1       0.931  79.006 111.290  0.00  0.00    -0.090 HD
ENDBRANCH   5  18
BRANCH   3  22
ATOM     22  C   LIG d   1      -2.859  77.868 113.706  0.00  0.00     0.382 C 
ATOM     23  O   LIG d   1      -3.685  77.929 114.648  0.00  0.00    -0.241 OA
ATOM     24  O   LIG d   1      -2.529  76.756 113.251  0.00  0.00    -0.241 OA
ENDBRANCH   3  22
TORSDOF 7
ENDMDL
MODEL 3
REMARK VINA RESULT:      -5.1      1.867      4.871
REMARK  7 active torsions:
REMARK  status: ('A' for Active; 'I' for Inactive)
REMARK    1  A    between atoms: C_2  and  C_3 
REMARK    2  A    between atoms: C_3  and  O_6 
REMARK    3  A    between atoms: C_3  and  C_4 
REMARK    4  A    between atoms: C_7  and  O_6 
REMARK    5  A    between atoms: C_9  and  C_10 
REMARK    6  A    between atoms: N_15  and  C_14 
REMARK    7  A    between atoms: N_20  and  C_19 
REMARK       I    between atoms: C_22  and  N_20 
ROOT
ATOM      1  C   LIG d   1       0.577  81.323 113.436  0.00  0.00     0.161 C 
ATOM      2  C   LIG d   1       1.313  82.329 112.789  0.00  0.00     0.016 C 
ATOM      3  C   LIG d   1       1.490  82.385 111.388  0.00  0.00     0.038 C 
ATOM      4  C   LIG d   1       0.812  81.517 110.520  0.00  0.00     0.028 C 
ATOM      5  C   LIG d   1       0.462  80.176 111.156  0.00  0.00    -0.047 C 
ATOM      6  C   LIG d   1      -0.262  80.431 112.498  0.00  0.00     0.091 C 
ENDROOT
BRANCH   1   7
ATOM      7  O   LIG d   1      -0.260  81.907 114.454  0.00  0.00    -0.368 OA
BRANCH   7   8
ATOM      8  C   LIG d   1      -1.322  82.774 113.984  0.00  0.00     0.119 C 
BRANCH   8   9
ATOM      9  C   LIG d   1      -1.268  84.067 114.821  0.00  0.00     0.028 C 
ATOM     10  C   LIG d   1       0.080  84.246 115.539  0.00  0.00     0.006 C 
ENDBRANCH   8   9
BRANCH   8  11
ATOM     11  C   LIG d   1      -2.701  82.167 114.264  0.00  0.00     0.028 C 
ATOM     12  C   LIG d   1      -3.365  82.751 115.520  0.00  0.00     0.006 C 
ENDBRANCH   8  11
ENDBRANCH   7   8
ENDBRANCH   1   7
BRANCH   6  13
ATOM     13  N   LIG d   1      -0.565  79.171 113.226  0.00  0.00    -0.311 N 
ATOM     14  C   LIG d   1      -1.698  78.488 113.069  0.00  0.00     0.210 C 
ATOM     15  C   LIG d   1      -1.817  77.227 113.931  0.00  0.00     0.109 C 
ATOM     16  O   LIG d   1      -2.601  78.789 112.274  0.00  0.00    -0.276 OA
ATOM     17  H   LIG d   1       0.127  78.838 113.869  0.00  0.00     0.149 HD
ENDBRANCH   6  13
BRANCH   5  18
ATOM     18  N   LIG d   1      -0.361  79.425 110.189  0.00  0.00     0.381 N 
ATOM     19  H   LIG d   1       0.211  78.770 109.694  0.00  0.00    -0.090 HD
ATOM     20  H   LIG d   1      -0.749  80.070 109.523  0.00  0.00    -0.090 HD
ATOM     21  H   LIG d   1      -1.093  78.945 110.664  0.00  0.00    -0.090 HD
ENDBRANCH   5  18
BRANCH   3  22
ATOM     22  C   LIG d   1       2.386  83.294 110.844  0.00  0.00     0.382 C 
ATOM     23  O   LIG d   1       2.409  83.485 109.604  0.00  0.00    -0.241 OA
ATOM     24  O   LIG d   1       3.200  83.892 111.572  0.00  0.00    -0.241 OA
ENDBRANCH   3  22
TORSDOF 7
ENDMDL
MODEL 4
REMARK VINA RESULT:      -5.0      2.812      5.470
REMARK  7 active torsions:
REMARK  status: ('A' for Active; 'I' for Inactive)
REMARK    1  A    between atoms: C_2  and  C_3 
REMARK    2  A    between atoms: C_3  and  O_6 
REMARK    3  A    between atoms: C_3  and  C_4 
REMARK    4  A    between atoms: C_7  and  O_6 
REMARK    5  A    between atoms: C_9  and  C_10 
REMARK    6  A    between atoms: N_15  and  C_14 
REMARK    7  A    between atoms: N_20  and  C_19 
REMARK       I    between atoms: C_22  and  N_20 
ROOT
ATOM      1  C   LIG d   1      -2.027  80.299 114.036  0.00  0.00     0.161 C 
ATOM      2  C   LIG d   1      -1.903  81.674 113.780  0.00  0.00     0.016 C 
ATOM      3  C   LIG d   1      -1.316  82.198 112.606  0.00  0.00     0.038 C 
ATOM      4  C   LIG d   1      -0.945  81.375 111.532  0.00  0.00     0.028 C 
ATOM      5  C   LIG d   1      -0.587  79.954 111.953  0.00  0.00    -0.047 C 
ATOM      6  C   LIG d   1      -1.729  79.387 112.827  0.00  0.00     0.091 C 
ENDROOT
BRANCH   1   7
ATOM      7  O   LIG d   1      -3.337  80.016 114.567  0.00  0.00    -0.368 OA
BRANCH   7   8
ATOM      8  C   LIG d   1      -3.403  79.738 115.987  0.00  0.00     0.119 C 
BRANCH   8   9
ATOM      9  C   LIG d   1      -4.396  78.576 116.186  0.00  0.00     0.028 C 
ATOM     10  C   LIG d   1      -5.608  78.981 117.042  0.00  0.00     0.006 C 
ENDBRANCH   8   9
BRANCH   8  11
ATOM     11  C   LIG d   1      -4.000  80.919 116.759  0.00  0.00     0.028 C 
ATOM     12  C   LIG d   1      -2.974  81.619 117.664  0.00  0.00     0.006 C 
ENDBRANCH   8  11
ENDBRANCH   7   8
ENDBRANCH   1   7
BRANCH   6  13
ATOM     13  N   LIG d   1      -1.422  78.031 113.352  0.00  0.00    -0.311 N 
ATOM     14  C   LIG d   1      -2.321  77.051 113.422  0.00  0.00     0.210 C 
ATOM     15  C   LIG d   1      -1.801  75.737 114.014  0.00  0.00     0.109 C 
ATOM     16  O   LIG d   1      -3.492  77.135 113.021  0.00  0.00    -0.276 OA
ATOM     17  H   LIG d   1      -0.487  77.866 113.670  0.00  0.00     0.149 HD
ENDBRANCH   6  13
BRANCH   5  18
ATOM     18  N   LIG d   1      -0.355  79.170 110.726  0.00  0.00     0.381 N 
ATOM     19  H   LIG d   1       0.475  78.620 110.826  0.00  0.00    -0.090 HD
ATOM     20  H   LIG d   1      -0.224  79.802 109.956  0.00  0.00    -0.090 HD
ATOM     21  H   LIG d   1      -1.136  78.576 110.547  0.00  0.00    -0.090 HD
ENDBRANCH   5  18
BRANCH   3  22
ATOM     22  C   LIG d   1      -1.057  83.557 112.514  0.00  0.00     0.382 C 
ATOM     23  O   LIG d   1      -0.793  84.216 113.549  0.00  0.00    -0.241 OA
ATOM     24  O   LIG d   1      -1.126  84.141 111.416  0.00  0.00    -0.241 OA
ENDBRANCH   3  22
TORSDOF 7
ENDMDL
MODEL 5
REMARK VINA RESULT:      -4.9      2.504      5.085
REMARK  7 active torsions:
REMARK  status: ('A' for Active; 'I' for Inactive)
REMARK    1  A    between atoms: C_2  and  C_3 
REMARK    2  A    between atoms: C_3  and  O_6 
REMARK    3  A    between atoms: C_3  and  C_4 
REMARK    4  A    between atoms: C_7  and  O_6 
REMARK    5  A    between atoms: C_9  and  C_10 
REMARK    6  A    between atoms: N_15  and  C_14 
REMARK    7  A    between atoms: N_20  and  C_19 
REMARK       I    between atoms: C_22  and  N_20 
ROOT
ATOM      1  C   LIG d   1      -0.317  80.389 114.545  0.00  0.00     0.161 C 
ATOM      2  C   LIG d   1       0.186  81.666 114.243  0.00  0.00     0.016 C 
ATOM      3  C   LIG d   1       0.300  82.165 112.925  0.00  0.00     0.038 C 
ATOM      4  C   LIG d   1      -0.225  81.474 111.822  0.00  0.00     0.028 C 
ATOM      5  C   LIG d   1      -0.284  79.964 112.026  0.00  0.00    -0.047 C 
ATOM      6  C   LIG d   1      -0.998  79.666 113.365  0.00  0.00     0.091 C 
ENDROOT
BRANCH   1   7
ATOM      7  O   LIG d   1      -1.217  80.473 115.668  0.00  0.00    -0.368 OA
BRANCH   7   8
ATOM      8  C   LIG d   1      -2.577  80.871 115.367  0.00  0.00     0.119 C 
BRANCH   8   9
ATOM      9  C   LIG d   1      -2.867  82.163 116.154  0.00  0.00     0.028 C 
ATOM     10  C   LIG d   1      -3.068  83.379 115.234  0.00  0.00     0.006 C 
ENDBRANCH   8   9
BRANCH   8  11
ATOM     11  C   LIG d   1      -3.587  79.844 115.887  0.00  0.00     0.028 C 
ATOM     12  C   LIG d   1      -2.950  78.804 116.823  0.00  0.00     0.006 C 
ENDBRANCH   8  11
ENDBRANCH   7   8
ENDBRANCH   1   7
BRANCH   6  13
ATOM     13  N   LIG d   1      -1.024  78.214 113.682  0.00  0.00    -0.311 N 
ATOM     14  C   LIG d   1      -2.080  77.434 113.458  0.00  0.00     0.210 C 
ATOM     15  C   LIG d   1      -1.904  75.971 113.877  0.00  0.00     0.109 C 
ATOM     16  O   LIG d   1      -3.135  77.807 112.923  0.00  0.00    -0.276 OA
ATOM     17  H   LIG d   1      -0.199  77.821 114.091  0.00  0.00     0.149 HD
ENDBRANCH   6  13
BRANCH   5  18
ATOM     18  N   LIG d   1      -0.977  79.384 110.860  0.00  0.00     0.381 N 
ATOM     19  H   LIG d   1      -1.023  80.058 110.123  0.00  0.00    -0.090 HD
ATOM     20  H   LIG d   1      -1.916  79.144 111.126  0.00  0.00    -0.090 HD
ATOM     21  H   LIG d   1      -0.495  78.570 110.547  0.00  0.00    -0.090 HD
ENDBRANCH   5  18
BRANCH   3  22
ATOM     22  C   LIG d   1       0.982  83.350 112.695  0.00  0.00     0.382 C 
ATOM     23  O   LIG d   1       2.149  83.323 112.236  0.00  0.00    -0.241 OA
ATOM     24  O   LIG d   1       0.461  84.444 112.984  0.00  0.00    -0.241 OA
ENDBRANCH   3  22
TORSDOF 7
ENDMDL
MODEL 6
REMARK VINA RESULT:      -4.9      4.192      6.683
REMARK  7 active torsions:
REMARK  status: ('A' for Active; 'I' for Inactive)
REMARK    1  A    between atoms: C_2  and  C_3 
REMARK    2  A    between atoms: C_3  and  O_6 
REMARK    3  A    between atoms: C_3  and  C_4 
REMARK    4  A    between atoms: C_7  and  O_6 
REMARK    5  A    between atoms: C_9  and  C_10 
REMARK    6  A    between atoms: N_15  and  C_14 
REMARK    7  A    between atoms: N_20  and  C_19 
REMARK       I    between atoms: C_22  and  N_20 
ROOT
ATOM      1  C   LIG d   1      -2.283  77.983 114.110  0.00  0.00     0.161 C 
ATOM      2  C   LIG d   1      -2.611  78.957 113.153  0.00  0.00     0.016 C 
ATOM      3  C   LIG d   1      -2.197  80.306 113.242  0.00  0.00     0.038 C 
ATOM      4  C   LIG d   1      -1.295  80.741 114.224  0.00  0.00     0.028 C 
ATOM      5  C   LIG d   1      -1.340  79.909 115.500  0.00  0.00    -0.047 C 
ATOM      6  C   LIG d   1      -1.208  78.414 115.129  0.00  0.00     0.091 C 
ENDROOT
BRANCH   1   7
ATOM      7  O   LIG d   1      -1.889  76.763 113.452  0.00  0.00    -0.368 OA
BRANCH   7   8
ATOM      8  C   LIG d   1      -2.742  75.613 113.676  0.00  0.00     0.119 C 
BRANCH   8   9
ATOM      9  C   LIG d   1      -4.017  76.113 114.383  0.00  0.00     0.028 C 
ATOM     10  C   LIG d   1      -5.256  75.278 114.018  0.00  0.00     0.006 C 
ENDBRANCH   8   9
BRANCH   8  11
ATOM     11  C   LIG d   1      -2.098  74.625 114.653  0.00  0.00     0.028 C 
ATOM     12  C   LIG d   1      -0.659  74.251 114.261  0.00  0.00     0.006 C 
ENDBRANCH   8  11
ENDBRANCH   7   8
ENDBRANCH   1   7
BRANCH   6  13
ATOM     13  N   LIG d   1      -1.327  77.523 116.313  0.00  0.00    -0.311 N 
ATOM     14  C   LIG d   1      -0.278  77.050 116.983  0.00  0.00     0.210 C 
ATOM     15  C   LIG d   1      -0.623  76.132 118.161  0.00  0.00     0.109 C 
ATOM     16  O   LIG d   1       0.905  77.328 116.734  0.00  0.00    -0.276 OA
ATOM     17  H   LIG d   1      -2.252  77.272 116.603  0.00  0.00     0.149 HD
ENDBRANCH   6  13
BRANCH   5  18
ATOM     18  N   LIG d   1      -0.257  80.384 116.381  0.00  0.00     0.381 N 
ATOM     19  H   LIG d   1       0.592  79.901 116.165  0.00  0.00    -0.090 HD
ATOM     20  H   LIG d   1      -0.501  80.182 117.335  0.00  0.00    -0.090 HD
ATOM     21  H   LIG d   1      -0.128  81.365 116.265  0.00  0.00    -0.090 HD
ENDBRANCH   5  18
BRANCH   3  22
ATOM     22  C   LIG d   1      -2.719  81.244 112.365  0.00  0.00     0.382 C 
ATOM     23  O   LIG d   1      -1.962  81.842 111.563  0.00  0.00    -0.241 OA
ATOM     24  O   LIG d   1      -3.931  81.533 112.396  0.00  0.00    -0.241 OA
ENDBRANCH   3  22
TORSDOF 7
ENDMDL
MODEL 7
REMARK VINA RESULT:      -4.7      2.464      4.349
REMARK  7 active torsions:
REMARK  status: ('A' for Active; 'I' for Inactive)
REMARK    1  A    between atoms: C_2  and  C_3 
REMARK    2  A    between atoms: C_3  and  O_6 
REMARK    3  A    between atoms: C_3  and  C_4 
REMARK    4  A    between atoms: C_7  and  O_6 
REMARK    5  A    between atoms: C_9  and  C_10 
REMARK    6  A    between atoms: N_15  and  C_14 
REMARK    7  A    between atoms: N_20  and  C_19 
REMARK       I    between atoms: C_22  and  N_20 
ROOT
ATOM      1  C   LIG d   1      -0.795  80.410 112.533  0.00  0.00     0.161 C 
ATOM      2  C   LIG d   1      -1.487  79.190 112.596  0.00  0.00     0.016 C 
ATOM      3  C   LIG d   1      -2.448  78.890 113.590  0.00  0.00     0.038 C 
ATOM      4  C   LIG d   1      -2.894  79.855 114.505  0.00  0.00     0.028 C 
ATOM      5  C   LIG d   1      -1.860  80.938 114.795  0.00  0.00    -0.047 C 
ATOM      6  C   LIG d   1      -1.349  81.516 113.456  0.00  0.00     0.091 C 
ENDROOT
BRANCH   1   7
ATOM      7  O   LIG d   1      -0.746  80.874 111.169  0.00  0.00    -0.368 OA
BRANCH   7   8
ATOM      8  C   LIG d   1       0.576  81.039 110.600  0.00  0.00     0.119 C 
BRANCH   8   9
ATOM      9  C   LIG d   1       0.635  82.442 109.966  0.00  0.00     0.028 C 
ATOM     10  C   LIG d   1       1.938  83.186 110.307  0.00  0.00     0.006 C 
ENDBRANCH   8   9
BRANCH   8  11
ATOM     11  C   LIG d   1       0.810  80.062 109.444  0.00  0.00     0.028 C 
ATOM     12  C   LIG d   1       2.235  79.486 109.430  0.00  0.00     0.006 C 
ENDBRANCH   8  11
ENDBRANCH   7   8
ENDBRANCH   1   7
BRANCH   6  13
ATOM     13  N   LIG d   1      -0.273  82.523 113.647  0.00  0.00    -0.311 N 
ATOM     14  C   LIG d   1      -0.392  83.800 113.288  0.00  0.00     0.210 C 
ATOM     15  C   LIG d   1       0.844  84.665 113.556  0.00  0.00     0.109 C 
ATOM     16  O   LIG d   1      -1.415  84.306 112.803  0.00  0.00    -0.276 OA
ATOM     17  H   LIG d   1       0.581  82.205 114.063  0.00  0.00     0.149 HD
ENDBRANCH   6  13
BRANCH   5  18
ATOM     18  N   LIG d   1      -2.504  81.950 115.654  0.00  0.00     0.381 N 
ATOM     19  H   LIG d   1      -1.805  82.483 116.132  0.00  0.00    -0.090 HD
ATOM     20  H   LIG d   1      -3.068  81.482 116.341  0.00  0.00    -0.090 HD
ATOM     21  H   LIG d   1      -3.072  82.554 115.102  0.00  0.00    -0.090 HD
ENDBRANCH   5  18
BRANCH   3  22
ATOM     22  C   LIG d   1      -2.943  77.600 113.699  0.00  0.00     0.382 C 
ATOM     23  O   LIG d   1      -3.734  77.156 112.832  0.00  0.00    -0.241 OA
ATOM     24  O   LIG d   1      -2.645  76.889 114.678  0.00  0.00    -0.241 OA
ENDBRANCH   3  22
TORSDOF 7
ENDMDL
MODEL 8
REMARK VINA RESULT:      -4.6      4.772      7.093
REMARK  7 active torsions:
REMARK  status: ('A' for Active; 'I' for Inactive)
REMARK    1  A    between atoms: C_2  and  C_3 
REMARK    2  A    between atoms: C_3  and  O_6 
REMARK    3  A    between atoms: C_3  and  C_4 
REMARK    4  A    between atoms: C_7  and  O_6 
REMARK    5  A    between atoms: C_9  and  C_10 
REMARK    6  A    between atoms: N_15  and  C_14 
REMARK    7  A    between atoms: N_20  and  C_19 
REMARK       I    between atoms: C_22  and  N_20 
ROOT
ATOM      1  C   LIG d   1      -3.055  78.787 115.328  0.00  0.00     0.161 C 
ATOM      2  C   LIG d   1      -2.486  77.708 114.631  0.00  0.00     0.016 C 
ATOM      3  C   LIG d   1      -2.752  76.354 114.942  0.00  0.00     0.038 C 
ATOM      4  C   LIG d   1      -3.728  75.987 115.880  0.00  0.00     0.028 C 
ATOM      5  C   LIG d   1      -3.958  77.039 116.959  0.00  0.00    -0.047 C 
ATOM      6  C   LIG d   1      -4.207  78.406 116.281  0.00  0.00     0.091 C 
ENDROOT
BRANCH   1   7
ATOM      7  O   LIG d   1      -3.488  79.797 114.396  0.00  0.00    -0.368 OA
BRANCH   7   8
ATOM      8  C   LIG d   1      -2.546  80.864 114.128  0.00  0.00     0.119 C 
BRANCH   8   9
ATOM      9  C   LIG d   1      -3.132  82.159 114.721  0.00  0.00     0.028 C 
ATOM     10  C   LIG d   1      -2.552  82.484 116.109  0.00  0.00     0.006 C 
ENDBRANCH   8   9
BRANCH   8  11
ATOM     11  C   LIG d   1      -2.417  81.129 112.625  0.00  0.00     0.028 C 
ATOM     12  C   LIG d   1      -1.506  80.113 111.917  0.00  0.00     0.006 C 
ENDBRANCH   8  11
ENDBRANCH   7   8
ENDBRANCH   1   7
BRANCH   6  13
ATOM     13  N   LIG d   1      -4.358  79.508 117.267  0.00  0.00    -0.311 N 
ATOM     14  C   LIG d   1      -5.492  80.183 117.443  0.00  0.00     0.210 C 
ATOM     15  C   LIG d   1      -5.427  81.294 118.497  0.00  0.00     0.109 C 
ATOM     16  O   LIG d   1      -6.556  79.947 116.851  0.00  0.00    -0.276 OA
ATOM     17  H   LIG d   1      -3.553  79.745 117.813  0.00  0.00     0.149 HD
ENDBRANCH   6  13
BRANCH   5  18
ATOM     18  N   LIG d   1      -5.093  76.589 117.786  0.00  0.00     0.381 N 
ATOM     19  H   LIG d   1      -5.243  77.234 118.536  0.00  0.00    -0.090 HD
ATOM     20  H   LIG d   1      -4.872  75.692 118.180  0.00  0.00    -0.090 HD
ATOM     21  H   LIG d   1      -5.916  76.521 117.228  0.00  0.00    -0.090 HD
ENDBRANCH   5  18
BRANCH   3  22
ATOM     22  C   LIG d   1      -2.007  75.352 114.338  0.00  0.00     0.382 C 
ATOM     23  O   LIG d   1      -1.509  75.539 113.202  0.00  0.00    -0.241 OA
ATOM     24  O   LIG d   1      -1.865  74.248 114.897  0.00  0.00    -0.241 OA
ENDBRANCH   3  22
TORSDOF 7
ENDMDL
MODEL 9
REMARK VINA RESULT:      -4.5      2.213      5.179
REMARK  7 active torsions:
REMARK  status: ('A' for Active; 'I' for Inactive)
REMARK    1  A    between atoms: C_2  and  C_3 
REMARK    2  A    between atoms: C_3  and  O_6 
REMARK    3  A    between atoms: C_3  and  C_4 
REMARK    4  A    between atoms: C_7  and  O_6 
REMARK    5  A    between atoms: C_9  and  C_10 
REMARK    6  A    between atoms: N_15  and  C_14 
REMARK    7  A    between atoms: N_20  and  C_19 
REMARK       I    between atoms: C_22  and  N_20 
ROOT
ATOM      1  C   LIG d   1       0.599  80.038 114.257  0.00  0.00     0.161 C 
ATOM      2  C   LIG d   1       1.571  80.478 113.344  0.00  0.00     0.016 C 
ATOM      3  C   LIG d   1       1.334  80.606 111.956  0.00  0.00     0.038 C 
ATOM      4  C   LIG d   1       0.054  80.445 111.405  0.00  0.00     0.028 C 
ATOM      5  C   LIG d   1      -0.840  79.510 112.213  0.00  0.00    -0.047 C 
ATOM      6  C   LIG d   1      -0.834  79.964 113.690  0.00  0.00     0.091 C 
ENDROOT
BRANCH   1   7
ATOM      7  O   LIG d   1       0.628  80.863 115.439  0.00  0.00    -0.368 OA
BRANCH   7   8
ATOM      8  C   LIG d   1       0.654  82.295 115.215  0.00  0.00     0.119 C 
BRANCH   8   9
ATOM      9  C   LIG d   1       1.677  82.898 116.197  0.00  0.00     0.028 C 
ATOM     10  C   LIG d   1       2.613  81.834 116.796  0.00  0.00     0.006 C 
ENDBRANCH   8   9
BRANCH   8  11
ATOM     11  C   LIG d   1      -0.686  82.940 115.579  0.00  0.00     0.028 C 
ATOM     12  C   LIG d   1      -1.428  82.184 116.693  0.00  0.00     0.006 C 
ENDBRANCH   8  11
ENDBRANCH   7   8
ENDBRANCH   1   7
BRANCH   6  13
ATOM     13  N   LIG d   1      -1.618  79.054 114.566  0.00  0.00    -0.311 N 
ATOM     14  C   LIG d   1      -2.899  79.253 114.871  0.00  0.00     0.210 C 
ATOM     15  C   LIG d   1      -3.512  78.205 115.805  0.00  0.00     0.109 C 
ATOM     16  O   LIG d   1      -3.595  80.180 114.430  0.00  0.00    -0.276 OA
ATOM     17  H   LIG d   1      -1.139  78.258 114.941  0.00  0.00     0.149 HD
ENDBRANCH   6  13
BRANCH   5  18
ATOM     18  N   LIG d   1      -2.183  79.542 111.603  0.00  0.00     0.381 N 
ATOM     19  H   LIG d   1      -2.810  80.053 112.191  0.00  0.00    -0.090 HD
ATOM     20  H   LIG d   1      -2.525  78.600 111.522  0.00  0.00    -0.090 HD
ATOM     21  H   LIG d   1      -2.139  79.966 110.703  0.00  0.00    -0.090 HD
ENDBRANCH   5  18
BRANCH   3  22
ATOM     22  C   LIG d   1       2.394  80.859 111.099  0.00  0.00     0.382 C 
ATOM     23  O   LIG d   1       2.568  80.138 110.087  0.00  0.00    -0.241 OA
ATOM     24  O   LIG d   1       3.204  81.773 111.347  0.00  0.00    -0.241 OA
ENDBRANCH   3  22
TORSDOF 7
ENDMDL
