MODEL 1
REMARK VINA RESULT:      -4.9      0.000      0.000
REMARK  7 active torsions:
REMARK  status: ('A' for Active; 'I' for Inactive)
REMARK    1  A    between atoms: C_2  and  C_3 
REMARK    2  A    between atoms: C_3  and  O_6 
REMARK    3  A    between atoms: C_3  and  C_4 
REMARK    4  A    between atoms: C_7  and  O_6 
REMARK    5  A    between atoms: C_9  and  C_10 
REMARK    6  A    between atoms: N_15  and  C_14 
REMARK    7  A    between atoms: N_20  and  C_19 
REMARK       I    between atoms: C_22  and  N_20 
ROOT
ATOM      1  C   LIG d   1      -1.887  77.491 115.567  0.00  0.00     0.161 C 
ATOM      2  C   LIG d   1      -2.397  78.346 114.577  0.00  0.00     0.016 C 
ATOM      3  C   LIG d   1      -2.121  78.193 113.199  0.00  0.00     0.038 C 
ATOM      4  C   LIG d   1      -1.433  77.077 112.700  0.00  0.00     0.028 C 
ATOM      5  C   LIG d   1      -0.470  76.458 113.708  0.00  0.00    -0.047 C 
ATOM      6  C   LIG d   1      -1.226  76.203 115.032  0.00  0.00     0.091 C 
ENDROOT
BRANCH   1   7
ATOM      7  O   LIG d   1      -2.925  77.165 116.513  0.00  0.00    -0.368 OA
BRANCH   7   8
ATOM      8  C   LIG d   1      -4.270  77.082 115.981  0.00  0.00     0.119 C 
BRANCH   8   9
ATOM      9  C   LIG d   1      -5.238  77.519 117.098  0.00  0.00     0.028 C 
ATOM     10  C   LIG d   1      -6.693  77.609 116.610  0.00  0.00     0.006 C 
ENDBRANCH   8   9
BRANCH   8  11
ATOM     11  C   LIG d   1      -4.652  75.635 115.656  0.00  0.00     0.028 C 
ATOM     12  C   LIG d   1      -4.784  75.379 114.146  0.00  0.00     0.006 C 
ENDBRANCH   8  11
ENDBRANCH   7   8
ENDBRANCH   1   7
BRANCH   6  13
ATOM     13  N   LIG d   1      -0.337  75.677 116.101  0.00  0.00    -0.311 N 
ATOM     14  C   LIG d   1      -0.714  74.746 116.975  0.00  0.00     0.210 C 
ATOM     15  C   LIG d   1       0.351  74.359 118.007  0.00  0.00     0.109 C 
ATOM     16  O   LIG d   1      -1.818  74.180 116.975  0.00  0.00    -0.276 OA
ATOM     17  H   LIG d   1       0.587  76.058 116.154  0.00  0.00     0.149 HD
ENDBRANCH   6  13
BRANCH   5  18
ATOM     18  N   LIG d   1       0.075  75.226 113.107  0.00  0.00     0.381 N 
ATOM     19  H   LIG d   1       0.355  75.405 112.163  0.00  0.00    -0.090 HD
ATOM     20  H   LIG d   1      -0.645  74.525 113.095  0.00  0.00    -0.090 HD
ATOM     21  H   LIG d   1       0.854  74.904 113.637  0.00  0.00    -0.090 HD
ENDBRANCH   5  18
BRANCH   3  22
ATOM     22  C   LIG d   1      -2.500  79.185 112.307  0.00  0.00     0.382 C 
ATOM     23  O   LIG d   1      -2.104  79.143 111.117  0.00  0.00    -0.241 OA
ATOM     24  O   LIG d   1      -3.197  80.144 112.689  0.00  0.00    -0.241 OA
ENDBRANCH   3  22
TORSDOF 7
ENDMDL
MODEL 2
REMARK VINA RESULT:      -4.8      2.458      5.222
REMARK  7 active torsions:
REMARK  status: ('A' for Active; 'I' for Inactive)
REMARK    1  A    between atoms: C_2  and  C_3 
REMARK    2  A    between atoms: C_3  and  O_6 
REMARK    3  A    between atoms: C_3  and  C_4 
REMARK    4  A    between atoms: C_7  and  O_6 
REMARK    5  A    between atoms: C_9  and  C_10 
REMARK    6  A    between atoms: N_15  and  C_14 
REMARK    7  A    between atoms: N_20  and  C_19 
REMARK       I    between atoms: C_22  and  N_20 
ROOT
ATOM      1  C   LIG d   1      -0.201  75.907 114.166  0.00  0.00     0.161 C 
ATOM      2  C   LIG d   1       0.501  75.296 115.218  0.00  0.00     0.016 C 
ATOM      3  C   LIG d   1       1.157  76.020 116.240  0.00  0.00     0.038 C 
ATOM      4  C   LIG d   1       1.027  77.411 116.364  0.00  0.00     0.028 C 
ATOM      5  C   LIG d   1       0.746  78.113 115.040  0.00  0.00    -0.047 C 
ATOM      6  C   LIG d   1      -0.448  77.419 114.347  0.00  0.00     0.091 C 
ENDROOT
BRANCH   1   7
ATOM      7  O   LIG d   1      -1.448  75.218 113.946  0.00  0.00    -0.368 OA
BRANCH   7   8
ATOM      8  C   LIG d   1      -2.531  75.559 114.846  0.00  0.00     0.119 C 
BRANCH   8   9
ATOM      9  C   LIG d   1      -2.819  74.318 115.714  0.00  0.00     0.028 C 
ATOM     10  C   LIG d   1      -2.525  74.563 117.204  0.00  0.00     0.006 C 
ENDBRANCH   8   9
BRANCH   8  11
ATOM     11  C   LIG d   1      -3.830  75.827 114.079  0.00  0.00     0.028 C 
ATOM     12  C   LIG d   1      -4.862  74.700 114.242  0.00  0.00     0.006 C 
ENDBRANCH   8  11
ENDBRANCH   7   8
ENDBRANCH   1   7
BRANCH   6  13
ATOM     13  N   LIG d   1      -0.736  77.991 113.005  0.00  0.00    -0.311 N 
ATOM     14  C   LIG d   1      -1.804  78.742 112.742  0.00  0.00     0.210 C 
ATOM     15  C   LIG d   1      -1.920  79.213 111.289  0.00  0.00     0.109 C 
ATOM     16  O   LIG d   1      -2.649  79.088 113.581  0.00  0.00    -0.276 OA
ATOM     17  H   LIG d   1      -0.085  77.786 112.273  0.00  0.00     0.149 HD
ENDBRANCH   6  13
BRANCH   5  18
ATOM     18  N   LIG d   1       0.497  79.537 115.335  0.00  0.00     0.381 N 
ATOM     19  H   LIG d   1       0.370  79.662 116.319  0.00  0.00    -0.090 HD
ATOM     20  H   LIG d   1      -0.347  79.822 114.870  0.00  0.00    -0.090 HD
ATOM     21  H   LIG d   1       1.262  80.090 115.018  0.00  0.00    -0.090 HD
ENDBRANCH   5  18
BRANCH   3  22
ATOM     22  C   LIG d   1       1.988  75.354 117.129  0.00  0.00     0.382 C 
ATOM     23  O   LIG d   1       3.212  75.240 116.878  0.00  0.00    -0.241 OA
ATOM     24  O   LIG d   1       1.521  74.829 118.157  0.00  0.00    -0.241 OA
ENDBRANCH   3  22
TORSDOF 7
ENDMDL
MODEL 3
REMARK VINA RESULT:      -4.7      2.481      4.593
REMARK  7 active torsions:
REMARK  status: ('A' for Active; 'I' for Inactive)
REMARK    1  A    between atoms: C_2  and  C_3 
REMARK    2  A    between atoms: C_3  and  O_6 
REMARK    3  A    between atoms: C_3  and  C_4 
REMARK    4  A    between atoms: C_7  and  O_6 
REMARK    5  A    between atoms: C_9  and  C_10 
REMARK    6  A    between atoms: N_15  and  C_14 
REMARK    7  A    between atoms: N_20  and  C_19 
REMARK       I    between atoms: C_22  and  N_20 
ROOT
ATOM      1  C   LIG d   1      -2.591  74.740 115.216  0.00  0.00     0.161 C 
ATOM      2  C   LIG d   1      -3.891  75.073 114.802  0.00  0.00     0.016 C 
ATOM      3  C   LIG d   1      -4.813  75.767 115.619  0.00  0.00     0.038 C 
ATOM      4  C   LIG d   1      -4.443  76.311 116.858  0.00  0.00     0.028 C 
ATOM      5  C   LIG d   1      -3.296  75.564 117.529  0.00  0.00    -0.047 C 
ATOM      6  C   LIG d   1      -2.132  75.422 116.521  0.00  0.00     0.091 C 
ENDROOT
BRANCH   1   7
ATOM      7  O   LIG d   1      -1.656  75.012 114.153  0.00  0.00    -0.368 OA
BRANCH   7   8
ATOM      8  C   LIG d   1      -1.375  76.409 113.893  0.00  0.00     0.119 C 
BRANCH   8   9
ATOM      9  C   LIG d   1      -1.538  76.640 112.378  0.00  0.00     0.028 C 
ATOM     10  C   LIG d   1      -2.678  77.619 112.053  0.00  0.00     0.006 C 
ENDBRANCH   8   9
BRANCH   8  11
ATOM     11  C   LIG d   1       0.085  76.751 114.201  0.00  0.00     0.028 C 
ATOM     12  C   LIG d   1       0.265  78.187 114.719  0.00  0.00     0.006 C 
ENDBRANCH   8  11
ENDBRANCH   7   8
ENDBRANCH   1   7
BRANCH   6  13
ATOM     13  N   LIG d   1      -1.001  74.629 117.070  0.00  0.00    -0.311 N 
ATOM     14  C   LIG d   1       0.061  75.177 117.659  0.00  0.00     0.210 C 
ATOM     15  C   LIG d   1       1.122  74.180 118.135  0.00  0.00     0.109 C 
ATOM     16  O   LIG d   1       0.209  76.391 117.860  0.00  0.00    -0.276 OA
ATOM     17  H   LIG d   1      -1.054  73.634 116.977  0.00  0.00     0.149 HD
ENDBRANCH   6  13
BRANCH   5  18
ATOM     18  N   LIG d   1      -2.922  76.317 118.741  0.00  0.00     0.381 N 
ATOM     19  H   LIG d   1      -2.015  76.031 119.051  0.00  0.00    -0.090 HD
ATOM     20  H   LIG d   1      -3.583  76.110 119.469  0.00  0.00    -0.090 HD
ATOM     21  H   LIG d   1      -2.923  77.294 118.549  0.00  0.00    -0.090 HD
ENDBRANCH   5  18
BRANCH   3  22
ATOM     22  C   LIG d   1      -6.134  75.888 115.215  0.00  0.00     0.382 C 
ATOM     23  O   LIG d   1      -6.402  76.142 114.016  0.00  0.00    -0.241 OA
ATOM     24  O   LIG d   1      -7.060  75.791 116.043  0.00  0.00    -0.241 OA
ENDBRANCH   3  22
TORSDOF 7
ENDMDL
MODEL 4
REMARK VINA RESULT:      -4.6      1.342      2.014
REMARK  7 active torsions:
REMARK  status: ('A' for Active; 'I' for Inactive)
REMARK    1  A    between atoms: C_2  and  C_3 
REMARK    2  A    between atoms: C_3  and  O_6 
REMARK    3  A    between atoms: C_3  and  C_4 
REMARK    4  A    between atoms: C_7  and  O_6 
REMARK    5  A    between atoms: C_9  and  C_10 
REMARK    6  A    between atoms: N_15  and  C_14 
REMARK    7  A    between atoms: N_20  and  C_19 
REMARK       I    between atoms: C_22  and  N_20 
ROOT
ATOM      1  C   LIG d   1      -3.045  77.204 114.726  0.00  0.00     0.161 C 
ATOM      2  C   LIG d   1      -3.105  78.351 113.918  0.00  0.00     0.016 C 
ATOM      3  C   LIG d   1      -2.302  78.536 112.768  0.00  0.00     0.038 C 
ATOM      4  C   LIG d   1      -1.488  77.514 112.260  0.00  0.00     0.028 C 
ATOM      5  C   LIG d   1      -1.017  76.529 113.325  0.00  0.00    -0.047 C 
ATOM      6  C   LIG d   1      -2.243  76.031 114.125  0.00  0.00     0.091 C 
ENDROOT
BRANCH   1   7
ATOM      7  O   LIG d   1      -4.379  76.776 115.067  0.00  0.00    -0.368 OA
BRANCH   7   8
ATOM      8  C   LIG d   1      -4.753  76.906 116.461  0.00  0.00     0.119 C 
BRANCH   8   9
ATOM      9  C   LIG d   1      -5.825  75.838 116.753  0.00  0.00     0.028 C 
ATOM     10  C   LIG d   1      -5.397  74.435 116.292  0.00  0.00     0.006 C 
ENDBRANCH   8   9
BRANCH   8  11
ATOM     11  C   LIG d   1      -5.435  78.250 116.732  0.00  0.00     0.028 C 
ATOM     12  C   LIG d   1      -6.893  78.096 117.192  0.00  0.00     0.006 C 
ENDBRANCH   8  11
ENDBRANCH   7   8
ENDBRANCH   1   7
BRANCH   6  13
ATOM     13  N   LIG d   1      -1.862  75.127 115.242  0.00  0.00    -0.311 N 
ATOM     14  C   LIG d   1      -1.071  75.498 116.247  0.00  0.00     0.210 C 
ATOM     15  C   LIG d   1      -0.789  74.406 117.284  0.00  0.00     0.109 C 
ATOM     16  O   LIG d   1      -0.603  76.636 116.396  0.00  0.00    -0.276 OA
ATOM     17  H   LIG d   1      -2.224  74.194 115.217  0.00  0.00     0.149 HD
ENDBRANCH   6  13
BRANCH   5  18
ATOM     18  N   LIG d   1      -0.294  75.442 112.639  0.00  0.00     0.381 N 
ATOM     19  H   LIG d   1      -0.139  74.684 113.274  0.00  0.00    -0.090 HD
ATOM     20  H   LIG d   1       0.599  75.787 112.335  0.00  0.00    -0.090 HD
ATOM     21  H   LIG d   1      -0.821  75.124 111.854  0.00  0.00    -0.090 HD
ENDBRANCH   5  18
BRANCH   3  22
ATOM     22  C   LIG d   1      -2.280  79.771 112.137  0.00  0.00     0.382 C 
ATOM     23  O   LIG d   1      -3.137  80.640 112.429  0.00  0.00    -0.241 OA
ATOM     24  O   LIG d   1      -1.442  80.011 111.248  0.00  0.00    -0.241 OA
ENDBRANCH   3  22
TORSDOF 7
ENDMDL
MODEL 5
REMARK VINA RESULT:      -4.4      2.945      4.043
REMARK  7 active torsions:
REMARK  status: ('A' for Active; 'I' for Inactive)
REMARK    1  A    between atoms: C_2  and  C_3 
REMARK    2  A    between atoms: C_3  and  O_6 
REMARK    3  A    between atoms: C_3  and  C_4 
REMARK    4  A    between atoms: C_7  and  O_6 
REMARK    5  A    between atoms: C_9  and  C_10 
REMARK    6  A    between atoms: N_15  and  C_14 
REMARK    7  A    between atoms: N_20  and  C_19 
REMARK       I    between atoms: C_22  and  N_20 
ROOT
ATOM      1  C   LIG d   1      -1.975  77.493 115.682  0.00  0.00     0.161 C 
ATOM      2  C   LIG d   1      -2.998  76.642 115.233  0.00  0.00     0.016 C 
ATOM      3  C   LIG d   1      -3.253  76.385 113.866  0.00  0.00     0.038 C 
ATOM      4  C   LIG d   1      -2.400  76.848 112.853  0.00  0.00     0.028 C 
ATOM      5  C   LIG d   1      -1.653  78.124 113.227  0.00  0.00    -0.047 C 
ATOM      6  C   LIG d   1      -0.965  77.919 114.597  0.00  0.00     0.091 C 
ENDROOT
BRANCH   1   7
ATOM      7  O   LIG d   1      -1.289  76.887 116.795  0.00  0.00    -0.368 OA
BRANCH   7   8
ATOM      8  C   LIG d   1      -1.545  77.470 118.097  0.00  0.00     0.119 C 
BRANCH   8   9
ATOM      9  C   LIG d   1      -2.503  76.525 118.847  0.00  0.00     0.028 C 
ATOM     10  C   LIG d   1      -3.854  77.188 119.163  0.00  0.00     0.006 C 
ENDBRANCH   8   9
BRANCH   8  11
ATOM     11  C   LIG d   1      -2.299  78.798 117.974  0.00  0.00     0.028 C 
ATOM     12  C   LIG d   1      -1.459  80.004 118.421  0.00  0.00     0.006 C 
ENDBRANCH   8  11
ENDBRANCH   7   8
ENDBRANCH   1   7
BRANCH   6  13
ATOM     13  N   LIG d   1      -0.281  79.148 115.076  0.00  0.00    -0.311 N 
ATOM     14  C   LIG d   1       0.978  79.164 115.510  0.00  0.00     0.210 C 
ATOM     15  C   LIG d   1       1.484  80.533 115.979  0.00  0.00     0.109 C 
ATOM     16  O   LIG d   1       1.735  78.182 115.522  0.00  0.00    -0.276 OA
ATOM     17  H   LIG d   1      -0.812  79.997 115.072  0.00  0.00     0.149 HD
ENDBRANCH   6  13
BRANCH   5  18
ATOM     18  N   LIG d   1      -0.700  78.417 112.140  0.00  0.00     0.381 N 
ATOM     19  H   LIG d   1      -1.200  78.632 111.301  0.00  0.00    -0.090 HD
ATOM     20  H   LIG d   1      -0.138  77.601 111.972  0.00  0.00    -0.090 HD
ATOM     21  H   LIG d   1      -0.117  79.184 112.395  0.00  0.00    -0.090 HD
ENDBRANCH   5  18
BRANCH   3  22
ATOM     22  C   LIG d   1      -4.396  75.691 113.499  0.00  0.00     0.382 C 
ATOM     23  O   LIG d   1      -5.255  76.240 112.768  0.00  0.00    -0.241 OA
ATOM     24  O   LIG d   1      -4.599  74.538 113.925  0.00  0.00    -0.241 OA
ENDBRANCH   3  22
TORSDOF 7
ENDMDL
MODEL 6
REMARK VINA RESULT:      -4.3      3.249      4.720
REMARK  7 active torsions:
REMARK  status: ('A' for Active; 'I' for Inactive)
REMARK    1  A    between atoms: C_2  and  C_3 
REMARK    2  A    between atoms: C_3  and  O_6 
REMARK    3  A    between atoms: C_3  and  C_4 
REMARK    4  A    between atoms: C_7  and  O_6 
REMARK    5  A    between atoms: C_9  and  C_10 
REMARK    6  A    between atoms: N_15  and  C_14 
REMARK    7  A    between atoms: N_20  and  C_19 
REMARK       I    between atoms: C_22  and  N_20 
ROOT
ATOM      1  C   LIG d   1      -1.142  78.137 115.140  0.00  0.00     0.161 C 
ATOM      2  C   LIG d   1      -2.161  77.177 115.018  0.00  0.00     0.016 C 
ATOM      3  C   LIG d   1      -2.637  76.701 113.774  0.00  0.00     0.038 C 
ATOM      4  C   LIG d   1      -2.017  77.044 112.563  0.00  0.00     0.028 C 
ATOM      5  C   LIG d   1      -1.314  78.396 112.604  0.00  0.00    -0.047 C 
ATOM      6  C   LIG d   1      -0.379  78.439 113.834  0.00  0.00     0.091 C 
ENDROOT
BRANCH   1   7
ATOM      7  O   LIG d   1      -0.223  77.744 116.178  0.00  0.00    -0.368 OA
BRANCH   7   8
ATOM      8  C   LIG d   1      -0.599  78.101 117.531  0.00  0.00     0.119 C 
BRANCH   8   9
ATOM      9  C   LIG d   1      -0.678  79.638 117.599  0.00  0.00     0.028 C 
ATOM     10  C   LIG d   1      -1.745  80.127 118.593  0.00  0.00     0.006 C 
ENDBRANCH   8   9
BRANCH   8  11
ATOM     11  C   LIG d   1       0.489  77.706 118.534  0.00  0.00     0.028 C 
ATOM     12  C   LIG d   1       1.677  76.988 117.874  0.00  0.00     0.006 C 
ENDBRANCH   8  11
ENDBRANCH   7   8
ENDBRANCH   1   7
BRANCH   6  13
ATOM     13  N   LIG d   1       0.285  79.759 113.996  0.00  0.00    -0.311 N 
ATOM     14  C   LIG d   1       1.488  79.912 114.547  0.00  0.00     0.210 C 
ATOM     15  C   LIG d   1       1.979  81.361 114.636  0.00  0.00     0.109 C 
ATOM     16  O   LIG d   1       2.208  78.983 114.942  0.00  0.00    -0.276 OA
ATOM     17  H   LIG d   1      -0.216  80.564 113.674  0.00  0.00     0.149 HD
ENDBRANCH   6  13
BRANCH   5  18
ATOM     18  N   LIG d   1      -0.597  78.564 111.326  0.00  0.00     0.381 N 
ATOM     19  H   LIG d   1      -1.128  79.152 110.714  0.00  0.00    -0.090 HD
ATOM     20  H   LIG d   1      -0.495  77.665 110.889  0.00  0.00    -0.090 HD
ATOM     21  H   LIG d   1       0.300  78.966 111.489  0.00  0.00    -0.090 HD
ENDBRANCH   5  18
BRANCH   3  22
ATOM     22  C   LIG d   1      -3.770  75.904 113.732  0.00  0.00     0.382 C 
ATOM     23  O   LIG d   1      -3.808  74.833 114.385  0.00  0.00    -0.241 OA
ATOM     24  O   LIG d   1      -4.738  76.219 113.014  0.00  0.00    -0.241 OA
ENDBRANCH   3  22
TORSDOF 7
ENDMDL
MODEL 7
REMARK VINA RESULT:      -4.3      2.820      3.998
REMARK  7 active torsions:
REMARK  status: ('A' for Active; 'I' for Inactive)
REMARK    1  A    between atoms: C_2  and  C_3 
REMARK    2  A    between atoms: C_3  and  O_6 
REMARK    3  A    between atoms: C_3  and  C_4 
REMARK    4  A    between atoms: C_7  and  O_6 
REMARK    5  A    between atoms: C_9  and  C_10 
REMARK    6  A    between atoms: N_15  and  C_14 
REMARK    7  A    between atoms: N_20  and  C_19 
REMARK       I    between atoms: C_22  and  N_20 
ROOT
ATOM      1  C   LIG d   1      -3.079  77.900 116.196  0.00  0.00     0.161 C 
ATOM      2  C   LIG d   1      -4.043  77.025 115.667  0.00  0.00     0.016 C 
ATOM      3  C   LIG d   1      -3.817  76.213 114.532  0.00  0.00     0.038 C 
ATOM      4  C   LIG d   1      -2.552  76.108 113.935  0.00  0.00     0.028 C 
ATOM      5  C   LIG d   1      -1.688  77.351 114.124  0.00  0.00    -0.047 C 
ATOM      6  C   LIG d   1      -1.657  77.716 115.626  0.00  0.00     0.091 C 
ENDROOT
BRANCH   1   7
ATOM      7  O   LIG d   1      -3.060  77.794 117.634  0.00  0.00    -0.368 OA
BRANCH   7   8
ATOM      8  C   LIG d   1      -3.580  78.931 118.364  0.00  0.00     0.119 C 
BRANCH   8   9
ATOM      9  C   LIG d   1      -2.477  79.407 119.329  0.00  0.00     0.028 C 
ATOM     10  C   LIG d   1      -2.173  80.907 119.179  0.00  0.00     0.006 C 
ENDBRANCH   8   9
BRANCH   8  11
ATOM     11  C   LIG d   1      -4.756  78.528 119.259  0.00  0.00     0.028 C 
ATOM     12  C   LIG d   1      -6.093  78.483 118.503  0.00  0.00     0.006 C 
ENDBRANCH   8  11
ENDBRANCH   7   8
ENDBRANCH   1   7
BRANCH   6  13
ATOM     13  N   LIG d   1      -0.902  78.969 115.889  0.00  0.00    -0.311 N 
ATOM     14  C   LIG d   1       0.139  79.038 116.717  0.00  0.00     0.210 C 
ATOM     15  C   LIG d   1       0.761  80.431 116.859  0.00  0.00     0.109 C 
ATOM     16  O   LIG d   1       0.626  78.072 117.322  0.00  0.00    -0.276 OA
ATOM     17  H   LIG d   1      -1.210  79.796 115.415  0.00  0.00     0.149 HD
ENDBRANCH   6  13
BRANCH   5  18
ATOM     18  N   LIG d   1      -0.352  77.053 113.574  0.00  0.00     0.381 N 
ATOM     19  H   LIG d   1       0.097  77.903 113.296  0.00  0.00    -0.090 HD
ATOM     20  H   LIG d   1      -0.458  76.472 112.761  0.00  0.00    -0.090 HD
ATOM     21  H   LIG d   1       0.201  76.584 114.257  0.00  0.00    -0.090 HD
ENDBRANCH   5  18
BRANCH   3  22
ATOM     22  C   LIG d   1      -4.875  75.525 113.958  0.00  0.00     0.382 C 
ATOM     23  O   LIG d   1      -4.786  74.290 113.760  0.00  0.00    -0.241 OA
ATOM     24  O   LIG d   1      -5.900  76.132 113.594  0.00  0.00    -0.241 OA
ENDBRANCH   3  22
TORSDOF 7
ENDMDL
MODEL 8
REMARK VINA RESULT:      -4.3      1.494      2.095
REMARK  7 active torsions:
REMARK  status: ('A' for Active; 'I' for Inactive)
REMARK    1  A    between atoms: C_2  and  C_3 
REMARK    2  A    between atoms: C_3  and  O_6 
REMARK    3  A    between atoms: C_3  and  C_4 
REMARK    4  A    between atoms: C_7  and  O_6 
REMARK    5  A    between atoms: C_9  and  C_10 
REMARK    6  A    between atoms: N_15  and  C_14 
REMARK    7  A    between atoms: N_20  and  C_19 
REMARK       I    between atoms: C_22  and  N_20 
ROOT
ATOM      1  C   LIG d   1      -1.855  77.257 115.433  0.00  0.00     0.161 C 
ATOM      2  C   LIG d   1      -2.524  77.706 114.282  0.00  0.00     0.016 C 
ATOM      3  C   LIG d   1      -2.201  77.273 112.976  0.00  0.00     0.038 C 
ATOM      4  C   LIG d   1      -1.281  76.240 112.743  0.00  0.00     0.028 C 
ATOM      5  C   LIG d   1      -0.221  76.116 113.833  0.00  0.00    -0.047 C 
ATOM      6  C   LIG d   1      -0.923  76.048 115.209  0.00  0.00     0.091 C 
ENDROOT
BRANCH   1   7
ATOM      7  O   LIG d   1      -2.810  76.968 116.473  0.00  0.00    -0.368 OA
BRANCH   7   8
ATOM      8  C   LIG d   1      -3.411  78.115 117.124  0.00  0.00     0.119 C 
BRANCH   8   9
ATOM      9  C   LIG d   1      -2.592  78.406 118.396  0.00  0.00     0.028 C 
ATOM     10  C   LIG d   1      -2.690  79.877 118.833  0.00  0.00     0.006 C 
ENDBRANCH   8   9
BRANCH   8  11
ATOM     11  C   LIG d   1      -4.826  77.798 117.616  0.00  0.00     0.028 C 
ATOM     12  C   LIG d   1      -5.875  78.792 117.092  0.00  0.00     0.006 C 
ENDBRANCH   8  11
ENDBRANCH   7   8
ENDBRANCH   1   7
BRANCH   6  13
ATOM     13  N   LIG d   1       0.044  76.011 116.337  0.00  0.00    -0.311 N 
ATOM     14  C   LIG d   1      -0.009  75.112 117.319  0.00  0.00     0.210 C 
ATOM     15  C   LIG d   1       1.072  75.264 118.394  0.00  0.00     0.109 C 
ATOM     16  O   LIG d   1      -0.829  74.184 117.385  0.00  0.00    -0.276 OA
ATOM     17  H   LIG d   1       0.762  76.708 116.346  0.00  0.00     0.149 HD
ENDBRANCH   6  13
BRANCH   5  18
ATOM     18  N   LIG d   1       0.586  74.918 113.536  0.00  0.00     0.381 N 
ATOM     19  H   LIG d   1       1.060  75.037 112.663  0.00  0.00    -0.090 HD
ATOM     20  H   LIG d   1      -0.026  74.125 113.458  0.00  0.00    -0.090 HD
ATOM     21  H   LIG d   1       1.249  74.764 114.264  0.00  0.00    -0.090 HD
ENDBRANCH   5  18
BRANCH   3  22
ATOM     22  C   LIG d   1      -2.774  77.903 111.882  0.00  0.00     0.382 C 
ATOM     23  O   LIG d   1      -3.839  77.459 111.389  0.00  0.00    -0.241 OA
ATOM     24  O   LIG d   1      -2.216  78.883 111.354  0.00  0.00    -0.241 OA
ENDBRANCH   3  22
TORSDOF 7
ENDMDL
MODEL 9
REMARK VINA RESULT:      -4.3      2.699      4.682
REMARK  7 active torsions:
REMARK  status: ('A' for Active; 'I' for Inactive)
REMARK    1  A    between atoms: C_2  and  C_3 
REMARK    2  A    between atoms: C_3  and  O_6 
REMARK    3  A    between atoms: C_3  and  C_4 
REMARK    4  A    between atoms: C_7  and  O_6 
REMARK    5  A    between atoms: C_9  and  C_10 
REMARK    6  A    between atoms: N_15  and  C_14 
REMARK    7  A    between atoms: N_20  and  C_19 
REMARK       I    between atoms: C_22  and  N_20 
ROOT
ATOM      1  C   LIG d   1      -0.620  75.369 115.069  0.00  0.00     0.161 C 
ATOM      2  C   LIG d   1      -1.901  75.510 114.509  0.00  0.00     0.016 C 
ATOM      3  C   LIG d   1      -3.094  75.257 115.224  0.00  0.00     0.038 C 
ATOM      4  C   LIG d   1      -3.092  74.990 116.601  0.00  0.00     0.028 C 
ATOM      5  C   LIG d   1      -1.800  74.344 117.090  0.00  0.00    -0.047 C 
ATOM      6  C   LIG d   1      -0.600  75.187 116.601  0.00  0.00     0.091 C 
ENDROOT
BRANCH   1   7
ATOM      7  O   LIG d   1       0.205  76.487 114.687  0.00  0.00    -0.368 OA
BRANCH   7   8
ATOM      8  C   LIG d   1      -0.271  77.796 115.084  0.00  0.00     0.119 C 
BRANCH   8   9
ATOM      9  C   LIG d   1      -0.028  78.755 113.902  0.00  0.00     0.028 C 
ATOM     10  C   LIG d   1      -1.007  78.515 112.741  0.00  0.00     0.006 C 
ENDBRANCH   8   9
BRANCH   8  11
ATOM     11  C   LIG d   1       0.556  78.362 116.242  0.00  0.00     0.028 C 
ATOM     12  C   LIG d   1       2.037  77.958 116.170  0.00  0.00     0.006 C 
ENDBRANCH   8  11
ENDBRANCH   7   8
ENDBRANCH   1   7
BRANCH   6  13
ATOM     13  N   LIG d   1       0.706  74.578 116.964  0.00  0.00    -0.311 N 
ATOM     14  C   LIG d   1       1.409  74.937 118.038  0.00  0.00     0.210 C 
ATOM     15  C   LIG d   1       2.738  74.198 118.217  0.00  0.00     0.109 C 
ATOM     16  O   LIG d   1       1.042  75.775 118.875  0.00  0.00    -0.276 OA
ATOM     17  H   LIG d   1       1.063  73.868 116.356  0.00  0.00     0.149 HD
ENDBRANCH   6  13
BRANCH   5  18
ATOM     18  N   LIG d   1      -1.878  74.248 118.560  0.00  0.00     0.381 N 
ATOM     19  H   LIG d   1      -2.052  73.300 118.829  0.00  0.00    -0.090 HD
ATOM     20  H   LIG d   1      -2.644  74.813 118.882  0.00  0.00    -0.090 HD
ATOM     21  H   LIG d   1      -1.027  74.565 118.968  0.00  0.00    -0.090 HD
ENDBRANCH   5  18
BRANCH   3  22
ATOM     22  C   LIG d   1      -4.306  75.230 114.550  0.00  0.00     0.382 C 
ATOM     23  O   LIG d   1      -5.133  76.161 114.710  0.00  0.00    -0.241 OA
ATOM     24  O   LIG d   1      -4.602  74.266 113.820  0.00  0.00    -0.241 OA
ENDBRANCH   3  22
TORSDOF 7
ENDMDL
