MODEL 1
REMARK VINA RESULT:      -5.2      0.000      0.000
REMARK  7 active torsions:
REMARK  status: ('A' for Active; 'I' for Inactive)
REMARK    1  A    between atoms: C_2  and  C_3 
REMARK    2  A    between atoms: C_3  and  O_6 
REMARK    3  A    between atoms: C_3  and  C_4 
REMARK    4  A    between atoms: C_7  and  O_6 
REMARK    5  A    between atoms: C_9  and  C_10 
REMARK    6  A    between atoms: N_15  and  C_14 
REMARK    7  A    between atoms: N_20  and  C_19 
REMARK       I    between atoms: C_22  and  N_20 
ROOT
ATOM      1  C   LIG d   1      -2.514  78.339 116.067  0.00  0.00     0.161 C 
ATOM      2  C   LIG d   1      -2.904  78.971 114.874  0.00  0.00     0.016 C 
ATOM      3  C   LIG d   1      -2.339  78.669 113.613  0.00  0.00     0.038 C 
ATOM      4  C   LIG d   1      -1.447  77.600 113.437  0.00  0.00     0.028 C 
ATOM      5  C   LIG d   1      -0.647  77.267 114.691  0.00  0.00    -0.047 C 
ATOM      6  C   LIG d   1      -1.622  77.094 115.878  0.00  0.00     0.091 C 
ENDROOT
BRANCH   1   7
ATOM      7  O   LIG d   1      -3.680  78.007 116.847  0.00  0.00    -0.368 OA
BRANCH   7   8
ATOM      8  C   LIG d   1      -4.913  77.830 116.107  0.00  0.00     0.119 C 
BRANCH   8   9
ATOM      9  C   LIG d   1      -6.037  78.511 116.912  0.00  0.00     0.028 C 
ATOM     10  C   LIG d   1      -5.752  80.000 117.174  0.00  0.00     0.006 C 
ENDBRANCH   8   9
BRANCH   8  11
ATOM     11  C   LIG d   1      -5.308  76.353 116.029  0.00  0.00     0.028 C 
ATOM     12  C   LIG d   1      -4.982  75.721 114.666  0.00  0.00     0.006 C 
ENDBRANCH   8  11
ENDBRANCH   7   8
ENDBRANCH   1   7
BRANCH   6  13
ATOM     13  N   LIG d   1      -0.915  76.849 117.162  0.00  0.00    -0.311 N 
ATOM     14  C   LIG d   1      -0.523  75.641 117.564  0.00  0.00     0.210 C 
ATOM     15  C   LIG d   1       0.171  75.608 118.929  0.00  0.00     0.109 C 
ATOM     16  O   LIG d   1      -0.656  74.599 116.905  0.00  0.00    -0.276 OA
ATOM     17  H   LIG d   1      -0.739  77.644 117.745  0.00  0.00     0.149 HD
ENDBRANCH   6  13
BRANCH   5  18
ATOM     18  N   LIG d   1       0.139  76.051 114.408  0.00  0.00     0.381 N 
ATOM     19  H   LIG d   1      -0.375  75.241 114.691  0.00  0.00    -0.090 HD
ATOM     20  H   LIG d   1       0.992  76.084 114.939  0.00  0.00    -0.090 HD
ATOM     21  H   LIG d   1       0.347  75.999 113.435  0.00  0.00    -0.090 HD
ENDBRANCH   5  18
BRANCH   3  22
ATOM     22  C   LIG d   1      -2.637  79.466 112.518  0.00  0.00     0.382 C 
ATOM     23  O   LIG d   1      -3.464  80.402 112.631  0.00  0.00    -0.241 OA
ATOM     24  O   LIG d   1      -2.122  79.233 111.409  0.00  0.00    -0.241 OA
ENDBRANCH   3  22
TORSDOF 7
ENDMDL
MODEL 2
REMARK VINA RESULT:      -5.1      0.909      1.197
REMARK  7 active torsions:
REMARK  status: ('A' for Active; 'I' for Inactive)
REMARK    1  A    between atoms: C_2  and  C_3 
REMARK    2  A    between atoms: C_3  and  O_6 
REMARK    3  A    between atoms: C_3  and  C_4 
REMARK    4  A    between atoms: C_7  and  O_6 
REMARK    5  A    between atoms: C_9  and  C_10 
REMARK    6  A    between atoms: N_15  and  C_14 
REMARK    7  A    between atoms: N_20  and  C_19 
REMARK       I    between atoms: C_22  and  N_20 
ROOT
ATOM      1  C   LIG d   1      -2.562  78.200 116.066  0.00  0.00     0.161 C 
ATOM      2  C   LIG d   1      -2.969  78.844 114.886  0.00  0.00     0.016 C 
ATOM      3  C   LIG d   1      -2.389  78.590 113.621  0.00  0.00     0.038 C 
ATOM      4  C   LIG d   1      -1.459  77.558 113.425  0.00  0.00     0.028 C 
ATOM      5  C   LIG d   1      -0.653  77.225 114.676  0.00  0.00    -0.047 C 
ATOM      6  C   LIG d   1      -1.626  76.992 115.854  0.00  0.00     0.091 C 
ENDROOT
BRANCH   1   7
ATOM      7  O   LIG d   1      -3.718  77.810 116.833  0.00  0.00    -0.368 OA
BRANCH   7   8
ATOM      8  C   LIG d   1      -4.540  76.764 116.259  0.00  0.00     0.119 C 
BRANCH   8   9
ATOM      9  C   LIG d   1      -6.005  77.240 116.324  0.00  0.00     0.028 C 
ATOM     10  C   LIG d   1      -6.911  76.484 115.337  0.00  0.00     0.006 C 
ENDBRANCH   8   9
BRANCH   8  11
ATOM     11  C   LIG d   1      -4.491  75.489 117.105  0.00  0.00     0.028 C 
ATOM     12  C   LIG d   1      -4.118  74.244 116.285  0.00  0.00     0.006 C 
ENDBRANCH   8  11
ENDBRANCH   7   8
ENDBRANCH   1   7
BRANCH   6  13
ATOM     13  N   LIG d   1      -0.916  76.742 117.135  0.00  0.00    -0.311 N 
ATOM     14  C   LIG d   1      -0.494  75.538 117.517  0.00  0.00     0.210 C 
ATOM     15  C   LIG d   1       0.198  75.499 118.884  0.00  0.00     0.109 C 
ATOM     16  O   LIG d   1      -0.599  74.504 116.841  0.00  0.00    -0.276 OA
ATOM     17  H   LIG d   1      -0.761  77.531 117.732  0.00  0.00     0.149 HD
ENDBRANCH   6  13
BRANCH   5  18
ATOM     18  N   LIG d   1       0.177  76.044 114.369  0.00  0.00     0.381 N 
ATOM     19  H   LIG d   1       0.194  75.428 115.157  0.00  0.00    -0.090 HD
ATOM     20  H   LIG d   1       1.117  76.346 114.185  0.00  0.00    -0.090 HD
ATOM     21  H   LIG d   1      -0.189  75.568 113.574  0.00  0.00    -0.090 HD
ENDBRANCH   5  18
BRANCH   3  22
ATOM     22  C   LIG d   1      -2.710  79.401 112.543  0.00  0.00     0.382 C 
ATOM     23  O   LIG d   1      -3.490  80.371 112.698  0.00  0.00    -0.241 OA
ATOM     24  O   LIG d   1      -2.264  79.148 111.408  0.00  0.00    -0.241 OA
ENDBRANCH   3  22
TORSDOF 7
ENDMDL
MODEL 3
REMARK VINA RESULT:      -4.9      2.120      5.058
REMARK  7 active torsions:
REMARK  status: ('A' for Active; 'I' for Inactive)
REMARK    1  A    between atoms: C_2  and  C_3 
REMARK    2  A    between atoms: C_3  and  O_6 
REMARK    3  A    between atoms: C_3  and  C_4 
REMARK    4  A    between atoms: C_7  and  O_6 
REMARK    5  A    between atoms: C_9  and  C_10 
REMARK    6  A    between atoms: N_15  and  C_14 
REMARK    7  A    between atoms: N_20  and  C_19 
REMARK       I    between atoms: C_22  and  N_20 
ROOT
ATOM      1  C   LIG d   1      -1.600  75.813 115.053  0.00  0.00     0.161 C 
ATOM      2  C   LIG d   1      -1.213  75.557 116.379  0.00  0.00     0.016 C 
ATOM      3  C   LIG d   1      -0.576  76.513 117.202  0.00  0.00     0.038 C 
ATOM      4  C   LIG d   1      -0.417  77.848 116.801  0.00  0.00     0.028 C 
ATOM      5  C   LIG d   1      -0.335  78.020 115.288  0.00  0.00    -0.047 C 
ATOM      6  C   LIG d   1      -1.535  77.297 114.635  0.00  0.00     0.091 C 
ENDROOT
BRANCH   1   7
ATOM      7  O   LIG d   1      -2.920  75.283 114.818  0.00  0.00    -0.368 OA
BRANCH   7   8
ATOM      8  C   LIG d   1      -3.899  75.528 115.857  0.00  0.00     0.119 C 
BRANCH   8   9
ATOM      9  C   LIG d   1      -4.569  74.180 116.188  0.00  0.00     0.028 C 
ATOM     10  C   LIG d   1      -5.551  74.287 117.367  0.00  0.00     0.006 C 
ENDBRANCH   8   9
BRANCH   8  11
ATOM     11  C   LIG d   1      -5.030  76.431 115.356  0.00  0.00     0.028 C 
ATOM     12  C   LIG d   1      -5.595  75.981 113.999  0.00  0.00     0.006 C 
ENDBRANCH   8  11
ENDBRANCH   7   8
ENDBRANCH   1   7
BRANCH   6  13
ATOM     13  N   LIG d   1      -1.486  77.344 113.151  0.00  0.00    -0.311 N 
ATOM     14  C   LIG d   1      -2.391  77.978 112.407  0.00  0.00     0.210 C 
ATOM     15  C   LIG d   1      -2.165  77.886 110.895  0.00  0.00     0.109 C 
ATOM     16  O   LIG d   1      -3.342  78.635 112.858  0.00  0.00    -0.276 OA
ATOM     17  H   LIG d   1      -0.730  76.864 112.703  0.00  0.00     0.149 HD
ENDBRANCH   6  13
BRANCH   5  18
ATOM     18  N   LIG d   1      -0.309  79.468 115.005  0.00  0.00     0.381 N 
ATOM     19  H   LIG d   1      -1.198  79.872 115.223  0.00  0.00    -0.090 HD
ATOM     20  H   LIG d   1      -0.133  79.604 114.025  0.00  0.00    -0.090 HD
ATOM     21  H   LIG d   1       0.405  79.908 115.543  0.00  0.00    -0.090 HD
ENDBRANCH   5  18
BRANCH   3  22
ATOM     22  C   LIG d   1      -0.054  76.127 118.427  0.00  0.00     0.382 C 
ATOM     23  O   LIG d   1      -0.637  76.456 119.489  0.00  0.00    -0.241 OA
ATOM     24  O   LIG d   1       1.016  75.492 118.486  0.00  0.00    -0.241 OA
ENDBRANCH   3  22
TORSDOF 7
ENDMDL
MODEL 4
REMARK VINA RESULT:      -4.7      1.384      1.916
REMARK  7 active torsions:
REMARK  status: ('A' for Active; 'I' for Inactive)
REMARK    1  A    between atoms: C_2  and  C_3 
REMARK    2  A    between atoms: C_3  and  O_6 
REMARK    3  A    between atoms: C_3  and  C_4 
REMARK    4  A    between atoms: C_7  and  O_6 
REMARK    5  A    between atoms: C_9  and  C_10 
REMARK    6  A    between atoms: N_15  and  C_14 
REMARK    7  A    between atoms: N_20  and  C_19 
REMARK       I    between atoms: C_22  and  N_20 
ROOT
ATOM      1  C   LIG d   1      -2.532  78.276 116.371  0.00  0.00     0.161 C 
ATOM      2  C   LIG d   1      -2.974  78.940 115.214  0.00  0.00     0.016 C 
ATOM      3  C   LIG d   1      -2.379  78.769 113.943  0.00  0.00     0.038 C 
ATOM      4  C   LIG d   1      -1.391  77.800 113.711  0.00  0.00     0.028 C 
ATOM      5  C   LIG d   1      -0.568  77.466 114.951  0.00  0.00    -0.047 C 
ATOM      6  C   LIG d   1      -1.528  77.132 116.116  0.00  0.00     0.091 C 
ENDROOT
BRANCH   1   7
ATOM      7  O   LIG d   1      -3.665  77.790 117.118  0.00  0.00    -0.368 OA
BRANCH   7   8
ATOM      8  C   LIG d   1      -3.884  78.403 118.413  0.00  0.00     0.119 C 
BRANCH   8   9
ATOM      9  C   LIG d   1      -3.712  77.304 119.480  0.00  0.00     0.028 C 
ATOM     10  C   LIG d   1      -4.992  76.474 119.678  0.00  0.00     0.006 C 
ENDBRANCH   8   9
BRANCH   8  11
ATOM     11  C   LIG d   1      -5.328  78.891 118.562  0.00  0.00     0.028 C 
ATOM     12  C   LIG d   1      -6.009  79.157 117.210  0.00  0.00     0.006 C 
ENDBRANCH   8  11
ENDBRANCH   7   8
ENDBRANCH   1   7
BRANCH   6  13
ATOM     13  N   LIG d   1      -0.806  76.875 117.389  0.00  0.00    -0.311 N 
ATOM     14  C   LIG d   1      -0.375  75.670 117.757  0.00  0.00     0.210 C 
ATOM     15  C   LIG d   1       0.328  75.623 119.117  0.00  0.00     0.109 C 
ATOM     16  O   LIG d   1      -0.480  74.642 117.072  0.00  0.00    -0.276 OA
ATOM     17  H   LIG d   1      -0.651  77.660 117.992  0.00  0.00     0.149 HD
ENDBRANCH   6  13
BRANCH   5  18
ATOM     18  N   LIG d   1       0.329  76.348 114.602  0.00  0.00     0.381 N 
ATOM     19  H   LIG d   1       0.586  75.849 115.430  0.00  0.00    -0.090 HD
ATOM     20  H   LIG d   1       1.164  76.719 114.185  0.00  0.00    -0.090 HD
ATOM     21  H   LIG d   1      -0.126  75.733 113.963  0.00  0.00    -0.090 HD
ENDBRANCH   5  18
BRANCH   3  22
ATOM     22  C   LIG d   1      -2.745  79.600 112.896  0.00  0.00     0.382 C 
ATOM     23  O   LIG d   1      -3.488  80.589 113.110  0.00  0.00    -0.241 OA
ATOM     24  O   LIG d   1      -2.378  79.350 111.732  0.00  0.00    -0.241 OA
ENDBRANCH   3  22
TORSDOF 7
ENDMDL
MODEL 5
REMARK VINA RESULT:      -4.6      2.405      5.296
REMARK  7 active torsions:
REMARK  status: ('A' for Active; 'I' for Inactive)
REMARK    1  A    between atoms: C_2  and  C_3 
REMARK    2  A    between atoms: C_3  and  O_6 
REMARK    3  A    between atoms: C_3  and  C_4 
REMARK    4  A    between atoms: C_7  and  O_6 
REMARK    5  A    between atoms: C_9  and  C_10 
REMARK    6  A    between atoms: N_15  and  C_14 
REMARK    7  A    between atoms: N_20  and  C_19 
REMARK       I    between atoms: C_22  and  N_20 
ROOT
ATOM      1  C   LIG d   1      -2.702  78.303 115.328  0.00  0.00     0.161 C 
ATOM      2  C   LIG d   1      -1.818  77.266 114.987  0.00  0.00     0.016 C 
ATOM      3  C   LIG d   1      -1.969  75.935 115.440  0.00  0.00     0.038 C 
ATOM      4  C   LIG d   1      -3.105  75.517 116.148  0.00  0.00     0.028 C 
ATOM      5  C   LIG d   1      -3.769  76.635 116.944  0.00  0.00    -0.047 C 
ATOM      6  C   LIG d   1      -4.008  77.843 116.008  0.00  0.00     0.091 C 
ENDROOT
BRANCH   1   7
ATOM      7  O   LIG d   1      -2.997  79.097 114.162  0.00  0.00    -0.368 OA
BRANCH   7   8
ATOM      8  C   LIG d   1      -2.175  78.847 112.996  0.00  0.00     0.119 C 
BRANCH   8   9
ATOM      9  C   LIG d   1      -1.718  80.213 112.449  0.00  0.00     0.028 C 
ATOM     10  C   LIG d   1      -0.201  80.423 112.587  0.00  0.00     0.006 C 
ENDBRANCH   8   9
BRANCH   8  11
ATOM     11  C   LIG d   1      -2.990  78.210 111.866  0.00  0.00     0.028 C 
ATOM     12  C   LIG d   1      -2.129  77.833 110.650  0.00  0.00     0.006 C 
ENDBRANCH   8  11
ENDBRANCH   7   8
ENDBRANCH   1   7
BRANCH   6  13
ATOM     13  N   LIG d   1      -4.578  79.012 116.726  0.00  0.00    -0.311 N 
ATOM     14  C   LIG d   1      -5.886  79.242 116.832  0.00  0.00     0.210 C 
ATOM     15  C   LIG d   1      -6.259  80.516 117.597  0.00  0.00     0.109 C 
ATOM     16  O   LIG d   1      -6.773  78.495 116.391  0.00  0.00    -0.276 OA
ATOM     17  H   LIG d   1      -3.930  79.653 117.141  0.00  0.00     0.149 HD
ENDBRANCH   6  13
BRANCH   5  18
ATOM     18  N   LIG d   1      -5.015  76.094 117.519  0.00  0.00     0.381 N 
ATOM     19  H   LIG d   1      -5.805  76.502 117.061  0.00  0.00    -0.090 HD
ATOM     20  H   LIG d   1      -5.055  76.338 118.493  0.00  0.00    -0.090 HD
ATOM     21  H   LIG d   1      -5.036  75.104 117.416  0.00  0.00    -0.090 HD
ENDBRANCH   5  18
BRANCH   3  22
ATOM     22  C   LIG d   1      -0.954  75.015 115.220  0.00  0.00     0.382 C 
ATOM     23  O   LIG d   1      -0.617  74.223 116.132  0.00  0.00    -0.241 OA
ATOM     24  O   LIG d   1      -0.342  74.998 114.135  0.00  0.00    -0.241 OA
ENDBRANCH   3  22
TORSDOF 7
ENDMDL
MODEL 6
REMARK VINA RESULT:      -4.6      2.673      4.600
REMARK  7 active torsions:
REMARK  status: ('A' for Active; 'I' for Inactive)
REMARK    1  A    between atoms: C_2  and  C_3 
REMARK    2  A    between atoms: C_3  and  O_6 
REMARK    3  A    between atoms: C_3  and  C_4 
REMARK    4  A    between atoms: C_7  and  O_6 
REMARK    5  A    between atoms: C_9  and  C_10 
REMARK    6  A    between atoms: N_15  and  C_14 
REMARK    7  A    between atoms: N_20  and  C_19 
REMARK       I    between atoms: C_22  and  N_20 
ROOT
ATOM      1  C   LIG d   1      -2.770  77.215 117.006  0.00  0.00     0.161 C 
ATOM      2  C   LIG d   1      -3.611  76.383 116.248  0.00  0.00     0.016 C 
ATOM      3  C   LIG d   1      -3.901  76.606 114.882  0.00  0.00     0.038 C 
ATOM      4  C   LIG d   1      -3.245  77.597 114.137  0.00  0.00     0.028 C 
ATOM      5  C   LIG d   1      -2.770  78.775 114.982  0.00  0.00    -0.047 C 
ATOM      6  C   LIG d   1      -1.958  78.236 116.182  0.00  0.00     0.091 C 
ENDROOT
BRANCH   1   7
ATOM      7  O   LIG d   1      -1.890  76.411 117.816  0.00  0.00    -0.368 OA
BRANCH   7   8
ATOM      8  C   LIG d   1      -0.658  75.981 117.185  0.00  0.00     0.119 C 
BRANCH   8   9
ATOM      9  C   LIG d   1      -0.875  74.542 116.680  0.00  0.00     0.028 C 
ATOM     10  C   LIG d   1      -0.753  74.433 115.151  0.00  0.00     0.006 C 
ENDBRANCH   8   9
BRANCH   8  11
ATOM     11  C   LIG d   1       0.484  75.887 118.201  0.00  0.00     0.028 C 
ATOM     12  C   LIG d   1       0.183  76.638 119.508  0.00  0.00     0.006 C 
ENDBRANCH   8  11
ENDBRANCH   7   8
ENDBRANCH   1   7
BRANCH   6  13
ATOM     13  N   LIG d   1      -1.527  79.318 117.106  0.00  0.00    -0.311 N 
ATOM     14  C   LIG d   1      -0.253  79.651 117.299  0.00  0.00     0.210 C 
ATOM     15  C   LIG d   1      -0.026  80.781 118.309  0.00  0.00     0.109 C 
ATOM     16  O   LIG d   1       0.710  79.141 116.707  0.00  0.00    -0.276 OA
ATOM     17  H   LIG d   1      -2.246  79.805 117.604  0.00  0.00     0.149 HD
ENDBRANCH   6  13
BRANCH   5  18
ATOM     18  N   LIG d   1      -1.985  79.664 114.105  0.00  0.00     0.381 N 
ATOM     19  H   LIG d   1      -2.072  79.365 113.154  0.00  0.00    -0.090 HD
ATOM     20  H   LIG d   1      -1.016  79.605 114.366  0.00  0.00    -0.090 HD
ATOM     21  H   LIG d   1      -2.305  80.603 114.197  0.00  0.00    -0.090 HD
ENDBRANCH   5  18
BRANCH   3  22
ATOM     22  C   LIG d   1      -4.887  75.857 114.258  0.00  0.00     0.382 C 
ATOM     23  O   LIG d   1      -5.976  76.394 113.942  0.00  0.00    -0.241 OA
ATOM     24  O   LIG d   1      -4.718  74.641 114.047  0.00  0.00    -0.241 OA
ENDBRANCH   3  22
TORSDOF 7
ENDMDL
MODEL 7
REMARK VINA RESULT:      -4.5      2.153      4.323
REMARK  7 active torsions:
REMARK  status: ('A' for Active; 'I' for Inactive)
REMARK    1  A    between atoms: C_2  and  C_3 
REMARK    2  A    between atoms: C_3  and  O_6 
REMARK    3  A    between atoms: C_3  and  C_4 
REMARK    4  A    between atoms: C_7  and  O_6 
REMARK    5  A    between atoms: C_9  and  C_10 
REMARK    6  A    between atoms: N_15  and  C_14 
REMARK    7  A    between atoms: N_20  and  C_19 
REMARK       I    between atoms: C_22  and  N_20 
ROOT
ATOM      1  C   LIG d   1      -3.282  78.311 114.823  0.00  0.00     0.161 C 
ATOM      2  C   LIG d   1      -4.040  77.149 115.042  0.00  0.00     0.016 C 
ATOM      3  C   LIG d   1      -3.473  75.859 115.151  0.00  0.00     0.038 C 
ATOM      4  C   LIG d   1      -2.085  75.661 115.199  0.00  0.00     0.028 C 
ATOM      5  C   LIG d   1      -1.293  76.746 114.477  0.00  0.00    -0.047 C 
ATOM      6  C   LIG d   1      -1.759  78.130 114.984  0.00  0.00     0.091 C 
ENDROOT
BRANCH   1   7
ATOM      7  O   LIG d   1      -3.754  79.371 115.679  0.00  0.00    -0.368 OA
BRANCH   7   8
ATOM      8  C   LIG d   1      -4.529  78.961 116.832  0.00  0.00     0.119 C 
BRANCH   8   9
ATOM      9  C   LIG d   1      -5.672  79.981 117.007  0.00  0.00     0.028 C 
ATOM     10  C   LIG d   1      -7.022  79.304 117.297  0.00  0.00     0.006 C 
ENDBRANCH   8   9
BRANCH   8  11
ATOM     11  C   LIG d   1      -3.704  79.051 118.119  0.00  0.00     0.028 C 
ATOM     12  C   LIG d   1      -2.546  80.056 118.015  0.00  0.00     0.006 C 
ENDBRANCH   8  11
ENDBRANCH   7   8
ENDBRANCH   1   7
BRANCH   6  13
ATOM     13  N   LIG d   1      -1.094  79.249 114.268  0.00  0.00    -0.311 N 
ATOM     14  C   LIG d   1      -1.080  79.365 112.941  0.00  0.00     0.210 C 
ATOM     15  C   LIG d   1      -0.321  80.584 112.406  0.00  0.00     0.109 C 
ATOM     16  O   LIG d   1      -1.651  78.592 112.157  0.00  0.00    -0.276 OA
ATOM     17  H   LIG d   1      -0.632  79.939 114.828  0.00  0.00     0.149 HD
ENDBRANCH   6  13
BRANCH   5  18
ATOM     18  N   LIG d   1       0.139  76.491 114.723  0.00  0.00     0.381 N 
ATOM     19  H   LIG d   1       0.545  77.273 115.198  0.00  0.00    -0.090 HD
ATOM     20  H   LIG d   1       0.606  76.381 113.841  0.00  0.00    -0.090 HD
ATOM     21  H   LIG d   1       0.249  75.666 115.271  0.00  0.00    -0.090 HD
ENDBRANCH   5  18
BRANCH   3  22
ATOM     22  C   LIG d   1      -4.298  74.745 115.173  0.00  0.00     0.382 C 
ATOM     23  O   LIG d   1      -4.619  74.181 114.099  0.00  0.00    -0.241 OA
ATOM     24  O   LIG d   1      -4.761  74.323 116.249  0.00  0.00    -0.241 OA
ENDBRANCH   3  22
TORSDOF 7
ENDMDL
MODEL 8
REMARK VINA RESULT:      -4.3      1.890      2.467
REMARK  7 active torsions:
REMARK  status: ('A' for Active; 'I' for Inactive)
REMARK    1  A    between atoms: C_2  and  C_3 
REMARK    2  A    between atoms: C_3  and  O_6 
REMARK    3  A    between atoms: C_3  and  C_4 
REMARK    4  A    between atoms: C_7  and  O_6 
REMARK    5  A    between atoms: C_9  and  C_10 
REMARK    6  A    between atoms: N_15  and  C_14 
REMARK    7  A    between atoms: N_20  and  C_19 
REMARK       I    between atoms: C_22  and  N_20 
ROOT
ATOM      1  C   LIG d   1      -2.993  78.290 115.979  0.00  0.00     0.161 C 
ATOM      2  C   LIG d   1      -3.358  78.446 114.631  0.00  0.00     0.016 C 
ATOM      3  C   LIG d   1      -2.532  78.057 113.551  0.00  0.00     0.038 C 
ATOM      4  C   LIG d   1      -1.341  77.343 113.748  0.00  0.00     0.028 C 
ATOM      5  C   LIG d   1      -0.691  77.611 115.101  0.00  0.00    -0.047 C 
ATOM      6  C   LIG d   1      -1.746  77.411 116.214  0.00  0.00     0.091 C 
ENDROOT
BRANCH   1   7
ATOM      7  O   LIG d   1      -4.112  77.783 116.733  0.00  0.00    -0.368 OA
BRANCH   7   8
ATOM      8  C   LIG d   1      -4.475  76.403 116.484  0.00  0.00     0.119 C 
BRANCH   8   9
ATOM      9  C   LIG d   1      -5.875  76.402 115.840  0.00  0.00     0.028 C 
ATOM     10  C   LIG d   1      -5.865  75.823 114.415  0.00  0.00     0.006 C 
ENDBRANCH   8   9
BRANCH   8  11
ATOM     11  C   LIG d   1      -4.631  75.623 117.793  0.00  0.00     0.028 C 
ATOM     12  C   LIG d   1      -4.721  76.537 119.025  0.00  0.00     0.006 C 
ENDBRANCH   8  11
ENDBRANCH   7   8
ENDBRANCH   1   7
BRANCH   6  13
ATOM     13  N   LIG d   1      -1.215  77.735 117.563  0.00  0.00    -0.311 N 
ATOM     14  C   LIG d   1      -0.753  78.938 117.900  0.00  0.00     0.210 C 
ATOM     15  C   LIG d   1      -0.233  79.053 119.336  0.00  0.00     0.109 C 
ATOM     16  O   LIG d   1      -0.753  79.930 117.155  0.00  0.00    -0.276 OA
ATOM     17  H   LIG d   1      -1.206  76.997 118.239  0.00  0.00     0.149 HD
ENDBRANCH   6  13
BRANCH   5  18
ATOM     18  N   LIG d   1       0.463  76.701 115.229  0.00  0.00     0.381 N 
ATOM     19  H   LIG d   1       0.253  75.825 114.794  0.00  0.00    -0.090 HD
ATOM     20  H   LIG d   1       0.639  76.534 116.205  0.00  0.00    -0.090 HD
ATOM     21  H   LIG d   1       1.267  77.107 114.804  0.00  0.00    -0.090 HD
ENDBRANCH   5  18
BRANCH   3  22
ATOM     22  C   LIG d   1      -2.877  78.419 112.258  0.00  0.00     0.382 C 
ATOM     23  O   LIG d   1      -3.849  77.864 111.690  0.00  0.00    -0.241 OA
ATOM     24  O   LIG d   1      -2.202  79.261 111.636  0.00  0.00    -0.241 OA
ENDBRANCH   3  22
TORSDOF 7
ENDMDL
MODEL 9
REMARK VINA RESULT:      -4.3      2.446      4.813
REMARK  7 active torsions:
REMARK  status: ('A' for Active; 'I' for Inactive)
REMARK    1  A    between atoms: C_2  and  C_3 
REMARK    2  A    between atoms: C_3  and  O_6 
REMARK    3  A    between atoms: C_3  and  C_4 
REMARK    4  A    between atoms: C_7  and  O_6 
REMARK    5  A    between atoms: C_9  and  C_10 
REMARK    6  A    between atoms: N_15  and  C_14 
REMARK    7  A    between atoms: N_20  and  C_19 
REMARK       I    between atoms: C_22  and  N_20 
ROOT
ATOM      1  C   LIG d   1      -1.899  76.939 114.489  0.00  0.00     0.161 C 
ATOM      2  C   LIG d   1      -3.157  76.491 114.053  0.00  0.00     0.016 C 
ATOM      3  C   LIG d   1      -4.352  76.702 114.777  0.00  0.00     0.038 C 
ATOM      4  C   LIG d   1      -4.392  77.513 115.922  0.00  0.00     0.028 C 
ATOM      5  C   LIG d   1      -3.067  77.565 116.674  0.00  0.00    -0.047 C 
ATOM      6  C   LIG d   1      -1.939  77.920 115.678  0.00  0.00     0.091 C 
ENDROOT
BRANCH   1   7
ATOM      7  O   LIG d   1      -1.177  77.518 113.385  0.00  0.00    -0.368 OA
BRANCH   7   8
ATOM      8  C   LIG d   1      -1.979  78.174 112.372  0.00  0.00     0.119 C 
BRANCH   8   9
ATOM      9  C   LIG d   1      -1.495  77.670 110.999  0.00  0.00     0.028 C 
ATOM     10  C   LIG d   1      -0.766  78.761 110.197  0.00  0.00     0.006 C 
ENDBRANCH   8   9
BRANCH   8  11
ATOM     11  C   LIG d   1      -1.734  79.686 112.359  0.00  0.00     0.028 C 
ATOM     12  C   LIG d   1      -2.936  80.489 112.880  0.00  0.00     0.006 C 
ENDBRANCH   8  11
ENDBRANCH   7   8
ENDBRANCH   1   7
BRANCH   6  13
ATOM     13  N   LIG d   1      -0.596  77.910 116.316  0.00  0.00    -0.311 N 
ATOM     14  C   LIG d   1      -0.037  78.986 116.865  0.00  0.00     0.210 C 
ATOM     15  C   LIG d   1       1.361  78.761 117.449  0.00  0.00     0.109 C 
ATOM     16  O   LIG d   1      -0.579  80.098 116.952  0.00  0.00    -0.276 OA
ATOM     17  H   LIG d   1      -0.099  77.040 116.317  0.00  0.00     0.149 HD
ENDBRANCH   6  13
BRANCH   5  18
ATOM     18  N   LIG d   1      -3.210  78.550 117.762  0.00  0.00     0.381 N 
ATOM     19  H   LIG d   1      -4.089  79.021 117.679  0.00  0.00    -0.090 HD
ATOM     20  H   LIG d   1      -2.478  79.233 117.680  0.00  0.00    -0.090 HD
ATOM     21  H   LIG d   1      -3.152  78.094 118.645  0.00  0.00    -0.090 HD
ENDBRANCH   5  18
BRANCH   3  22
ATOM     22  C   LIG d   1      -5.518  76.065 114.380  0.00  0.00     0.382 C 
ATOM     23  O   LIG d   1      -6.065  75.229 115.138  0.00  0.00    -0.241 OA
ATOM     24  O   LIG d   1      -6.006  76.284 113.255  0.00  0.00    -0.241 OA
ENDBRANCH   3  22
TORSDOF 7
ENDMDL
