MODEL 1
REMARK VINA RESULT:      -5.1      0.000      0.000
REMARK  7 active torsions:
REMARK  status: ('A' for Active; 'I' for Inactive)
REMARK    1  A    between atoms: C_2  and  C_3 
REMARK    2  A    between atoms: C_3  and  O_6 
REMARK    3  A    between atoms: C_3  and  C_4 
REMARK    4  A    between atoms: C_7  and  O_6 
REMARK    5  A    between atoms: C_9  and  C_10 
REMARK    6  A    between atoms: N_15  and  C_14 
REMARK    7  A    between atoms: N_20  and  C_19 
REMARK       I    between atoms: C_22  and  N_20 
ROOT
ATOM      1  C   LIG d   1      -1.639  75.261 115.647  0.00  0.00     0.161 C 
ATOM      2  C   LIG d   1      -1.200  74.786 116.895  0.00  0.00     0.016 C 
ATOM      3  C   LIG d   1      -0.572  75.604 117.861  0.00  0.00     0.038 C 
ATOM      4  C   LIG d   1      -0.475  76.995 117.706  0.00  0.00     0.028 C 
ATOM      5  C   LIG d   1      -0.450  77.441 116.248  0.00  0.00    -0.047 C 
ATOM      6  C   LIG d   1      -1.643  76.797 115.505  0.00  0.00     0.091 C 
ENDROOT
BRANCH   1   7
ATOM      7  O   LIG d   1      -2.945  74.727 115.354  0.00  0.00    -0.368 OA
BRANCH   7   8
ATOM      8  C   LIG d   1      -4.065  75.617 115.589  0.00  0.00     0.119 C 
BRANCH   8   9
ATOM      9  C   LIG d   1      -4.646  75.274 116.974  0.00  0.00     0.028 C 
ATOM     10  C   LIG d   1      -4.411  76.393 118.002  0.00  0.00     0.006 C 
ENDBRANCH   8   9
BRANCH   8  11
ATOM     11  C   LIG d   1      -5.202  75.355 114.596  0.00  0.00     0.028 C 
ATOM     12  C   LIG d   1      -6.513  76.051 114.996  0.00  0.00     0.006 C 
ENDBRANCH   8  11
ENDBRANCH   7   8
ENDBRANCH   1   7
BRANCH   6  13
ATOM     13  N   LIG d   1      -1.645  77.114 114.053  0.00  0.00    -0.311 N 
ATOM     14  C   LIG d   1      -2.336  78.122 113.524  0.00  0.00     0.210 C 
ATOM     15  C   LIG d   1      -2.214  78.262 112.003  0.00  0.00     0.109 C 
ATOM     16  O   LIG d   1      -3.012  78.934 114.173  0.00  0.00    -0.276 OA
ATOM     17  H   LIG d   1      -1.097  76.525 113.457  0.00  0.00     0.149 HD
ENDBRANCH   6  13
BRANCH   5  18
ATOM     18  N   LIG d   1      -0.487  78.916 116.233  0.00  0.00     0.381 N 
ATOM     19  H   LIG d   1      -1.300  79.229 115.741  0.00  0.00    -0.090 HD
ATOM     20  H   LIG d   1       0.325  79.256 115.748  0.00  0.00    -0.090 HD
ATOM     21  H   LIG d   1      -0.498  79.266 117.165  0.00  0.00    -0.090 HD
ENDBRANCH   5  18
BRANCH   3  22
ATOM     22  C   LIG d   1       0.004  75.025 118.982  0.00  0.00     0.382 C 
ATOM     23  O   LIG d   1       1.200  75.271 119.270  0.00  0.00    -0.241 OA
ATOM     24  O   LIG d   1      -0.644  74.225 119.684  0.00  0.00    -0.241 OA
ENDBRANCH   3  22
TORSDOF 7
ENDMDL
MODEL 2
REMARK VINA RESULT:      -4.9      2.131      5.154
REMARK  7 active torsions:
REMARK  status: ('A' for Active; 'I' for Inactive)
REMARK    1  A    between atoms: C_2  and  C_3 
REMARK    2  A    between atoms: C_3  and  O_6 
REMARK    3  A    between atoms: C_3  and  C_4 
REMARK    4  A    between atoms: C_7  and  O_6 
REMARK    5  A    between atoms: C_9  and  C_10 
REMARK    6  A    between atoms: N_15  and  C_14 
REMARK    7  A    between atoms: N_20  and  C_19 
REMARK       I    between atoms: C_22  and  N_20 
ROOT
ATOM      1  C   LIG d   1      -3.155  77.303 117.200  0.00  0.00     0.161 C 
ATOM      2  C   LIG d   1      -3.952  76.435 116.436  0.00  0.00     0.016 C 
ATOM      3  C   LIG d   1      -3.946  76.416 115.022  0.00  0.00     0.038 C 
ATOM      4  C   LIG d   1      -3.026  77.165 114.274  0.00  0.00     0.028 C 
ATOM      5  C   LIG d   1      -2.551  78.427 114.986  0.00  0.00    -0.047 C 
ATOM      6  C   LIG d   1      -2.064  78.050 116.404  0.00  0.00     0.091 C 
ENDROOT
BRANCH   1   7
ATOM      7  O   LIG d   1      -2.567  76.584 118.303  0.00  0.00    -0.368 OA
BRANCH   7   8
ATOM      8  C   LIG d   1      -1.254  76.020 118.068  0.00  0.00     0.119 C 
BRANCH   8   9
ATOM      9  C   LIG d   1      -1.441  74.520 117.767  0.00  0.00     0.028 C 
ATOM     10  C   LIG d   1      -1.180  74.180 116.290  0.00  0.00     0.006 C 
ENDBRANCH   8   9
BRANCH   8  11
ATOM     11  C   LIG d   1      -0.389  76.076 119.330  0.00  0.00     0.028 C 
ATOM     12  C   LIG d   1       0.966  75.371 119.157  0.00  0.00     0.006 C 
ENDBRANCH   8  11
ENDBRANCH   7   8
ENDBRANCH   1   7
BRANCH   6  13
ATOM     13  N   LIG d   1      -1.661  79.238 117.200  0.00  0.00    -0.311 N 
ATOM     14  C   LIG d   1      -0.396  79.516 117.513  0.00  0.00     0.210 C 
ATOM     15  C   LIG d   1      -0.202  80.779 118.358  0.00  0.00     0.109 C 
ATOM     16  O   LIG d   1       0.585  78.853 117.145  0.00  0.00    -0.276 OA
ATOM     17  H   LIG d   1      -2.391  79.847 117.513  0.00  0.00     0.149 HD
ENDBRANCH   6  13
BRANCH   5  18
ATOM     18  N   LIG d   1      -1.495  79.037 114.156  0.00  0.00     0.381 N 
ATOM     19  H   LIG d   1      -1.910  79.614 113.451  0.00  0.00    -0.090 HD
ATOM     20  H   LIG d   1      -0.977  78.306 113.701  0.00  0.00    -0.090 HD
ATOM     21  H   LIG d   1      -0.886  79.581 114.725  0.00  0.00    -0.090 HD
ENDBRANCH   5  18
BRANCH   3  22
ATOM     22  C   LIG d   1      -4.897  75.670 114.341  0.00  0.00     0.382 C 
ATOM     23  O   LIG d   1      -4.877  74.417 114.410  0.00  0.00    -0.241 OA
ATOM     24  O   LIG d   1      -5.746  76.232 113.624  0.00  0.00    -0.241 OA
ENDBRANCH   3  22
TORSDOF 7
ENDMDL
MODEL 3
REMARK VINA RESULT:      -4.8      2.469      5.242
REMARK  7 active torsions:
REMARK  status: ('A' for Active; 'I' for Inactive)
REMARK    1  A    between atoms: C_2  and  C_3 
REMARK    2  A    between atoms: C_3  and  O_6 
REMARK    3  A    between atoms: C_3  and  C_4 
REMARK    4  A    between atoms: C_7  and  O_6 
REMARK    5  A    between atoms: C_9  and  C_10 
REMARK    6  A    between atoms: N_15  and  C_14 
REMARK    7  A    between atoms: N_20  and  C_19 
REMARK       I    between atoms: C_22  and  N_20 
ROOT
ATOM      1  C   LIG d   1      -1.855  77.932 115.544  0.00  0.00     0.161 C 
ATOM      2  C   LIG d   1      -3.100  77.470 115.088  0.00  0.00     0.016 C 
ATOM      3  C   LIG d   1      -3.540  76.135 115.246  0.00  0.00     0.038 C 
ATOM      4  C   LIG d   1      -2.823  75.204 116.011  0.00  0.00     0.028 C 
ATOM      5  C   LIG d   1      -1.325  75.487 116.062  0.00  0.00    -0.047 C 
ATOM      6  C   LIG d   1      -1.107  76.959 116.479  0.00  0.00     0.091 C 
ENDROOT
BRANCH   1   7
ATOM      7  O   LIG d   1      -2.014  79.216 116.181  0.00  0.00    -0.368 OA
BRANCH   7   8
ATOM      8  C   LIG d   1      -2.142  79.199 117.624  0.00  0.00     0.119 C 
BRANCH   8   9
ATOM      9  C   LIG d   1      -3.600  79.564 117.964  0.00  0.00     0.028 C 
ATOM     10  C   LIG d   1      -4.403  78.356 118.476  0.00  0.00     0.006 C 
ENDBRANCH   8   9
BRANCH   8  11
ATOM     11  C   LIG d   1      -1.289  80.294 118.272  0.00  0.00     0.028 C 
ATOM     12  C   LIG d   1      -2.130  81.341 119.019  0.00  0.00     0.006 C 
ENDBRANCH   8  11
ENDBRANCH   7   8
ENDBRANCH   1   7
BRANCH   6  13
ATOM     13  N   LIG d   1       0.329  77.343 116.471  0.00  0.00    -0.311 N 
ATOM     14  C   LIG d   1       1.092  77.348 117.563  0.00  0.00     0.210 C 
ATOM     15  C   LIG d   1       2.540  77.796 117.338  0.00  0.00     0.109 C 
ATOM     16  O   LIG d   1       0.717  76.993 118.690  0.00  0.00    -0.276 OA
ATOM     17  H   LIG d   1       0.724  77.615 115.592  0.00  0.00     0.149 HD
ENDBRANCH   6  13
BRANCH   5  18
ATOM     18  N   LIG d   1      -0.721  74.523 117.001  0.00  0.00     0.381 N 
ATOM     19  H   LIG d   1       0.093  74.925 117.421  0.00  0.00    -0.090 HD
ATOM     20  H   LIG d   1      -0.442  73.704 116.492  0.00  0.00    -0.090 HD
ATOM     21  H   LIG d   1      -1.380  74.277 117.707  0.00  0.00    -0.090 HD
ENDBRANCH   5  18
BRANCH   3  22
ATOM     22  C   LIG d   1      -4.692  75.711 114.601  0.00  0.00     0.382 C 
ATOM     23  O   LIG d   1      -5.222  74.619 114.919  0.00  0.00    -0.241 OA
ATOM     24  O   LIG d   1      -5.182  76.384 113.675  0.00  0.00    -0.241 OA
ENDBRANCH   3  22
TORSDOF 7
ENDMDL
MODEL 4
REMARK VINA RESULT:      -4.7      2.049      5.112
REMARK  7 active torsions:
REMARK  status: ('A' for Active; 'I' for Inactive)
REMARK    1  A    between atoms: C_2  and  C_3 
REMARK    2  A    between atoms: C_3  and  O_6 
REMARK    3  A    between atoms: C_3  and  C_4 
REMARK    4  A    between atoms: C_7  and  O_6 
REMARK    5  A    between atoms: C_9  and  C_10 
REMARK    6  A    between atoms: N_15  and  C_14 
REMARK    7  A    between atoms: N_20  and  C_19 
REMARK       I    between atoms: C_22  and  N_20 
ROOT
ATOM      1  C   LIG d   1      -2.662  78.109 116.409  0.00  0.00     0.161 C 
ATOM      2  C   LIG d   1      -2.953  78.758 115.198  0.00  0.00     0.016 C 
ATOM      3  C   LIG d   1      -2.419  78.356 113.952  0.00  0.00     0.038 C 
ATOM      4  C   LIG d   1      -1.673  77.176 113.810  0.00  0.00     0.028 C 
ATOM      5  C   LIG d   1      -0.938  76.769 115.083  0.00  0.00    -0.047 C 
ATOM      6  C   LIG d   1      -1.940  76.753 116.259  0.00  0.00     0.091 C 
ENDROOT
BRANCH   1   7
ATOM      7  O   LIG d   1      -3.870  77.950 117.180  0.00  0.00    -0.368 OA
BRANCH   7   8
ATOM      8  C   LIG d   1      -5.098  77.820 116.422  0.00  0.00     0.119 C 
BRANCH   8   9
ATOM      9  C   LIG d   1      -6.211  78.528 117.217  0.00  0.00     0.028 C 
ATOM     10  C   LIG d   1      -5.835  79.971 117.596  0.00  0.00     0.006 C 
ENDBRANCH   8   9
BRANCH   8  11
ATOM     11  C   LIG d   1      -5.538  76.356 116.323  0.00  0.00     0.028 C 
ATOM     12  C   LIG d   1      -5.285  75.750 114.934  0.00  0.00     0.006 C 
ENDBRANCH   8  11
ENDBRANCH   7   8
ENDBRANCH   1   7
BRANCH   6  13
ATOM     13  N   LIG d   1      -1.286  76.447 117.558  0.00  0.00    -0.311 N 
ATOM     14  C   LIG d   1      -1.158  75.212 118.041  0.00  0.00     0.210 C 
ATOM     15  C   LIG d   1      -0.470  75.120 119.406  0.00  0.00     0.109 C 
ATOM     16  O   LIG d   1      -1.522  74.182 117.453  0.00  0.00    -0.276 OA
ATOM     17  H   LIG d   1      -0.934  77.221 118.085  0.00  0.00     0.149 HD
ENDBRANCH   6  13
BRANCH   5  18
ATOM     18  N   LIG d   1      -0.315  75.455 114.836  0.00  0.00     0.381 N 
ATOM     19  H   LIG d   1       0.085  75.105 115.683  0.00  0.00    -0.090 HD
ATOM     20  H   LIG d   1       0.421  75.565 114.161  0.00  0.00    -0.090 HD
ATOM     21  H   LIG d   1      -0.996  74.814 114.493  0.00  0.00    -0.090 HD
ENDBRANCH   5  18
BRANCH   3  22
ATOM     22  C   LIG d   1      -2.597  79.160 112.836  0.00  0.00     0.382 C 
ATOM     23  O   LIG d   1      -2.078  78.836 111.741  0.00  0.00    -0.241 OA
ATOM     24  O   LIG d   1      -3.232  80.229 112.922  0.00  0.00    -0.241 OA
ENDBRANCH   3  22
TORSDOF 7
ENDMDL
MODEL 5
REMARK VINA RESULT:      -4.5      2.401      5.571
REMARK  7 active torsions:
REMARK  status: ('A' for Active; 'I' for Inactive)
REMARK    1  A    between atoms: C_2  and  C_3 
REMARK    2  A    between atoms: C_3  and  O_6 
REMARK    3  A    between atoms: C_3  and  C_4 
REMARK    4  A    between atoms: C_7  and  O_6 
REMARK    5  A    between atoms: C_9  and  C_10 
REMARK    6  A    between atoms: N_15  and  C_14 
REMARK    7  A    between atoms: N_20  and  C_19 
REMARK       I    between atoms: C_22  and  N_20 
ROOT
ATOM      1  C   LIG d   1      -0.752  78.049 116.924  0.00  0.00     0.161 C 
ATOM      2  C   LIG d   1      -1.557  78.416 115.832  0.00  0.00     0.016 C 
ATOM      3  C   LIG d   1      -2.093  77.485 114.913  0.00  0.00     0.038 C 
ATOM      4  C   LIG d   1      -1.984  76.101 115.111  0.00  0.00     0.028 C 
ATOM      5  C   LIG d   1      -0.755  75.699 115.920  0.00  0.00    -0.047 C 
ATOM      6  C   LIG d   1      -0.715  76.535 117.219  0.00  0.00     0.091 C 
ENDROOT
BRANCH   1   7
ATOM      7  O   LIG d   1      -1.159  78.779 118.098  0.00  0.00    -0.368 OA
BRANCH   7   8
ATOM      8  C   LIG d   1      -2.539  79.221 118.127  0.00  0.00     0.119 C 
BRANCH   8   9
ATOM      9  C   LIG d   1      -2.562  80.625 118.763  0.00  0.00     0.028 C 
ATOM     10  C   LIG d   1      -1.160  81.251 118.853  0.00  0.00     0.006 C 
ENDBRANCH   8   9
BRANCH   8  11
ATOM     11  C   LIG d   1      -3.385  78.343 119.053  0.00  0.00     0.028 C 
ATOM     12  C   LIG d   1      -4.172  77.262 118.295  0.00  0.00     0.006 C 
ENDBRANCH   8  11
ENDBRANCH   7   8
ENDBRANCH   1   7
BRANCH   6  13
ATOM     13  N   LIG d   1       0.501  76.265 118.030  0.00  0.00    -0.311 N 
ATOM     14  C   LIG d   1       0.550  75.351 118.997  0.00  0.00     0.210 C 
ATOM     15  C   LIG d   1       1.895  75.248 119.722  0.00  0.00     0.109 C 
ATOM     16  O   LIG d   1      -0.384  74.594 119.302  0.00  0.00    -0.276 OA
ATOM     17  H   LIG d   1       1.315  76.813 117.828  0.00  0.00     0.149 HD
ENDBRANCH   6  13
BRANCH   5  18
ATOM     18  N   LIG d   1      -0.840  74.248 116.168  0.00  0.00     0.381 N 
ATOM     19  H   LIG d   1      -1.135  73.778 115.336  0.00  0.00    -0.090 HD
ATOM     20  H   LIG d   1      -1.524  74.080 116.884  0.00  0.00    -0.090 HD
ATOM     21  H   LIG d   1       0.047  73.899 116.458  0.00  0.00    -0.090 HD
ENDBRANCH   5  18
BRANCH   3  22
ATOM     22  C   LIG d   1      -2.713  77.939 113.758  0.00  0.00     0.382 C 
ATOM     23  O   LIG d   1      -2.953  79.162 113.614  0.00  0.00    -0.241 OA
ATOM     24  O   LIG d   1      -3.074  77.135 112.878  0.00  0.00    -0.241 OA
ENDBRANCH   3  22
TORSDOF 7
ENDMDL
MODEL 6
REMARK VINA RESULT:      -4.5      2.920      5.176
REMARK  7 active torsions:
REMARK  status: ('A' for Active; 'I' for Inactive)
REMARK    1  A    between atoms: C_2  and  C_3 
REMARK    2  A    between atoms: C_3  and  O_6 
REMARK    3  A    between atoms: C_3  and  C_4 
REMARK    4  A    between atoms: C_7  and  O_6 
REMARK    5  A    between atoms: C_9  and  C_10 
REMARK    6  A    between atoms: N_15  and  C_14 
REMARK    7  A    between atoms: N_20  and  C_19 
REMARK       I    between atoms: C_22  and  N_20 
ROOT
ATOM      1  C   LIG d   1      -2.913  78.240 116.497  0.00  0.00     0.161 C 
ATOM      2  C   LIG d   1      -4.013  77.493 116.044  0.00  0.00     0.016 C 
ATOM      3  C   LIG d   1      -3.888  76.294 115.305  0.00  0.00     0.038 C 
ATOM      4  C   LIG d   1      -2.646  75.677 115.098  0.00  0.00     0.028 C 
ATOM      5  C   LIG d   1      -1.476  76.654 115.100  0.00  0.00    -0.047 C 
ATOM      6  C   LIG d   1      -1.551  77.524 116.376  0.00  0.00     0.091 C 
ENDROOT
BRANCH   1   7
ATOM      7  O   LIG d   1      -3.137  78.664 117.856  0.00  0.00    -0.368 OA
BRANCH   7   8
ATOM      8  C   LIG d   1      -3.368  80.081 118.051  0.00  0.00     0.119 C 
BRANCH   8   9
ATOM      9  C   LIG d   1      -2.312  80.590 119.051  0.00  0.00     0.028 C 
ATOM     10  C   LIG d   1      -2.603  82.020 119.536  0.00  0.00     0.006 C 
ENDBRANCH   8   9
BRANCH   8  11
ATOM     11  C   LIG d   1      -4.720  80.337 118.724  0.00  0.00     0.028 C 
ATOM     12  C   LIG d   1      -5.893  80.317 117.732  0.00  0.00     0.006 C 
ENDBRANCH   8  11
ENDBRANCH   7   8
ENDBRANCH   1   7
BRANCH   6  13
ATOM     13  N   LIG d   1      -0.491  78.564 116.417  0.00  0.00    -0.311 N 
ATOM     14  C   LIG d   1       0.395  78.670 117.406  0.00  0.00     0.210 C 
ATOM     15  C   LIG d   1       1.391  79.825 117.262  0.00  0.00     0.109 C 
ATOM     16  O   LIG d   1       0.471  77.897 118.373  0.00  0.00    -0.276 OA
ATOM     17  H   LIG d   1      -0.460  79.214 115.656  0.00  0.00     0.149 HD
ENDBRANCH   6  13
BRANCH   5  18
ATOM     18  N   LIG d   1      -0.234  75.863 115.012  0.00  0.00     0.381 N 
ATOM     19  H   LIG d   1      -0.378  74.961 115.420  0.00  0.00    -0.090 HD
ATOM     20  H   LIG d   1       0.488  76.332 115.531  0.00  0.00    -0.090 HD
ATOM     21  H   LIG d   1       0.042  75.766 114.060  0.00  0.00    -0.090 HD
ENDBRANCH   5  18
BRANCH   3  22
ATOM     22  C   LIG d   1      -5.013  75.721 114.730  0.00  0.00     0.382 C 
ATOM     23  O   LIG d   1      -5.429  76.134 113.621  0.00  0.00    -0.241 OA
ATOM     24  O   LIG d   1      -5.642  74.828 115.327  0.00  0.00    -0.241 OA
ENDBRANCH   3  22
TORSDOF 7
ENDMDL
MODEL 7
REMARK VINA RESULT:      -4.4      2.492      5.745
REMARK  7 active torsions:
REMARK  status: ('A' for Active; 'I' for Inactive)
REMARK    1  A    between atoms: C_2  and  C_3 
REMARK    2  A    between atoms: C_3  and  O_6 
REMARK    3  A    between atoms: C_3  and  C_4 
REMARK    4  A    between atoms: C_7  and  O_6 
REMARK    5  A    between atoms: C_9  and  C_10 
REMARK    6  A    between atoms: N_15  and  C_14 
REMARK    7  A    between atoms: N_20  and  C_19 
REMARK       I    between atoms: C_22  and  N_20 
ROOT
ATOM      1  C   LIG d   1      -2.404  78.400 116.319  0.00  0.00     0.161 C 
ATOM      2  C   LIG d   1      -2.757  79.032 115.115  0.00  0.00     0.016 C 
ATOM      3  C   LIG d   1      -2.387  78.541 113.842  0.00  0.00     0.038 C 
ATOM      4  C   LIG d   1      -1.764  77.295 113.680  0.00  0.00     0.028 C 
ATOM      5  C   LIG d   1      -0.942  76.867 114.891  0.00  0.00    -0.047 C 
ATOM      6  C   LIG d   1      -1.819  76.981 116.158  0.00  0.00     0.091 C 
ENDROOT
BRANCH   1   7
ATOM      7  O   LIG d   1      -3.537  78.377 117.210  0.00  0.00    -0.368 OA
BRANCH   7   8
ATOM      8  C   LIG d   1      -3.380  79.092 118.460  0.00  0.00     0.119 C 
BRANCH   8   9
ATOM      9  C   LIG d   1      -4.592  80.032 118.611  0.00  0.00     0.028 C 
ATOM     10  C   LIG d   1      -5.565  79.931 117.425  0.00  0.00     0.006 C 
ENDBRANCH   8   9
BRANCH   8  11
ATOM     11  C   LIG d   1      -2.156  80.011 118.427  0.00  0.00     0.028 C 
ATOM     12  C   LIG d   1      -2.422  81.382 119.068  0.00  0.00     0.006 C 
ENDBRANCH   8  11
ENDBRANCH   7   8
ENDBRANCH   1   7
BRANCH   6  13
ATOM     13  N   LIG d   1      -1.067  76.661 117.399  0.00  0.00    -0.311 N 
ATOM     14  C   LIG d   1      -0.997  75.437 117.920  0.00  0.00     0.210 C 
ATOM     15  C   LIG d   1      -0.186  75.330 119.215  0.00  0.00     0.109 C 
ATOM     16  O   LIG d   1      -1.503  74.424 117.414  0.00  0.00    -0.276 OA
ATOM     17  H   LIG d   1      -0.600  77.419 117.858  0.00  0.00     0.149 HD
ENDBRANCH   6  13
BRANCH   5  18
ATOM     18  N   LIG d   1      -0.462  75.494 114.642  0.00  0.00     0.381 N 
ATOM     19  H   LIG d   1      -1.123  74.834 115.000  0.00  0.00    -0.090 HD
ATOM     20  H   LIG d   1       0.409  75.362 115.124  0.00  0.00    -0.090 HD
ATOM     21  H   LIG d   1      -0.335  75.350 113.664  0.00  0.00    -0.090 HD
ENDBRANCH   5  18
BRANCH   3  22
ATOM     22  C   LIG d   1      -2.606  79.320 112.715  0.00  0.00     0.382 C 
ATOM     23  O   LIG d   1      -2.072  79.007 111.624  0.00  0.00    -0.241 OA
ATOM     24  O   LIG d   1      -3.295  80.355 112.787  0.00  0.00    -0.241 OA
ENDBRANCH   3  22
TORSDOF 7
ENDMDL
MODEL 8
REMARK VINA RESULT:      -4.3      2.562      5.102
REMARK  7 active torsions:
REMARK  status: ('A' for Active; 'I' for Inactive)
REMARK    1  A    between atoms: C_2  and  C_3 
REMARK    2  A    between atoms: C_3  and  O_6 
REMARK    3  A    between atoms: C_3  and  C_4 
REMARK    4  A    between atoms: C_7  and  O_6 
REMARK    5  A    between atoms: C_9  and  C_10 
REMARK    6  A    between atoms: N_15  and  C_14 
REMARK    7  A    between atoms: N_20  and  C_19 
REMARK       I    between atoms: C_22  and  N_20 
ROOT
ATOM      1  C   LIG d   1      -3.406  76.618 118.301  0.00  0.00     0.161 C 
ATOM      2  C   LIG d   1      -4.640  77.179 117.931  0.00  0.00     0.016 C 
ATOM      3  C   LIG d   1      -4.780  78.502 117.451  0.00  0.00     0.038 C 
ATOM      4  C   LIG d   1      -3.668  79.307 117.163  0.00  0.00     0.028 C 
ATOM      5  C   LIG d   1      -2.438  78.962 117.995  0.00  0.00    -0.047 C 
ATOM      6  C   LIG d   1      -2.170  77.444 117.889  0.00  0.00     0.091 C 
ENDROOT
BRANCH   1   7
ATOM      7  O   LIG d   1      -3.307  75.275 117.786  0.00  0.00    -0.368 OA
BRANCH   7   8
ATOM      8  C   LIG d   1      -3.067  75.155 116.362  0.00  0.00     0.119 C 
BRANCH   8   9
ATOM      9  C   LIG d   1      -4.217  74.319 115.767  0.00  0.00     0.028 C 
ATOM     10  C   LIG d   1      -5.095  75.132 114.802  0.00  0.00     0.006 C 
ENDBRANCH   8   9
BRANCH   8  11
ATOM     11  C   LIG d   1      -1.793  74.354 116.077  0.00  0.00     0.028 C 
ATOM     12  C   LIG d   1      -0.814  75.099 115.155  0.00  0.00     0.006 C 
ENDBRANCH   8  11
ENDBRANCH   7   8
ENDBRANCH   1   7
BRANCH   6  13
ATOM     13  N   LIG d   1      -1.033  77.007 118.741  0.00  0.00    -0.311 N 
ATOM     14  C   LIG d   1       0.229  76.973 118.318  0.00  0.00     0.210 C 
ATOM     15  C   LIG d   1       1.244  76.473 119.350  0.00  0.00     0.109 C 
ATOM     16  O   LIG d   1       0.609  77.340 117.196  0.00  0.00    -0.276 OA
ATOM     17  H   LIG d   1      -1.247  76.722 119.676  0.00  0.00     0.149 HD
ENDBRANCH   6  13
BRANCH   5  18
ATOM     18  N   LIG d   1      -1.318  79.783 117.497  0.00  0.00     0.381 N 
ATOM     19  H   LIG d   1      -0.610  79.852 118.200  0.00  0.00    -0.090 HD
ATOM     20  H   LIG d   1      -1.656  80.708 117.298  0.00  0.00    -0.090 HD
ATOM     21  H   LIG d   1      -0.938  79.376 116.671  0.00  0.00    -0.090 HD
ENDBRANCH   5  18
BRANCH   3  22
ATOM     22  C   LIG d   1      -6.046  79.045 117.292  0.00  0.00     0.382 C 
ATOM     23  O   LIG d   1      -7.058  78.308 117.370  0.00  0.00    -0.241 OA
ATOM     24  O   LIG d   1      -6.186  80.254 117.027  0.00  0.00    -0.241 OA
ENDBRANCH   3  22
TORSDOF 7
ENDMDL
MODEL 9
REMARK VINA RESULT:      -4.2      2.494      3.475
REMARK  7 active torsions:
REMARK  status: ('A' for Active; 'I' for Inactive)
REMARK    1  A    between atoms: C_2  and  C_3 
REMARK    2  A    between atoms: C_3  and  O_6 
REMARK    3  A    between atoms: C_3  and  C_4 
REMARK    4  A    between atoms: C_7  and  O_6 
REMARK    5  A    between atoms: C_9  and  C_10 
REMARK    6  A    between atoms: N_15  and  C_14 
REMARK    7  A    between atoms: N_20  and  C_19 
REMARK       I    between atoms: C_22  and  N_20 
ROOT
ATOM      1  C   LIG d   1      -2.649  76.922 118.151  0.00  0.00     0.161 C 
ATOM      2  C   LIG d   1      -1.491  77.241 118.881  0.00  0.00     0.016 C 
ATOM      3  C   LIG d   1      -0.191  77.219 118.326  0.00  0.00     0.038 C 
ATOM      4  C   LIG d   1       0.027  77.023 116.954  0.00  0.00     0.028 C 
ATOM      5  C   LIG d   1      -1.066  76.200 116.279  0.00  0.00    -0.047 C 
ATOM      6  C   LIG d   1      -2.442  76.814 116.626  0.00  0.00     0.091 C 
ENDROOT
BRANCH   1   7
ATOM      7  O   LIG d   1      -3.691  77.872 118.449  0.00  0.00    -0.368 OA
BRANCH   7   8
ATOM      8  C   LIG d   1      -3.597  79.152 117.777  0.00  0.00     0.119 C 
BRANCH   8   9
ATOM      9  C   LIG d   1      -3.482  80.238 118.865  0.00  0.00     0.028 C 
ATOM     10  C   LIG d   1      -2.110  80.933 118.857  0.00  0.00     0.006 C 
ENDBRANCH   8   9
BRANCH   8  11
ATOM     11  C   LIG d   1      -4.886  79.477 117.015  0.00  0.00     0.028 C 
ATOM     12  C   LIG d   1      -6.030  78.504 117.338  0.00  0.00     0.006 C 
ENDBRANCH   8  11
ENDBRANCH   7   8
ENDBRANCH   1   7
BRANCH   6  13
ATOM     13  N   LIG d   1      -3.571  76.020 116.074  0.00  0.00    -0.311 N 
ATOM     14  C   LIG d   1      -4.163  76.296 114.913  0.00  0.00     0.210 C 
ATOM     15  C   LIG d   1      -5.320  75.365 114.540  0.00  0.00     0.109 C 
ATOM     16  O   LIG d   1      -3.818  77.204 114.142  0.00  0.00    -0.276 OA
ATOM     17  H   LIG d   1      -3.895  75.246 116.621  0.00  0.00     0.149 HD
ENDBRANCH   6  13
BRANCH   5  18
ATOM     18  N   LIG d   1      -0.786  76.190 114.831  0.00  0.00     0.381 N 
ATOM     19  H   LIG d   1      -1.491  75.665 114.353  0.00  0.00    -0.090 HD
ATOM     20  H   LIG d   1       0.100  75.742 114.675  0.00  0.00    -0.090 HD
ATOM     21  H   LIG d   1      -0.761  77.122 114.482  0.00  0.00    -0.090 HD
ENDBRANCH   5  18
BRANCH   3  22
ATOM     22  C   LIG d   1       0.912  77.356 119.155  0.00  0.00     0.382 C 
ATOM     23  O   LIG d   1       1.383  76.353 119.743  0.00  0.00    -0.241 OA
ATOM     24  O   LIG d   1       1.415  78.478 119.357  0.00  0.00    -0.241 OA
ENDBRANCH   3  22
TORSDOF 7
ENDMDL
