MODEL 1
REMARK VINA RESULT:      -5.0      0.000      0.000
REMARK  7 active torsions:
REMARK  status: ('A' for Active; 'I' for Inactive)
REMARK    1  A    between atoms: C_2  and  C_3 
REMARK    2  A    between atoms: C_3  and  O_6 
REMARK    3  A    between atoms: C_3  and  C_4 
REMARK    4  A    between atoms: C_7  and  O_6 
REMARK    5  A    between atoms: C_9  and  C_10 
REMARK    6  A    between atoms: N_15  and  C_14 
REMARK    7  A    between atoms: N_20  and  C_19 
REMARK       I    between atoms: C_22  and  N_20 
ROOT
ATOM      1  C   LIG d   1      -0.761  81.200 112.333  0.00  0.00     0.161 C 
ATOM      2  C   LIG d   1      -1.716  80.416 113.002  0.00  0.00     0.016 C 
ATOM      3  C   LIG d   1      -1.879  79.029 112.779  0.00  0.00     0.038 C 
ATOM      4  C   LIG d   1      -0.991  78.298 111.976  0.00  0.00     0.028 C 
ATOM      5  C   LIG d   1      -0.326  79.137 110.890  0.00  0.00    -0.047 C 
ATOM      6  C   LIG d   1       0.289  80.399 111.536  0.00  0.00     0.091 C 
ENDROOT
BRANCH   1   7
ATOM      7  O   LIG d   1      -0.113  82.084 113.269  0.00  0.00    -0.368 OA
BRANCH   7   8
ATOM      8  C   LIG d   1      -0.666  83.419 113.372  0.00  0.00     0.119 C 
BRANCH   8   9
ATOM      9  C   LIG d   1       0.177  84.340 112.467  0.00  0.00     0.028 C 
ATOM     10  C   LIG d   1      -0.516  84.639 111.127  0.00  0.00     0.006 C 
ENDBRANCH   8   9
BRANCH   8  11
ATOM     11  C   LIG d   1      -0.503  83.982 114.787  0.00  0.00     0.028 C 
ATOM     12  C   LIG d   1      -0.923  82.984 115.877  0.00  0.00     0.006 C 
ENDBRANCH   8  11
ENDBRANCH   7   8
ENDBRANCH   1   7
BRANCH   6  13
ATOM     13  N   LIG d   1       0.887  81.316 110.532  0.00  0.00    -0.311 N 
ATOM     14  C   LIG d   1       2.167  81.685 110.546  0.00  0.00     0.210 C 
ATOM     15  C   LIG d   1       2.573  82.654 109.430  0.00  0.00     0.109 C 
ATOM     16  O   LIG d   1       3.012  81.278 111.357  0.00  0.00    -0.276 OA
ATOM     17  H   LIG d   1       0.280  81.670 109.819  0.00  0.00     0.149 HD
ENDBRANCH   6  13
BRANCH   5  18
ATOM     18  N   LIG d   1       0.673  78.285 110.218  0.00  0.00     0.381 N 
ATOM     19  H   LIG d   1       0.544  77.331 110.491  0.00  0.00    -0.090 HD
ATOM     20  H   LIG d   1       1.592  78.573 110.506  0.00  0.00    -0.090 HD
ATOM     21  H   LIG d   1       0.585  78.370 109.229  0.00  0.00    -0.090 HD
ENDBRANCH   5  18
BRANCH   3  22
ATOM     22  C   LIG d   1      -2.965  78.367 113.332  0.00  0.00     0.382 C 
ATOM     23  O   LIG d   1      -3.172  78.426 114.568  0.00  0.00    -0.241 OA
ATOM     24  O   LIG d   1      -3.714  77.676 112.616  0.00  0.00    -0.241 OA
ENDBRANCH   3  22
TORSDOF 7
ENDMDL
MODEL 2
REMARK VINA RESULT:      -5.0      0.853      1.261
REMARK  7 active torsions:
REMARK  status: ('A' for Active; 'I' for Inactive)
REMARK    1  A    between atoms: C_2  and  C_3 
REMARK    2  A    between atoms: C_3  and  O_6 
REMARK    3  A    between atoms: C_3  and  C_4 
REMARK    4  A    between atoms: C_7  and  O_6 
REMARK    5  A    between atoms: C_9  and  C_10 
REMARK    6  A    between atoms: N_15  and  C_14 
REMARK    7  A    between atoms: N_20  and  C_19 
REMARK       I    between atoms: C_22  and  N_20 
ROOT
ATOM      1  C   LIG d   1      -0.702  81.468 112.730  0.00  0.00     0.161 C 
ATOM      2  C   LIG d   1      -1.667  80.567 113.210  0.00  0.00     0.016 C 
ATOM      3  C   LIG d   1      -1.751  79.220 112.789  0.00  0.00     0.038 C 
ATOM      4  C   LIG d   1      -0.776  78.638 111.966  0.00  0.00     0.028 C 
ATOM      5  C   LIG d   1      -0.072  79.641 111.059  0.00  0.00    -0.047 C 
ATOM      6  C   LIG d   1       0.439  80.822 111.916  0.00  0.00     0.091 C 
ENDROOT
BRANCH   1   7
ATOM      7  O   LIG d   1      -0.163  82.236 113.825  0.00  0.00    -0.368 OA
BRANCH   7   8
ATOM      8  C   LIG d   1      -0.634  83.602 113.937  0.00  0.00     0.119 C 
BRANCH   8   9
ATOM      9  C   LIG d   1       0.540  84.528 113.562  0.00  0.00     0.028 C 
ATOM     10  C   LIG d   1       1.900  83.956 113.995  0.00  0.00     0.006 C 
ENDBRANCH   8   9
BRANCH   8  11
ATOM     11  C   LIG d   1      -0.981  83.954 115.386  0.00  0.00     0.028 C 
ATOM     12  C   LIG d   1      -2.244  83.235 115.888  0.00  0.00     0.006 C 
ENDBRANCH   8  11
ENDBRANCH   7   8
ENDBRANCH   1   7
BRANCH   6  13
ATOM     13  N   LIG d   1       1.066  81.889 111.095  0.00  0.00    -0.311 N 
ATOM     14  C   LIG d   1       2.375  81.959 110.859  0.00  0.00     0.210 C 
ATOM     15  C   LIG d   1       2.816  83.151 110.004  0.00  0.00     0.109 C 
ATOM     16  O   LIG d   1       3.210  81.128 111.250  0.00  0.00    -0.276 OA
ATOM     17  H   LIG d   1       0.459  82.587 110.713  0.00  0.00     0.149 HD
ENDBRANCH   6  13
BRANCH   5  18
ATOM     18  N   LIG d   1       1.011  78.925 110.358  0.00  0.00     0.381 N 
ATOM     19  H   LIG d   1       1.556  78.406 111.018  0.00  0.00    -0.090 HD
ATOM     20  H   LIG d   1       1.611  79.597 109.914  0.00  0.00    -0.090 HD
ATOM     21  H   LIG d   1       0.627  78.309 109.676  0.00  0.00    -0.090 HD
ENDBRANCH   5  18
BRANCH   3  22
ATOM     22  C   LIG d   1      -2.844  78.451 113.161  0.00  0.00     0.382 C 
ATOM     23  O   LIG d   1      -3.572  77.931 112.282  0.00  0.00    -0.241 OA
ATOM     24  O   LIG d   1      -3.136  78.308 114.363  0.00  0.00    -0.241 OA
ENDBRANCH   3  22
TORSDOF 7
ENDMDL
MODEL 3
REMARK VINA RESULT:      -5.0      2.253      4.193
REMARK  7 active torsions:
REMARK  status: ('A' for Active; 'I' for Inactive)
REMARK    1  A    between atoms: C_2  and  C_3 
REMARK    2  A    between atoms: C_3  and  O_6 
REMARK    3  A    between atoms: C_3  and  C_4 
REMARK    4  A    between atoms: C_7  and  O_6 
REMARK    5  A    between atoms: C_9  and  C_10 
REMARK    6  A    between atoms: N_15  and  C_14 
REMARK    7  A    between atoms: N_20  and  C_19 
REMARK       I    between atoms: C_22  and  N_20 
ROOT
ATOM      1  C   LIG d   1       0.076  81.027 113.171  0.00  0.00     0.161 C 
ATOM      2  C   LIG d   1      -0.542  79.965 112.490  0.00  0.00     0.016 C 
ATOM      3  C   LIG d   1      -1.906  79.627 112.648  0.00  0.00     0.038 C 
ATOM      4  C   LIG d   1      -2.787  80.429 113.390  0.00  0.00     0.028 C 
ATOM      5  C   LIG d   1      -2.099  81.219 114.498  0.00  0.00    -0.047 C 
ATOM      6  C   LIG d   1      -0.895  81.980 113.899  0.00  0.00     0.091 C 
ENDROOT
BRANCH   1   7
ATOM      7  O   LIG d   1       0.917  81.766 112.263  0.00  0.00    -0.368 OA
BRANCH   7   8
ATOM      8  C   LIG d   1       0.324  82.122 110.991  0.00  0.00     0.119 C 
BRANCH   8   9
ATOM      9  C   LIG d   1       1.297  81.673 109.884  0.00  0.00     0.028 C 
ATOM     10  C   LIG d   1       2.662  81.237 110.444  0.00  0.00     0.006 C 
ENDBRANCH   8   9
BRANCH   8  11
ATOM     11  C   LIG d   1       0.207  83.641 110.836  0.00  0.00     0.028 C 
ATOM     12  C   LIG d   1       1.090  84.411 111.831  0.00  0.00     0.006 C 
ENDBRANCH   8  11
ENDBRANCH   7   8
ENDBRANCH   1   7
BRANCH   6  13
ATOM     13  N   LIG d   1      -0.117  82.713 114.931  0.00  0.00    -0.311 N 
ATOM     14  C   LIG d   1      -0.351  83.981 115.263  0.00  0.00     0.210 C 
ATOM     15  C   LIG d   1       0.581  84.551 116.337  0.00  0.00     0.109 C 
ATOM     16  O   LIG d   1      -1.262  84.679 114.793  0.00  0.00    -0.276 OA
ATOM     17  H   LIG d   1       0.622  82.213 115.385  0.00  0.00     0.149 HD
ENDBRANCH   6  13
BRANCH   5  18
ATOM     18  N   LIG d   1      -3.107  82.113 115.099  0.00  0.00     0.381 N 
ATOM     19  H   LIG d   1      -3.117  82.988 114.614  0.00  0.00    -0.090 HD
ATOM     20  H   LIG d   1      -2.858  82.286 116.057  0.00  0.00    -0.090 HD
ATOM     21  H   LIG d   1      -4.008  81.690 115.054  0.00  0.00    -0.090 HD
ENDBRANCH   5  18
BRANCH   3  22
ATOM     22  C   LIG d   1      -2.392  78.453 112.093  0.00  0.00     0.382 C 
ATOM     23  O   LIG d   1      -1.807  77.935 111.112  0.00  0.00    -0.241 OA
ATOM     24  O   LIG d   1      -3.433  77.931 112.533  0.00  0.00    -0.241 OA
ENDBRANCH   3  22
TORSDOF 7
ENDMDL
MODEL 4
REMARK VINA RESULT:      -4.9      1.903      4.566
REMARK  7 active torsions:
REMARK  status: ('A' for Active; 'I' for Inactive)
REMARK    1  A    between atoms: C_2  and  C_3 
REMARK    2  A    between atoms: C_3  and  O_6 
REMARK    3  A    between atoms: C_3  and  C_4 
REMARK    4  A    between atoms: C_7  and  O_6 
REMARK    5  A    between atoms: C_9  and  C_10 
REMARK    6  A    between atoms: N_15  and  C_14 
REMARK    7  A    between atoms: N_20  and  C_19 
REMARK       I    between atoms: C_22  and  N_20 
ROOT
ATOM      1  C   LIG d   1       0.884  81.382 113.461  0.00  0.00     0.161 C 
ATOM      2  C   LIG d   1       1.818  81.386 112.412  0.00  0.00     0.016 C 
ATOM      3  C   LIG d   1       1.620  80.700 111.192  0.00  0.00     0.038 C 
ATOM      4  C   LIG d   1       0.400  80.083 110.877  0.00  0.00     0.028 C 
ATOM      5  C   LIG d   1      -0.381  79.625 112.104  0.00  0.00    -0.047 C 
ATOM      6  C   LIG d   1      -0.500  80.807 113.093  0.00  0.00     0.091 C 
ENDROOT
BRANCH   1   7
ATOM      7  O   LIG d   1       0.746  82.713 113.998  0.00  0.00    -0.368 OA
BRANCH   7   8
ATOM      8  C   LIG d   1      -0.403  83.469 113.542  0.00  0.00     0.119 C 
BRANCH   8   9
ATOM      9  C   LIG d   1       0.071  84.387 112.399  0.00  0.00     0.028 C 
ATOM     10  C   LIG d   1      -0.633  84.079 111.067  0.00  0.00     0.006 C 
ENDBRANCH   8   9
BRANCH   8  11
ATOM     11  C   LIG d   1      -0.918  84.412 114.633  0.00  0.00     0.028 C 
ATOM     12  C   LIG d   1      -1.200  83.690 115.960  0.00  0.00     0.006 C 
ENDBRANCH   8  11
ENDBRANCH   7   8
ENDBRANCH   1   7
BRANCH   6  13
ATOM     13  N   LIG d   1      -1.178  80.422 114.358  0.00  0.00    -0.311 N 
ATOM     14  C   LIG d   1      -2.491  80.535 114.550  0.00  0.00     0.210 C 
ATOM     15  C   LIG d   1      -2.982  80.100 115.935  0.00  0.00     0.109 C 
ATOM     16  O   LIG d   1      -3.300  80.924 113.695  0.00  0.00    -0.276 OA
ATOM     17  H   LIG d   1      -0.601  80.066 115.095  0.00  0.00     0.149 HD
ENDBRANCH   6  13
BRANCH   5  18
ATOM     18  N   LIG d   1      -1.689  79.126 111.639  0.00  0.00     0.381 N 
ATOM     19  H   LIG d   1      -1.663  78.129 111.561  0.00  0.00    -0.090 HD
ATOM     20  H   LIG d   1      -1.878  79.509 110.729  0.00  0.00    -0.090 HD
ATOM     21  H   LIG d   1      -2.404  79.398 112.277  0.00  0.00    -0.090 HD
ENDBRANCH   5  18
BRANCH   3  22
ATOM     22  C   LIG d   1       2.665  80.592 110.287  0.00  0.00     0.382 C 
ATOM     23  O   LIG d   1       3.304  81.616 109.942  0.00  0.00    -0.241 OA
ATOM     24  O   LIG d   1       2.949  79.492 109.777  0.00  0.00    -0.241 OA
ENDBRANCH   3  22
TORSDOF 7
ENDMDL
MODEL 5
REMARK VINA RESULT:      -4.8      1.532      2.475
REMARK  7 active torsions:
REMARK  status: ('A' for Active; 'I' for Inactive)
REMARK    1  A    between atoms: C_2  and  C_3 
REMARK    2  A    between atoms: C_3  and  O_6 
REMARK    3  A    between atoms: C_3  and  C_4 
REMARK    4  A    between atoms: C_7  and  O_6 
REMARK    5  A    between atoms: C_9  and  C_10 
REMARK    6  A    between atoms: N_15  and  C_14 
REMARK    7  A    between atoms: N_20  and  C_19 
REMARK       I    between atoms: C_22  and  N_20 
ROOT
ATOM      1  C   LIG d   1      -1.506  82.201 112.880  0.00  0.00     0.161 C 
ATOM      2  C   LIG d   1      -2.273  81.091 113.270  0.00  0.00     0.016 C 
ATOM      3  C   LIG d   1      -1.889  79.754 113.021  0.00  0.00     0.038 C 
ATOM      4  C   LIG d   1      -0.629  79.429 112.497  0.00  0.00     0.028 C 
ATOM      5  C   LIG d   1      -0.034  80.531 111.626  0.00  0.00    -0.047 C 
ATOM      6  C   LIG d   1      -0.076  81.865 112.405  0.00  0.00     0.091 C 
ENDROOT
BRANCH   1   7
ATOM      7  O   LIG d   1      -1.464  83.167 113.949  0.00  0.00    -0.368 OA
BRANCH   7   8
ATOM      8  C   LIG d   1      -1.377  82.628 115.291  0.00  0.00     0.119 C 
BRANCH   8   9
ATOM      9  C   LIG d   1      -2.393  83.392 116.163  0.00  0.00     0.028 C 
ATOM     10  C   LIG d   1      -3.682  82.588 116.403  0.00  0.00     0.006 C 
ENDBRANCH   8   9
BRANCH   8  11
ATOM     11  C   LIG d   1      -0.009  82.913 115.918  0.00  0.00     0.028 C 
ATOM     12  C   LIG d   1       0.665  84.164 115.334  0.00  0.00     0.006 C 
ENDBRANCH   8  11
ENDBRANCH   7   8
ENDBRANCH   1   7
BRANCH   6  13
ATOM     13  N   LIG d   1       0.410  83.011 111.594  0.00  0.00    -0.311 N 
ATOM     14  C   LIG d   1       1.661  83.465 111.643  0.00  0.00     0.210 C 
ATOM     15  C   LIG d   1       1.947  84.669 110.740  0.00  0.00     0.109 C 
ATOM     16  O   LIG d   1       2.569  82.965 112.324  0.00  0.00    -0.276 OA
ATOM     17  H   LIG d   1      -0.253  83.456 110.990  0.00  0.00     0.149 HD
ENDBRANCH   6  13
BRANCH   5  18
ATOM     18  N   LIG d   1       1.334  80.119 111.259  0.00  0.00     0.381 N 
ATOM     19  H   LIG d   1       1.978  80.852 111.476  0.00  0.00    -0.090 HD
ATOM     20  H   LIG d   1       1.369  79.951 110.269  0.00  0.00    -0.090 HD
ATOM     21  H   LIG d   1       1.584  79.290 111.752  0.00  0.00    -0.090 HD
ENDBRANCH   5  18
BRANCH   3  22
ATOM     22  C   LIG d   1      -2.787  78.725 113.263  0.00  0.00     0.382 C 
ATOM     23  O   LIG d   1      -3.326  78.125 112.302  0.00  0.00    -0.241 OA
ATOM     24  O   LIG d   1      -3.098  78.419 114.429  0.00  0.00    -0.241 OA
ENDBRANCH   3  22
TORSDOF 7
ENDMDL
MODEL 6
REMARK VINA RESULT:      -4.6      2.582      4.242
REMARK  7 active torsions:
REMARK  status: ('A' for Active; 'I' for Inactive)
REMARK    1  A    between atoms: C_2  and  C_3 
REMARK    2  A    between atoms: C_3  and  O_6 
REMARK    3  A    between atoms: C_3  and  C_4 
REMARK    4  A    between atoms: C_7  and  O_6 
REMARK    5  A    between atoms: C_9  and  C_10 
REMARK    6  A    between atoms: N_15  and  C_14 
REMARK    7  A    between atoms: N_20  and  C_19 
REMARK       I    between atoms: C_22  and  N_20 
ROOT
ATOM      1  C   LIG d   1      -0.925  81.392 112.819  0.00  0.00     0.161 C 
ATOM      2  C   LIG d   1      -0.617  80.531 111.752  0.00  0.00     0.016 C 
ATOM      3  C   LIG d   1      -0.857  79.138 111.781  0.00  0.00     0.038 C 
ATOM      4  C   LIG d   1      -1.565  78.530 112.828  0.00  0.00     0.028 C 
ATOM      5  C   LIG d   1      -1.447  79.276 114.153  0.00  0.00    -0.047 C 
ATOM      6  C   LIG d   1      -1.799  80.763 113.924  0.00  0.00     0.091 C 
ENDROOT
BRANCH   1   7
ATOM      7  O   LIG d   1      -1.541  82.593 112.315  0.00  0.00    -0.368 OA
BRANCH   7   8
ATOM      8  C   LIG d   1      -0.753  83.805 112.418  0.00  0.00     0.119 C 
BRANCH   8   9
ATOM      9  C   LIG d   1      -0.426  84.267 110.985  0.00  0.00     0.028 C 
ATOM     10  C   LIG d   1       0.931  83.736 110.492  0.00  0.00     0.006 C 
ENDBRANCH   8   9
BRANCH   8  11
ATOM     11  C   LIG d   1       0.603  83.533 113.076  0.00  0.00     0.028 C 
ATOM     12  C   LIG d   1       0.789  84.299 114.396  0.00  0.00     0.006 C 
ENDBRANCH   8  11
ENDBRANCH   7   8
ENDBRANCH   1   7
BRANCH   6  13
ATOM     13  N   LIG d   1      -1.627  81.582 115.153  0.00  0.00    -0.311 N 
ATOM     14  C   LIG d   1      -2.565  82.403 115.624  0.00  0.00     0.210 C 
ATOM     15  C   LIG d   1      -2.176  83.168 116.892  0.00  0.00     0.109 C 
ATOM     16  O   LIG d   1      -3.693  82.545 115.129  0.00  0.00    -0.276 OA
ATOM     17  H   LIG d   1      -0.753  81.504 115.635  0.00  0.00     0.149 HD
ENDBRANCH   6  13
BRANCH   5  18
ATOM     18  N   LIG d   1      -2.341  78.612 115.120  0.00  0.00     0.381 N 
ATOM     19  H   LIG d   1      -1.860  78.472 115.986  0.00  0.00    -0.090 HD
ATOM     20  H   LIG d   1      -2.603  77.712 114.756  0.00  0.00    -0.090 HD
ATOM     21  H   LIG d   1      -3.155  79.167 115.269  0.00  0.00    -0.090 HD
ENDBRANCH   5  18
BRANCH   3  22
ATOM     22  C   LIG d   1      -0.350  78.332 110.773  0.00  0.00     0.382 C 
ATOM     23  O   LIG d   1       0.446  78.810 109.929  0.00  0.00    -0.241 OA
ATOM     24  O   LIG d   1      -0.715  77.146 110.670  0.00  0.00    -0.241 OA
ENDBRANCH   3  22
TORSDOF 7
ENDMDL
MODEL 7
REMARK VINA RESULT:      -4.6      2.289      3.447
REMARK  7 active torsions:
REMARK  status: ('A' for Active; 'I' for Inactive)
REMARK    1  A    between atoms: C_2  and  C_3 
REMARK    2  A    between atoms: C_3  and  O_6 
REMARK    3  A    between atoms: C_3  and  C_4 
REMARK    4  A    between atoms: C_7  and  O_6 
REMARK    5  A    between atoms: C_9  and  C_10 
REMARK    6  A    between atoms: N_15  and  C_14 
REMARK    7  A    between atoms: N_20  and  C_19 
REMARK       I    between atoms: C_22  and  N_20 
ROOT
ATOM      1  C   LIG d   1      -2.197  81.585 113.237  0.00  0.00     0.161 C 
ATOM      2  C   LIG d   1      -2.911  81.790 114.430  0.00  0.00     0.016 C 
ATOM      3  C   LIG d   1      -2.814  80.935 115.551  0.00  0.00     0.038 C 
ATOM      4  C   LIG d   1      -1.876  79.893 115.610  0.00  0.00     0.028 C 
ATOM      5  C   LIG d   1      -1.494  79.343 114.240  0.00  0.00    -0.047 C 
ATOM      6  C   LIG d   1      -1.086  80.518 113.323  0.00  0.00     0.091 C 
ENDROOT
BRANCH   1   7
ATOM      7  O   LIG d   1      -1.655  82.837 112.771  0.00  0.00    -0.368 OA
BRANCH   7   8
ATOM      8  C   LIG d   1      -0.423  83.271 113.397  0.00  0.00     0.119 C 
BRANCH   8   9
ATOM      9  C   LIG d   1      -0.790  84.320 114.464  0.00  0.00     0.028 C 
ATOM     10  C   LIG d   1      -0.283  83.937 115.864  0.00  0.00     0.006 C 
ENDBRANCH   8   9
BRANCH   8  11
ATOM     11  C   LIG d   1       0.481  84.003 112.401  0.00  0.00     0.028 C 
ATOM     12  C   LIG d   1      -0.034  83.918 110.955  0.00  0.00     0.006 C 
ENDBRANCH   8  11
ENDBRANCH   7   8
ENDBRANCH   1   7
BRANCH   6  13
ATOM     13  N   LIG d   1      -0.778  80.076 111.938  0.00  0.00    -0.311 N 
ATOM     14  C   LIG d   1       0.415  80.231 111.367  0.00  0.00     0.210 C 
ATOM     15  C   LIG d   1       0.512  79.724 109.925  0.00  0.00     0.109 C 
ATOM     16  O   LIG d   1       1.411  80.712 111.929  0.00  0.00    -0.276 OA
ATOM     17  H   LIG d   1      -1.521  79.648 111.421  0.00  0.00     0.149 HD
ENDBRANCH   6  13
BRANCH   5  18
ATOM     18  N   LIG d   1      -0.411  78.362 114.440  0.00  0.00     0.381 N 
ATOM     19  H   LIG d   1      -0.783  77.523 114.837  0.00  0.00    -0.090 HD
ATOM     20  H   LIG d   1       0.260  78.745 115.083  0.00  0.00    -0.090 HD
ATOM     21  H   LIG d   1       0.030  78.159 113.570  0.00  0.00    -0.090 HD
ENDBRANCH   5  18
BRANCH   3  22
ATOM     22  C   LIG d   1      -3.690  81.093 116.614  0.00  0.00     0.382 C 
ATOM     23  O   LIG d   1      -4.753  80.428 116.654  0.00  0.00    -0.241 OA
ATOM     24  O   LIG d   1      -3.452  81.924 117.511  0.00  0.00    -0.241 OA
ENDBRANCH   3  22
TORSDOF 7
ENDMDL
MODEL 8
REMARK VINA RESULT:      -4.5      1.683      5.030
REMARK  7 active torsions:
REMARK  status: ('A' for Active; 'I' for Inactive)
REMARK    1  A    between atoms: C_2  and  C_3 
REMARK    2  A    between atoms: C_3  and  O_6 
REMARK    3  A    between atoms: C_3  and  C_4 
REMARK    4  A    between atoms: C_7  and  O_6 
REMARK    5  A    between atoms: C_9  and  C_10 
REMARK    6  A    between atoms: N_15  and  C_14 
REMARK    7  A    between atoms: N_20  and  C_19 
REMARK       I    between atoms: C_22  and  N_20 
ROOT
ATOM      1  C   LIG d   1       0.161  80.934 112.823  0.00  0.00     0.161 C 
ATOM      2  C   LIG d   1       0.927  81.692 111.921  0.00  0.00     0.016 C 
ATOM      3  C   LIG d   1       1.130  81.324 110.571  0.00  0.00     0.038 C 
ATOM      4  C   LIG d   1       0.450  80.245 109.987  0.00  0.00     0.028 C 
ATOM      5  C   LIG d   1       0.063  79.160 110.986  0.00  0.00    -0.047 C 
ATOM      6  C   LIG d   1      -0.679  79.814 112.174  0.00  0.00     0.091 C 
ENDROOT
BRANCH   1   7
ATOM      7  O   LIG d   1      -0.683  81.807 113.600  0.00  0.00    -0.368 OA
BRANCH   7   8
ATOM      8  C   LIG d   1      -0.194  82.159 114.917  0.00  0.00     0.119 C 
BRANCH   8   9
ATOM      9  C   LIG d   1      -0.919  81.259 115.936  0.00  0.00     0.028 C 
ATOM     10  C   LIG d   1      -0.013  80.142 116.481  0.00  0.00     0.006 C 
ENDBRANCH   8   9
BRANCH   8  11
ATOM     11  C   LIG d   1      -0.585  83.592 115.292  0.00  0.00     0.028 C 
ATOM     12  C   LIG d   1      -0.470  84.569 114.111  0.00  0.00     0.006 C 
ENDBRANCH   8  11
ENDBRANCH   7   8
ENDBRANCH   1   7
BRANCH   6  13
ATOM     13  N   LIG d   1      -1.019  78.834 113.239  0.00  0.00    -0.311 N 
ATOM     14  C   LIG d   1      -2.195  78.213 113.315  0.00  0.00     0.210 C 
ATOM     15  C   LIG d   1      -2.346  77.257 114.502  0.00  0.00     0.109 C 
ATOM     16  O   LIG d   1      -3.116  78.339 112.493  0.00  0.00    -0.276 OA
ATOM     17  H   LIG d   1      -0.318  78.648 113.929  0.00  0.00     0.149 HD
ENDBRANCH   6  13
BRANCH   5  18
ATOM     18  N   LIG d   1      -0.756  78.165 110.269  0.00  0.00     0.381 N 
ATOM     19  H   LIG d   1      -0.324  77.265 110.327  0.00  0.00    -0.090 HD
ATOM     20  H   LIG d   1      -0.811  78.427 109.301  0.00  0.00    -0.090 HD
ATOM     21  H   LIG d   1      -1.671  78.129 110.663  0.00  0.00    -0.090 HD
ENDBRANCH   5  18
BRANCH   3  22
ATOM     22  C   LIG d   1       2.052  82.016 109.802  0.00  0.00     0.382 C 
ATOM     23  O   LIG d   1       3.151  81.485 109.511  0.00  0.00    -0.241 OA
ATOM     24  O   LIG d   1       1.818  83.182 109.431  0.00  0.00    -0.241 OA
ENDBRANCH   3  22
TORSDOF 7
ENDMDL
MODEL 9
REMARK VINA RESULT:      -4.4      2.878      5.353
REMARK  7 active torsions:
REMARK  status: ('A' for Active; 'I' for Inactive)
REMARK    1  A    between atoms: C_2  and  C_3 
REMARK    2  A    between atoms: C_3  and  O_6 
REMARK    3  A    between atoms: C_3  and  C_4 
REMARK    4  A    between atoms: C_7  and  O_6 
REMARK    5  A    between atoms: C_9  and  C_10 
REMARK    6  A    between atoms: N_15  and  C_14 
REMARK    7  A    between atoms: N_20  and  C_19 
REMARK       I    between atoms: C_22  and  N_20 
ROOT
ATOM      1  C   LIG d   1      -0.037  81.353 115.480  0.00  0.00     0.161 C 
ATOM      2  C   LIG d   1      -0.324  82.428 114.622  0.00  0.00     0.016 C 
ATOM      3  C   LIG d   1      -0.848  82.264 113.319  0.00  0.00     0.038 C 
ATOM      4  C   LIG d   1      -1.264  81.014 112.838  0.00  0.00     0.028 C 
ATOM      5  C   LIG d   1      -0.525  79.843 113.478  0.00  0.00    -0.047 C 
ATOM      6  C   LIG d   1      -0.588  79.989 115.015  0.00  0.00     0.091 C 
ENDROOT
BRANCH   1   7
ATOM      7  O   LIG d   1      -0.501  81.654 116.811  0.00  0.00    -0.368 OA
BRANCH   7   8
ATOM      8  C   LIG d   1      -1.280  82.867 116.957  0.00  0.00     0.119 C 
BRANCH   8   9
ATOM      9  C   LIG d   1      -0.719  83.634 118.170  0.00  0.00     0.028 C 
ATOM     10  C   LIG d   1      -1.474  83.308 119.470  0.00  0.00     0.006 C 
ENDBRANCH   8   9
BRANCH   8  11
ATOM     11  C   LIG d   1      -2.736  82.555 117.312  0.00  0.00     0.028 C 
ATOM     12  C   LIG d   1      -3.704  82.828 116.149  0.00  0.00     0.006 C 
ENDBRANCH   8  11
ENDBRANCH   7   8
ENDBRANCH   1   7
BRANCH   6  13
ATOM     13  N   LIG d   1       0.183  78.930 115.718  0.00  0.00    -0.311 N 
ATOM     14  C   LIG d   1      -0.355  77.782 116.127  0.00  0.00     0.210 C 
ATOM     15  C   LIG d   1       0.611  76.837 116.848  0.00  0.00     0.109 C 
ATOM     16  O   LIG d   1      -1.532  77.443 115.933  0.00  0.00    -0.276 OA
ATOM     17  H   LIG d   1       1.153  79.109 115.888  0.00  0.00     0.149 HD
ENDBRANCH   6  13
BRANCH   5  18
ATOM     18  N   LIG d   1      -1.151  78.600 112.989  0.00  0.00     0.381 N 
ATOM     19  H   LIG d   1      -2.144  78.716 112.944  0.00  0.00    -0.090 HD
ATOM     20  H   LIG d   1      -0.948  77.858 113.635  0.00  0.00    -0.090 HD
ATOM     21  H   LIG d   1      -0.795  78.371 112.087  0.00  0.00    -0.090 HD
ENDBRANCH   5  18
BRANCH   3  22
ATOM     22  C   LIG d   1      -0.922  83.355 112.466  0.00  0.00     0.382 C 
ATOM     23  O   LIG d   1      -0.786  84.517 112.921  0.00  0.00    -0.241 OA
ATOM     24  O   LIG d   1      -1.168  83.196 111.256  0.00  0.00    -0.241 OA
ENDBRANCH   3  22
TORSDOF 7
ENDMDL
