MODEL 1
REMARK VINA RESULT:      -5.1      0.000      0.000
REMARK  7 active torsions:
REMARK  status: ('A' for Active; 'I' for Inactive)
REMARK    1  A    between atoms: C_2  and  C_3 
REMARK    2  A    between atoms: C_3  and  O_6 
REMARK    3  A    between atoms: C_3  and  C_4 
REMARK    4  A    between atoms: C_7  and  O_6 
REMARK    5  A    between atoms: C_9  and  C_10 
REMARK    6  A    between atoms: N_15  and  C_14 
REMARK    7  A    between atoms: N_20  and  C_19 
REMARK       I    between atoms: C_22  and  N_20 
ROOT
ATOM      1  C   LIG d   1      -3.125  77.458 114.555  0.00  0.00     0.161 C 
ATOM      2  C   LIG d   1      -3.174  78.507 113.622  0.00  0.00     0.016 C 
ATOM      3  C   LIG d   1      -2.055  79.304 113.288  0.00  0.00     0.038 C 
ATOM      4  C   LIG d   1      -0.767  79.007 113.757  0.00  0.00     0.028 C 
ATOM      5  C   LIG d   1      -0.763  78.270 115.092  0.00  0.00    -0.047 C 
ATOM      6  C   LIG d   1      -1.704  77.048 114.993  0.00  0.00     0.091 C 
ENDROOT
BRANCH   1   7
ATOM      7  O   LIG d   1      -3.841  76.316 114.044  0.00  0.00    -0.368 OA
BRANCH   7   8
ATOM      8  C   LIG d   1      -5.205  76.159 114.506  0.00  0.00     0.119 C 
BRANCH   8   9
ATOM      9  C   LIG d   1      -5.280  76.740 115.932  0.00  0.00     0.028 C 
ATOM     10  C   LIG d   1      -6.583  77.518 116.180  0.00  0.00     0.006 C 
ENDBRANCH   8   9
BRANCH   8  11
ATOM     11  C   LIG d   1      -5.578  74.680 114.651  0.00  0.00     0.028 C 
ATOM     12  C   LIG d   1      -5.479  74.180 116.101  0.00  0.00     0.006 C 
ENDBRANCH   8  11
ENDBRANCH   7   8
ENDBRANCH   1   7
BRANCH   6  13
ATOM     13  N   LIG d   1      -1.823  76.319 116.283  0.00  0.00    -0.311 N 
ATOM     14  C   LIG d   1      -1.802  74.990 116.379  0.00  0.00     0.210 C 
ATOM     15  C   LIG d   1      -1.961  74.442 117.800  0.00  0.00     0.109 C 
ATOM     16  O   LIG d   1      -1.636  74.215 115.425  0.00  0.00    -0.276 OA
ATOM     17  H   LIG d   1      -1.931  76.871 117.111  0.00  0.00     0.149 HD
ENDBRANCH   6  13
BRANCH   5  18
ATOM     18  N   LIG d   1       0.633  77.902 115.394  0.00  0.00     0.381 N 
ATOM     19  H   LIG d   1       0.865  78.186 116.325  0.00  0.00    -0.090 HD
ATOM     20  H   LIG d   1       1.242  78.386 114.757  0.00  0.00    -0.090 HD
ATOM     21  H   LIG d   1       0.755  76.918 115.299  0.00  0.00    -0.090 HD
ENDBRANCH   5  18
BRANCH   3  22
ATOM     22  C   LIG d   1      -2.227  80.438 112.508  0.00  0.00     0.382 C 
ATOM     23  O   LIG d   1      -1.308  80.818 111.744  0.00  0.00    -0.241 OA
ATOM     24  O   LIG d   1      -3.273  81.109 112.592  0.00  0.00    -0.241 OA
ENDBRANCH   3  22
TORSDOF 7
ENDMDL
MODEL 2
REMARK VINA RESULT:      -5.0      3.911      7.055
REMARK  7 active torsions:
REMARK  status: ('A' for Active; 'I' for Inactive)
REMARK    1  A    between atoms: C_2  and  C_3 
REMARK    2  A    between atoms: C_3  and  O_6 
REMARK    3  A    between atoms: C_3  and  C_4 
REMARK    4  A    between atoms: C_7  and  O_6 
REMARK    5  A    between atoms: C_9  and  C_10 
REMARK    6  A    between atoms: N_15  and  C_14 
REMARK    7  A    between atoms: N_20  and  C_19 
REMARK       I    between atoms: C_22  and  N_20 
ROOT
ATOM      1  C   LIG d   1       0.926  80.102 113.074  0.00  0.00     0.161 C 
ATOM      2  C   LIG d   1       1.928  80.328 112.116  0.00  0.00     0.016 C 
ATOM      3  C   LIG d   1       1.761  80.064 110.737  0.00  0.00     0.038 C 
ATOM      4  C   LIG d   1       0.519  79.696 110.199  0.00  0.00     0.028 C 
ATOM      5  C   LIG d   1      -0.381  78.970 111.193  0.00  0.00    -0.047 C 
ATOM      6  C   LIG d   1      -0.471  79.805 112.491  0.00  0.00     0.091 C 
ENDROOT
BRANCH   1   7
ATOM      7  O   LIG d   1       0.862  81.216 113.987  0.00  0.00    -0.368 OA
BRANCH   7   8
ATOM      8  C   LIG d   1       1.684  82.361 113.653  0.00  0.00     0.119 C 
BRANCH   8   9
ATOM      9  C   LIG d   1       2.385  82.821 114.946  0.00  0.00     0.028 C 
ATOM     10  C   LIG d   1       2.026  81.938 116.153  0.00  0.00     0.006 C 
ENDBRANCH   8   9
BRANCH   8  11
ATOM     11  C   LIG d   1       0.828  83.552 113.211  0.00  0.00     0.028 C 
ATOM     12  C   LIG d   1       1.419  84.294 112.002  0.00  0.00     0.006 C 
ENDBRANCH   8  11
ENDBRANCH   7   8
ENDBRANCH   1   7
BRANCH   6  13
ATOM     13  N   LIG d   1      -1.265  79.127 113.548  0.00  0.00    -0.311 N 
ATOM     14  C   LIG d   1      -2.540  79.413 113.805  0.00  0.00     0.210 C 
ATOM     15  C   LIG d   1      -3.165  78.610 114.950  0.00  0.00     0.109 C 
ATOM     16  O   LIG d   1      -3.222  80.234 113.173  0.00  0.00    -0.276 OA
ATOM     17  H   LIG d   1      -0.799  78.425 114.089  0.00  0.00     0.149 HD
ENDBRANCH   6  13
BRANCH   5  18
ATOM     18  N   LIG d   1      -1.690  78.768 110.544  0.00  0.00     0.381 N 
ATOM     19  H   LIG d   1      -1.604  78.907 109.557  0.00  0.00    -0.090 HD
ATOM     20  H   LIG d   1      -2.339  79.446 110.903  0.00  0.00    -0.090 HD
ATOM     21  H   LIG d   1      -2.024  77.847 110.729  0.00  0.00    -0.090 HD
ENDBRANCH   5  18
BRANCH   3  22
ATOM     22  C   LIG d   1       2.854  80.130 109.887  0.00  0.00     0.382 C 
ATOM     23  O   LIG d   1       3.357  79.075 109.430  0.00  0.00    -0.241 OA
ATOM     24  O   LIG d   1       3.371  81.228 109.607  0.00  0.00    -0.241 OA
ENDBRANCH   3  22
TORSDOF 7
ENDMDL
MODEL 3
REMARK VINA RESULT:      -4.9      3.642      6.826
REMARK  7 active torsions:
REMARK  status: ('A' for Active; 'I' for Inactive)
REMARK    1  A    between atoms: C_2  and  C_3 
REMARK    2  A    between atoms: C_3  and  O_6 
REMARK    3  A    between atoms: C_3  and  C_4 
REMARK    4  A    between atoms: C_7  and  O_6 
REMARK    5  A    between atoms: C_9  and  C_10 
REMARK    6  A    between atoms: N_15  and  C_14 
REMARK    7  A    between atoms: N_20  and  C_19 
REMARK       I    between atoms: C_22  and  N_20 
ROOT
ATOM      1  C   LIG d   1       0.465  79.291 112.183  0.00  0.00     0.161 C 
ATOM      2  C   LIG d   1      -0.705  78.871 111.528  0.00  0.00     0.016 C 
ATOM      3  C   LIG d   1      -1.898  78.532 112.207  0.00  0.00     0.038 C 
ATOM      4  C   LIG d   1      -2.049  78.738 113.587  0.00  0.00     0.028 C 
ATOM      5  C   LIG d   1      -0.733  78.682 114.356  0.00  0.00    -0.047 C 
ATOM      6  C   LIG d   1       0.284  79.628 113.678  0.00  0.00     0.091 C 
ENDROOT
BRANCH   1   7
ATOM      7  O   LIG d   1       1.041  80.412 111.483  0.00  0.00    -0.368 OA
BRANCH   7   8
ATOM      8  C   LIG d   1       0.922  80.392 110.039  0.00  0.00     0.119 C 
BRANCH   8   9
ATOM      9  C   LIG d   1       2.134  79.618 109.486  0.00  0.00     0.028 C 
ATOM     10  C   LIG d   1       3.440  80.424 109.586  0.00  0.00     0.006 C 
ENDBRANCH   8   9
BRANCH   8  11
ATOM     11  C   LIG d   1       1.036  81.801 109.450  0.00  0.00     0.028 C 
ATOM     12  C   LIG d   1       0.841  82.904 110.502  0.00  0.00     0.006 C 
ENDBRANCH   8  11
ENDBRANCH   7   8
ENDBRANCH   1   7
BRANCH   6  13
ATOM     13  N   LIG d   1       1.625  79.570 114.317  0.00  0.00    -0.311 N 
ATOM     14  C   LIG d   1       2.011  80.398 115.287  0.00  0.00     0.210 C 
ATOM     15  C   LIG d   1       3.440  80.180 115.792  0.00  0.00     0.109 C 
ATOM     16  O   LIG d   1       1.294  81.272 115.798  0.00  0.00    -0.276 OA
ATOM     17  H   LIG d   1       2.259  78.871 113.985  0.00  0.00     0.149 HD
ENDBRANCH   6  13
BRANCH   5  18
ATOM     18  N   LIG d   1      -1.020  79.049 115.756  0.00  0.00     0.381 N 
ATOM     19  H   LIG d   1      -0.356  79.728 116.071  0.00  0.00    -0.090 HD
ATOM     20  H   LIG d   1      -0.930  78.230 116.331  0.00  0.00    -0.090 HD
ATOM     21  H   LIG d   1      -1.942  79.417 115.830  0.00  0.00    -0.090 HD
ENDBRANCH   5  18
BRANCH   3  22
ATOM     22  C   LIG d   1      -2.942  77.944 111.510  0.00  0.00     0.382 C 
ATOM     23  O   LIG d   1      -2.736  77.438 110.381  0.00  0.00    -0.241 OA
ATOM     24  O   LIG d   1      -4.097  77.952 111.977  0.00  0.00    -0.241 OA
ENDBRANCH   3  22
TORSDOF 7
ENDMDL
MODEL 4
REMARK VINA RESULT:      -4.8      3.497      6.236
REMARK  7 active torsions:
REMARK  status: ('A' for Active; 'I' for Inactive)
REMARK    1  A    between atoms: C_2  and  C_3 
REMARK    2  A    between atoms: C_3  and  O_6 
REMARK    3  A    between atoms: C_3  and  C_4 
REMARK    4  A    between atoms: C_7  and  O_6 
REMARK    5  A    between atoms: C_9  and  C_10 
REMARK    6  A    between atoms: N_15  and  C_14 
REMARK    7  A    between atoms: N_20  and  C_19 
REMARK       I    between atoms: C_22  and  N_20 
ROOT
ATOM      1  C   LIG d   1       0.909  79.574 113.329  0.00  0.00     0.161 C 
ATOM      2  C   LIG d   1       1.920  80.009 112.456  0.00  0.00     0.016 C 
ATOM      3  C   LIG d   1       1.774  80.036 111.050  0.00  0.00     0.038 C 
ATOM      4  C   LIG d   1       0.546  79.771 110.426  0.00  0.00     0.028 C 
ATOM      5  C   LIG d   1      -0.355  78.841 111.233  0.00  0.00    -0.047 C 
ATOM      6  C   LIG d   1      -0.475  79.386 112.675  0.00  0.00     0.091 C 
ENDROOT
BRANCH   1   7
ATOM      7  O   LIG d   1       0.815  80.473 114.452  0.00  0.00    -0.368 OA
BRANCH   7   8
ATOM      8  C   LIG d   1       1.580  80.108 115.627  0.00  0.00     0.119 C 
BRANCH   8   9
ATOM      9  C   LIG d   1       0.636  79.345 116.577  0.00  0.00     0.028 C 
ATOM     10  C   LIG d   1       0.890  77.828 116.564  0.00  0.00     0.006 C 
ENDBRANCH   8   9
BRANCH   8  11
ATOM     11  C   LIG d   1       2.027  81.347 116.408  0.00  0.00     0.028 C 
ATOM     12  C   LIG d   1       1.969  82.633 115.569  0.00  0.00     0.006 C 
ENDBRANCH   8  11
ENDBRANCH   7   8
ENDBRANCH   1   7
BRANCH   6  13
ATOM     13  N   LIG d   1      -1.271  78.491 113.554  0.00  0.00    -0.311 N 
ATOM     14  C   LIG d   1      -2.455  78.828 114.064  0.00  0.00     0.210 C 
ATOM     15  C   LIG d   1      -3.097  77.766 114.962  0.00  0.00     0.109 C 
ATOM     16  O   LIG d   1      -3.048  79.891 113.832  0.00  0.00    -0.276 OA
ATOM     17  H   LIG d   1      -0.878  77.596 113.769  0.00  0.00     0.149 HD
ENDBRANCH   6  13
BRANCH   5  18
ATOM     18  N   LIG d   1      -1.652  78.761 110.535  0.00  0.00     0.381 N 
ATOM     19  H   LIG d   1      -2.016  79.681 110.390  0.00  0.00    -0.090 HD
ATOM     20  H   LIG d   1      -2.300  78.252 111.111  0.00  0.00    -0.090 HD
ATOM     21  H   LIG d   1      -1.540  78.298 109.660  0.00  0.00    -0.090 HD
ENDBRANCH   5  18
BRANCH   3  22
ATOM     22  C   LIG d   1       2.877  80.293 110.249  0.00  0.00     0.382 C 
ATOM     23  O   LIG d   1       3.437  81.415 110.295  0.00  0.00    -0.241 OA
ATOM     24  O   LIG d   1       3.291  79.432 109.450  0.00  0.00    -0.241 OA
ENDBRANCH   3  22
TORSDOF 7
ENDMDL
MODEL 5
REMARK VINA RESULT:      -4.7      2.206      4.950
REMARK  7 active torsions:
REMARK  status: ('A' for Active; 'I' for Inactive)
REMARK    1  A    between atoms: C_2  and  C_3 
REMARK    2  A    between atoms: C_3  and  O_6 
REMARK    3  A    between atoms: C_3  and  C_4 
REMARK    4  A    between atoms: C_7  and  O_6 
REMARK    5  A    between atoms: C_9  and  C_10 
REMARK    6  A    between atoms: N_15  and  C_14 
REMARK    7  A    between atoms: N_20  and  C_19 
REMARK       I    between atoms: C_22  and  N_20 
ROOT
ATOM      1  C   LIG d   1      -1.542  75.272 115.431  0.00  0.00     0.161 C 
ATOM      2  C   LIG d   1      -0.914  74.820 116.603  0.00  0.00     0.016 C 
ATOM      3  C   LIG d   1      -0.328  75.685 117.555  0.00  0.00     0.038 C 
ATOM      4  C   LIG d   1      -0.462  77.079 117.472  0.00  0.00     0.028 C 
ATOM      5  C   LIG d   1      -0.650  77.586 116.046  0.00  0.00    -0.047 C 
ATOM      6  C   LIG d   1      -1.796  76.793 115.378  0.00  0.00     0.091 C 
ENDROOT
BRANCH   1   7
ATOM      7  O   LIG d   1      -2.773  74.550 115.226  0.00  0.00    -0.368 OA
BRANCH   7   8
ATOM      8  C   LIG d   1      -3.979  75.202 115.695  0.00  0.00     0.119 C 
BRANCH   8   9
ATOM      9  C   LIG d   1      -4.307  74.622 117.085  0.00  0.00     0.028 C 
ATOM     10  C   LIG d   1      -4.220  75.680 118.197  0.00  0.00     0.006 C 
ENDBRANCH   8   9
BRANCH   8  11
ATOM     11  C   LIG d   1      -5.181  74.850 114.814  0.00  0.00     0.028 C 
ATOM     12  C   LIG d   1      -5.926  76.092 114.300  0.00  0.00     0.006 C 
ENDBRANCH   8  11
ENDBRANCH   7   8
ENDBRANCH   1   7
BRANCH   6  13
ATOM     13  N   LIG d   1      -1.989  77.167 113.953  0.00  0.00    -0.311 N 
ATOM     14  C   LIG d   1      -2.858  78.093 113.550  0.00  0.00     0.210 C 
ATOM     15  C   LIG d   1      -2.913  78.311 112.034  0.00  0.00     0.109 C 
ATOM     16  O   LIG d   1      -3.564  78.777 114.305  0.00  0.00    -0.276 OA
ATOM     17  H   LIG d   1      -1.434  76.684 113.275  0.00  0.00     0.149 HD
ENDBRANCH   6  13
BRANCH   5  18
ATOM     18  N   LIG d   1      -0.915  79.035 116.119  0.00  0.00     0.381 N 
ATOM     19  H   LIG d   1      -1.395  79.249 116.970  0.00  0.00    -0.090 HD
ATOM     20  H   LIG d   1      -1.506  79.296 115.349  0.00  0.00    -0.090 HD
ATOM     21  H   LIG d   1      -0.058  79.541 116.076  0.00  0.00    -0.090 HD
ENDBRANCH   5  18
BRANCH   3  22
ATOM     22  C   LIG d   1       0.438  75.158 118.584  0.00  0.00     0.382 C 
ATOM     23  O   LIG d   1       1.571  75.637 118.832  0.00  0.00    -0.241 OA
ATOM     24  O   LIG d   1       0.029  74.180 119.238  0.00  0.00    -0.241 OA
ENDBRANCH   3  22
TORSDOF 7
ENDMDL
MODEL 6
REMARK VINA RESULT:      -4.6      4.098      7.338
REMARK  7 active torsions:
REMARK  status: ('A' for Active; 'I' for Inactive)
REMARK    1  A    between atoms: C_2  and  C_3 
REMARK    2  A    between atoms: C_3  and  O_6 
REMARK    3  A    between atoms: C_3  and  C_4 
REMARK    4  A    between atoms: C_7  and  O_6 
REMARK    5  A    between atoms: C_9  and  C_10 
REMARK    6  A    between atoms: N_15  and  C_14 
REMARK    7  A    between atoms: N_20  and  C_19 
REMARK       I    between atoms: C_22  and  N_20 
ROOT
ATOM      1  C   LIG d   1       1.023  80.215 113.127  0.00  0.00     0.161 C 
ATOM      2  C   LIG d   1       0.053  79.340 113.644  0.00  0.00     0.016 C 
ATOM      3  C   LIG d   1      -0.897  78.668 112.840  0.00  0.00     0.038 C 
ATOM      4  C   LIG d   1      -0.843  78.709 111.439  0.00  0.00     0.028 C 
ATOM      5  C   LIG d   1      -0.196  79.978 110.894  0.00  0.00    -0.047 C 
ATOM      6  C   LIG d   1       1.168  80.185 111.591  0.00  0.00     0.091 C 
ENDROOT
BRANCH   1   7
ATOM      7  O   LIG d   1       2.295  79.960 113.755  0.00  0.00    -0.368 OA
BRANCH   7   8
ATOM      8  C   LIG d   1       2.303  79.966 115.204  0.00  0.00     0.119 C 
BRANCH   8   9
ATOM      9  C   LIG d   1       3.007  81.260 115.657  0.00  0.00     0.028 C 
ATOM     10  C   LIG d   1       2.016  82.409 115.909  0.00  0.00     0.006 C 
ENDBRANCH   8   9
BRANCH   8  11
ATOM     11  C   LIG d   1       3.157  78.824 115.762  0.00  0.00     0.028 C 
ATOM     12  C   LIG d   1       2.333  77.792 116.548  0.00  0.00     0.006 C 
ENDBRANCH   8  11
ENDBRANCH   7   8
ENDBRANCH   1   7
BRANCH   6  13
ATOM     13  N   LIG d   1       1.830  81.450 111.177  0.00  0.00    -0.311 N 
ATOM     14  C   LIG d   1       2.741  81.517 110.209  0.00  0.00     0.210 C 
ATOM     15  C   LIG d   1       3.313  82.915 109.955  0.00  0.00     0.109 C 
ATOM     16  O   LIG d   1       3.107  80.557 109.514  0.00  0.00    -0.276 OA
ATOM     17  H   LIG d   1       1.569  82.283 111.668  0.00  0.00     0.149 HD
ENDBRANCH   6  13
BRANCH   5  18
ATOM     18  N   LIG d   1      -0.081  79.827 109.431  0.00  0.00     0.381 N 
ATOM     19  H   LIG d   1      -0.313  78.890 109.168  0.00  0.00    -0.090 HD
ATOM     20  H   LIG d   1       0.870  80.004 109.160  0.00  0.00    -0.090 HD
ATOM     21  H   LIG d   1      -0.689  80.469 108.973  0.00  0.00    -0.090 HD
ENDBRANCH   5  18
BRANCH   3  22
ATOM     22  C   LIG d   1      -1.939  77.977 113.440  0.00  0.00     0.382 C 
ATOM     23  O   LIG d   1      -2.628  77.175 112.766  0.00  0.00    -0.241 OA
ATOM     24  O   LIG d   1      -2.226  78.180 114.635  0.00  0.00    -0.241 OA
ENDBRANCH   3  22
TORSDOF 7
ENDMDL
MODEL 7
REMARK VINA RESULT:      -4.5      3.555      6.245
REMARK  7 active torsions:
REMARK  status: ('A' for Active; 'I' for Inactive)
REMARK    1  A    between atoms: C_2  and  C_3 
REMARK    2  A    between atoms: C_3  and  O_6 
REMARK    3  A    between atoms: C_3  and  C_4 
REMARK    4  A    between atoms: C_7  and  O_6 
REMARK    5  A    between atoms: C_9  and  C_10 
REMARK    6  A    between atoms: N_15  and  C_14 
REMARK    7  A    between atoms: N_20  and  C_19 
REMARK       I    between atoms: C_22  and  N_20 
ROOT
ATOM      1  C   LIG d   1       1.450  80.058 112.431  0.00  0.00     0.161 C 
ATOM      2  C   LIG d   1       1.830  81.195 111.699  0.00  0.00     0.016 C 
ATOM      3  C   LIG d   1       0.914  82.173 111.249  0.00  0.00     0.038 C 
ATOM      4  C   LIG d   1      -0.434  82.159 111.635  0.00  0.00     0.028 C 
ATOM      5  C   LIG d   1      -0.959  80.763 111.952  0.00  0.00    -0.047 C 
ATOM      6  C   LIG d   1      -0.001  80.083 112.956  0.00  0.00     0.091 C 
ENDROOT
BRANCH   1   7
ATOM      7  O   LIG d   1       2.372  79.846 113.518  0.00  0.00    -0.368 OA
BRANCH   7   8
ATOM      8  C   LIG d   1       1.925  80.276 114.827  0.00  0.00     0.119 C 
BRANCH   8   9
ATOM      9  C   LIG d   1       2.749  81.520 115.213  0.00  0.00     0.028 C 
ATOM     10  C   LIG d   1       1.920  82.814 115.156  0.00  0.00     0.006 C 
ENDBRANCH   8   9
BRANCH   8  11
ATOM     11  C   LIG d   1       2.246  79.229 115.898  0.00  0.00     0.028 C 
ATOM     12  C   LIG d   1       1.279  79.280 117.091  0.00  0.00     0.006 C 
ENDBRANCH   8  11
ENDBRANCH   7   8
ENDBRANCH   1   7
BRANCH   6  13
ATOM     13  N   LIG d   1      -0.395  78.682 113.256  0.00  0.00    -0.311 N 
ATOM     14  C   LIG d   1      -1.170  78.342 114.285  0.00  0.00     0.210 C 
ATOM     15  C   LIG d   1      -1.438  76.840 114.424  0.00  0.00     0.109 C 
ATOM     16  O   LIG d   1      -1.686  79.145 115.076  0.00  0.00    -0.276 OA
ATOM     17  H   LIG d   1      -0.046  77.969 112.645  0.00  0.00     0.149 HD
ENDBRANCH   6  13
BRANCH   5  18
ATOM     18  N   LIG d   1      -2.332  80.910 112.471  0.00  0.00     0.381 N 
ATOM     19  H   LIG d   1      -2.935  81.242 111.744  0.00  0.00    -0.090 HD
ATOM     20  H   LIG d   1      -2.328  81.588 113.212  0.00  0.00    -0.090 HD
ATOM     21  H   LIG d   1      -2.663  80.035 112.813  0.00  0.00    -0.090 HD
ENDBRANCH   5  18
BRANCH   3  22
ATOM     22  C   LIG d   1       1.338  83.159 110.371  0.00  0.00     0.382 C 
ATOM     23  O   LIG d   1       2.491  83.108 109.880  0.00  0.00    -0.241 OA
ATOM     24  O   LIG d   1       0.598  84.123 110.099  0.00  0.00    -0.241 OA
ENDBRANCH   3  22
TORSDOF 7
ENDMDL
MODEL 8
REMARK VINA RESULT:      -4.3      1.741      2.138
REMARK  7 active torsions:
REMARK  status: ('A' for Active; 'I' for Inactive)
REMARK    1  A    between atoms: C_2  and  C_3 
REMARK    2  A    between atoms: C_3  and  O_6 
REMARK    3  A    between atoms: C_3  and  C_4 
REMARK    4  A    between atoms: C_7  and  O_6 
REMARK    5  A    between atoms: C_9  and  C_10 
REMARK    6  A    between atoms: N_15  and  C_14 
REMARK    7  A    between atoms: N_20  and  C_19 
REMARK       I    between atoms: C_22  and  N_20 
ROOT
ATOM      1  C   LIG d   1      -3.307  77.399 116.265  0.00  0.00     0.161 C 
ATOM      2  C   LIG d   1      -3.579  77.800 114.947  0.00  0.00     0.016 C 
ATOM      3  C   LIG d   1      -2.722  77.525 113.857  0.00  0.00     0.038 C 
ATOM      4  C   LIG d   1      -1.600  76.693 113.988  0.00  0.00     0.028 C 
ATOM      5  C   LIG d   1      -1.013  76.684 115.395  0.00  0.00    -0.047 C 
ATOM      6  C   LIG d   1      -2.144  76.395 116.409  0.00  0.00     0.091 C 
ENDROOT
BRANCH   1   7
ATOM      7  O   LIG d   1      -4.503  76.871 116.873  0.00  0.00    -0.368 OA
BRANCH   7   8
ATOM      8  C   LIG d   1      -5.666  76.781 116.014  0.00  0.00     0.119 C 
BRANCH   8   9
ATOM      9  C   LIG d   1      -6.832  77.479 116.741  0.00  0.00     0.028 C 
ATOM     10  C   LIG d   1      -6.444  78.870 117.271  0.00  0.00     0.006 C 
ENDBRANCH   8   9
BRANCH   8  11
ATOM     11  C   LIG d   1      -6.114  75.327 115.834  0.00  0.00     0.028 C 
ATOM     12  C   LIG d   1      -5.195  74.533 114.892  0.00  0.00     0.006 C 
ENDBRANCH   8  11
ENDBRANCH   7   8
ENDBRANCH   1   7
BRANCH   6  13
ATOM     13  N   LIG d   1      -1.671  76.452 117.817  0.00  0.00    -0.311 N 
ATOM     14  C   LIG d   1      -1.219  75.391 118.482  0.00  0.00     0.210 C 
ATOM     15  C   LIG d   1      -0.800  75.665 119.930  0.00  0.00     0.109 C 
ATOM     16  O   LIG d   1      -1.095  74.254 118.000  0.00  0.00    -0.276 OA
ATOM     17  H   LIG d   1      -1.708  77.342 118.274  0.00  0.00     0.149 HD
ENDBRANCH   6  13
BRANCH   5  18
ATOM     18  N   LIG d   1       0.061  75.674 115.424  0.00  0.00     0.381 N 
ATOM     19  H   LIG d   1       0.282  75.441 116.371  0.00  0.00    -0.090 HD
ATOM     20  H   LIG d   1       0.883  76.061 114.994  0.00  0.00    -0.090 HD
ATOM     21  H   LIG d   1      -0.226  74.856 114.932  0.00  0.00    -0.090 HD
ENDBRANCH   5  18
BRANCH   3  22
ATOM     22  C   LIG d   1      -2.962  78.118 112.627  0.00  0.00     0.382 C 
ATOM     23  O   LIG d   1      -2.151  78.956 112.165  0.00  0.00    -0.241 OA
ATOM     24  O   LIG d   1      -4.003  77.858 111.993  0.00  0.00    -0.241 OA
ENDBRANCH   3  22
TORSDOF 7
ENDMDL
MODEL 9
REMARK VINA RESULT:      -4.3      2.389      5.143
REMARK  7 active torsions:
REMARK  status: ('A' for Active; 'I' for Inactive)
REMARK    1  A    between atoms: C_2  and  C_3 
REMARK    2  A    between atoms: C_3  and  O_6 
REMARK    3  A    between atoms: C_3  and  C_4 
REMARK    4  A    between atoms: C_7  and  O_6 
REMARK    5  A    between atoms: C_9  and  C_10 
REMARK    6  A    between atoms: N_15  and  C_14 
REMARK    7  A    between atoms: N_20  and  C_19 
REMARK       I    between atoms: C_22  and  N_20 
ROOT
ATOM      1  C   LIG d   1      -1.748  78.281 115.484  0.00  0.00     0.161 C 
ATOM      2  C   LIG d   1      -0.393  78.301 115.851  0.00  0.00     0.016 C 
ATOM      3  C   LIG d   1       0.280  77.189 116.407  0.00  0.00     0.038 C 
ATOM      4  C   LIG d   1      -0.323  75.925 116.493  0.00  0.00     0.028 C 
ATOM      5  C   LIG d   1      -1.843  75.986 116.603  0.00  0.00    -0.047 C 
ATOM      6  C   LIG d   1      -2.393  76.879 115.468  0.00  0.00     0.091 C 
ENDROOT
BRANCH   1   7
ATOM      7  O   LIG d   1      -1.918  78.925 114.206  0.00  0.00    -0.368 OA
BRANCH   7   8
ATOM      8  C   LIG d   1      -0.979  78.544 113.170  0.00  0.00     0.119 C 
BRANCH   8   9
ATOM      9  C   LIG d   1      -0.484  79.839 112.496  0.00  0.00     0.028 C 
ATOM     10  C   LIG d   1       0.934  80.229 112.946  0.00  0.00     0.006 C 
ENDBRANCH   8   9
BRANCH   8  11
ATOM     11  C   LIG d   1      -1.667  77.746 112.059  0.00  0.00     0.028 C 
ATOM     12  C   LIG d   1      -3.159  78.090 111.915  0.00  0.00     0.006 C 
ENDBRANCH   8  11
ENDBRANCH   7   8
ENDBRANCH   1   7
BRANCH   6  13
ATOM     13  N   LIG d   1      -3.866  77.060 115.552  0.00  0.00    -0.311 N 
ATOM     14  C   LIG d   1      -4.739  76.250 114.957  0.00  0.00     0.210 C 
ATOM     15  C   LIG d   1      -6.211  76.628 115.154  0.00  0.00     0.109 C 
ATOM     16  O   LIG d   1      -4.436  75.236 114.310  0.00  0.00    -0.276 OA
ATOM     17  H   LIG d   1      -4.200  77.841 116.083  0.00  0.00     0.149 HD
ENDBRANCH   6  13
BRANCH   5  18
ATOM     18  N   LIG d   1      -2.349  74.602 116.547  0.00  0.00     0.381 N 
ATOM     19  H   LIG d   1      -3.321  74.606 116.308  0.00  0.00    -0.090 HD
ATOM     20  H   LIG d   1      -2.250  74.182 117.455  0.00  0.00    -0.090 HD
ATOM     21  H   LIG d   1      -1.836  74.078 115.873  0.00  0.00    -0.090 HD
ENDBRANCH   5  18
BRANCH   3  22
ATOM     22  C   LIG d   1       1.559  77.345 116.920  0.00  0.00     0.382 C 
ATOM     23  O   LIG d   1       1.922  76.672 117.914  0.00  0.00    -0.241 OA
ATOM     24  O   LIG d   1       2.339  78.182 116.428  0.00  0.00    -0.241 OA
ENDBRANCH   3  22
TORSDOF 7
ENDMDL
