MODEL 1
REMARK VINA RESULT:      -5.2      0.000      0.000
REMARK  7 active torsions:
REMARK  status: ('A' for Active; 'I' for Inactive)
REMARK    1  A    between atoms: C_2  and  C_3 
REMARK    2  A    between atoms: C_3  and  O_6 
REMARK    3  A    between atoms: C_3  and  C_4 
REMARK    4  A    between atoms: C_7  and  O_6 
REMARK    5  A    between atoms: C_9  and  C_10 
REMARK    6  A    between atoms: N_15  and  C_14 
REMARK    7  A    between atoms: N_20  and  C_19 
REMARK       I    between atoms: C_22  and  N_20 
ROOT
ATOM      1  C   LIG d   1      -2.259  75.127 115.431  0.00  0.00     0.161 C 
ATOM      2  C   LIG d   1      -1.670  74.625 116.604  0.00  0.00     0.016 C 
ATOM      3  C   LIG d   1      -0.642  75.295 117.306  0.00  0.00     0.038 C 
ATOM      4  C   LIG d   1      -0.234  76.593 116.965  0.00  0.00     0.028 C 
ATOM      5  C   LIG d   1      -0.446  76.927 115.492  0.00  0.00    -0.047 C 
ATOM      6  C   LIG d   1      -1.905  76.594 115.107  0.00  0.00     0.091 C 
ENDROOT
BRANCH   1   7
ATOM      7  O   LIG d   1      -3.689  74.958 115.492  0.00  0.00    -0.368 OA
BRANCH   7   8
ATOM      8  C   LIG d   1      -4.443  76.088 115.996  0.00  0.00     0.119 C 
BRANCH   8   9
ATOM      9  C   LIG d   1      -5.072  75.663 117.338  0.00  0.00     0.028 C 
ATOM     10  C   LIG d   1      -6.092  74.524 117.173  0.00  0.00     0.006 C 
ENDBRANCH   8   9
BRANCH   8  11
ATOM     11  C   LIG d   1      -5.626  76.421 115.082  0.00  0.00     0.028 C 
ATOM     12  C   LIG d   1      -5.576  75.666 113.744  0.00  0.00     0.006 C 
ENDBRANCH   8  11
ENDBRANCH   7   8
ENDBRANCH   1   7
BRANCH   6  13
ATOM     13  N   LIG d   1      -2.174  76.811 113.661  0.00  0.00    -0.311 N 
ATOM     14  C   LIG d   1      -2.686  77.940 113.172  0.00  0.00     0.210 C 
ATOM     15  C   LIG d   1      -2.902  77.948 111.656  0.00  0.00     0.109 C 
ATOM     16  O   LIG d   1      -2.952  78.946 113.847  0.00  0.00    -0.276 OA
ATOM     17  H   LIG d   1      -1.958  76.058 113.038  0.00  0.00     0.149 HD
ENDBRANCH   6  13
BRANCH   5  18
ATOM     18  N   LIG d   1      -0.109  78.351 115.305  0.00  0.00     0.381 N 
ATOM     19  H   LIG d   1       0.382  78.472 114.442  0.00  0.00    -0.090 HD
ATOM     20  H   LIG d   1       0.493  78.643 116.054  0.00  0.00    -0.090 HD
ATOM     21  H   LIG d   1      -0.940  78.900 115.303  0.00  0.00    -0.090 HD
ENDBRANCH   5  18
BRANCH   3  22
ATOM     22  C   LIG d   1       0.019  74.648 118.339  0.00  0.00     0.382 C 
ATOM     23  O   LIG d   1      -0.633  74.180 119.304  0.00  0.00    -0.241 OA
ATOM     24  O   LIG d   1       1.262  74.564 118.341  0.00  0.00    -0.241 OA
ENDBRANCH   3  22
TORSDOF 7
ENDMDL
MODEL 2
REMARK VINA RESULT:      -5.1      1.797      4.887
REMARK  7 active torsions:
REMARK  status: ('A' for Active; 'I' for Inactive)
REMARK    1  A    between atoms: C_2  and  C_3 
REMARK    2  A    between atoms: C_3  and  O_6 
REMARK    3  A    between atoms: C_3  and  C_4 
REMARK    4  A    between atoms: C_7  and  O_6 
REMARK    5  A    between atoms: C_9  and  C_10 
REMARK    6  A    between atoms: N_15  and  C_14 
REMARK    7  A    between atoms: N_20  and  C_19 
REMARK       I    between atoms: C_22  and  N_20 
ROOT
ATOM      1  C   LIG d   1      -2.561  77.660 115.931  0.00  0.00     0.161 C 
ATOM      2  C   LIG d   1      -2.931  78.356 114.768  0.00  0.00     0.016 C 
ATOM      3  C   LIG d   1      -2.250  78.231 113.535  0.00  0.00     0.038 C 
ATOM      4  C   LIG d   1      -1.238  77.280 113.341  0.00  0.00     0.028 C 
ATOM      5  C   LIG d   1      -0.496  76.914 114.622  0.00  0.00    -0.047 C 
ATOM      6  C   LIG d   1      -1.528  76.535 115.709  0.00  0.00     0.091 C 
ENDROOT
BRANCH   1   7
ATOM      7  O   LIG d   1      -3.735  77.140 116.585  0.00  0.00    -0.368 OA
BRANCH   7   8
ATOM      8  C   LIG d   1      -4.998  77.390 115.920  0.00  0.00     0.119 C 
BRANCH   8   9
ATOM      9  C   LIG d   1      -5.931  78.072 116.939  0.00  0.00     0.028 C 
ATOM     10  C   LIG d   1      -6.905  77.080 117.597  0.00  0.00     0.006 C 
ENDBRANCH   8   9
BRANCH   8  11
ATOM     11  C   LIG d   1      -5.697  76.081 115.542  0.00  0.00     0.028 C 
ATOM     12  C   LIG d   1      -5.396  75.639 114.101  0.00  0.00     0.006 C 
ENDBRANCH   8  11
ENDBRANCH   7   8
ENDBRANCH   1   7
BRANCH   6  13
ATOM     13  N   LIG d   1      -0.891  76.244 117.020  0.00  0.00    -0.311 N 
ATOM     14  C   LIG d   1      -1.104  75.123 117.706  0.00  0.00     0.210 C 
ATOM     15  C   LIG d   1      -0.363  75.033 119.044  0.00  0.00     0.109 C 
ATOM     16  O   LIG d   1      -1.810  74.180 117.319  0.00  0.00    -0.276 OA
ATOM     17  H   LIG d   1      -0.278  76.942 117.393  0.00  0.00     0.149 HD
ENDBRANCH   6  13
BRANCH   5  18
ATOM     18  N   LIG d   1       0.435  75.816 114.301  0.00  0.00     0.381 N 
ATOM     19  H   LIG d   1       0.629  75.284 115.126  0.00  0.00    -0.090 HD
ATOM     20  H   LIG d   1       1.298  76.209 113.968  0.00  0.00    -0.090 HD
ATOM     21  H   LIG d   1       0.038  75.226 113.602  0.00  0.00    -0.090 HD
ENDBRANCH   5  18
BRANCH   3  22
ATOM     22  C   LIG d   1      -2.554  79.092 112.492  0.00  0.00     0.382 C 
ATOM     23  O   LIG d   1      -2.185  78.817 111.325  0.00  0.00    -0.241 OA
ATOM     24  O   LIG d   1      -3.155  80.161 112.709  0.00  0.00    -0.241 OA
ENDBRANCH   3  22
TORSDOF 7
ENDMDL
MODEL 3
REMARK VINA RESULT:      -4.9      1.643      4.855
REMARK  7 active torsions:
REMARK  status: ('A' for Active; 'I' for Inactive)
REMARK    1  A    between atoms: C_2  and  C_3 
REMARK    2  A    between atoms: C_3  and  O_6 
REMARK    3  A    between atoms: C_3  and  C_4 
REMARK    4  A    between atoms: C_7  and  O_6 
REMARK    5  A    between atoms: C_9  and  C_10 
REMARK    6  A    between atoms: N_15  and  C_14 
REMARK    7  A    between atoms: N_20  and  C_19 
REMARK       I    between atoms: C_22  and  N_20 
ROOT
ATOM      1  C   LIG d   1      -3.082  76.168 115.759  0.00  0.00     0.161 C 
ATOM      2  C   LIG d   1      -3.352  76.670 114.475  0.00  0.00     0.016 C 
ATOM      3  C   LIG d   1      -2.345  77.075 113.569  0.00  0.00     0.038 C 
ATOM      4  C   LIG d   1      -0.983  76.862 113.832  0.00  0.00     0.028 C 
ATOM      5  C   LIG d   1      -0.652  76.824 115.320  0.00  0.00    -0.047 C 
ATOM      6  C   LIG d   1      -1.601  75.824 116.020  0.00  0.00     0.091 C 
ENDROOT
BRANCH   1   7
ATOM      7  O   LIG d   1      -3.916  75.022 116.020  0.00  0.00    -0.368 OA
BRANCH   7   8
ATOM      8  C   LIG d   1      -4.886  75.170 117.086  0.00  0.00     0.119 C 
BRANCH   8   9
ATOM      9  C   LIG d   1      -6.265  74.785 116.514  0.00  0.00     0.028 C 
ATOM     10  C   LIG d   1      -6.174  74.252 115.074  0.00  0.00     0.006 C 
ENDBRANCH   8   9
BRANCH   8  11
ATOM     11  C   LIG d   1      -5.021  76.633 117.518  0.00  0.00     0.028 C 
ATOM     12  C   LIG d   1      -5.553  76.784 118.952  0.00  0.00     0.006 C 
ENDBRANCH   8  11
ENDBRANCH   7   8
ENDBRANCH   1   7
BRANCH   6  13
ATOM     13  N   LIG d   1      -1.400  75.789 117.492  0.00  0.00    -0.311 N 
ATOM     14  C   LIG d   1      -0.541  74.969 118.096  0.00  0.00     0.210 C 
ATOM     15  C   LIG d   1      -0.505  75.080 119.623  0.00  0.00     0.109 C 
ATOM     16  O   LIG d   1       0.217  74.183 117.508  0.00  0.00    -0.276 OA
ATOM     17  H   LIG d   1      -1.953  76.416 118.043  0.00  0.00     0.149 HD
ENDBRANCH   6  13
BRANCH   5  18
ATOM     18  N   LIG d   1       0.771  76.458 115.451  0.00  0.00     0.381 N 
ATOM     19  H   LIG d   1       1.016  76.391 116.418  0.00  0.00    -0.090 HD
ATOM     20  H   LIG d   1       1.332  77.180 115.033  0.00  0.00    -0.090 HD
ATOM     21  H   LIG d   1       0.943  75.589 114.996  0.00  0.00    -0.090 HD
ENDBRANCH   5  18
BRANCH   3  22
ATOM     22  C   LIG d   1      -2.695  77.737 112.403  0.00  0.00     0.382 C 
ATOM     23  O   LIG d   1      -3.071  78.933 112.449  0.00  0.00    -0.241 OA
ATOM     24  O   LIG d   1      -2.682  77.140 111.309  0.00  0.00    -0.241 OA
ENDBRANCH   3  22
TORSDOF 7
ENDMDL
MODEL 4
REMARK VINA RESULT:      -4.7      3.343      5.610
REMARK  7 active torsions:
REMARK  status: ('A' for Active; 'I' for Inactive)
REMARK    1  A    between atoms: C_2  and  C_3 
REMARK    2  A    between atoms: C_3  and  O_6 
REMARK    3  A    between atoms: C_3  and  C_4 
REMARK    4  A    between atoms: C_7  and  O_6 
REMARK    5  A    between atoms: C_9  and  C_10 
REMARK    6  A    between atoms: N_15  and  C_14 
REMARK    7  A    between atoms: N_20  and  C_19 
REMARK       I    between atoms: C_22  and  N_20 
ROOT
ATOM      1  C   LIG d   1      -1.387  79.093 113.572  0.00  0.00     0.161 C 
ATOM      2  C   LIG d   1      -2.494  78.231 113.636  0.00  0.00     0.016 C 
ATOM      3  C   LIG d   1      -3.028  77.564 112.509  0.00  0.00     0.038 C 
ATOM      4  C   LIG d   1      -2.391  77.596 111.259  0.00  0.00     0.028 C 
ATOM      5  C   LIG d   1      -1.561  78.855 111.034  0.00  0.00    -0.047 C 
ATOM      6  C   LIG d   1      -0.612  79.052 112.238  0.00  0.00     0.091 C 
ENDROOT
BRANCH   1   7
ATOM      7  O   LIG d   1      -0.498  78.828 114.676  0.00  0.00    -0.368 OA
BRANCH   7   8
ATOM      8  C   LIG d   1      -0.962  77.861 115.650  0.00  0.00     0.119 C 
BRANCH   8   9
ATOM      9  C   LIG d   1      -1.045  78.579 117.011  0.00  0.00     0.028 C 
ATOM     10  C   LIG d   1      -2.339  78.245 117.772  0.00  0.00     0.006 C 
ENDBRANCH   8   9
BRANCH   8  11
ATOM     11  C   LIG d   1       0.058  76.736 115.847  0.00  0.00     0.028 C 
ATOM     12  C   LIG d   1      -0.138  75.574 114.860  0.00  0.00     0.006 C 
ENDBRANCH   8  11
ENDBRANCH   7   8
ENDBRANCH   1   7
BRANCH   6  13
ATOM     13  N   LIG d   1       0.177  80.308 112.138  0.00  0.00    -0.311 N 
ATOM     14  C   LIG d   1      -0.375  81.512 112.003  0.00  0.00     0.210 C 
ATOM     15  C   LIG d   1       0.621  82.672 111.898  0.00  0.00     0.109 C 
ATOM     16  O   LIG d   1      -1.595  81.733 111.992  0.00  0.00    -0.276 OA
ATOM     17  H   LIG d   1       1.175  80.223 112.170  0.00  0.00     0.149 HD
ENDBRANCH   6  13
BRANCH   5  18
ATOM     18  N   LIG d   1      -0.845  78.694 109.754  0.00  0.00     0.381 N 
ATOM     19  H   LIG d   1      -0.834  79.564 109.260  0.00  0.00    -0.090 HD
ATOM     20  H   LIG d   1      -1.332  78.019 109.192  0.00  0.00    -0.090 HD
ATOM     21  H   LIG d   1       0.088  78.387 109.921  0.00  0.00    -0.090 HD
ENDBRANCH   5  18
BRANCH   3  22
ATOM     22  C   LIG d   1      -4.233  76.888 112.617  0.00  0.00     0.382 C 
ATOM     23  O   LIG d   1      -4.384  76.014 113.505  0.00  0.00    -0.241 OA
ATOM     24  O   LIG d   1      -5.156  77.108 111.810  0.00  0.00    -0.241 OA
ENDBRANCH   3  22
TORSDOF 7
ENDMDL
MODEL 5
REMARK VINA RESULT:      -4.5      1.957      4.283
REMARK  7 active torsions:
REMARK  status: ('A' for Active; 'I' for Inactive)
REMARK    1  A    between atoms: C_2  and  C_3 
REMARK    2  A    between atoms: C_3  and  O_6 
REMARK    3  A    between atoms: C_3  and  C_4 
REMARK    4  A    between atoms: C_7  and  O_6 
REMARK    5  A    between atoms: C_9  and  C_10 
REMARK    6  A    between atoms: N_15  and  C_14 
REMARK    7  A    between atoms: N_20  and  C_19 
REMARK       I    between atoms: C_22  and  N_20 
ROOT
ATOM      1  C   LIG d   1      -1.929  78.015 115.705  0.00  0.00     0.161 C 
ATOM      2  C   LIG d   1      -0.579  78.065 116.092  0.00  0.00     0.016 C 
ATOM      3  C   LIG d   1       0.158  76.928 116.496  0.00  0.00     0.038 C 
ATOM      4  C   LIG d   1      -0.367  75.631 116.395  0.00  0.00     0.028 C 
ATOM      5  C   LIG d   1      -1.888  75.583 116.489  0.00  0.00    -0.047 C 
ATOM      6  C   LIG d   1      -2.485  76.593 115.482  0.00  0.00     0.091 C 
ENDROOT
BRANCH   1   7
ATOM      7  O   LIG d   1      -2.130  78.822 114.528  0.00  0.00    -0.368 OA
BRANCH   7   8
ATOM      8  C   LIG d   1      -1.812  78.193 113.262  0.00  0.00     0.119 C 
BRANCH   8   9
ATOM      9  C   LIG d   1      -0.611  78.948 112.660  0.00  0.00     0.028 C 
ATOM     10  C   LIG d   1      -0.993  80.350 112.154  0.00  0.00     0.006 C 
ENDBRANCH   8   9
BRANCH   8  11
ATOM     11  C   LIG d   1      -2.949  78.368 112.252  0.00  0.00     0.028 C 
ATOM     12  C   LIG d   1      -2.715  77.585 110.950  0.00  0.00     0.006 C 
ENDBRANCH   8  11
ENDBRANCH   7   8
ENDBRANCH   1   7
BRANCH   6  13
ATOM     13  N   LIG d   1      -3.966  76.671 115.569  0.00  0.00    -0.311 N 
ATOM     14  C   LIG d   1      -4.784  75.998 114.761  0.00  0.00     0.210 C 
ATOM     15  C   LIG d   1      -6.277  76.236 115.008  0.00  0.00     0.109 C 
ATOM     16  O   LIG d   1      -4.416  75.201 113.886  0.00  0.00    -0.276 OA
ATOM     17  H   LIG d   1      -4.351  77.270 116.272  0.00  0.00     0.149 HD
ENDBRANCH   6  13
BRANCH   5  18
ATOM     18  N   LIG d   1      -2.307  74.193 116.230  0.00  0.00     0.381 N 
ATOM     19  H   LIG d   1      -3.145  73.991 116.739  0.00  0.00    -0.090 HD
ATOM     20  H   LIG d   1      -1.586  73.571 116.552  0.00  0.00    -0.090 HD
ATOM     21  H   LIG d   1      -2.461  74.059 115.255  0.00  0.00    -0.090 HD
ENDBRANCH   5  18
BRANCH   3  22
ATOM     22  C   LIG d   1       1.421  77.087 117.045  0.00  0.00     0.382 C 
ATOM     23  O   LIG d   1       2.003  76.109 117.573  0.00  0.00    -0.241 OA
ATOM     24  O   LIG d   1       1.967  78.206 117.060  0.00  0.00    -0.241 OA
ENDBRANCH   3  22
TORSDOF 7
ENDMDL
MODEL 6
REMARK VINA RESULT:      -4.5      2.759      6.055
REMARK  7 active torsions:
REMARK  status: ('A' for Active; 'I' for Inactive)
REMARK    1  A    between atoms: C_2  and  C_3 
REMARK    2  A    between atoms: C_3  and  O_6 
REMARK    3  A    between atoms: C_3  and  C_4 
REMARK    4  A    between atoms: C_7  and  O_6 
REMARK    5  A    between atoms: C_9  and  C_10 
REMARK    6  A    between atoms: N_15  and  C_14 
REMARK    7  A    between atoms: N_20  and  C_19 
REMARK       I    between atoms: C_22  and  N_20 
ROOT
ATOM      1  C   LIG d   1      -1.614  77.988 113.796  0.00  0.00     0.161 C 
ATOM      2  C   LIG d   1      -2.820  77.378 113.413  0.00  0.00     0.016 C 
ATOM      3  C   LIG d   1      -3.711  76.771 114.329  0.00  0.00     0.038 C 
ATOM      4  C   LIG d   1      -3.527  76.867 115.716  0.00  0.00     0.028 C 
ATOM      5  C   LIG d   1      -2.067  77.035 116.124  0.00  0.00    -0.047 C 
ATOM      6  C   LIG d   1      -1.451  78.200 115.316  0.00  0.00     0.091 C 
ENDROOT
BRANCH   1   7
ATOM      7  O   LIG d   1      -1.454  79.237 113.096  0.00  0.00    -0.368 OA
BRANCH   7   8
ATOM      8  C   LIG d   1      -0.439  79.263 112.062  0.00  0.00     0.119 C 
BRANCH   8   9
ATOM      9  C   LIG d   1      -0.018  80.732 111.864  0.00  0.00     0.028 C 
ATOM     10  C   LIG d   1       1.363  81.033 112.470  0.00  0.00     0.006 C 
ENDBRANCH   8   9
BRANCH   8  11
ATOM     11  C   LIG d   1      -1.008  78.819 110.711  0.00  0.00     0.028 C 
ATOM     12  C   LIG d   1      -0.107  79.207 109.529  0.00  0.00     0.006 C 
ENDBRANCH   8  11
ENDBRANCH   7   8
ENDBRANCH   1   7
BRANCH   6  13
ATOM     13  N   LIG d   1      -0.001  78.377 115.592  0.00  0.00    -0.311 N 
ATOM     14  C   LIG d   1       0.470  79.165 116.557  0.00  0.00     0.210 C 
ATOM     15  C   LIG d   1       1.998  79.220 116.659  0.00  0.00     0.109 C 
ATOM     16  O   LIG d   1      -0.232  79.799 117.359  0.00  0.00    -0.276 OA
ATOM     17  H   LIG d   1       0.639  77.875 115.009  0.00  0.00     0.149 HD
ENDBRANCH   6  13
BRANCH   5  18
ATOM     18  N   LIG d   1      -2.034  77.260 117.581  0.00  0.00     0.381 N 
ATOM     19  H   LIG d   1      -2.947  77.509 117.906  0.00  0.00    -0.090 HD
ATOM     20  H   LIG d   1      -1.411  78.024 117.778  0.00  0.00    -0.090 HD
ATOM     21  H   LIG d   1      -1.720  76.437 118.047  0.00  0.00    -0.090 HD
ENDBRANCH   5  18
BRANCH   3  22
ATOM     22  C   LIG d   1      -4.779  76.024 113.856  0.00  0.00     0.382 C 
ATOM     23  O   LIG d   1      -5.419  76.414 112.850  0.00  0.00    -0.241 OA
ATOM     24  O   LIG d   1      -5.138  74.990 114.449  0.00  0.00    -0.241 OA
ENDBRANCH   3  22
TORSDOF 7
ENDMDL
MODEL 7
REMARK VINA RESULT:      -4.4      2.549      5.357
REMARK  7 active torsions:
REMARK  status: ('A' for Active; 'I' for Inactive)
REMARK    1  A    between atoms: C_2  and  C_3 
REMARK    2  A    between atoms: C_3  and  O_6 
REMARK    3  A    between atoms: C_3  and  C_4 
REMARK    4  A    between atoms: C_7  and  O_6 
REMARK    5  A    between atoms: C_9  and  C_10 
REMARK    6  A    between atoms: N_15  and  C_14 
REMARK    7  A    between atoms: N_20  and  C_19 
REMARK       I    between atoms: C_22  and  N_20 
ROOT
ATOM      1  C   LIG d   1      -0.754  77.705 114.711  0.00  0.00     0.161 C 
ATOM      2  C   LIG d   1      -1.900  76.913 114.529  0.00  0.00     0.016 C 
ATOM      3  C   LIG d   1      -2.531  76.204 115.577  0.00  0.00     0.038 C 
ATOM      4  C   LIG d   1      -2.143  76.360 116.916  0.00  0.00     0.028 C 
ATOM      5  C   LIG d   1      -0.679  76.752 117.081  0.00  0.00    -0.047 C 
ATOM      6  C   LIG d   1      -0.383  77.976 116.184  0.00  0.00     0.091 C 
ENDROOT
BRANCH   1   7
ATOM      7  O   LIG d   1      -0.898  78.947 113.994  0.00  0.00    -0.368 OA
BRANCH   7   8
ATOM      8  C   LIG d   1      -0.831  78.860 112.550  0.00  0.00     0.119 C 
BRANCH   8   9
ATOM      9  C   LIG d   1       0.002  80.057 112.052  0.00  0.00     0.028 C 
ATOM     10  C   LIG d   1       0.285  79.989 110.542  0.00  0.00     0.006 C 
ENDBRANCH   8   9
BRANCH   8  11
ATOM     11  C   LIG d   1      -2.214  79.037 111.915  0.00  0.00     0.028 C 
ATOM     12  C   LIG d   1      -2.667  77.803 111.119  0.00  0.00     0.006 C 
ENDBRANCH   8  11
ENDBRANCH   7   8
ENDBRANCH   1   7
BRANCH   6  13
ATOM     13  N   LIG d   1       1.049  78.373 116.222  0.00  0.00    -0.311 N 
ATOM     14  C   LIG d   1       1.469  79.565 116.643  0.00  0.00     0.210 C 
ATOM     15  C   LIG d   1       2.985  79.776 116.581  0.00  0.00     0.109 C 
ATOM     16  O   LIG d   1       0.732  80.455 117.093  0.00  0.00    -0.276 OA
ATOM     17  H   LIG d   1       1.718  77.699 115.903  0.00  0.00     0.149 HD
ENDBRANCH   6  13
BRANCH   5  18
ATOM     18  N   LIG d   1      -0.446  77.016 118.514  0.00  0.00     0.381 N 
ATOM     19  H   LIG d   1      -1.308  77.265 118.956  0.00  0.00    -0.090 HD
ATOM     20  H   LIG d   1       0.189  77.789 118.603  0.00  0.00    -0.090 HD
ATOM     21  H   LIG d   1      -0.062  76.208 118.951  0.00  0.00    -0.090 HD
ENDBRANCH   5  18
BRANCH   3  22
ATOM     22  C   LIG d   1      -3.537  75.296 115.284  0.00  0.00     0.382 C 
ATOM     23  O   LIG d   1      -3.974  74.534 116.180  0.00  0.00    -0.241 OA
ATOM     24  O   LIG d   1      -3.981  75.198 114.125  0.00  0.00    -0.241 OA
ENDBRANCH   3  22
TORSDOF 7
ENDMDL
MODEL 8
REMARK VINA RESULT:      -4.4      2.513      5.416
REMARK  7 active torsions:
REMARK  status: ('A' for Active; 'I' for Inactive)
REMARK    1  A    between atoms: C_2  and  C_3 
REMARK    2  A    between atoms: C_3  and  O_6 
REMARK    3  A    between atoms: C_3  and  C_4 
REMARK    4  A    between atoms: C_7  and  O_6 
REMARK    5  A    between atoms: C_9  and  C_10 
REMARK    6  A    between atoms: N_15  and  C_14 
REMARK    7  A    between atoms: N_20  and  C_19 
REMARK       I    between atoms: C_22  and  N_20 
ROOT
ATOM      1  C   LIG d   1      -1.782  77.571 114.578  0.00  0.00     0.161 C 
ATOM      2  C   LIG d   1      -0.902  78.478 113.964  0.00  0.00     0.016 C 
ATOM      3  C   LIG d   1      -1.110  79.011 112.671  0.00  0.00     0.038 C 
ATOM      4  C   LIG d   1      -2.298  78.787 111.960  0.00  0.00     0.028 C 
ATOM      5  C   LIG d   1      -2.986  77.476 112.326  0.00  0.00    -0.047 C 
ATOM      6  C   LIG d   1      -3.138  77.402 113.862  0.00  0.00     0.091 C 
ENDROOT
BRANCH   1   7
ATOM      7  O   LIG d   1      -1.985  77.943 115.955  0.00  0.00    -0.368 OA
BRANCH   7   8
ATOM      8  C   LIG d   1      -1.391  77.068 116.946  0.00  0.00     0.119 C 
BRANCH   8   9
ATOM      9  C   LIG d   1      -0.317  76.223 116.233  0.00  0.00     0.028 C 
ATOM     10  C   LIG d   1       1.103  76.539 116.732  0.00  0.00     0.006 C 
ENDBRANCH   8   9
BRANCH   8  11
ATOM     11  C   LIG d   1      -2.412  76.058 117.480  0.00  0.00     0.028 C 
ATOM     12  C   LIG d   1      -2.102  74.615 117.054  0.00  0.00     0.006 C 
ENDBRANCH   8  11
ENDBRANCH   7   8
ENDBRANCH   1   7
BRANCH   6  13
ATOM     13  N   LIG d   1      -3.726  76.113 114.312  0.00  0.00    -0.311 N 
ATOM     14  C   LIG d   1      -5.032  75.928 114.497  0.00  0.00     0.210 C 
ATOM     15  C   LIG d   1      -5.424  74.529 114.982  0.00  0.00     0.109 C 
ATOM     16  O   LIG d   1      -5.906  76.780 114.275  0.00  0.00    -0.276 OA
ATOM     17  H   LIG d   1      -3.092  75.358 114.485  0.00  0.00     0.149 HD
ENDBRANCH   6  13
BRANCH   5  18
ATOM     18  N   LIG d   1      -4.277  77.437 111.614  0.00  0.00     0.381 N 
ATOM     19  H   LIG d   1      -4.302  76.645 111.002  0.00  0.00    -0.090 HD
ATOM     20  H   LIG d   1      -4.367  78.269 111.058  0.00  0.00    -0.090 HD
ATOM     21  H   LIG d   1      -5.026  77.383 112.269  0.00  0.00    -0.090 HD
ENDBRANCH   5  18
BRANCH   3  22
ATOM     22  C   LIG d   1      -0.105  79.745 112.060  0.00  0.00     0.382 C 
ATOM     23  O   LIG d   1       0.676  80.439 112.756  0.00  0.00    -0.241 OA
ATOM     24  O   LIG d   1       0.004  79.757 110.820  0.00  0.00    -0.241 OA
ENDBRANCH   3  22
TORSDOF 7
ENDMDL
MODEL 9
REMARK VINA RESULT:      -4.3      2.587      5.245
REMARK  7 active torsions:
REMARK  status: ('A' for Active; 'I' for Inactive)
REMARK    1  A    between atoms: C_2  and  C_3 
REMARK    2  A    between atoms: C_3  and  O_6 
REMARK    3  A    between atoms: C_3  and  C_4 
REMARK    4  A    between atoms: C_7  and  O_6 
REMARK    5  A    between atoms: C_9  and  C_10 
REMARK    6  A    between atoms: N_15  and  C_14 
REMARK    7  A    between atoms: N_20  and  C_19 
REMARK       I    between atoms: C_22  and  N_20 
ROOT
ATOM      1  C   LIG d   1      -2.805  77.728 116.143  0.00  0.00     0.161 C 
ATOM      2  C   LIG d   1      -3.825  77.320 115.268  0.00  0.00     0.016 C 
ATOM      3  C   LIG d   1      -4.015  75.978 114.867  0.00  0.00     0.038 C 
ATOM      4  C   LIG d   1      -3.287  74.923 115.437  0.00  0.00     0.028 C 
ATOM      5  C   LIG d   1      -1.912  75.342 115.945  0.00  0.00    -0.047 C 
ATOM      6  C   LIG d   1      -2.070  76.577 116.862  0.00  0.00     0.091 C 
ENDROOT
BRANCH   1   7
ATOM      7  O   LIG d   1      -3.331  78.664 117.105  0.00  0.00    -0.368 OA
BRANCH   7   8
ATOM      8  C   LIG d   1      -3.950  78.088 118.281  0.00  0.00     0.119 C 
BRANCH   8   9
ATOM      9  C   LIG d   1      -5.436  78.494 118.268  0.00  0.00     0.028 C 
ATOM     10  C   LIG d   1      -6.377  77.277 118.251  0.00  0.00     0.006 C 
ENDBRANCH   8   9
BRANCH   8  11
ATOM     11  C   LIG d   1      -3.376  78.694 119.566  0.00  0.00     0.028 C 
ATOM     12  C   LIG d   1      -2.326  79.783 119.293  0.00  0.00     0.006 C 
ENDBRANCH   8  11
ENDBRANCH   7   8
ENDBRANCH   1   7
BRANCH   6  13
ATOM     13  N   LIG d   1      -0.763  77.103 117.335  0.00  0.00    -0.311 N 
ATOM     14  C   LIG d   1      -0.240  76.806 118.523  0.00  0.00     0.210 C 
ATOM     15  C   LIG d   1       1.107  77.471 118.821  0.00  0.00     0.109 C 
ATOM     16  O   LIG d   1      -0.749  76.030 119.346  0.00  0.00    -0.276 OA
ATOM     17  H   LIG d   1      -0.268  77.716 116.717  0.00  0.00     0.149 HD
ENDBRANCH   6  13
BRANCH   5  18
ATOM     18  N   LIG d   1      -1.319  74.181 116.636  0.00  0.00     0.381 N 
ATOM     19  H   LIG d   1      -0.322  74.220 116.569  0.00  0.00    -0.090 HD
ATOM     20  H   LIG d   1      -1.634  73.340 116.186  0.00  0.00    -0.090 HD
ATOM     21  H   LIG d   1      -1.595  74.178 117.594  0.00  0.00    -0.090 HD
ENDBRANCH   5  18
BRANCH   3  22
ATOM     22  C   LIG d   1      -4.917  75.684 113.856  0.00  0.00     0.382 C 
ATOM     23  O   LIG d   1      -5.497  74.572 113.836  0.00  0.00    -0.241 OA
ATOM     24  O   LIG d   1      -5.125  76.500 112.938  0.00  0.00    -0.241 OA
ENDBRANCH   3  22
TORSDOF 7
ENDMDL
