MODEL 1
REMARK VINA RESULT:      -5.4      0.000      0.000
REMARK  7 active torsions:
REMARK  status: ('A' for Active; 'I' for Inactive)
REMARK    1  A    between atoms: C_2  and  C_3 
REMARK    2  A    between atoms: C_3  and  O_6 
REMARK    3  A    between atoms: C_3  and  C_4 
REMARK    4  A    between atoms: C_7  and  O_6 
REMARK    5  A    between atoms: C_9  and  C_10 
REMARK    6  A    between atoms: N_15  and  C_14 
REMARK    7  A    between atoms: N_20  and  C_19 
REMARK       I    between atoms: C_22  and  N_20 
ROOT
ATOM      1  C   LIG d   1      -3.399  77.428 115.047  0.00  0.00     0.161 C 
ATOM      2  C   LIG d   1      -3.379  77.804 113.693  0.00  0.00     0.016 C 
ATOM      3  C   LIG d   1      -2.274  77.583 112.840  0.00  0.00     0.038 C 
ATOM      4  C   LIG d   1      -1.163  76.829 113.246  0.00  0.00     0.028 C 
ATOM      5  C   LIG d   1      -0.924  76.866 114.752  0.00  0.00    -0.047 C 
ATOM      6  C   LIG d   1      -2.240  76.505 115.478  0.00  0.00     0.091 C 
ENDROOT
BRANCH   1   7
ATOM      7  O   LIG d   1      -4.667  76.822 115.367  0.00  0.00    -0.368 OA
BRANCH   7   8
ATOM      8  C   LIG d   1      -5.213  75.921 114.372  0.00  0.00     0.119 C 
BRANCH   8   9
ATOM      9  C   LIG d   1      -6.702  76.274 114.195  0.00  0.00     0.028 C 
ATOM     10  C   LIG d   1      -7.060  76.590 112.733  0.00  0.00     0.006 C 
ENDBRANCH   8   9
BRANCH   8  11
ATOM     11  C   LIG d   1      -5.195  74.471 114.865  0.00  0.00     0.028 C 
ATOM     12  C   LIG d   1      -6.174  74.224 116.024  0.00  0.00     0.006 C 
ENDBRANCH   8  11
ENDBRANCH   7   8
ENDBRANCH   1   7
BRANCH   6  13
ATOM     13  N   LIG d   1      -2.116  76.600 116.956  0.00  0.00    -0.311 N 
ATOM     14  C   LIG d   1      -2.299  75.566 117.775  0.00  0.00     0.210 C 
ATOM     15  C   LIG d   1      -2.144  75.885 119.265  0.00  0.00     0.109 C 
ATOM     16  O   LIG d   1      -2.544  74.407 117.407  0.00  0.00    -0.276 OA
ATOM     17  H   LIG d   1      -1.889  77.497 117.338  0.00  0.00     0.149 HD
ENDBRANCH   6  13
BRANCH   5  18
ATOM     18  N   LIG d   1       0.177  75.931 115.052  0.00  0.00     0.381 N 
ATOM     19  H   LIG d   1       0.972  76.150 114.485  0.00  0.00    -0.090 HD
ATOM     20  H   LIG d   1      -0.121  74.997 114.830  0.00  0.00    -0.090 HD
ATOM     21  H   LIG d   1       0.421  75.989 116.016  0.00  0.00    -0.090 HD
ENDBRANCH   5  18
BRANCH   3  22
ATOM     22  C   LIG d   1      -2.256  78.153 111.576  0.00  0.00     0.382 C 
ATOM     23  O   LIG d   1      -1.865  79.336 111.428  0.00  0.00    -0.241 OA
ATOM     24  O   LIG d   1      -2.668  77.515 110.589  0.00  0.00    -0.241 OA
ENDBRANCH   3  22
TORSDOF 7
ENDMDL
MODEL 2
REMARK VINA RESULT:      -5.3      2.208      2.768
REMARK  7 active torsions:
REMARK  status: ('A' for Active; 'I' for Inactive)
REMARK    1  A    between atoms: C_2  and  C_3 
REMARK    2  A    between atoms: C_3  and  O_6 
REMARK    3  A    between atoms: C_3  and  C_4 
REMARK    4  A    between atoms: C_7  and  O_6 
REMARK    5  A    between atoms: C_9  and  C_10 
REMARK    6  A    between atoms: N_15  and  C_14 
REMARK    7  A    between atoms: N_20  and  C_19 
REMARK       I    between atoms: C_22  and  N_20 
ROOT
ATOM      1  C   LIG d   1      -3.329  78.350 115.217  0.00  0.00     0.161 C 
ATOM      2  C   LIG d   1      -3.310  79.406 114.291  0.00  0.00     0.016 C 
ATOM      3  C   LIG d   1      -2.420  79.463 113.194  0.00  0.00     0.038 C 
ATOM      4  C   LIG d   1      -1.584  78.387 112.861  0.00  0.00     0.028 C 
ATOM      5  C   LIG d   1      -1.211  77.517 114.056  0.00  0.00    -0.047 C 
ATOM      6  C   LIG d   1      -2.501  77.114 114.806  0.00  0.00     0.091 C 
ENDROOT
BRANCH   1   7
ATOM      7  O   LIG d   1      -4.691  77.970 115.497  0.00  0.00    -0.368 OA
BRANCH   7   8
ATOM      8  C   LIG d   1      -5.156  78.214 116.847  0.00  0.00     0.119 C 
BRANCH   8   9
ATOM      9  C   LIG d   1      -6.446  77.395 117.048  0.00  0.00     0.028 C 
ATOM     10  C   LIG d   1      -6.840  76.604 115.789  0.00  0.00     0.006 C 
ENDBRANCH   8   9
BRANCH   8  11
ATOM     11  C   LIG d   1      -5.570  79.676 117.038  0.00  0.00     0.028 C 
ATOM     12  C   LIG d   1      -6.999  79.824 117.583  0.00  0.00     0.006 C 
ENDBRANCH   8  11
ENDBRANCH   7   8
ENDBRANCH   1   7
BRANCH   6  13
ATOM     13  N   LIG d   1      -2.219  76.332 116.038  0.00  0.00    -0.311 N 
ATOM     14  C   LIG d   1      -2.917  75.256 116.399  0.00  0.00     0.210 C 
ATOM     15  C   LIG d   1      -2.475  74.609 117.715  0.00  0.00     0.109 C 
ATOM     16  O   LIG d   1      -3.840  74.757 115.737  0.00  0.00    -0.276 OA
ATOM     17  H   LIG d   1      -1.467  76.648 116.618  0.00  0.00     0.149 HD
ENDBRANCH   6  13
BRANCH   5  18
ATOM     18  N   LIG d   1      -0.453  76.359 113.545  0.00  0.00     0.381 N 
ATOM     19  H   LIG d   1       0.516  76.461 113.772  0.00  0.00    -0.090 HD
ATOM     20  H   LIG d   1      -0.542  76.328 112.545  0.00  0.00    -0.090 HD
ATOM     21  H   LIG d   1      -0.808  75.517 113.943  0.00  0.00    -0.090 HD
ENDBRANCH   5  18
BRANCH   3  22
ATOM     22  C   LIG d   1      -2.331  80.624 112.440  0.00  0.00     0.382 C 
ATOM     23  O   LIG d   1      -3.251  81.476 112.491  0.00  0.00    -0.241 OA
ATOM     24  O   LIG d   1      -1.365  80.809 111.677  0.00  0.00    -0.241 OA
ENDBRANCH   3  22
TORSDOF 7
ENDMDL
MODEL 3
REMARK VINA RESULT:      -5.2      1.665      1.911
REMARK  7 active torsions:
REMARK  status: ('A' for Active; 'I' for Inactive)
REMARK    1  A    between atoms: C_2  and  C_3 
REMARK    2  A    between atoms: C_3  and  O_6 
REMARK    3  A    between atoms: C_3  and  C_4 
REMARK    4  A    between atoms: C_7  and  O_6 
REMARK    5  A    between atoms: C_9  and  C_10 
REMARK    6  A    between atoms: N_15  and  C_14 
REMARK    7  A    between atoms: N_20  and  C_19 
REMARK       I    between atoms: C_22  and  N_20 
ROOT
ATOM      1  C   LIG d   1      -3.327  77.465 114.485  0.00  0.00     0.161 C 
ATOM      2  C   LIG d   1      -3.323  78.509 113.544  0.00  0.00     0.016 C 
ATOM      3  C   LIG d   1      -2.221  79.371 113.343  0.00  0.00     0.038 C 
ATOM      4  C   LIG d   1      -0.984  79.151 113.967  0.00  0.00     0.028 C 
ATOM      5  C   LIG d   1      -1.099  78.417 115.299  0.00  0.00    -0.047 C 
ATOM      6  C   LIG d   1      -1.947  77.141 115.096  0.00  0.00     0.091 C 
ENDROOT
BRANCH   1   7
ATOM      7  O   LIG d   1      -3.906  76.282 113.900  0.00  0.00    -0.368 OA
BRANCH   7   8
ATOM      8  C   LIG d   1      -5.253  75.956 114.323  0.00  0.00     0.119 C 
BRANCH   8   9
ATOM      9  C   LIG d   1      -5.511  76.692 115.652  0.00  0.00     0.028 C 
ATOM     10  C   LIG d   1      -6.963  77.182 115.779  0.00  0.00     0.006 C 
ENDBRANCH   8   9
BRANCH   8  11
ATOM     11  C   LIG d   1      -5.389  74.467 114.650  0.00  0.00     0.028 C 
ATOM     12  C   LIG d   1      -5.326  74.180 116.159  0.00  0.00     0.006 C 
ENDBRANCH   8  11
ENDBRANCH   7   8
ENDBRANCH   1   7
BRANCH   6  13
ATOM     13  N   LIG d   1      -2.180  76.407 116.367  0.00  0.00    -0.311 N 
ATOM     14  C   LIG d   1      -1.711  75.183 116.604  0.00  0.00     0.210 C 
ATOM     15  C   LIG d   1      -2.084  74.601 117.971  0.00  0.00     0.109 C 
ATOM     16  O   LIG d   1      -0.995  74.537 115.824  0.00  0.00    -0.276 OA
ATOM     17  H   LIG d   1      -2.726  76.870 117.068  0.00  0.00     0.149 HD
ENDBRANCH   6  13
BRANCH   5  18
ATOM     18  N   LIG d   1       0.269  78.133 115.771  0.00  0.00     0.381 N 
ATOM     19  H   LIG d   1       0.630  77.327 115.300  0.00  0.00    -0.090 HD
ATOM     20  H   LIG d   1       0.238  77.935 116.756  0.00  0.00    -0.090 HD
ATOM     21  H   LIG d   1       0.858  78.918 115.601  0.00  0.00    -0.090 HD
ENDBRANCH   5  18
BRANCH   3  22
ATOM     22  C   LIG d   1      -2.362  80.492 112.539  0.00  0.00     0.382 C 
ATOM     23  O   LIG d   1      -3.310  81.289 112.737  0.00  0.00    -0.241 OA
ATOM     24  O   LIG d   1      -1.581  80.691 111.590  0.00  0.00    -0.241 OA
ENDBRANCH   3  22
TORSDOF 7
ENDMDL
MODEL 4
REMARK VINA RESULT:      -4.8      1.989      5.015
REMARK  7 active torsions:
REMARK  status: ('A' for Active; 'I' for Inactive)
REMARK    1  A    between atoms: C_2  and  C_3 
REMARK    2  A    between atoms: C_3  and  O_6 
REMARK    3  A    between atoms: C_3  and  C_4 
REMARK    4  A    between atoms: C_7  and  O_6 
REMARK    5  A    between atoms: C_9  and  C_10 
REMARK    6  A    between atoms: N_15  and  C_14 
REMARK    7  A    between atoms: N_20  and  C_19 
REMARK       I    between atoms: C_22  and  N_20 
ROOT
ATOM      1  C   LIG d   1      -2.051  76.049 115.115  0.00  0.00     0.161 C 
ATOM      2  C   LIG d   1      -1.903  75.836 116.496  0.00  0.00     0.016 C 
ATOM      3  C   LIG d   1      -1.285  76.764 117.365  0.00  0.00     0.038 C 
ATOM      4  C   LIG d   1      -0.905  78.044 116.934  0.00  0.00     0.028 C 
ATOM      5  C   LIG d   1      -0.576  78.109 115.446  0.00  0.00    -0.047 C 
ATOM      6  C   LIG d   1      -1.743  77.487 114.646  0.00  0.00     0.091 C 
ENDROOT
BRANCH   1   7
ATOM      7  O   LIG d   1      -3.375  75.660 114.700  0.00  0.00    -0.368 OA
BRANCH   7   8
ATOM      8  C   LIG d   1      -4.415  75.763 115.704  0.00  0.00     0.119 C 
BRANCH   8   9
ATOM      9  C   LIG d   1      -5.335  74.538 115.545  0.00  0.00     0.028 C 
ATOM     10  C   LIG d   1      -6.697  74.734 116.233  0.00  0.00     0.006 C 
ENDBRANCH   8   9
BRANCH   8  11
ATOM     11  C   LIG d   1      -5.311  76.979 115.455  0.00  0.00     0.028 C 
ATOM     12  C   LIG d   1      -4.986  78.160 116.383  0.00  0.00     0.006 C 
ENDBRANCH   8  11
ENDBRANCH   7   8
ENDBRANCH   1   7
BRANCH   6  13
ATOM     13  N   LIG d   1      -1.466  77.434 113.187  0.00  0.00    -0.311 N 
ATOM     14  C   LIG d   1      -2.331  77.843 112.261  0.00  0.00     0.210 C 
ATOM     15  C   LIG d   1      -1.854  77.682 110.814  0.00  0.00     0.109 C 
ATOM     16  O   LIG d   1      -3.436  78.353 112.501  0.00  0.00    -0.276 OA
ATOM     17  H   LIG d   1      -0.580  77.063 112.904  0.00  0.00     0.149 HD
ENDBRANCH   6  13
BRANCH   5  18
ATOM     18  N   LIG d   1      -0.331  79.524 115.105  0.00  0.00     0.381 N 
ATOM     19  H   LIG d   1       0.012  80.011 115.909  0.00  0.00    -0.090 HD
ATOM     20  H   LIG d   1      -1.199  79.946 114.827  0.00  0.00    -0.090 HD
ATOM     21  H   LIG d   1       0.330  79.586 114.363  0.00  0.00    -0.090 HD
ENDBRANCH   5  18
BRANCH   3  22
ATOM     22  C   LIG d   1      -1.005  76.400 118.673  0.00  0.00     0.382 C 
ATOM     23  O   LIG d   1      -1.851  75.756 119.339  0.00  0.00    -0.241 OA
ATOM     24  O   LIG d   1       0.065  76.745 119.210  0.00  0.00    -0.241 OA
ENDBRANCH   3  22
TORSDOF 7
ENDMDL
MODEL 5
REMARK VINA RESULT:      -4.7      3.186      5.968
REMARK  7 active torsions:
REMARK  status: ('A' for Active; 'I' for Inactive)
REMARK    1  A    between atoms: C_2  and  C_3 
REMARK    2  A    between atoms: C_3  and  O_6 
REMARK    3  A    between atoms: C_3  and  C_4 
REMARK    4  A    between atoms: C_7  and  O_6 
REMARK    5  A    between atoms: C_9  and  C_10 
REMARK    6  A    between atoms: N_15  and  C_14 
REMARK    7  A    between atoms: N_20  and  C_19 
REMARK       I    between atoms: C_22  and  N_20 
ROOT
ATOM      1  C   LIG d   1      -1.511  79.530 114.349  0.00  0.00     0.161 C 
ATOM      2  C   LIG d   1      -2.486  78.589 114.721  0.00  0.00     0.016 C 
ATOM      3  C   LIG d   1      -3.095  77.696 113.809  0.00  0.00     0.038 C 
ATOM      4  C   LIG d   1      -2.658  77.581 112.481  0.00  0.00     0.028 C 
ATOM      5  C   LIG d   1      -2.028  78.859 111.938  0.00  0.00    -0.047 C 
ATOM      6  C   LIG d   1      -0.943  79.343 112.927  0.00  0.00     0.091 C 
ENDROOT
BRANCH   1   7
ATOM      7  O   LIG d   1      -0.444  79.538 115.318  0.00  0.00    -0.368 OA
BRANCH   7   8
ATOM      8  C   LIG d   1      -0.736  78.913 116.592  0.00  0.00     0.119 C 
BRANCH   8   9
ATOM      9  C   LIG d   1      -0.618  80.000 117.678  0.00  0.00     0.028 C 
ATOM     10  C   LIG d   1      -1.977  80.349 118.308  0.00  0.00     0.006 C 
ENDBRANCH   8   9
BRANCH   8  11
ATOM     11  C   LIG d   1       0.320  77.864 116.952  0.00  0.00     0.028 C 
ATOM     12  C   LIG d   1      -0.134  76.429 116.639  0.00  0.00     0.006 C 
ENDBRANCH   8  11
ENDBRANCH   7   8
ENDBRANCH   1   7
BRANCH   6  13
ATOM     13  N   LIG d   1      -0.334  80.634 112.513  0.00  0.00    -0.311 N 
ATOM     14  C   LIG d   1      -1.048  81.705 112.171  0.00  0.00     0.210 C 
ATOM     15  C   LIG d   1      -0.223  82.928 111.758  0.00  0.00     0.109 C 
ATOM     16  O   LIG d   1      -2.286  81.769 112.202  0.00  0.00    -0.276 OA
ATOM     17  H   LIG d   1       0.666  80.680 112.489  0.00  0.00     0.149 HD
ENDBRANCH   6  13
BRANCH   5  18
ATOM     18  N   LIG d   1      -1.494  78.558 110.596  0.00  0.00     0.381 N 
ATOM     19  H   LIG d   1      -0.562  78.204 110.674  0.00  0.00    -0.090 HD
ATOM     20  H   LIG d   1      -1.466  79.406 110.059  0.00  0.00    -0.090 HD
ATOM     21  H   LIG d   1      -2.074  77.887 110.141  0.00  0.00    -0.090 HD
ENDBRANCH   5  18
BRANCH   3  22
ATOM     22  C   LIG d   1      -4.180  76.935 114.214  0.00  0.00     0.382 C 
ATOM     23  O   LIG d   1      -5.186  77.493 114.714  0.00  0.00    -0.241 OA
ATOM     24  O   LIG d   1      -4.149  75.693 114.126  0.00  0.00    -0.241 OA
ENDBRANCH   3  22
TORSDOF 7
ENDMDL
MODEL 6
REMARK VINA RESULT:      -4.3      1.868      2.544
REMARK  7 active torsions:
REMARK  status: ('A' for Active; 'I' for Inactive)
REMARK    1  A    between atoms: C_2  and  C_3 
REMARK    2  A    between atoms: C_3  and  O_6 
REMARK    3  A    between atoms: C_3  and  C_4 
REMARK    4  A    between atoms: C_7  and  O_6 
REMARK    5  A    between atoms: C_9  and  C_10 
REMARK    6  A    between atoms: N_15  and  C_14 
REMARK    7  A    between atoms: N_20  and  C_19 
REMARK       I    between atoms: C_22  and  N_20 
ROOT
ATOM      1  C   LIG d   1      -2.788  77.701 115.123  0.00  0.00     0.161 C 
ATOM      2  C   LIG d   1      -2.880  78.384 113.899  0.00  0.00     0.016 C 
ATOM      3  C   LIG d   1      -1.879  79.260 113.420  0.00  0.00     0.038 C 
ATOM      4  C   LIG d   1      -0.642  79.397 114.066  0.00  0.00     0.028 C 
ATOM      5  C   LIG d   1      -0.707  79.116 115.564  0.00  0.00    -0.047 C 
ATOM      6  C   LIG d   1      -1.397  77.752 115.789  0.00  0.00     0.091 C 
ENDROOT
BRANCH   1   7
ATOM      7  O   LIG d   1      -3.212  76.334 114.953  0.00  0.00    -0.368 OA
BRANCH   7   8
ATOM      8  C   LIG d   1      -4.543  76.016 115.429  0.00  0.00     0.119 C 
BRANCH   8   9
ATOM      9  C   LIG d   1      -4.457  74.674 116.182  0.00  0.00     0.028 C 
ATOM     10  C   LIG d   1      -3.105  74.484 116.890  0.00  0.00     0.006 C 
ENDBRANCH   8   9
BRANCH   8  11
ATOM     11  C   LIG d   1      -5.507  75.766 114.265  0.00  0.00     0.028 C 
ATOM     12  C   LIG d   1      -6.932  76.264 114.555  0.00  0.00     0.006 C 
ENDBRANCH   8  11
ENDBRANCH   7   8
ENDBRANCH   1   7
BRANCH   6  13
ATOM     13  N   LIG d   1      -1.577  77.438 117.231  0.00  0.00    -0.311 N 
ATOM     14  C   LIG d   1      -0.658  76.813 117.965  0.00  0.00     0.210 C 
ATOM     15  C   LIG d   1      -1.053  76.570 119.425  0.00  0.00     0.109 C 
ATOM     16  O   LIG d   1       0.459  76.464 117.554  0.00  0.00    -0.276 OA
ATOM     17  H   LIG d   1      -2.442  77.714 117.653  0.00  0.00     0.149 HD
ENDBRANCH   6  13
BRANCH   5  18
ATOM     18  N   LIG d   1       0.672  79.160 116.085  0.00  0.00     0.381 N 
ATOM     19  H   LIG d   1       1.299  78.751 115.421  0.00  0.00    -0.090 HD
ATOM     20  H   LIG d   1       0.716  78.622 116.933  0.00  0.00    -0.090 HD
ATOM     21  H   LIG d   1       0.939  80.102 116.268  0.00  0.00    -0.090 HD
ENDBRANCH   5  18
BRANCH   3  22
ATOM     22  C   LIG d   1      -2.128  80.042 112.302  0.00  0.00     0.382 C 
ATOM     23  O   LIG d   1      -2.867  81.052 112.395  0.00  0.00    -0.241 OA
ATOM     24  O   LIG d   1      -1.659  79.725 111.192  0.00  0.00    -0.241 OA
ENDBRANCH   3  22
TORSDOF 7
ENDMDL
MODEL 7
REMARK VINA RESULT:      -4.3      2.507      3.796
REMARK  7 active torsions:
REMARK  status: ('A' for Active; 'I' for Inactive)
REMARK    1  A    between atoms: C_2  and  C_3 
REMARK    2  A    between atoms: C_3  and  O_6 
REMARK    3  A    between atoms: C_3  and  C_4 
REMARK    4  A    between atoms: C_7  and  O_6 
REMARK    5  A    between atoms: C_9  and  C_10 
REMARK    6  A    between atoms: N_15  and  C_14 
REMARK    7  A    between atoms: N_20  and  C_19 
REMARK       I    between atoms: C_22  and  N_20 
ROOT
ATOM      1  C   LIG d   1      -1.915  77.449 115.355  0.00  0.00     0.161 C 
ATOM      2  C   LIG d   1      -2.614  77.165 114.170  0.00  0.00     0.016 C 
ATOM      3  C   LIG d   1      -2.405  77.863 112.958  0.00  0.00     0.038 C 
ATOM      4  C   LIG d   1      -1.370  78.798 112.809  0.00  0.00     0.028 C 
ATOM      5  C   LIG d   1      -0.973  79.476 114.116  0.00  0.00    -0.047 C 
ATOM      6  C   LIG d   1      -0.704  78.390 115.183  0.00  0.00     0.091 C 
ENDROOT
BRANCH   1   7
ATOM      7  O   LIG d   1      -1.509  76.220 115.989  0.00  0.00    -0.368 OA
BRANCH   7   8
ATOM      8  C   LIG d   1      -2.257  75.834 117.168  0.00  0.00     0.119 C 
BRANCH   8   9
ATOM      9  C   LIG d   1      -1.237  75.458 118.261  0.00  0.00     0.028 C 
ATOM     10  C   LIG d   1      -1.633  74.180 119.019  0.00  0.00     0.006 C 
ENDBRANCH   8   9
BRANCH   8  11
ATOM     11  C   LIG d   1      -3.071  74.561 116.919  0.00  0.00     0.028 C 
ATOM     12  C   LIG d   1      -4.463  74.850 116.334  0.00  0.00     0.006 C 
ENDBRANCH   8  11
ENDBRANCH   7   8
ENDBRANCH   1   7
BRANCH   6  13
ATOM     13  N   LIG d   1      -0.392  78.970 116.515  0.00  0.00    -0.311 N 
ATOM     14  C   LIG d   1       0.614  78.549 117.280  0.00  0.00     0.210 C 
ATOM     15  C   LIG d   1       0.748  79.269 118.625  0.00  0.00     0.109 C 
ATOM     16  O   LIG d   1       1.428  77.671 116.958  0.00  0.00    -0.276 OA
ATOM     17  H   LIG d   1      -0.983  79.709 116.841  0.00  0.00     0.149 HD
ENDBRANCH   6  13
BRANCH   5  18
ATOM     18  N   LIG d   1       0.204  80.320 113.840  0.00  0.00     0.381 N 
ATOM     19  H   LIG d   1       0.968  79.749 113.539  0.00  0.00    -0.090 HD
ATOM     20  H   LIG d   1       0.475  80.787 114.688  0.00  0.00    -0.090 HD
ATOM     21  H   LIG d   1      -0.015  80.992 113.138  0.00  0.00    -0.090 HD
ENDBRANCH   5  18
BRANCH   3  22
ATOM     22  C   LIG d   1      -3.265  77.656 111.889  0.00  0.00     0.382 C 
ATOM     23  O   LIG d   1      -4.501  77.570 112.087  0.00  0.00    -0.241 OA
ATOM     24  O   LIG d   1      -2.816  77.511 110.737  0.00  0.00    -0.241 OA
ENDBRANCH   3  22
TORSDOF 7
ENDMDL
MODEL 8
REMARK VINA RESULT:      -4.2      2.255      2.484
REMARK  7 active torsions:
REMARK  status: ('A' for Active; 'I' for Inactive)
REMARK    1  A    between atoms: C_2  and  C_3 
REMARK    2  A    between atoms: C_3  and  O_6 
REMARK    3  A    between atoms: C_3  and  C_4 
REMARK    4  A    between atoms: C_7  and  O_6 
REMARK    5  A    between atoms: C_9  and  C_10 
REMARK    6  A    between atoms: N_15  and  C_14 
REMARK    7  A    between atoms: N_20  and  C_19 
REMARK       I    between atoms: C_22  and  N_20 
ROOT
ATOM      1  C   LIG d   1      -3.158  78.094 116.076  0.00  0.00     0.161 C 
ATOM      2  C   LIG d   1      -3.450  78.086 114.702  0.00  0.00     0.016 C 
ATOM      3  C   LIG d   1      -2.539  77.644 113.715  0.00  0.00     0.038 C 
ATOM      4  C   LIG d   1      -1.322  77.033 114.051  0.00  0.00     0.028 C 
ATOM      5  C   LIG d   1      -0.771  77.481 115.401  0.00  0.00    -0.047 C 
ATOM      6  C   LIG d   1      -1.878  77.328 116.469  0.00  0.00     0.091 C 
ENDROOT
BRANCH   1   7
ATOM      7  O   LIG d   1      -4.289  77.595 116.818  0.00  0.00    -0.368 OA
BRANCH   7   8
ATOM      8  C   LIG d   1      -5.381  77.059 116.031  0.00  0.00     0.119 C 
BRANCH   8   9
ATOM      9  C   LIG d   1      -6.693  77.598 116.634  0.00  0.00     0.028 C 
ATOM     10  C   LIG d   1      -6.575  79.065 117.081  0.00  0.00     0.006 C 
ENDBRANCH   8   9
BRANCH   8  11
ATOM     11  C   LIG d   1      -5.469  75.536 116.165  0.00  0.00     0.028 C 
ATOM     12  C   LIG d   1      -5.192  74.804 114.842  0.00  0.00     0.006 C 
ENDBRANCH   8  11
ENDBRANCH   7   8
ENDBRANCH   1   7
BRANCH   6  13
ATOM     13  N   LIG d   1      -1.450  77.823 117.804  0.00  0.00    -0.311 N 
ATOM     14  C   LIG d   1      -1.067  79.078 118.032  0.00  0.00     0.210 C 
ATOM     15  C   LIG d   1      -0.646  79.374 119.475  0.00  0.00     0.109 C 
ATOM     16  O   LIG d   1      -1.068  79.983 117.183  0.00  0.00    -0.276 OA
ATOM     17  H   LIG d   1      -1.450  77.163 118.556  0.00  0.00     0.149 HD
ENDBRANCH   6  13
BRANCH   5  18
ATOM     18  N   LIG d   1       0.425  76.666 115.687  0.00  0.00     0.381 N 
ATOM     19  H   LIG d   1       0.606  76.664 116.671  0.00  0.00    -0.090 HD
ATOM     20  H   LIG d   1       1.216  77.076 115.222  0.00  0.00    -0.090 HD
ATOM     21  H   LIG d   1       0.287  75.734 115.365  0.00  0.00    -0.090 HD
ENDBRANCH   5  18
BRANCH   3  22
ATOM     22  C   LIG d   1      -2.826  77.848 112.374  0.00  0.00     0.382 C 
ATOM     23  O   LIG d   1      -1.939  78.287 111.603  0.00  0.00    -0.241 OA
ATOM     24  O   LIG d   1      -3.973  77.640 111.935  0.00  0.00    -0.241 OA
ENDBRANCH   3  22
TORSDOF 7
ENDMDL
MODEL 9
REMARK VINA RESULT:      -4.2      2.412      4.427
REMARK  7 active torsions:
REMARK  status: ('A' for Active; 'I' for Inactive)
REMARK    1  A    between atoms: C_2  and  C_3 
REMARK    2  A    between atoms: C_3  and  O_6 
REMARK    3  A    between atoms: C_3  and  C_4 
REMARK    4  A    between atoms: C_7  and  O_6 
REMARK    5  A    between atoms: C_9  and  C_10 
REMARK    6  A    between atoms: N_15  and  C_14 
REMARK    7  A    between atoms: N_20  and  C_19 
REMARK       I    between atoms: C_22  and  N_20 
ROOT
ATOM      1  C   LIG d   1      -1.893  78.142 114.903  0.00  0.00     0.161 C 
ATOM      2  C   LIG d   1      -1.042  79.133 114.386  0.00  0.00     0.016 C 
ATOM      3  C   LIG d   1      -1.118  79.610 113.057  0.00  0.00     0.038 C 
ATOM      4  C   LIG d   1      -2.156  79.232 112.193  0.00  0.00     0.028 C 
ATOM      5  C   LIG d   1      -2.737  77.858 112.508  0.00  0.00    -0.047 C 
ATOM      6  C   LIG d   1      -3.103  77.799 114.009  0.00  0.00     0.091 C 
ENDROOT
BRANCH   1   7
ATOM      7  O   LIG d   1      -2.335  78.517 116.222  0.00  0.00    -0.368 OA
BRANCH   7   8
ATOM      8  C   LIG d   1      -1.816  77.724 117.318  0.00  0.00     0.119 C 
BRANCH   8   9
ATOM      9  C   LIG d   1      -0.740  76.784 116.740  0.00  0.00     0.028 C 
ATOM     10  C   LIG d   1       0.667  77.109 117.268  0.00  0.00     0.006 C 
ENDBRANCH   8   9
BRANCH   8  11
ATOM     11  C   LIG d   1      -2.892  76.801 117.897  0.00  0.00     0.028 C 
ATOM     12  C   LIG d   1      -2.579  75.312 117.681  0.00  0.00     0.006 C 
ENDBRANCH   8  11
ENDBRANCH   7   8
ENDBRANCH   1   7
BRANCH   6  13
ATOM     13  N   LIG d   1      -3.600  76.460 114.419  0.00  0.00    -0.311 N 
ATOM     14  C   LIG d   1      -4.891  76.137 114.457  0.00  0.00     0.210 C 
ATOM     15  C   LIG d   1      -5.188  74.710 114.928  0.00  0.00     0.109 C 
ATOM     16  O   LIG d   1      -5.818  76.887 114.114  0.00  0.00    -0.276 OA
ATOM     17  H   LIG d   1      -2.914  75.780 114.683  0.00  0.00     0.149 HD
ENDBRANCH   6  13
BRANCH   5  18
ATOM     18  N   LIG d   1      -3.898  77.651 111.621  0.00  0.00     0.381 N 
ATOM     19  H   LIG d   1      -3.627  77.097 110.833  0.00  0.00    -0.090 HD
ATOM     20  H   LIG d   1      -4.214  78.543 111.286  0.00  0.00    -0.090 HD
ATOM     21  H   LIG d   1      -4.631  77.196 112.120  0.00  0.00    -0.090 HD
ENDBRANCH   5  18
BRANCH   3  22
ATOM     22  C   LIG d   1      -0.124  80.444 112.568  0.00  0.00     0.382 C 
ATOM     23  O   LIG d   1       0.037  80.568 111.330  0.00  0.00    -0.241 OA
ATOM     24  O   LIG d   1       0.642  81.040 113.349  0.00  0.00    -0.241 OA
ENDBRANCH   3  22
TORSDOF 7
ENDMDL
