MODEL 1
REMARK VINA RESULT:      -5.4      0.000      0.000
REMARK  7 active torsions:
REMARK  status: ('A' for Active; 'I' for Inactive)
REMARK    1  A    between atoms: C_2  and  C_3 
REMARK    2  A    between atoms: C_3  and  O_6 
REMARK    3  A    between atoms: C_3  and  C_4 
REMARK    4  A    between atoms: C_7  and  O_6 
REMARK    5  A    between atoms: C_9  and  C_10 
REMARK    6  A    between atoms: N_15  and  C_14 
REMARK    7  A    between atoms: N_20  and  C_19 
REMARK       I    between atoms: C_22  and  N_20 
ROOT
ATOM      1  C   LIG d   1      -2.694  77.355 115.881  0.00  0.00     0.161 C 
ATOM      2  C   LIG d   1      -3.116  77.821 114.624  0.00  0.00     0.016 C 
ATOM      3  C   LIG d   1      -2.332  77.718 113.452  0.00  0.00     0.038 C 
ATOM      4  C   LIG d   1      -1.126  77.001 113.428  0.00  0.00     0.028 C 
ATOM      5  C   LIG d   1      -0.424  76.951 114.780  0.00  0.00    -0.047 C 
ATOM      6  C   LIG d   1      -1.430  76.471 115.851  0.00  0.00     0.091 C 
ENDROOT
BRANCH   1   7
ATOM      7  O   LIG d   1      -3.776  76.660 116.533  0.00  0.00    -0.368 OA
BRANCH   7   8
ATOM      8  C   LIG d   1      -5.024  76.593 115.800  0.00  0.00     0.119 C 
BRANCH   8   9
ATOM      9  C   LIG d   1      -6.140  77.088 116.740  0.00  0.00     0.028 C 
ATOM     10  C   LIG d   1      -5.974  78.570 117.117  0.00  0.00     0.006 C 
ENDBRANCH   8   9
BRANCH   8  11
ATOM     11  C   LIG d   1      -5.393  75.146 115.460  0.00  0.00     0.028 C 
ATOM     12  C   LIG d   1      -5.369  74.865 113.949  0.00  0.00     0.006 C 
ENDBRANCH   8  11
ENDBRANCH   7   8
ENDBRANCH   1   7
BRANCH   6  13
ATOM     13  N   LIG d   1      -0.847  76.474 117.218  0.00  0.00    -0.311 N 
ATOM     14  C   LIG d   1      -0.767  75.386 117.983  0.00  0.00     0.210 C 
ATOM     15  C   LIG d   1      -0.149  75.613 119.367  0.00  0.00     0.109 C 
ATOM     16  O   LIG d   1      -1.120  74.249 117.635  0.00  0.00    -0.276 OA
ATOM     17  H   LIG d   1      -0.508  77.348 117.568  0.00  0.00     0.149 HD
ENDBRANCH   6  13
BRANCH   5  18
ATOM     18  N   LIG d   1       0.744  76.061 114.643  0.00  0.00     0.381 N 
ATOM     19  H   LIG d   1       0.438  75.114 114.537  0.00  0.00    -0.090 HD
ATOM     20  H   LIG d   1       1.299  76.121 115.479  0.00  0.00    -0.090 HD
ATOM     21  H   LIG d   1       1.289  76.331 113.854  0.00  0.00    -0.090 HD
ENDBRANCH   5  18
BRANCH   3  22
ATOM     22  C   LIG d   1      -2.734  78.371 112.297  0.00  0.00     0.382 C 
ATOM     23  O   LIG d   1      -3.778  78.009 111.703  0.00  0.00    -0.241 OA
ATOM     24  O   LIG d   1      -2.042  79.289 111.817  0.00  0.00    -0.241 OA
ENDBRANCH   3  22
TORSDOF 7
ENDMDL
MODEL 2
REMARK VINA RESULT:      -5.3      1.981      2.841
REMARK  7 active torsions:
REMARK  status: ('A' for Active; 'I' for Inactive)
REMARK    1  A    between atoms: C_2  and  C_3 
REMARK    2  A    between atoms: C_3  and  O_6 
REMARK    3  A    between atoms: C_3  and  C_4 
REMARK    4  A    between atoms: C_7  and  O_6 
REMARK    5  A    between atoms: C_9  and  C_10 
REMARK    6  A    between atoms: N_15  and  C_14 
REMARK    7  A    between atoms: N_20  and  C_19 
REMARK       I    between atoms: C_22  and  N_20 
ROOT
ATOM      1  C   LIG d   1      -3.005  78.441 115.139  0.00  0.00     0.161 C 
ATOM      2  C   LIG d   1      -3.017  79.572 114.306  0.00  0.00     0.016 C 
ATOM      3  C   LIG d   1      -2.206  79.699 113.155  0.00  0.00     0.038 C 
ATOM      4  C   LIG d   1      -1.433  78.633 112.671  0.00  0.00     0.028 C 
ATOM      5  C   LIG d   1      -1.005  77.653 113.758  0.00  0.00    -0.047 C 
ATOM      6  C   LIG d   1      -2.251  77.223 114.566  0.00  0.00     0.091 C 
ENDROOT
BRANCH   1   7
ATOM      7  O   LIG d   1      -4.355  78.077 115.486  0.00  0.00    -0.368 OA
BRANCH   7   8
ATOM      8  C   LIG d   1      -4.710  78.202 116.886  0.00  0.00     0.119 C 
BRANCH   8   9
ATOM      9  C   LIG d   1      -5.974  77.352 117.121  0.00  0.00     0.028 C 
ATOM     10  C   LIG d   1      -6.266  76.399 115.951  0.00  0.00     0.006 C 
ENDBRANCH   8   9
BRANCH   8  11
ATOM     11  C   LIG d   1      -5.116  79.637 117.232  0.00  0.00     0.028 C 
ATOM     12  C   LIG d   1      -6.574  79.747 117.704  0.00  0.00     0.006 C 
ENDBRANCH   8  11
ENDBRANCH   7   8
ENDBRANCH   1   7
BRANCH   6  13
ATOM     13  N   LIG d   1      -1.909  76.330 115.703  0.00  0.00    -0.311 N 
ATOM     14  C   LIG d   1      -2.438  75.119 115.869  0.00  0.00     0.210 C 
ATOM     15  C   LIG d   1      -1.964  74.371 117.119  0.00  0.00     0.109 C 
ATOM     16  O   LIG d   1      -3.231  74.580 115.082  0.00  0.00    -0.276 OA
ATOM     17  H   LIG d   1      -1.250  76.676 116.373  0.00  0.00     0.149 HD
ENDBRANCH   6  13
BRANCH   5  18
ATOM     18  N   LIG d   1      -0.326  76.522 113.097  0.00  0.00     0.381 N 
ATOM     19  H   LIG d   1      -1.006  75.886 112.732  0.00  0.00    -0.090 HD
ATOM     20  H   LIG d   1       0.230  76.034 113.777  0.00  0.00    -0.090 HD
ATOM     21  H   LIG d   1       0.256  76.857 112.361  0.00  0.00    -0.090 HD
ENDBRANCH   5  18
BRANCH   3  22
ATOM     22  C   LIG d   1      -2.132  80.917 112.497  0.00  0.00     0.382 C 
ATOM     23  O   LIG d   1      -1.060  81.270 111.948  0.00  0.00    -0.241 OA
ATOM     24  O   LIG d   1      -3.110  81.688 112.483  0.00  0.00    -0.241 OA
ENDBRANCH   3  22
TORSDOF 7
ENDMDL
MODEL 3
REMARK VINA RESULT:      -5.1      2.716      4.476
REMARK  7 active torsions:
REMARK  status: ('A' for Active; 'I' for Inactive)
REMARK    1  A    between atoms: C_2  and  C_3 
REMARK    2  A    between atoms: C_3  and  O_6 
REMARK    3  A    between atoms: C_3  and  C_4 
REMARK    4  A    between atoms: C_7  and  O_6 
REMARK    5  A    between atoms: C_9  and  C_10 
REMARK    6  A    between atoms: N_15  and  C_14 
REMARK    7  A    between atoms: N_20  and  C_19 
REMARK       I    between atoms: C_22  and  N_20 
ROOT
ATOM      1  C   LIG d   1      -1.487  77.684 113.300  0.00  0.00     0.161 C 
ATOM      2  C   LIG d   1      -2.065  78.964 113.272  0.00  0.00     0.016 C 
ATOM      3  C   LIG d   1      -1.879  79.878 112.209  0.00  0.00     0.038 C 
ATOM      4  C   LIG d   1      -1.222  79.514 111.024  0.00  0.00     0.028 C 
ATOM      5  C   LIG d   1      -0.193  78.405 111.219  0.00  0.00    -0.047 C 
ATOM      6  C   LIG d   1      -0.859  77.228 111.967  0.00  0.00     0.091 C 
ENDROOT
BRANCH   1   7
ATOM      7  O   LIG d   1      -2.459  76.720 113.752  0.00  0.00    -0.368 OA
BRANCH   7   8
ATOM      8  C   LIG d   1      -2.449  76.421 115.170  0.00  0.00     0.119 C 
BRANCH   8   9
ATOM      9  C   LIG d   1      -1.090  75.773 115.497  0.00  0.00     0.028 C 
ATOM     10  C   LIG d   1      -1.186  74.244 115.630  0.00  0.00     0.006 C 
ENDBRANCH   8   9
BRANCH   8  11
ATOM     11  C   LIG d   1      -3.499  75.363 115.523  0.00  0.00     0.028 C 
ATOM     12  C   LIG d   1      -4.637  75.286 114.494  0.00  0.00     0.006 C 
ENDBRANCH   8  11
ENDBRANCH   7   8
ENDBRANCH   1   7
BRANCH   6  13
ATOM     13  N   LIG d   1       0.100  76.135 112.272  0.00  0.00    -0.311 N 
ATOM     14  C   LIG d   1       0.497  75.235 111.373  0.00  0.00     0.210 C 
ATOM     15  C   LIG d   1       1.475  74.181 111.902  0.00  0.00     0.109 C 
ATOM     16  O   LIG d   1       0.157  75.229 110.181  0.00  0.00    -0.276 OA
ATOM     17  H   LIG d   1       0.451  76.084 113.208  0.00  0.00     0.149 HD
ENDBRANCH   6  13
BRANCH   5  18
ATOM     18  N   LIG d   1       0.315  78.030 109.885  0.00  0.00     0.381 N 
ATOM     19  H   LIG d   1       1.306  77.904 109.924  0.00  0.00    -0.090 HD
ATOM     20  H   LIG d   1       0.116  78.774 109.240  0.00  0.00    -0.090 HD
ATOM     21  H   LIG d   1      -0.122  77.189 109.578  0.00  0.00    -0.090 HD
ENDBRANCH   5  18
BRANCH   3  22
ATOM     22  C   LIG d   1      -2.319  81.186 112.343  0.00  0.00     0.382 C 
ATOM     23  O   LIG d   1      -3.535  81.420 112.545  0.00  0.00    -0.241 OA
ATOM     24  O   LIG d   1      -1.524  82.136 112.220  0.00  0.00    -0.241 OA
ENDBRANCH   3  22
TORSDOF 7
ENDMDL
MODEL 4
REMARK VINA RESULT:      -5.1      1.740      5.054
REMARK  7 active torsions:
REMARK  status: ('A' for Active; 'I' for Inactive)
REMARK    1  A    between atoms: C_2  and  C_3 
REMARK    2  A    between atoms: C_3  and  O_6 
REMARK    3  A    between atoms: C_3  and  C_4 
REMARK    4  A    between atoms: C_7  and  O_6 
REMARK    5  A    between atoms: C_9  and  C_10 
REMARK    6  A    between atoms: N_15  and  C_14 
REMARK    7  A    between atoms: N_20  and  C_19 
REMARK       I    between atoms: C_22  and  N_20 
ROOT
ATOM      1  C   LIG d   1      -1.552  75.932 115.070  0.00  0.00     0.161 C 
ATOM      2  C   LIG d   1      -1.358  75.567 116.412  0.00  0.00     0.016 C 
ATOM      3  C   LIG d   1      -0.700  76.391 117.355  0.00  0.00     0.038 C 
ATOM      4  C   LIG d   1      -0.322  77.707 117.053  0.00  0.00     0.028 C 
ATOM      5  C   LIG d   1      -0.044  77.933 115.571  0.00  0.00    -0.047 C 
ATOM      6  C   LIG d   1      -1.245  77.410 114.750  0.00  0.00     0.091 C 
ENDROOT
BRANCH   1   7
ATOM      7  O   LIG d   1      -2.893  75.599 114.662  0.00  0.00    -0.368 OA
BRANCH   7   8
ATOM      8  C   LIG d   1      -3.882  75.531 115.719  0.00  0.00     0.119 C 
BRANCH   8   9
ATOM      9  C   LIG d   1      -4.960  74.521 115.279  0.00  0.00     0.028 C 
ATOM     10  C   LIG d   1      -5.543  74.850 113.895  0.00  0.00     0.006 C 
ENDBRANCH   8   9
BRANCH   8  11
ATOM     11  C   LIG d   1      -4.617  76.865 115.880  0.00  0.00     0.028 C 
ATOM     12  C   LIG d   1      -4.379  77.514 117.253  0.00  0.00     0.006 C 
ENDBRANCH   8  11
ENDBRANCH   7   8
ENDBRANCH   1   7
BRANCH   6  13
ATOM     13  N   LIG d   1      -1.019  77.516 113.285  0.00  0.00    -0.311 N 
ATOM     14  C   LIG d   1      -1.942  77.955 112.431  0.00  0.00     0.210 C 
ATOM     15  C   LIG d   1      -1.510  77.966 110.961  0.00  0.00     0.109 C 
ATOM     16  O   LIG d   1      -3.066  78.367 112.754  0.00  0.00    -0.276 OA
ATOM     17  H   LIG d   1      -0.123  77.232 112.940  0.00  0.00     0.149 HD
ENDBRANCH   6  13
BRANCH   5  18
ATOM     18  N   LIG d   1       0.203  79.375 115.378  0.00  0.00     0.381 N 
ATOM     19  H   LIG d   1       0.999  79.506 114.787  0.00  0.00    -0.090 HD
ATOM     20  H   LIG d   1       0.401  79.793 116.271  0.00  0.00    -0.090 HD
ATOM     21  H   LIG d   1      -0.597  79.807 114.971  0.00  0.00    -0.090 HD
ENDBRANCH   5  18
BRANCH   3  22
ATOM     22  C   LIG d   1      -0.378  75.883 118.604  0.00  0.00     0.382 C 
ATOM     23  O   LIG d   1       0.390  76.523 119.362  0.00  0.00    -0.241 OA
ATOM     24  O   LIG d   1      -0.810  74.772 118.965  0.00  0.00    -0.241 OA
ENDBRANCH   3  22
TORSDOF 7
ENDMDL
MODEL 5
REMARK VINA RESULT:      -5.0      2.040      5.005
REMARK  7 active torsions:
REMARK  status: ('A' for Active; 'I' for Inactive)
REMARK    1  A    between atoms: C_2  and  C_3 
REMARK    2  A    between atoms: C_3  and  O_6 
REMARK    3  A    between atoms: C_3  and  C_4 
REMARK    4  A    between atoms: C_7  and  O_6 
REMARK    5  A    between atoms: C_9  and  C_10 
REMARK    6  A    between atoms: N_15  and  C_14 
REMARK    7  A    between atoms: N_20  and  C_19 
REMARK       I    between atoms: C_22  and  N_20 
ROOT
ATOM      1  C   LIG d   1      -2.818  77.137 115.156  0.00  0.00     0.161 C 
ATOM      2  C   LIG d   1      -2.559  77.107 116.536  0.00  0.00     0.016 C 
ATOM      3  C   LIG d   1      -1.517  77.840 117.148  0.00  0.00     0.038 C 
ATOM      4  C   LIG d   1      -0.753  78.777 116.437  0.00  0.00     0.028 C 
ATOM      5  C   LIG d   1      -0.647  78.467 114.947  0.00  0.00    -0.047 C 
ATOM      6  C   LIG d   1      -2.066  78.238 114.380  0.00  0.00     0.091 C 
ENDROOT
BRANCH   1   7
ATOM      7  O   LIG d   1      -4.238  77.243 114.927  0.00  0.00    -0.368 OA
BRANCH   7   8
ATOM      8  C   LIG d   1      -5.046  76.143 115.413  0.00  0.00     0.119 C 
BRANCH   8   9
ATOM      9  C   LIG d   1      -5.414  75.268 114.199  0.00  0.00     0.028 C 
ATOM     10  C   LIG d   1      -6.154  76.060 113.108  0.00  0.00     0.006 C 
ENDBRANCH   8   9
BRANCH   8  11
ATOM     11  C   LIG d   1      -6.381  76.638 115.976  0.00  0.00     0.028 C 
ATOM     12  C   LIG d   1      -6.213  77.785 116.985  0.00  0.00     0.006 C 
ENDBRANCH   8  11
ENDBRANCH   7   8
ENDBRANCH   1   7
BRANCH   6  13
ATOM     13  N   LIG d   1      -2.048  77.846 112.947  0.00  0.00    -0.311 N 
ATOM     14  C   LIG d   1      -2.202  78.713 111.947  0.00  0.00     0.210 C 
ATOM     15  C   LIG d   1      -2.170  78.097 110.545  0.00  0.00     0.109 C 
ATOM     16  O   LIG d   1      -2.331  79.939 112.088  0.00  0.00    -0.276 OA
ATOM     17  H   LIG d   1      -1.917  76.875 112.741  0.00  0.00     0.149 HD
ENDBRANCH   6  13
BRANCH   5  18
ATOM     18  N   LIG d   1       0.058  79.593 114.306  0.00  0.00     0.381 N 
ATOM     19  H   LIG d   1       1.025  79.366 114.191  0.00  0.00    -0.090 HD
ATOM     20  H   LIG d   1      -0.008  80.399 114.903  0.00  0.00    -0.090 HD
ATOM     21  H   LIG d   1      -0.352  79.792 113.420  0.00  0.00    -0.090 HD
ENDBRANCH   5  18
BRANCH   3  22
ATOM     22  C   LIG d   1      -1.204  77.610 118.479  0.00  0.00     0.382 C 
ATOM     23  O   LIG d   1      -0.004  77.516 118.834  0.00  0.00    -0.241 OA
ATOM     24  O   LIG d   1      -2.107  77.450 119.322  0.00  0.00    -0.241 OA
ENDBRANCH   3  22
TORSDOF 7
ENDMDL
MODEL 6
REMARK VINA RESULT:      -4.9      2.141      2.838
REMARK  7 active torsions:
REMARK  status: ('A' for Active; 'I' for Inactive)
REMARK    1  A    between atoms: C_2  and  C_3 
REMARK    2  A    between atoms: C_3  and  O_6 
REMARK    3  A    between atoms: C_3  and  C_4 
REMARK    4  A    between atoms: C_7  and  O_6 
REMARK    5  A    between atoms: C_9  and  C_10 
REMARK    6  A    between atoms: N_15  and  C_14 
REMARK    7  A    between atoms: N_20  and  C_19 
REMARK       I    between atoms: C_22  and  N_20 
ROOT
ATOM      1  C   LIG d   1      -2.402  77.170 114.357  0.00  0.00     0.161 C 
ATOM      2  C   LIG d   1      -2.507  77.251 112.959  0.00  0.00     0.016 C 
ATOM      3  C   LIG d   1      -1.721  78.121 112.169  0.00  0.00     0.038 C 
ATOM      4  C   LIG d   1      -0.664  78.865 112.713  0.00  0.00     0.028 C 
ATOM      5  C   LIG d   1      -0.852  79.195 114.190  0.00  0.00    -0.047 C 
ATOM      6  C   LIG d   1      -1.178  77.893 114.957  0.00  0.00     0.091 C 
ENDROOT
BRANCH   1   7
ATOM      7  O   LIG d   1      -2.421  75.789 114.769  0.00  0.00    -0.368 OA
BRANCH   7   8
ATOM      8  C   LIG d   1      -3.434  75.426 115.739  0.00  0.00     0.119 C 
BRANCH   8   9
ATOM      9  C   LIG d   1      -2.780  74.475 116.759  0.00  0.00     0.028 C 
ATOM     10  C   LIG d   1      -1.250  74.417 116.610  0.00  0.00     0.006 C 
ENDBRANCH   8   9
BRANCH   8  11
ATOM     11  C   LIG d   1      -4.560  74.614 115.091  0.00  0.00     0.028 C 
ATOM     12  C   LIG d   1      -5.953  75.205 115.361  0.00  0.00     0.006 C 
ENDBRANCH   8  11
ENDBRANCH   7   8
ENDBRANCH   1   7
BRANCH   6  13
ATOM     13  N   LIG d   1      -1.461  78.138 116.395  0.00  0.00    -0.311 N 
ATOM     14  C   LIG d   1      -0.528  78.083 117.345  0.00  0.00     0.210 C 
ATOM     15  C   LIG d   1      -1.037  78.348 118.766  0.00  0.00     0.109 C 
ATOM     16  O   LIG d   1       0.677  77.871 117.142  0.00  0.00    -0.276 OA
ATOM     17  H   LIG d   1      -2.407  78.347 116.645  0.00  0.00     0.149 HD
ENDBRANCH   6  13
BRANCH   5  18
ATOM     18  N   LIG d   1       0.382  79.850 114.662  0.00  0.00     0.381 N 
ATOM     19  H   LIG d   1       0.320  80.837 114.512  0.00  0.00    -0.090 HD
ATOM     20  H   LIG d   1       1.160  79.499 114.131  0.00  0.00    -0.090 HD
ATOM     21  H   LIG d   1       0.519  79.662 115.630  0.00  0.00    -0.090 HD
ENDBRANCH   5  18
BRANCH   3  22
ATOM     22  C   LIG d   1      -2.016  78.284 110.823  0.00  0.00     0.382 C 
ATOM     23  O   LIG d   1      -1.228  78.917 110.081  0.00  0.00    -0.241 OA
ATOM     24  O   LIG d   1      -3.082  77.842 110.353  0.00  0.00    -0.241 OA
ENDBRANCH   3  22
TORSDOF 7
ENDMDL
MODEL 7
REMARK VINA RESULT:      -4.7      2.458      5.130
REMARK  7 active torsions:
REMARK  status: ('A' for Active; 'I' for Inactive)
REMARK    1  A    between atoms: C_2  and  C_3 
REMARK    2  A    between atoms: C_3  and  O_6 
REMARK    3  A    between atoms: C_3  and  C_4 
REMARK    4  A    between atoms: C_7  and  O_6 
REMARK    5  A    between atoms: C_9  and  C_10 
REMARK    6  A    between atoms: N_15  and  C_14 
REMARK    7  A    between atoms: N_20  and  C_19 
REMARK       I    between atoms: C_22  and  N_20 
ROOT
ATOM      1  C   LIG d   1      -3.001  78.090 115.827  0.00  0.00     0.161 C 
ATOM      2  C   LIG d   1      -1.722  78.350 116.347  0.00  0.00     0.016 C 
ATOM      3  C   LIG d   1      -0.891  77.351 116.904  0.00  0.00     0.038 C 
ATOM      4  C   LIG d   1      -1.224  75.990 116.843  0.00  0.00     0.028 C 
ATOM      5  C   LIG d   1      -2.727  75.736 116.782  0.00  0.00    -0.047 C 
ATOM      6  C   LIG d   1      -3.336  76.595 115.650  0.00  0.00     0.091 C 
ENDROOT
BRANCH   1   7
ATOM      7  O   LIG d   1      -3.174  78.793 114.581  0.00  0.00    -0.368 OA
BRANCH   7   8
ATOM      8  C   LIG d   1      -2.157  78.566 113.574  0.00  0.00     0.119 C 
BRANCH   8   9
ATOM      9  C   LIG d   1      -1.618  79.944 113.142  0.00  0.00     0.028 C 
ATOM     10  C   LIG d   1      -2.743  80.923 112.768  0.00  0.00     0.006 C 
ENDBRANCH   8   9
BRANCH   8  11
ATOM     11  C   LIG d   1      -2.756  77.949 112.307  0.00  0.00     0.028 C 
ATOM     12  C   LIG d   1      -1.755  77.893 111.142  0.00  0.00     0.006 C 
ENDBRANCH   8  11
ENDBRANCH   7   8
ENDBRANCH   1   7
BRANCH   6  13
ATOM     13  N   LIG d   1      -4.815  76.470 115.577  0.00  0.00    -0.311 N 
ATOM     14  C   LIG d   1      -5.456  75.944 114.535  0.00  0.00     0.210 C 
ATOM     15  C   LIG d   1      -6.983  75.929 114.655  0.00  0.00     0.109 C 
ATOM     16  O   LIG d   1      -4.904  75.459 113.536  0.00  0.00    -0.276 OA
ATOM     17  H   LIG d   1      -5.340  76.810 116.359  0.00  0.00     0.149 HD
ENDBRANCH   6  13
BRANCH   5  18
ATOM     18  N   LIG d   1      -2.927  74.289 116.582  0.00  0.00     0.381 N 
ATOM     19  H   LIG d   1      -2.225  73.778 117.080  0.00  0.00    -0.090 HD
ATOM     20  H   LIG d   1      -2.834  74.080 115.604  0.00  0.00    -0.090 HD
ATOM     21  H   LIG d   1      -3.832  74.022 116.902  0.00  0.00    -0.090 HD
ENDBRANCH   5  18
BRANCH   3  22
ATOM     22  C   LIG d   1       0.270  77.716 117.568  0.00  0.00     0.382 C 
ATOM     23  O   LIG d   1       1.095  78.483 117.015  0.00  0.00    -0.241 OA
ATOM     24  O   LIG d   1       0.525  77.252 118.696  0.00  0.00    -0.241 OA
ENDBRANCH   3  22
TORSDOF 7
ENDMDL
MODEL 8
REMARK VINA RESULT:      -4.7      2.011      2.970
REMARK  7 active torsions:
REMARK  status: ('A' for Active; 'I' for Inactive)
REMARK    1  A    between atoms: C_2  and  C_3 
REMARK    2  A    between atoms: C_3  and  O_6 
REMARK    3  A    between atoms: C_3  and  C_4 
REMARK    4  A    between atoms: C_7  and  O_6 
REMARK    5  A    between atoms: C_9  and  C_10 
REMARK    6  A    between atoms: N_15  and  C_14 
REMARK    7  A    between atoms: N_20  and  C_19 
REMARK       I    between atoms: C_22  and  N_20 
ROOT
ATOM      1  C   LIG d   1      -1.441  76.763 115.198  0.00  0.00     0.161 C 
ATOM      2  C   LIG d   1      -2.102  77.173 114.029  0.00  0.00     0.016 C 
ATOM      3  C   LIG d   1      -1.825  78.390 113.364  0.00  0.00     0.038 C 
ATOM      4  C   LIG d   1      -0.754  79.214 113.741  0.00  0.00     0.028 C 
ATOM      5  C   LIG d   1      -0.385  79.090 115.216  0.00  0.00    -0.047 C 
ATOM      6  C   LIG d   1      -0.194  77.596 115.562  0.00  0.00     0.091 C 
ENDROOT
BRANCH   1   7
ATOM      7  O   LIG d   1      -1.100  75.366 115.102  0.00  0.00    -0.368 OA
BRANCH   7   8
ATOM      8  C   LIG d   1      -1.870  74.464 115.934  0.00  0.00     0.119 C 
BRANCH   8   9
ATOM      9  C   LIG d   1      -3.174  75.189 116.320  0.00  0.00     0.028 C 
ATOM     10  C   LIG d   1      -4.409  74.581 115.634  0.00  0.00     0.006 C 
ENDBRANCH   8   9
BRANCH   8  11
ATOM     11  C   LIG d   1      -1.156  74.180 117.259  0.00  0.00     0.028 C 
ATOM     12  C   LIG d   1      -2.025  74.501 118.485  0.00  0.00     0.006 C 
ENDBRANCH   8  11
ENDBRANCH   7   8
ENDBRANCH   1   7
BRANCH   6  13
ATOM     13  N   LIG d   1       0.087  77.380 117.005  0.00  0.00    -0.311 N 
ATOM     14  C   LIG d   1      -0.681  77.861 117.981  0.00  0.00     0.210 C 
ATOM     15  C   LIG d   1      -0.201  77.538 119.400  0.00  0.00     0.109 C 
ATOM     16  O   LIG d   1      -1.732  78.496 117.806  0.00  0.00    -0.276 OA
ATOM     17  H   LIG d   1       0.903  76.848 117.236  0.00  0.00     0.149 HD
ENDBRANCH   6  13
BRANCH   5  18
ATOM     18  N   LIG d   1       0.829  79.896 115.441  0.00  0.00     0.381 N 
ATOM     19  H   LIG d   1       0.831  80.252 116.376  0.00  0.00    -0.090 HD
ATOM     20  H   LIG d   1       0.824  80.676 114.806  0.00  0.00    -0.090 HD
ATOM     21  H   LIG d   1       1.641  79.339 115.288  0.00  0.00    -0.090 HD
ENDBRANCH   5  18
BRANCH   3  22
ATOM     22  C   LIG d   1      -2.649  78.813 112.332  0.00  0.00     0.382 C 
ATOM     23  O   LIG d   1      -3.566  78.064 111.915  0.00  0.00    -0.241 OA
ATOM     24  O   LIG d   1      -2.460  79.915 111.783  0.00  0.00    -0.241 OA
ENDBRANCH   3  22
TORSDOF 7
ENDMDL
MODEL 9
REMARK VINA RESULT:      -4.6      2.438      4.699
REMARK  7 active torsions:
REMARK  status: ('A' for Active; 'I' for Inactive)
REMARK    1  A    between atoms: C_2  and  C_3 
REMARK    2  A    between atoms: C_3  and  O_6 
REMARK    3  A    between atoms: C_3  and  C_4 
REMARK    4  A    between atoms: C_7  and  O_6 
REMARK    5  A    between atoms: C_9  and  C_10 
REMARK    6  A    between atoms: N_15  and  C_14 
REMARK    7  A    between atoms: N_20  and  C_19 
REMARK       I    between atoms: C_22  and  N_20 
ROOT
ATOM      1  C   LIG d   1      -2.587  77.455 114.412  0.00  0.00     0.161 C 
ATOM      2  C   LIG d   1      -3.646  76.586 114.099  0.00  0.00     0.016 C 
ATOM      3  C   LIG d   1      -4.383  75.874 115.073  0.00  0.00     0.038 C 
ATOM      4  C   LIG d   1      -4.208  76.100 116.446  0.00  0.00     0.028 C 
ATOM      5  C   LIG d   1      -2.809  76.590 116.806  0.00  0.00    -0.047 C 
ATOM      6  C   LIG d   1      -2.455  77.799 115.910  0.00  0.00     0.091 C 
ENDROOT
BRANCH   1   7
ATOM      7  O   LIG d   1      -2.696  78.660 113.629  0.00  0.00    -0.368 OA
BRANCH   7   8
ATOM      8  C   LIG d   1      -1.661  78.871 112.637  0.00  0.00     0.119 C 
BRANCH   8   9
ATOM      9  C   LIG d   1      -1.505  80.392 112.447  0.00  0.00     0.028 C 
ATOM     10  C   LIG d   1      -2.825  81.149 112.669  0.00  0.00     0.006 C 
ENDBRANCH   8   9
BRANCH   8  11
ATOM     11  C   LIG d   1      -2.084  78.332 111.267  0.00  0.00     0.028 C 
ATOM     12  C   LIG d   1      -1.021  77.422 110.631  0.00  0.00     0.006 C 
ENDBRANCH   8  11
ENDBRANCH   7   8
ENDBRANCH   1   7
BRANCH   6  13
ATOM     13  N   LIG d   1      -1.070  78.287 116.139  0.00  0.00    -0.311 N 
ATOM     14  C   LIG d   1      -0.762  79.228 117.029  0.00  0.00     0.210 C 
ATOM     15  C   LIG d   1       0.723  79.599 117.091  0.00  0.00     0.109 C 
ATOM     16  O   LIG d   1      -1.573  79.768 117.796  0.00  0.00    -0.276 OA
ATOM     17  H   LIG d   1      -0.345  77.880 115.581  0.00  0.00     0.149 HD
ENDBRANCH   6  13
BRANCH   5  18
ATOM     18  N   LIG d   1      -2.807  76.916 118.245  0.00  0.00     0.381 N 
ATOM     19  H   LIG d   1      -1.881  76.823 118.612  0.00  0.00    -0.090 HD
ATOM     20  H   LIG d   1      -3.404  76.266 118.726  0.00  0.00    -0.090 HD
ATOM     21  H   LIG d   1      -3.136  77.846 118.384  0.00  0.00    -0.090 HD
ENDBRANCH   5  18
BRANCH   3  22
ATOM     22  C   LIG d   1      -5.280  74.895 114.676  0.00  0.00     0.382 C 
ATOM     23  O   LIG d   1      -6.144  74.472 115.481  0.00  0.00    -0.241 OA
ATOM     24  O   LIG d   1      -5.208  74.396 113.536  0.00  0.00    -0.241 OA
ENDBRANCH   3  22
TORSDOF 7
ENDMDL
