MODEL 1
REMARK VINA RESULT:      -5.0      0.000      0.000
REMARK  7 active torsions:
REMARK  status: ('A' for Active; 'I' for Inactive)
REMARK    1  A    between atoms: C_2  and  C_3 
REMARK    2  A    between atoms: C_3  and  O_6 
REMARK    3  A    between atoms: C_3  and  C_4 
REMARK    4  A    between atoms: C_7  and  O_6 
REMARK    5  A    between atoms: C_9  and  C_10 
REMARK    6  A    between atoms: N_15  and  C_14 
REMARK    7  A    between atoms: N_20  and  C_19 
REMARK       I    between atoms: C_22  and  N_20 
ROOT
ATOM      1  C   LIG d   1      -3.491  79.186 115.595  0.00  0.00     0.161 C 
ATOM      2  C   LIG d   1      -3.240  80.195 114.650  0.00  0.00     0.016 C 
ATOM      3  C   LIG d   1      -2.311  80.058 113.593  0.00  0.00     0.038 C 
ATOM      4  C   LIG d   1      -1.674  78.838 113.319  0.00  0.00     0.028 C 
ATOM      5  C   LIG d   1      -1.516  77.948 114.547  0.00  0.00    -0.047 C 
ATOM      6  C   LIG d   1      -2.888  77.809 115.247  0.00  0.00     0.091 C 
ENDROOT
BRANCH   1   7
ATOM      7  O   LIG d   1      -4.909  79.070 115.820  0.00  0.00    -0.368 OA
BRANCH   7   8
ATOM      8  C   LIG d   1      -5.376  79.428 117.144  0.00  0.00     0.119 C 
BRANCH   8   9
ATOM      9  C   LIG d   1      -6.784  78.826 117.318  0.00  0.00     0.028 C 
ATOM     10  C   LIG d   1      -6.836  77.337 116.935  0.00  0.00     0.006 C 
ENDBRANCH   8   9
BRANCH   8  11
ATOM     11  C   LIG d   1      -5.564  80.942 117.278  0.00  0.00     0.028 C 
ATOM     12  C   LIG d   1      -7.042  81.362 117.281  0.00  0.00     0.006 C 
ENDBRANCH   8  11
ENDBRANCH   7   8
ENDBRANCH   1   7
BRANCH   6  13
ATOM     13  N   LIG d   1      -2.806  77.023 116.505  0.00  0.00    -0.311 N 
ATOM     14  C   LIG d   1      -3.434  75.862 116.687  0.00  0.00     0.210 C 
ATOM     15  C   LIG d   1      -3.232  75.227 118.066  0.00  0.00     0.109 C 
ATOM     16  O   LIG d   1      -4.113  75.283 115.825  0.00  0.00    -0.276 OA
ATOM     17  H   LIG d   1      -2.250  77.404 117.246  0.00  0.00     0.149 HD
ENDBRANCH   6  13
BRANCH   5  18
ATOM     18  N   LIG d   1      -0.965  76.657 114.095  0.00  0.00     0.381 N 
ATOM     19  H   LIG d   1      -1.660  75.943 114.181  0.00  0.00    -0.090 HD
ATOM     20  H   LIG d   1      -0.187  76.412 114.681  0.00  0.00    -0.090 HD
ATOM     21  H   LIG d   1      -0.667  76.727 113.147  0.00  0.00    -0.090 HD
ENDBRANCH   5  18
BRANCH   3  22
ATOM     22  C   LIG d   1      -1.980  81.161 112.821  0.00  0.00     0.382 C 
ATOM     23  O   LIG d   1      -0.801  81.314 112.419  0.00  0.00    -0.241 OA
ATOM     24  O   LIG d   1      -2.835  82.028 112.559  0.00  0.00    -0.241 OA
ENDBRANCH   3  22
TORSDOF 7
ENDMDL
MODEL 2
REMARK VINA RESULT:      -5.0      1.626      2.437
REMARK  7 active torsions:
REMARK  status: ('A' for Active; 'I' for Inactive)
REMARK    1  A    between atoms: C_2  and  C_3 
REMARK    2  A    between atoms: C_3  and  O_6 
REMARK    3  A    between atoms: C_3  and  C_4 
REMARK    4  A    between atoms: C_7  and  O_6 
REMARK    5  A    between atoms: C_9  and  C_10 
REMARK    6  A    between atoms: N_15  and  C_14 
REMARK    7  A    between atoms: N_20  and  C_19 
REMARK       I    between atoms: C_22  and  N_20 
ROOT
ATOM      1  C   LIG d   1      -2.840  79.438 114.457  0.00  0.00     0.161 C 
ATOM      2  C   LIG d   1      -2.380  80.636 113.886  0.00  0.00     0.016 C 
ATOM      3  C   LIG d   1      -1.749  80.705 112.623  0.00  0.00     0.038 C 
ATOM      4  C   LIG d   1      -1.670  79.592 111.772  0.00  0.00     0.028 C 
ATOM      5  C   LIG d   1      -1.667  78.261 112.515  0.00  0.00    -0.047 C 
ATOM      6  C   LIG d   1      -2.862  78.231 113.496  0.00  0.00     0.091 C 
ENDROOT
BRANCH   1   7
ATOM      7  O   LIG d   1      -4.144  79.641 115.036  0.00  0.00    -0.368 OA
BRANCH   7   8
ATOM      8  C   LIG d   1      -4.166  80.075 116.418  0.00  0.00     0.119 C 
BRANCH   8   9
ATOM      9  C   LIG d   1      -3.145  79.218 117.190  0.00  0.00     0.028 C 
ATOM     10  C   LIG d   1      -2.384  80.027 118.254  0.00  0.00     0.006 C 
ENDBRANCH   8   9
BRANCH   8  11
ATOM     11  C   LIG d   1      -5.520  79.782 117.072  0.00  0.00     0.028 C 
ATOM     12  C   LIG d   1      -6.023  78.358 116.786  0.00  0.00     0.006 C 
ENDBRANCH   8  11
ENDBRANCH   7   8
ENDBRANCH   1   7
BRANCH   6  13
ATOM     13  N   LIG d   1      -2.885  76.997 114.324  0.00  0.00    -0.311 N 
ATOM     14  C   LIG d   1      -3.957  76.215 114.445  0.00  0.00     0.210 C 
ATOM     15  C   LIG d   1      -3.772  75.003 115.363  0.00  0.00     0.109 C 
ATOM     16  O   LIG d   1      -5.032  76.393 113.854  0.00  0.00    -0.276 OA
ATOM     17  H   LIG d   1      -2.044  76.760 114.813  0.00  0.00     0.149 HD
ENDBRANCH   6  13
BRANCH   5  18
ATOM     18  N   LIG d   1      -1.720  77.187 111.506  0.00  0.00     0.381 N 
ATOM     19  H   LIG d   1      -0.970  76.543 111.656  0.00  0.00    -0.090 HD
ATOM     20  H   LIG d   1      -1.609  77.592 110.593  0.00  0.00    -0.090 HD
ATOM     21  H   LIG d   1      -2.593  76.709 111.561  0.00  0.00    -0.090 HD
ENDBRANCH   5  18
BRANCH   3  22
ATOM     22  C   LIG d   1      -1.153  81.889 112.216  0.00  0.00     0.382 C 
ATOM     23  O   LIG d   1      -1.864  82.881 111.925  0.00  0.00    -0.241 OA
ATOM     24  O   LIG d   1       0.084  81.964 112.093  0.00  0.00    -0.241 OA
ENDBRANCH   3  22
TORSDOF 7
ENDMDL
MODEL 3
REMARK VINA RESULT:      -5.0      2.584      5.368
REMARK  7 active torsions:
REMARK  status: ('A' for Active; 'I' for Inactive)
REMARK    1  A    between atoms: C_2  and  C_3 
REMARK    2  A    between atoms: C_3  and  O_6 
REMARK    3  A    between atoms: C_3  and  C_4 
REMARK    4  A    between atoms: C_7  and  O_6 
REMARK    5  A    between atoms: C_9  and  C_10 
REMARK    6  A    between atoms: N_15  and  C_14 
REMARK    7  A    between atoms: N_20  and  C_19 
REMARK       I    between atoms: C_22  and  N_20 
ROOT
ATOM      1  C   LIG d   1      -1.918  76.420 115.083  0.00  0.00     0.161 C 
ATOM      2  C   LIG d   1      -1.874  75.890 116.383  0.00  0.00     0.016 C 
ATOM      3  C   LIG d   1      -1.476  76.637 117.516  0.00  0.00     0.038 C 
ATOM      4  C   LIG d   1      -1.239  78.018 117.447  0.00  0.00     0.028 C 
ATOM      5  C   LIG d   1      -0.782  78.486 116.069  0.00  0.00    -0.047 C 
ATOM      6  C   LIG d   1      -1.770  77.954 115.006  0.00  0.00     0.091 C 
ENDROOT
BRANCH   1   7
ATOM      7  O   LIG d   1      -3.130  76.000 114.425  0.00  0.00    -0.368 OA
BRANCH   7   8
ATOM      8  C   LIG d   1      -4.239  75.654 115.291  0.00  0.00     0.119 C 
BRANCH   8   9
ATOM      9  C   LIG d   1      -4.909  74.397 114.705  0.00  0.00     0.028 C 
ATOM     10  C   LIG d   1      -6.330  74.181 115.252  0.00  0.00     0.006 C 
ENDBRANCH   8   9
BRANCH   8  11
ATOM     11  C   LIG d   1      -5.321  76.738 115.272  0.00  0.00     0.028 C 
ATOM     12  C   LIG d   1      -5.234  77.688 116.476  0.00  0.00     0.006 C 
ENDBRANCH   8  11
ENDBRANCH   7   8
ENDBRANCH   1   7
BRANCH   6  13
ATOM     13  N   LIG d   1      -1.351  78.296 113.621  0.00  0.00    -0.311 N 
ATOM     14  C   LIG d   1      -2.120  78.969 112.768  0.00  0.00     0.210 C 
ATOM     15  C   LIG d   1      -1.504  79.198 111.384  0.00  0.00     0.109 C 
ATOM     16  O   LIG d   1      -3.242  79.426 113.035  0.00  0.00    -0.276 OA
ATOM     17  H   LIG d   1      -0.442  77.991 113.332  0.00  0.00     0.149 HD
ENDBRANCH   6  13
BRANCH   5  18
ATOM     18  N   LIG d   1      -0.705  79.959 116.102  0.00  0.00     0.381 N 
ATOM     19  H   LIG d   1      -0.039  80.278 115.427  0.00  0.00    -0.090 HD
ATOM     20  H   LIG d   1      -0.395  80.248 117.013  0.00  0.00    -0.090 HD
ATOM     21  H   LIG d   1      -1.600  80.351 115.908  0.00  0.00    -0.090 HD
ENDBRANCH   5  18
BRANCH   3  22
ATOM     22  C   LIG d   1      -1.273  75.993 118.727  0.00  0.00     0.382 C 
ATOM     23  O   LIG d   1      -2.104  75.146 119.134  0.00  0.00    -0.241 OA
ATOM     24  O   LIG d   1      -0.292  76.281 119.439  0.00  0.00    -0.241 OA
ENDBRANCH   3  22
TORSDOF 7
ENDMDL
MODEL 4
REMARK VINA RESULT:      -4.9      0.883      1.631
REMARK  7 active torsions:
REMARK  status: ('A' for Active; 'I' for Inactive)
REMARK    1  A    between atoms: C_2  and  C_3 
REMARK    2  A    between atoms: C_3  and  O_6 
REMARK    3  A    between atoms: C_3  and  C_4 
REMARK    4  A    between atoms: C_7  and  O_6 
REMARK    5  A    between atoms: C_9  and  C_10 
REMARK    6  A    between atoms: N_15  and  C_14 
REMARK    7  A    between atoms: N_20  and  C_19 
REMARK       I    between atoms: C_22  and  N_20 
ROOT
ATOM      1  C   LIG d   1      -3.411  79.356 115.585  0.00  0.00     0.161 C 
ATOM      2  C   LIG d   1      -3.228  80.274 114.538  0.00  0.00     0.016 C 
ATOM      3  C   LIG d   1      -2.361  80.044 113.445  0.00  0.00     0.038 C 
ATOM      4  C   LIG d   1      -1.729  78.808 113.247  0.00  0.00     0.028 C 
ATOM      5  C   LIG d   1      -1.489  78.036 114.540  0.00  0.00    -0.047 C 
ATOM      6  C   LIG d   1      -2.815  77.956 115.330  0.00  0.00     0.091 C 
ENDROOT
BRANCH   1   7
ATOM      7  O   LIG d   1      -4.813  79.253 115.905  0.00  0.00    -0.368 OA
BRANCH   7   8
ATOM      8  C   LIG d   1      -5.165  79.453 117.296  0.00  0.00     0.119 C 
BRANCH   8   9
ATOM      9  C   LIG d   1      -6.516  80.194 117.330  0.00  0.00     0.028 C 
ATOM     10  C   LIG d   1      -6.349  81.722 117.276  0.00  0.00     0.006 C 
ENDBRANCH   8   9
BRANCH   8  11
ATOM     11  C   LIG d   1      -4.173  80.387 117.994  0.00  0.00     0.028 C 
ATOM     12  C   LIG d   1      -3.728  79.864 119.369  0.00  0.00     0.006 C 
ENDBRANCH   8  11
ENDBRANCH   7   8
ENDBRANCH   1   7
BRANCH   6  13
ATOM     13  N   LIG d   1      -2.650  77.290 116.648  0.00  0.00    -0.311 N 
ATOM     14  C   LIG d   1      -2.881  75.993 116.849  0.00  0.00     0.210 C 
ATOM     15  C   LIG d   1      -2.669  75.514 118.288  0.00  0.00     0.109 C 
ATOM     16  O   LIG d   1      -3.209  75.189 115.964  0.00  0.00    -0.276 OA
ATOM     17  H   LIG d   1      -2.356  77.863 117.415  0.00  0.00     0.149 HD
ENDBRANCH   6  13
BRANCH   5  18
ATOM     18  N   LIG d   1      -0.951  76.712 114.176  0.00  0.00     0.381 N 
ATOM     19  H   LIG d   1      -1.175  76.506 113.223  0.00  0.00    -0.090 HD
ATOM     20  H   LIG d   1      -1.382  76.015 114.758  0.00  0.00    -0.090 HD
ATOM     21  H   LIG d   1       0.037  76.698 114.304  0.00  0.00    -0.090 HD
ENDBRANCH   5  18
BRANCH   3  22
ATOM     22  C   LIG d   1      -2.088  81.073 112.556  0.00  0.00     0.382 C 
ATOM     23  O   LIG d   1      -2.785  82.116 112.572  0.00  0.00    -0.241 OA
ATOM     24  O   LIG d   1      -1.183  80.953 111.709  0.00  0.00    -0.241 OA
ENDBRANCH   3  22
TORSDOF 7
ENDMDL
MODEL 5
REMARK VINA RESULT:      -4.9      3.415      6.023
REMARK  7 active torsions:
REMARK  status: ('A' for Active; 'I' for Inactive)
REMARK    1  A    between atoms: C_2  and  C_3 
REMARK    2  A    between atoms: C_3  and  O_6 
REMARK    3  A    between atoms: C_3  and  C_4 
REMARK    4  A    between atoms: C_7  and  O_6 
REMARK    5  A    between atoms: C_9  and  C_10 
REMARK    6  A    between atoms: N_15  and  C_14 
REMARK    7  A    between atoms: N_20  and  C_19 
REMARK       I    between atoms: C_22  and  N_20 
ROOT
ATOM      1  C   LIG d   1      -1.622  80.186 114.343  0.00  0.00     0.161 C 
ATOM      2  C   LIG d   1      -2.389  79.076 114.733  0.00  0.00     0.016 C 
ATOM      3  C   LIG d   1      -2.745  78.028 113.852  0.00  0.00     0.038 C 
ATOM      4  C   LIG d   1      -2.228  77.946 112.551  0.00  0.00     0.028 C 
ATOM      5  C   LIG d   1      -1.861  79.302 111.958  0.00  0.00    -0.047 C 
ATOM      6  C   LIG d   1      -0.956  80.058 112.957  0.00  0.00     0.091 C 
ENDROOT
BRANCH   1   7
ATOM      7  O   LIG d   1      -0.632  80.474 115.350  0.00  0.00    -0.368 OA
BRANCH   7   8
ATOM      8  C   LIG d   1      -0.813  79.817 116.629  0.00  0.00     0.119 C 
BRANCH   8   9
ATOM      9  C   LIG d   1      -0.886  80.914 117.708  0.00  0.00     0.028 C 
ATOM     10  C   LIG d   1       0.345  81.836 117.692  0.00  0.00     0.006 C 
ENDBRANCH   8   9
BRANCH   8  11
ATOM     11  C   LIG d   1       0.407  78.967 116.996  0.00  0.00     0.028 C 
ATOM     12  C   LIG d   1       0.076  77.472 117.122  0.00  0.00     0.006 C 
ENDBRANCH   8  11
ENDBRANCH   7   8
ENDBRANCH   1   7
BRANCH   6  13
ATOM     13  N   LIG d   1      -0.619  81.429 112.492  0.00  0.00    -0.311 N 
ATOM     14  C   LIG d   1       0.492  81.722 111.819  0.00  0.00     0.210 C 
ATOM     15  C   LIG d   1       0.655  83.200 111.451  0.00  0.00     0.109 C 
ATOM     16  O   LIG d   1       1.344  80.893 111.464  0.00  0.00    -0.276 OA
ATOM     17  H   LIG d   1      -1.270  82.157 112.710  0.00  0.00     0.149 HD
ENDBRANCH   6  13
BRANCH   5  18
ATOM     18  N   LIG d   1      -1.208  79.057 110.658  0.00  0.00     0.381 N 
ATOM     19  H   LIG d   1      -0.548  79.785 110.468  0.00  0.00    -0.090 HD
ATOM     20  H   LIG d   1      -1.907  79.070 109.936  0.00  0.00    -0.090 HD
ATOM     21  H   LIG d   1      -0.747  78.174 110.668  0.00  0.00    -0.090 HD
ENDBRANCH   5  18
BRANCH   3  22
ATOM     22  C   LIG d   1      -3.661  77.070 114.259  0.00  0.00     0.382 C 
ATOM     23  O   LIG d   1      -4.479  76.595 113.435  0.00  0.00    -0.241 OA
ATOM     24  O   LIG d   1      -3.708  76.707 115.450  0.00  0.00    -0.241 OA
ENDBRANCH   3  22
TORSDOF 7
ENDMDL
MODEL 6
REMARK VINA RESULT:      -4.8      2.417      3.231
REMARK  7 active torsions:
REMARK  status: ('A' for Active; 'I' for Inactive)
REMARK    1  A    between atoms: C_2  and  C_3 
REMARK    2  A    between atoms: C_3  and  O_6 
REMARK    3  A    between atoms: C_3  and  C_4 
REMARK    4  A    between atoms: C_7  and  O_6 
REMARK    5  A    between atoms: C_9  and  C_10 
REMARK    6  A    between atoms: N_15  and  C_14 
REMARK    7  A    between atoms: N_20  and  C_19 
REMARK       I    between atoms: C_22  and  N_20 
ROOT
ATOM      1  C   LIG d   1      -2.098  78.771 115.061  0.00  0.00     0.161 C 
ATOM      2  C   LIG d   1      -2.507  80.023 114.574  0.00  0.00     0.016 C 
ATOM      3  C   LIG d   1      -2.595  80.331 113.196  0.00  0.00     0.038 C 
ATOM      4  C   LIG d   1      -2.423  79.353 112.206  0.00  0.00     0.028 C 
ATOM      5  C   LIG d   1      -1.517  78.205 112.638  0.00  0.00    -0.047 C 
ATOM      6  C   LIG d   1      -2.014  77.658 113.995  0.00  0.00     0.091 C 
ENDROOT
BRANCH   1   7
ATOM      7  O   LIG d   1      -2.957  78.363 116.144  0.00  0.00    -0.368 OA
BRANCH   7   8
ATOM      8  C   LIG d   1      -2.317  78.181 117.431  0.00  0.00     0.119 C 
BRANCH   8   9
ATOM      9  C   LIG d   1      -3.045  79.089 118.442  0.00  0.00     0.028 C 
ATOM     10  C   LIG d   1      -2.456  80.510 118.484  0.00  0.00     0.006 C 
ENDBRANCH   8   9
BRANCH   8  11
ATOM     11  C   LIG d   1      -0.869  78.678 117.409  0.00  0.00     0.028 C 
ATOM     12  C   LIG d   1       0.139  77.593 117.820  0.00  0.00     0.006 C 
ENDBRANCH   8  11
ENDBRANCH   7   8
ENDBRANCH   1   7
BRANCH   6  13
ATOM     13  N   LIG d   1      -1.133  76.588 114.531  0.00  0.00    -0.311 N 
ATOM     14  C   LIG d   1      -1.591  75.433 115.013  0.00  0.00     0.210 C 
ATOM     15  C   LIG d   1      -0.514  74.477 115.534  0.00  0.00     0.109 C 
ATOM     16  O   LIG d   1      -2.785  75.098 115.029  0.00  0.00    -0.276 OA
ATOM     17  H   LIG d   1      -0.147  76.764 114.528  0.00  0.00     0.149 HD
ENDBRANCH   6  13
BRANCH   5  18
ATOM     18  N   LIG d   1      -1.537  77.193 111.564  0.00  0.00     0.381 N 
ATOM     19  H   LIG d   1      -2.129  77.502 110.819  0.00  0.00    -0.090 HD
ATOM     20  H   LIG d   1      -1.912  76.337 111.932  0.00  0.00    -0.090 HD
ATOM     21  H   LIG d   1      -0.613  77.041 111.223  0.00  0.00    -0.090 HD
ENDBRANCH   5  18
BRANCH   3  22
ATOM     22  C   LIG d   1      -2.819  81.640 112.798  0.00  0.00     0.382 C 
ATOM     23  O   LIG d   1      -1.950  82.249 112.128  0.00  0.00    -0.241 OA
ATOM     24  O   LIG d   1      -3.859  82.235 113.138  0.00  0.00    -0.241 OA
ENDBRANCH   3  22
TORSDOF 7
ENDMDL
MODEL 7
REMARK VINA RESULT:      -4.7      1.069      1.740
REMARK  7 active torsions:
REMARK  status: ('A' for Active; 'I' for Inactive)
REMARK    1  A    between atoms: C_2  and  C_3 
REMARK    2  A    between atoms: C_3  and  O_6 
REMARK    3  A    between atoms: C_3  and  C_4 
REMARK    4  A    between atoms: C_7  and  O_6 
REMARK    5  A    between atoms: C_9  and  C_10 
REMARK    6  A    between atoms: N_15  and  C_14 
REMARK    7  A    between atoms: N_20  and  C_19 
REMARK       I    between atoms: C_22  and  N_20 
ROOT
ATOM      1  C   LIG d   1      -3.188  79.288 116.046  0.00  0.00     0.161 C 
ATOM      2  C   LIG d   1      -3.224  80.182 114.963  0.00  0.00     0.016 C 
ATOM      3  C   LIG d   1      -2.588  79.932 113.725  0.00  0.00     0.038 C 
ATOM      4  C   LIG d   1      -1.994  78.695 113.433  0.00  0.00     0.028 C 
ATOM      5  C   LIG d   1      -1.496  77.955 114.670  0.00  0.00    -0.047 C 
ATOM      6  C   LIG d   1      -2.640  77.885 115.708  0.00  0.00     0.091 C 
ENDROOT
BRANCH   1   7
ATOM      7  O   LIG d   1      -4.497  79.184 116.638  0.00  0.00    -0.368 OA
BRANCH   7   8
ATOM      8  C   LIG d   1      -4.984  80.367 117.319  0.00  0.00     0.119 C 
BRANCH   8   9
ATOM      9  C   LIG d   1      -4.581  80.246 118.802  0.00  0.00     0.028 C 
ATOM     10  C   LIG d   1      -3.527  81.289 119.211  0.00  0.00     0.006 C 
ENDBRANCH   8   9
BRANCH   8  11
ATOM     11  C   LIG d   1      -6.514  80.421 117.318  0.00  0.00     0.028 C 
ATOM     12  C   LIG d   1      -7.060  81.857 117.373  0.00  0.00     0.006 C 
ENDBRANCH   8  11
ENDBRANCH   7   8
ENDBRANCH   1   7
BRANCH   6  13
ATOM     13  N   LIG d   1      -2.211  77.251 116.982  0.00  0.00    -0.311 N 
ATOM     14  C   LIG d   1      -2.802  76.177 117.501  0.00  0.00     0.210 C 
ATOM     15  C   LIG d   1      -2.216  75.696 118.833  0.00  0.00     0.109 C 
ATOM     16  O   LIG d   1      -3.736  75.557 116.970  0.00  0.00    -0.276 OA
ATOM     17  H   LIG d   1      -1.440  77.671 117.464  0.00  0.00     0.149 HD
ENDBRANCH   6  13
BRANCH   5  18
ATOM     18  N   LIG d   1      -1.028  76.625 114.236  0.00  0.00     0.381 N 
ATOM     19  H   LIG d   1      -0.837  76.637 113.254  0.00  0.00    -0.090 HD
ATOM     20  H   LIG d   1      -1.754  75.953 114.408  0.00  0.00    -0.090 HD
ATOM     21  H   LIG d   1      -0.205  76.372 114.738  0.00  0.00    -0.090 HD
ENDBRANCH   5  18
BRANCH   3  22
ATOM     22  C   LIG d   1      -2.506  80.941 112.778  0.00  0.00     0.382 C 
ATOM     23  O   LIG d   1      -3.296  81.915 112.830  0.00  0.00    -0.241 OA
ATOM     24  O   LIG d   1      -1.682  80.869 111.847  0.00  0.00    -0.241 OA
ENDBRANCH   3  22
TORSDOF 7
ENDMDL
MODEL 8
REMARK VINA RESULT:      -4.4      2.267      3.102
REMARK  7 active torsions:
REMARK  status: ('A' for Active; 'I' for Inactive)
REMARK    1  A    between atoms: C_2  and  C_3 
REMARK    2  A    between atoms: C_3  and  O_6 
REMARK    3  A    between atoms: C_3  and  C_4 
REMARK    4  A    between atoms: C_7  and  O_6 
REMARK    5  A    between atoms: C_9  and  C_10 
REMARK    6  A    between atoms: N_15  and  C_14 
REMARK    7  A    between atoms: N_20  and  C_19 
REMARK       I    between atoms: C_22  and  N_20 
ROOT
ATOM      1  C   LIG d   1      -3.756  78.273 116.432  0.00  0.00     0.161 C 
ATOM      2  C   LIG d   1      -2.971  79.363 116.845  0.00  0.00     0.016 C 
ATOM      3  C   LIG d   1      -1.644  79.577 116.408  0.00  0.00     0.038 C 
ATOM      4  C   LIG d   1      -1.059  78.792 115.403  0.00  0.00     0.028 C 
ATOM      5  C   LIG d   1      -1.632  77.381 115.326  0.00  0.00    -0.047 C 
ATOM      6  C   LIG d   1      -3.174  77.469 115.251  0.00  0.00     0.091 C 
ENDROOT
BRANCH   1   7
ATOM      7  O   LIG d   1      -5.090  78.721 116.124  0.00  0.00    -0.368 OA
BRANCH   7   8
ATOM      8  C   LIG d   1      -6.161  78.100 116.877  0.00  0.00     0.119 C 
BRANCH   8   9
ATOM      9  C   LIG d   1      -7.060  79.228 117.420  0.00  0.00     0.028 C 
ATOM     10  C   LIG d   1      -6.404  80.613 117.295  0.00  0.00     0.006 C 
ENDBRANCH   8   9
BRANCH   8  11
ATOM     11  C   LIG d   1      -5.624  77.378 118.117  0.00  0.00     0.028 C 
ATOM     12  C   LIG d   1      -6.026  75.896 118.164  0.00  0.00     0.006 C 
ENDBRANCH   8  11
ENDBRANCH   7   8
ENDBRANCH   1   7
BRANCH   6  13
ATOM     13  N   LIG d   1      -3.819  76.130 115.258  0.00  0.00    -0.311 N 
ATOM     14  C   LIG d   1      -4.792  75.781 114.418  0.00  0.00     0.210 C 
ATOM     15  C   LIG d   1      -5.331  74.360 114.609  0.00  0.00     0.109 C 
ATOM     16  O   LIG d   1      -5.238  76.502 113.513  0.00  0.00    -0.276 OA
ATOM     17  H   LIG d   1      -3.496  75.472 115.940  0.00  0.00     0.149 HD
ENDBRANCH   6  13
BRANCH   5  18
ATOM     18  N   LIG d   1      -1.033  76.721 114.151  0.00  0.00     0.381 N 
ATOM     19  H   LIG d   1      -1.458  77.067 113.314  0.00  0.00    -0.090 HD
ATOM     20  H   LIG d   1      -1.209  75.733 114.208  0.00  0.00    -0.090 HD
ATOM     21  H   LIG d   1      -0.051  76.889 114.128  0.00  0.00    -0.090 HD
ENDBRANCH   5  18
BRANCH   3  22
ATOM     22  C   LIG d   1      -0.873  80.562 117.007  0.00  0.00     0.382 C 
ATOM     23  O   LIG d   1      -1.121  80.924 118.182  0.00  0.00    -0.241 OA
ATOM     24  O   LIG d   1       0.039  81.124 116.371  0.00  0.00    -0.241 OA
ENDBRANCH   3  22
TORSDOF 7
ENDMDL
MODEL 9
REMARK VINA RESULT:      -4.4      2.547      5.122
REMARK  7 active torsions:
REMARK  status: ('A' for Active; 'I' for Inactive)
REMARK    1  A    between atoms: C_2  and  C_3 
REMARK    2  A    between atoms: C_3  and  O_6 
REMARK    3  A    between atoms: C_3  and  C_4 
REMARK    4  A    between atoms: C_7  and  O_6 
REMARK    5  A    between atoms: C_9  and  C_10 
REMARK    6  A    between atoms: N_15  and  C_14 
REMARK    7  A    between atoms: N_20  and  C_19 
REMARK       I    between atoms: C_22  and  N_20 
ROOT
ATOM      1  C   LIG d   1      -2.276  76.513 115.047  0.00  0.00     0.161 C 
ATOM      2  C   LIG d   1      -3.540  76.314 114.467  0.00  0.00     0.016 C 
ATOM      3  C   LIG d   1      -4.629  75.731 115.155  0.00  0.00     0.038 C 
ATOM      4  C   LIG d   1      -4.571  75.444 116.527  0.00  0.00     0.028 C 
ATOM      5  C   LIG d   1      -3.158  75.161 117.027  0.00  0.00    -0.047 C 
ATOM      6  C   LIG d   1      -2.227  76.309 116.575  0.00  0.00     0.091 C 
ENDROOT
BRANCH   1   7
ATOM      7  O   LIG d   1      -1.780  77.821 114.700  0.00  0.00    -0.368 OA
BRANCH   7   8
ATOM      8  C   LIG d   1      -2.722  78.707 114.046  0.00  0.00     0.119 C 
BRANCH   8   9
ATOM      9  C   LIG d   1      -2.052  79.228 112.760  0.00  0.00     0.028 C 
ATOM     10  C   LIG d   1      -2.330  78.325 111.546  0.00  0.00     0.006 C 
ENDBRANCH   8   9
BRANCH   8  11
ATOM     11  C   LIG d   1      -2.996  79.953 114.894  0.00  0.00     0.028 C 
ATOM     12  C   LIG d   1      -3.982  79.687 116.042  0.00  0.00     0.006 C 
ENDBRANCH   8  11
ENDBRANCH   7   8
ENDBRANCH   1   7
BRANCH   6  13
ATOM     13  N   LIG d   1      -0.809  76.069 116.951  0.00  0.00    -0.311 N 
ATOM     14  C   LIG d   1      -0.266  76.513 118.084  0.00  0.00     0.210 C 
ATOM     15  C   LIG d   1       1.217  76.173 118.266  0.00  0.00     0.109 C 
ATOM     16  O   LIG d   1      -0.879  77.129 118.968  0.00  0.00    -0.276 OA
ATOM     17  H   LIG d   1      -0.247  75.551 116.305  0.00  0.00     0.149 HD
ENDBRANCH   6  13
BRANCH   5  18
ATOM     18  N   LIG d   1      -3.226  75.015 118.494  0.00  0.00     0.381 N 
ATOM     19  H   LIG d   1      -2.607  75.670 118.928  0.00  0.00    -0.090 HD
ATOM     20  H   LIG d   1      -2.929  74.087 118.742  0.00  0.00    -0.090 HD
ATOM     21  H   LIG d   1      -4.159  75.168 118.809  0.00  0.00    -0.090 HD
ENDBRANCH   5  18
BRANCH   3  22
ATOM     22  C   LIG d   1      -5.780  75.392 114.459  0.00  0.00     0.382 C 
ATOM     23  O   LIG d   1      -6.438  74.377 114.792  0.00  0.00    -0.241 OA
ATOM     24  O   LIG d   1      -6.144  76.063 113.475  0.00  0.00    -0.241 OA
ENDBRANCH   3  22
TORSDOF 7
ENDMDL
