MODEL 1
REMARK VINA RESULT:      -5.1      0.000      0.000
REMARK  7 active torsions:
REMARK  status: ('A' for Active; 'I' for Inactive)
REMARK    1  A    between atoms: C_2  and  C_3 
REMARK    2  A    between atoms: C_3  and  O_6 
REMARK    3  A    between atoms: C_3  and  C_4 
REMARK    4  A    between atoms: C_7  and  O_6 
REMARK    5  A    between atoms: C_9  and  C_10 
REMARK    6  A    between atoms: N_15  and  C_14 
REMARK    7  A    between atoms: N_20  and  C_19 
REMARK       I    between atoms: C_22  and  N_20 
ROOT
ATOM      1  C   LIG d   1      -2.430  78.300 114.838  0.00  0.00     0.161 C 
ATOM      2  C   LIG d   1      -2.832  79.284 113.919  0.00  0.00     0.016 C 
ATOM      3  C   LIG d   1      -1.989  80.333 113.483  0.00  0.00     0.038 C 
ATOM      4  C   LIG d   1      -0.630  80.382 113.825  0.00  0.00     0.028 C 
ATOM      5  C   LIG d   1      -0.313  79.697 115.150  0.00  0.00    -0.047 C 
ATOM      6  C   LIG d   1      -0.916  78.274 115.136  0.00  0.00     0.091 C 
ENDROOT
BRANCH   1   7
ATOM      7  O   LIG d   1      -2.875  77.004 114.393  0.00  0.00    -0.368 OA
BRANCH   7   8
ATOM      8  C   LIG d   1      -3.984  76.425 115.124  0.00  0.00     0.119 C 
BRANCH   8   9
ATOM      9  C   LIG d   1      -3.487  75.109 115.752  0.00  0.00     0.028 C 
ATOM     10  C   LIG d   1      -3.737  75.050 117.268  0.00  0.00     0.006 C 
ENDBRANCH   8   9
BRANCH   8  11
ATOM     11  C   LIG d   1      -5.122  76.021 114.183  0.00  0.00     0.028 C 
ATOM     12  C   LIG d   1      -6.498  76.047 114.867  0.00  0.00     0.006 C 
ENDBRANCH   8  11
ENDBRANCH   7   8
ENDBRANCH   1   7
BRANCH   6  13
ATOM     13  N   LIG d   1      -0.724  77.565 116.428  0.00  0.00    -0.311 N 
ATOM     14  C   LIG d   1      -0.278  76.313 116.517  0.00  0.00     0.210 C 
ATOM     15  C   LIG d   1      -0.173  75.765 117.944  0.00  0.00     0.109 C 
ATOM     16  O   LIG d   1       0.070  75.615 115.553  0.00  0.00    -0.276 OA
ATOM     17  H   LIG d   1      -0.953  78.067 117.263  0.00  0.00     0.149 HD
ENDBRANCH   6  13
BRANCH   5  18
ATOM     18  N   LIG d   1       1.153  79.703 115.315  0.00  0.00     0.381 N 
ATOM     19  H   LIG d   1       1.570  79.068 114.663  0.00  0.00    -0.090 HD
ATOM     20  H   LIG d   1       1.377  79.392 116.244  0.00  0.00    -0.090 HD
ATOM     21  H   LIG d   1       1.509  80.621 115.169  0.00  0.00    -0.090 HD
ENDBRANCH   5  18
BRANCH   3  22
ATOM     22  C   LIG d   1      -2.517  81.369 112.728  0.00  0.00     0.382 C 
ATOM     23  O   LIG d   1      -3.754  81.433 112.528  0.00  0.00    -0.241 OA
ATOM     24  O   LIG d   1      -1.767  82.217 112.208  0.00  0.00    -0.241 OA
ENDBRANCH   3  22
TORSDOF 7
ENDMDL
MODEL 2
REMARK VINA RESULT:      -4.9      2.970      3.652
REMARK  7 active torsions:
REMARK  status: ('A' for Active; 'I' for Inactive)
REMARK    1  A    between atoms: C_2  and  C_3 
REMARK    2  A    between atoms: C_3  and  O_6 
REMARK    3  A    between atoms: C_3  and  C_4 
REMARK    4  A    between atoms: C_7  and  O_6 
REMARK    5  A    between atoms: C_9  and  C_10 
REMARK    6  A    between atoms: N_15  and  C_14 
REMARK    7  A    between atoms: N_20  and  C_19 
REMARK       I    between atoms: C_22  and  N_20 
ROOT
ATOM      1  C   LIG d   1      -2.942  79.376 115.942  0.00  0.00     0.161 C 
ATOM      2  C   LIG d   1      -2.883  80.587 115.232  0.00  0.00     0.016 C 
ATOM      3  C   LIG d   1      -2.389  80.692 113.911  0.00  0.00     0.038 C 
ATOM      4  C   LIG d   1      -2.060  79.560 113.151  0.00  0.00     0.028 C 
ATOM      5  C   LIG d   1      -1.628  78.367 113.997  0.00  0.00    -0.047 C 
ATOM      6  C   LIG d   1      -2.692  78.115 115.089  0.00  0.00     0.091 C 
ENDROOT
BRANCH   1   7
ATOM      7  O   LIG d   1      -4.206  79.274 116.628  0.00  0.00    -0.368 OA
BRANCH   7   8
ATOM      8  C   LIG d   1      -4.658  80.469 117.311  0.00  0.00     0.119 C 
BRANCH   8   9
ATOM      9  C   LIG d   1      -3.862  80.581 118.626  0.00  0.00     0.028 C 
ATOM     10  C   LIG d   1      -3.454  82.029 118.943  0.00  0.00     0.006 C 
ENDBRANCH   8   9
BRANCH   8  11
ATOM     11  C   LIG d   1      -6.125  80.347 117.735  0.00  0.00     0.028 C 
ATOM     12  C   LIG d   1      -6.902  81.663 117.578  0.00  0.00     0.006 C 
ENDBRANCH   8  11
ENDBRANCH   7   8
ENDBRANCH   1   7
BRANCH   6  13
ATOM     13  N   LIG d   1      -2.305  77.017 116.014  0.00  0.00    -0.311 N 
ATOM     14  C   LIG d   1      -2.690  75.752 115.852  0.00  0.00     0.210 C 
ATOM     15  C   LIG d   1      -2.196  74.783 116.930  0.00  0.00     0.109 C 
ATOM     16  O   LIG d   1      -3.365  75.335 114.899  0.00  0.00    -0.276 OA
ATOM     17  H   LIG d   1      -1.731  77.261 116.797  0.00  0.00     0.149 HD
ENDBRANCH   6  13
BRANCH   5  18
ATOM     18  N   LIG d   1      -1.447  77.219 113.089  0.00  0.00     0.381 N 
ATOM     19  H   LIG d   1      -2.340  76.845 112.834  0.00  0.00    -0.090 HD
ATOM     20  H   LIG d   1      -0.931  76.503 113.569  0.00  0.00    -0.090 HD
ATOM     21  H   LIG d   1      -0.954  77.504 112.272  0.00  0.00    -0.090 HD
ENDBRANCH   5  18
BRANCH   3  22
ATOM     22  C   LIG d   1      -2.183  81.944 113.352  0.00  0.00     0.382 C 
ATOM     23  O   LIG d   1      -2.089  82.066 112.107  0.00  0.00    -0.241 OA
ATOM     24  O   LIG d   1      -2.046  82.946 114.079  0.00  0.00    -0.241 OA
ENDBRANCH   3  22
TORSDOF 7
ENDMDL
MODEL 3
REMARK VINA RESULT:      -4.8      2.645      3.380
REMARK  7 active torsions:
REMARK  status: ('A' for Active; 'I' for Inactive)
REMARK    1  A    between atoms: C_2  and  C_3 
REMARK    2  A    between atoms: C_3  and  O_6 
REMARK    3  A    between atoms: C_3  and  C_4 
REMARK    4  A    between atoms: C_7  and  O_6 
REMARK    5  A    between atoms: C_9  and  C_10 
REMARK    6  A    between atoms: N_15  and  C_14 
REMARK    7  A    between atoms: N_20  and  C_19 
REMARK       I    between atoms: C_22  and  N_20 
ROOT
ATOM      1  C   LIG d   1      -2.861  79.633 115.758  0.00  0.00     0.161 C 
ATOM      2  C   LIG d   1      -2.697  80.829 115.041  0.00  0.00     0.016 C 
ATOM      3  C   LIG d   1      -2.186  80.883 113.724  0.00  0.00     0.038 C 
ATOM      4  C   LIG d   1      -1.943  79.722 112.975  0.00  0.00     0.028 C 
ATOM      5  C   LIG d   1      -1.616  78.505 113.833  0.00  0.00    -0.047 C 
ATOM      6  C   LIG d   1      -2.706  78.348 114.918  0.00  0.00     0.091 C 
ENDROOT
BRANCH   1   7
ATOM      7  O   LIG d   1      -4.134  79.638 116.434  0.00  0.00    -0.368 OA
BRANCH   7   8
ATOM      8  C   LIG d   1      -4.087  79.658 117.882  0.00  0.00     0.119 C 
BRANCH   8   9
ATOM      9  C   LIG d   1      -5.178  78.698 118.394  0.00  0.00     0.028 C 
ATOM     10  C   LIG d   1      -5.783  77.843 117.267  0.00  0.00     0.006 C 
ENDBRANCH   8   9
BRANCH   8  11
ATOM     11  C   LIG d   1      -4.468  81.035 118.433  0.00  0.00     0.028 C 
ATOM     12  C   LIG d   1      -5.604  81.701 117.641  0.00  0.00     0.006 C 
ENDBRANCH   8  11
ENDBRANCH   7   8
ENDBRANCH   1   7
BRANCH   6  13
ATOM     13  N   LIG d   1      -2.418  77.230 115.854  0.00  0.00    -0.311 N 
ATOM     14  C   LIG d   1      -2.914  76.003 115.705  0.00  0.00     0.210 C 
ATOM     15  C   LIG d   1      -2.507  75.005 116.794  0.00  0.00     0.109 C 
ATOM     16  O   LIG d   1      -3.626  75.638 114.757  0.00  0.00    -0.276 OA
ATOM     17  H   LIG d   1      -1.823  77.430 116.634  0.00  0.00     0.149 HD
ENDBRANCH   6  13
BRANCH   5  18
ATOM     18  N   LIG d   1      -1.521  77.338 112.935  0.00  0.00     0.381 N 
ATOM     19  H   LIG d   1      -1.457  76.499 113.476  0.00  0.00    -0.090 HD
ATOM     20  H   LIG d   1      -0.687  77.421 112.381  0.00  0.00    -0.090 HD
ATOM     21  H   LIG d   1      -2.321  77.299 112.342  0.00  0.00    -0.090 HD
ENDBRANCH   5  18
BRANCH   3  22
ATOM     22  C   LIG d   1      -1.874  82.109 113.157  0.00  0.00     0.382 C 
ATOM     23  O   LIG d   1      -1.716  83.116 113.889  0.00  0.00    -0.241 OA
ATOM     24  O   LIG d   1      -1.792  82.231 111.920  0.00  0.00    -0.241 OA
ENDBRANCH   3  22
TORSDOF 7
ENDMDL
MODEL 4
REMARK VINA RESULT:      -4.6      2.880      4.146
REMARK  7 active torsions:
REMARK  status: ('A' for Active; 'I' for Inactive)
REMARK    1  A    between atoms: C_2  and  C_3 
REMARK    2  A    between atoms: C_3  and  O_6 
REMARK    3  A    between atoms: C_3  and  C_4 
REMARK    4  A    between atoms: C_7  and  O_6 
REMARK    5  A    between atoms: C_9  and  C_10 
REMARK    6  A    between atoms: N_15  and  C_14 
REMARK    7  A    between atoms: N_20  and  C_19 
REMARK       I    between atoms: C_22  and  N_20 
ROOT
ATOM      1  C   LIG d   1      -2.774  80.274 115.502  0.00  0.00     0.161 C 
ATOM      2  C   LIG d   1      -2.481  81.412 114.732  0.00  0.00     0.016 C 
ATOM      3  C   LIG d   1      -1.902  81.351 113.443  0.00  0.00     0.038 C 
ATOM      4  C   LIG d   1      -1.715  80.134 112.771  0.00  0.00     0.028 C 
ATOM      5  C   LIG d   1      -1.528  78.946 113.709  0.00  0.00    -0.047 C 
ATOM      6  C   LIG d   1      -2.680  78.935 114.741  0.00  0.00     0.091 C 
ENDROOT
BRANCH   1   7
ATOM      7  O   LIG d   1      -4.074  80.416 116.108  0.00  0.00    -0.368 OA
BRANCH   7   8
ATOM      8  C   LIG d   1      -4.092  80.600 117.545  0.00  0.00     0.119 C 
BRANCH   8   9
ATOM      9  C   LIG d   1      -4.964  81.835 117.842  0.00  0.00     0.028 C 
ATOM     10  C   LIG d   1      -6.463  81.558 117.636  0.00  0.00     0.006 C 
ENDBRANCH   8   9
BRANCH   8  11
ATOM     11  C   LIG d   1      -2.699  80.950 118.078  0.00  0.00     0.028 C 
ATOM     12  C   LIG d   1      -2.588  82.411 118.541  0.00  0.00     0.006 C 
ENDBRANCH   8  11
ENDBRANCH   7   8
ENDBRANCH   1   7
BRANCH   6  13
ATOM     13  N   LIG d   1      -2.527  77.854 115.749  0.00  0.00    -0.311 N 
ATOM     14  C   LIG d   1      -3.010  76.624 115.583  0.00  0.00     0.210 C 
ATOM     15  C   LIG d   1      -2.760  75.668 116.754  0.00  0.00     0.109 C 
ATOM     16  O   LIG d   1      -3.594  76.225 114.565  0.00  0.00    -0.276 OA
ATOM     17  H   LIG d   1      -2.039  78.083 116.593  0.00  0.00     0.149 HD
ENDBRANCH   6  13
BRANCH   5  18
ATOM     18  N   LIG d   1      -1.483  77.726 112.881  0.00  0.00     0.381 N 
ATOM     19  H   LIG d   1      -0.941  77.023 113.343  0.00  0.00    -0.090 HD
ATOM     20  H   LIG d   1      -1.037  77.944 112.007  0.00  0.00    -0.090 HD
ATOM     21  H   LIG d   1      -2.406  77.391 112.717  0.00  0.00    -0.090 HD
ENDBRANCH   5  18
BRANCH   3  22
ATOM     22  C   LIG d   1      -1.467  82.516 112.830  0.00  0.00     0.382 C 
ATOM     23  O   LIG d   1      -1.150  83.510 113.526  0.00  0.00    -0.241 OA
ATOM     24  O   LIG d   1      -1.430  82.599 111.587  0.00  0.00    -0.241 OA
ENDBRANCH   3  22
TORSDOF 7
ENDMDL
MODEL 5
REMARK VINA RESULT:      -4.4      2.522      5.155
REMARK  7 active torsions:
REMARK  status: ('A' for Active; 'I' for Inactive)
REMARK    1  A    between atoms: C_2  and  C_3 
REMARK    2  A    between atoms: C_3  and  O_6 
REMARK    3  A    between atoms: C_3  and  C_4 
REMARK    4  A    between atoms: C_7  and  O_6 
REMARK    5  A    between atoms: C_9  and  C_10 
REMARK    6  A    between atoms: N_15  and  C_14 
REMARK    7  A    between atoms: N_20  and  C_19 
REMARK       I    between atoms: C_22  and  N_20 
ROOT
ATOM      1  C   LIG d   1      -2.480  78.213 115.614  0.00  0.00     0.161 C 
ATOM      2  C   LIG d   1      -3.521  77.270 115.615  0.00  0.00     0.016 C 
ATOM      3  C   LIG d   1      -3.306  75.874 115.560  0.00  0.00     0.038 C 
ATOM      4  C   LIG d   1      -2.022  75.317 115.652  0.00  0.00     0.028 C 
ATOM      5  C   LIG d   1      -0.922  76.243 115.144  0.00  0.00    -0.047 C 
ATOM      6  C   LIG d   1      -1.071  77.621 115.828  0.00  0.00     0.091 C 
ENDROOT
BRANCH   1   7
ATOM      7  O   LIG d   1      -2.747  79.237 116.593  0.00  0.00    -0.368 OA
BRANCH   7   8
ATOM      8  C   LIG d   1      -3.451  80.409 116.113  0.00  0.00     0.119 C 
BRANCH   8   9
ATOM      9  C   LIG d   1      -2.395  81.399 115.584  0.00  0.00     0.028 C 
ATOM     10  C   LIG d   1      -2.521  81.637 114.070  0.00  0.00     0.006 C 
ENDBRANCH   8   9
BRANCH   8  11
ATOM     11  C   LIG d   1      -4.156  81.143 117.258  0.00  0.00     0.028 C 
ATOM     12  C   LIG d   1      -5.546  80.566 117.568  0.00  0.00     0.006 C 
ENDBRANCH   8  11
ENDBRANCH   7   8
ENDBRANCH   1   7
BRANCH   6  13
ATOM     13  N   LIG d   1      -0.085  78.613 115.325  0.00  0.00    -0.311 N 
ATOM     14  C   LIG d   1       0.601  79.433 116.119  0.00  0.00     0.210 C 
ATOM     15  C   LIG d   1       1.551  80.391 115.394  0.00  0.00     0.109 C 
ATOM     16  O   LIG d   1       0.538  79.435 117.358  0.00  0.00    -0.276 OA
ATOM     17  H   LIG d   1       0.052  78.658 114.334  0.00  0.00     0.149 HD
ENDBRANCH   6  13
BRANCH   5  18
ATOM     18  N   LIG d   1       0.373  75.594 115.427  0.00  0.00     0.381 N 
ATOM     19  H   LIG d   1       0.624  75.742 116.384  0.00  0.00    -0.090 HD
ATOM     20  H   LIG d   1       1.079  76.012 114.847  0.00  0.00    -0.090 HD
ATOM     21  H   LIG d   1       0.313  74.618 115.239  0.00  0.00    -0.090 HD
ENDBRANCH   5  18
BRANCH   3  22
ATOM     22  C   LIG d   1      -4.382  75.020 115.369  0.00  0.00     0.382 C 
ATOM     23  O   LIG d   1      -4.908  74.917 114.235  0.00  0.00    -0.241 OA
ATOM     24  O   LIG d   1      -4.861  74.385 116.328  0.00  0.00    -0.241 OA
ENDBRANCH   3  22
TORSDOF 7
ENDMDL
MODEL 6
REMARK VINA RESULT:      -4.4      2.484      4.724
REMARK  7 active torsions:
REMARK  status: ('A' for Active; 'I' for Inactive)
REMARK    1  A    between atoms: C_2  and  C_3 
REMARK    2  A    between atoms: C_3  and  O_6 
REMARK    3  A    between atoms: C_3  and  C_4 
REMARK    4  A    between atoms: C_7  and  O_6 
REMARK    5  A    between atoms: C_9  and  C_10 
REMARK    6  A    between atoms: N_15  and  C_14 
REMARK    7  A    between atoms: N_20  and  C_19 
REMARK       I    between atoms: C_22  and  N_20 
ROOT
ATOM      1  C   LIG d   1      -0.650  77.758 115.558  0.00  0.00     0.161 C 
ATOM      2  C   LIG d   1      -1.897  77.647 114.921  0.00  0.00     0.016 C 
ATOM      3  C   LIG d   1      -2.701  76.485 114.982  0.00  0.00     0.038 C 
ATOM      4  C   LIG d   1      -2.379  75.403 115.815  0.00  0.00     0.028 C 
ATOM      5  C   LIG d   1      -0.884  75.267 116.080  0.00  0.00    -0.047 C 
ATOM      6  C   LIG d   1      -0.333  76.629 116.562  0.00  0.00     0.091 C 
ENDROOT
BRANCH   1   7
ATOM      7  O   LIG d   1      -0.542  79.044 116.200  0.00  0.00    -0.368 OA
BRANCH   7   8
ATOM      8  C   LIG d   1      -1.791  79.678 116.570  0.00  0.00     0.119 C 
BRANCH   8   9
ATOM      9  C   LIG d   1      -1.685  81.167 116.188  0.00  0.00     0.028 C 
ATOM     10  C   LIG d   1      -2.640  81.549 115.045  0.00  0.00     0.006 C 
ENDBRANCH   8   9
BRANCH   8  11
ATOM     11  C   LIG d   1      -1.995  79.662 118.088  0.00  0.00     0.028 C 
ATOM     12  C   LIG d   1      -2.912  78.521 118.554  0.00  0.00     0.006 C 
ENDBRANCH   8  11
ENDBRANCH   7   8
ENDBRANCH   1   7
BRANCH   6  13
ATOM     13  N   LIG d   1       1.139  76.606 116.764  0.00  0.00    -0.311 N 
ATOM     14  C   LIG d   1       1.713  76.423 117.951  0.00  0.00     0.210 C 
ATOM     15  C   LIG d   1       3.245  76.455 117.941  0.00  0.00     0.109 C 
ATOM     16  O   LIG d   1       1.100  76.205 119.007  0.00  0.00    -0.276 OA
ATOM     17  H   LIG d   1       1.712  76.744 115.955  0.00  0.00     0.149 HD
ENDBRANCH   6  13
BRANCH   5  18
ATOM     18  N   LIG d   1      -0.703  74.188 117.069  0.00  0.00     0.381 N 
ATOM     19  H   LIG d   1      -0.521  73.324 116.599  0.00  0.00    -0.090 HD
ATOM     20  H   LIG d   1      -1.551  74.087 117.599  0.00  0.00    -0.090 HD
ATOM     21  H   LIG d   1       0.054  74.408 117.679  0.00  0.00    -0.090 HD
ENDBRANCH   5  18
BRANCH   3  22
ATOM     22  C   LIG d   1      -3.822  76.383 114.172  0.00  0.00     0.382 C 
ATOM     23  O   LIG d   1      -4.719  75.549 114.446  0.00  0.00    -0.241 OA
ATOM     24  O   LIG d   1      -3.927  77.082 113.147  0.00  0.00    -0.241 OA
ENDBRANCH   3  22
TORSDOF 7
ENDMDL
MODEL 7
REMARK VINA RESULT:      -4.3      2.142      2.698
REMARK  7 active torsions:
REMARK  status: ('A' for Active; 'I' for Inactive)
REMARK    1  A    between atoms: C_2  and  C_3 
REMARK    2  A    between atoms: C_3  and  O_6 
REMARK    3  A    between atoms: C_3  and  C_4 
REMARK    4  A    between atoms: C_7  and  O_6 
REMARK    5  A    between atoms: C_9  and  C_10 
REMARK    6  A    between atoms: N_15  and  C_14 
REMARK    7  A    between atoms: N_20  and  C_19 
REMARK       I    between atoms: C_22  and  N_20 
ROOT
ATOM      1  C   LIG d   1      -2.334  78.244 116.523  0.00  0.00     0.161 C 
ATOM      2  C   LIG d   1      -2.731  79.059 115.450  0.00  0.00     0.016 C 
ATOM      3  C   LIG d   1      -2.363  78.812 114.107  0.00  0.00     0.038 C 
ATOM      4  C   LIG d   1      -1.694  77.640 113.725  0.00  0.00     0.028 C 
ATOM      5  C   LIG d   1      -0.837  77.042 114.836  0.00  0.00    -0.047 C 
ATOM      6  C   LIG d   1      -1.697  76.899 116.112  0.00  0.00     0.091 C 
ENDROOT
BRANCH   1   7
ATOM      7  O   LIG d   1      -3.451  78.020 117.406  0.00  0.00    -0.368 OA
BRANCH   7   8
ATOM      8  C   LIG d   1      -4.717  77.718 116.769  0.00  0.00     0.119 C 
BRANCH   8   9
ATOM      9  C   LIG d   1      -5.820  78.442 117.564  0.00  0.00     0.028 C 
ATOM     10  C   LIG d   1      -5.614  79.966 117.599  0.00  0.00     0.006 C 
ENDBRANCH   8   9
BRANCH   8  11
ATOM     11  C   LIG d   1      -5.052  76.227 116.875  0.00  0.00     0.028 C 
ATOM     12  C   LIG d   1      -5.431  75.603 115.523  0.00  0.00     0.006 C 
ENDBRANCH   8  11
ENDBRANCH   7   8
ENDBRANCH   1   7
BRANCH   6  13
ATOM     13  N   LIG d   1      -0.913  76.400 117.271  0.00  0.00    -0.311 N 
ATOM     14  C   LIG d   1      -0.803  75.110 117.582  0.00  0.00     0.210 C 
ATOM     15  C   LIG d   1       0.036  74.813 118.829  0.00  0.00     0.109 C 
ATOM     16  O   LIG d   1      -1.295  74.180 116.924  0.00  0.00    -0.276 OA
ATOM     17  H   LIG d   1      -0.455  77.085 117.841  0.00  0.00     0.149 HD
ENDBRANCH   6  13
BRANCH   5  18
ATOM     18  N   LIG d   1      -0.309  75.755 114.347  0.00  0.00     0.381 N 
ATOM     19  H   LIG d   1      -0.775  75.000 114.809  0.00  0.00    -0.090 HD
ATOM     20  H   LIG d   1       0.671  75.701 114.566  0.00  0.00    -0.090 HD
ATOM     21  H   LIG d   1      -0.441  75.683 113.362  0.00  0.00    -0.090 HD
ENDBRANCH   5  18
BRANCH   3  22
ATOM     22  C   LIG d   1      -2.630  79.764 113.135  0.00  0.00     0.382 C 
ATOM     23  O   LIG d   1      -2.160  79.630 111.980  0.00  0.00    -0.241 OA
ATOM     24  O   LIG d   1      -3.299  80.779 113.411  0.00  0.00    -0.241 OA
ENDBRANCH   3  22
TORSDOF 7
ENDMDL
MODEL 8
REMARK VINA RESULT:      -4.1      3.238      4.443
REMARK  7 active torsions:
REMARK  status: ('A' for Active; 'I' for Inactive)
REMARK    1  A    between atoms: C_2  and  C_3 
REMARK    2  A    between atoms: C_3  and  O_6 
REMARK    3  A    between atoms: C_3  and  C_4 
REMARK    4  A    between atoms: C_7  and  O_6 
REMARK    5  A    between atoms: C_9  and  C_10 
REMARK    6  A    between atoms: N_15  and  C_14 
REMARK    7  A    between atoms: N_20  and  C_19 
REMARK       I    between atoms: C_22  and  N_20 
ROOT
ATOM      1  C   LIG d   1      -3.078  80.414 115.922  0.00  0.00     0.161 C 
ATOM      2  C   LIG d   1      -2.790  80.985 114.671  0.00  0.00     0.016 C 
ATOM      3  C   LIG d   1      -2.254  80.253 113.587  0.00  0.00     0.038 C 
ATOM      4  C   LIG d   1      -2.109  78.859 113.633  0.00  0.00     0.028 C 
ATOM      5  C   LIG d   1      -1.913  78.316 115.045  0.00  0.00    -0.047 C 
ATOM      6  C   LIG d   1      -3.031  78.872 115.956  0.00  0.00     0.091 C 
ENDROOT
BRANCH   1   7
ATOM      7  O   LIG d   1      -4.356  80.887 116.393  0.00  0.00    -0.368 OA
BRANCH   7   8
ATOM      8  C   LIG d   1      -4.326  82.044 117.264  0.00  0.00     0.119 C 
BRANCH   8   9
ATOM      9  C   LIG d   1      -3.071  81.924 118.150  0.00  0.00     0.028 C 
ATOM     10  C   LIG d   1      -2.092  83.091 117.942  0.00  0.00     0.006 C 
ENDBRANCH   8   9
BRANCH   8  11
ATOM     11  C   LIG d   1      -5.510  82.040 118.236  0.00  0.00     0.028 C 
ATOM     12  C   LIG d   1      -5.075  81.926 119.705  0.00  0.00     0.006 C 
ENDBRANCH   8  11
ENDBRANCH   7   8
ENDBRANCH   1   7
BRANCH   6  13
ATOM     13  N   LIG d   1      -2.865  78.458 117.374  0.00  0.00    -0.311 N 
ATOM     14  C   LIG d   1      -3.456  77.386 117.898  0.00  0.00     0.210 C 
ATOM     15  C   LIG d   1      -3.167  77.151 119.384  0.00  0.00     0.109 C 
ATOM     16  O   LIG d   1      -4.166  76.590 117.266  0.00  0.00    -0.276 OA
ATOM     17  H   LIG d   1      -2.280  79.031 117.951  0.00  0.00     0.149 HD
ENDBRANCH   6  13
BRANCH   5  18
ATOM     18  N   LIG d   1      -1.914  76.844 114.961  0.00  0.00     0.381 N 
ATOM     19  H   LIG d   1      -2.291  76.555 114.080  0.00  0.00    -0.090 HD
ATOM     20  H   LIG d   1      -2.500  76.477 115.690  0.00  0.00    -0.090 HD
ATOM     21  H   LIG d   1      -0.986  76.495 115.064  0.00  0.00    -0.090 HD
ENDBRANCH   5  18
BRANCH   3  22
ATOM     22  C   LIG d   1      -1.819  80.924 112.454  0.00  0.00     0.382 C 
ATOM     23  O   LIG d   1      -2.141  82.122 112.272  0.00  0.00    -0.241 OA
ATOM     24  O   LIG d   1      -1.145  80.332 111.589  0.00  0.00    -0.241 OA
ENDBRANCH   3  22
TORSDOF 7
ENDMDL
MODEL 9
REMARK VINA RESULT:      -4.1      2.164      2.912
REMARK  7 active torsions:
REMARK  status: ('A' for Active; 'I' for Inactive)
REMARK    1  A    between atoms: C_2  and  C_3 
REMARK    2  A    between atoms: C_3  and  O_6 
REMARK    3  A    between atoms: C_3  and  C_4 
REMARK    4  A    between atoms: C_7  and  O_6 
REMARK    5  A    between atoms: C_9  and  C_10 
REMARK    6  A    between atoms: N_15  and  C_14 
REMARK    7  A    between atoms: N_20  and  C_19 
REMARK       I    between atoms: C_22  and  N_20 
ROOT
ATOM      1  C   LIG d   1      -2.770  76.827 116.116  0.00  0.00     0.161 C 
ATOM      2  C   LIG d   1      -2.951  77.780 115.100  0.00  0.00     0.016 C 
ATOM      3  C   LIG d   1      -2.172  77.817 113.920  0.00  0.00     0.038 C 
ATOM      4  C   LIG d   1      -1.254  76.804 113.605  0.00  0.00     0.028 C 
ATOM      5  C   LIG d   1      -0.682  76.102 114.833  0.00  0.00    -0.047 C 
ATOM      6  C   LIG d   1      -1.848  75.648 115.740  0.00  0.00     0.091 C 
ENDROOT
BRANCH   1   7
ATOM      7  O   LIG d   1      -4.051  76.340 116.562  0.00  0.00    -0.368 OA
BRANCH   7   8
ATOM      8  C   LIG d   1      -4.690  75.357 115.711  0.00  0.00     0.119 C 
BRANCH   8   9
ATOM      9  C   LIG d   1      -5.930  76.023 115.085  0.00  0.00     0.028 C 
ATOM     10  C   LIG d   1      -5.862  76.064 113.549  0.00  0.00     0.006 C 
ENDBRANCH   8   9
BRANCH   8  11
ATOM     11  C   LIG d   1      -5.232  74.180 116.529  0.00  0.00     0.028 C 
ATOM     12  C   LIG d   1      -4.755  74.200 117.990  0.00  0.00     0.006 C 
ENDBRANCH   8  11
ENDBRANCH   7   8
ENDBRANCH   1   7
BRANCH   6  13
ATOM     13  N   LIG d   1      -1.374  75.027 117.004  0.00  0.00    -0.311 N 
ATOM     14  C   LIG d   1      -0.499  75.608 117.823  0.00  0.00     0.210 C 
ATOM     15  C   LIG d   1      -0.130  74.787 119.063  0.00  0.00     0.109 C 
ATOM     16  O   LIG d   1      -0.018  76.739 117.657  0.00  0.00    -0.276 OA
ATOM     17  H   LIG d   1      -1.737  74.122 117.232  0.00  0.00     0.149 HD
ENDBRANCH   6  13
BRANCH   5  18
ATOM     18  N   LIG d   1       0.151  74.982 114.358  0.00  0.00     0.381 N 
ATOM     19  H   LIG d   1       0.196  74.993 113.358  0.00  0.00    -0.090 HD
ATOM     20  H   LIG d   1      -0.272  74.117 114.645  0.00  0.00    -0.090 HD
ATOM     21  H   LIG d   1       1.069  75.054 114.740  0.00  0.00    -0.090 HD
ENDBRANCH   5  18
BRANCH   3  22
ATOM     22  C   LIG d   1      -2.281  78.898 113.058  0.00  0.00     0.382 C 
ATOM     23  O   LIG d   1      -3.349  79.095 112.431  0.00  0.00    -0.241 OA
ATOM     24  O   LIG d   1      -1.309  79.653 112.867  0.00  0.00    -0.241 OA
ENDBRANCH   3  22
TORSDOF 7
ENDMDL
