MODEL 1
REMARK VINA RESULT:      -5.5      0.000      0.000
REMARK  7 active torsions:
REMARK  status: ('A' for Active; 'I' for Inactive)
REMARK    1  A    between atoms: C_2  and  C_3 
REMARK    2  A    between atoms: C_3  and  O_6 
REMARK    3  A    between atoms: C_3  and  C_4 
REMARK    4  A    between atoms: C_7  and  O_6 
REMARK    5  A    between atoms: C_9  and  C_10 
REMARK    6  A    between atoms: N_15  and  C_14 
REMARK    7  A    between atoms: N_20  and  C_19 
REMARK       I    between atoms: C_22  and  N_20 
ROOT
ATOM      1  C   LIG d   1       0.410  81.476 113.189  0.00  0.00     0.161 C 
ATOM      2  C   LIG d   1       1.306  82.360 112.566  0.00  0.00     0.016 C 
ATOM      3  C   LIG d   1       1.506  82.407 111.167  0.00  0.00     0.038 C 
ATOM      4  C   LIG d   1       0.707  81.672 110.279  0.00  0.00     0.028 C 
ATOM      5  C   LIG d   1       0.138  80.396 110.890  0.00  0.00    -0.047 C 
ATOM      6  C   LIG d   1      -0.551  80.745 112.229  0.00  0.00     0.091 C 
ENDROOT
BRANCH   1   7
ATOM      7  O   LIG d   1      -0.334  82.173 114.208  0.00  0.00    -0.368 OA
BRANCH   7   8
ATOM      8  C   LIG d   1      -1.526  82.867 113.765  0.00  0.00     0.119 C 
BRANCH   8   9
ATOM      9  C   LIG d   1      -1.268  84.378 113.920  0.00  0.00     0.028 C 
ATOM     10  C   LIG d   1      -0.132  84.680 114.913  0.00  0.00     0.006 C 
ENDBRANCH   8   9
BRANCH   8  11
ATOM     11  C   LIG d   1      -2.719  82.564 114.676  0.00  0.00     0.028 C 
ATOM     12  C   LIG d   1      -2.339  81.694 115.885  0.00  0.00     0.006 C 
ENDBRANCH   8  11
ENDBRANCH   7   8
ENDBRANCH   1   7
BRANCH   6  13
ATOM     13  N   LIG d   1      -1.062  79.540 112.934  0.00  0.00    -0.311 N 
ATOM     14  C   LIG d   1      -2.355  79.235 113.021  0.00  0.00     0.210 C 
ATOM     15  C   LIG d   1      -2.667  77.960 113.810  0.00  0.00     0.109 C 
ATOM     16  O   LIG d   1      -3.271  79.882 112.492  0.00  0.00    -0.276 OA
ATOM     17  H   LIG d   1      -0.384  78.943 113.365  0.00  0.00     0.149 HD
ENDBRANCH   6  13
BRANCH   5  18
ATOM     18  N   LIG d   1      -0.783  79.802 109.903  0.00  0.00     0.381 N 
ATOM     19  H   LIG d   1      -1.073  78.896 110.212  0.00  0.00    -0.090 HD
ATOM     20  H   LIG d   1      -0.299  79.697 109.028  0.00  0.00    -0.090 HD
ATOM     21  H   LIG d   1      -1.579  80.389 109.782  0.00  0.00    -0.090 HD
ENDBRANCH   5  18
BRANCH   3  22
ATOM     22  C   LIG d   1       2.543  83.167 110.646  0.00  0.00     0.382 C 
ATOM     23  O   LIG d   1       3.438  83.610 111.405  0.00  0.00    -0.241 OA
ATOM     24  O   LIG d   1       2.570  83.453 109.434  0.00  0.00    -0.241 OA
ENDBRANCH   3  22
TORSDOF 7
ENDMDL
MODEL 2
REMARK VINA RESULT:      -5.3      3.267      4.845
REMARK  7 active torsions:
REMARK  status: ('A' for Active; 'I' for Inactive)
REMARK    1  A    between atoms: C_2  and  C_3 
REMARK    2  A    between atoms: C_3  and  O_6 
REMARK    3  A    between atoms: C_3  and  C_4 
REMARK    4  A    between atoms: C_7  and  O_6 
REMARK    5  A    between atoms: C_9  and  C_10 
REMARK    6  A    between atoms: N_15  and  C_14 
REMARK    7  A    between atoms: N_20  and  C_19 
REMARK       I    between atoms: C_22  and  N_20 
ROOT
ATOM      1  C   LIG d   1      -1.663  79.515 115.498  0.00  0.00     0.161 C 
ATOM      2  C   LIG d   1      -1.971  80.868 115.276  0.00  0.00     0.016 C 
ATOM      3  C   LIG d   1      -2.215  81.410 113.993  0.00  0.00     0.038 C 
ATOM      4  C   LIG d   1      -2.316  80.599 112.852  0.00  0.00     0.028 C 
ATOM      5  C   LIG d   1      -1.515  79.306 112.955  0.00  0.00    -0.047 C 
ATOM      6  C   LIG d   1      -1.878  78.594 114.279  0.00  0.00     0.091 C 
ENDROOT
BRANCH   1   7
ATOM      7  O   LIG d   1      -2.404  79.025 116.633  0.00  0.00    -0.368 OA
BRANCH   7   8
ATOM      8  C   LIG d   1      -3.798  78.711 116.397  0.00  0.00     0.119 C 
BRANCH   8   9
ATOM      9  C   LIG d   1      -4.643  79.753 117.156  0.00  0.00     0.028 C 
ATOM     10  C   LIG d   1      -3.931  80.282 118.412  0.00  0.00     0.006 C 
ENDBRANCH   8   9
BRANCH   8  11
ATOM     11  C   LIG d   1      -4.176  77.359 117.008  0.00  0.00     0.028 C 
ATOM     12  C   LIG d   1      -3.008  76.697 117.757  0.00  0.00     0.006 C 
ENDBRANCH   8  11
ENDBRANCH   7   8
ENDBRANCH   1   7
BRANCH   6  13
ATOM     13  N   LIG d   1      -1.077  77.362 114.499  0.00  0.00    -0.311 N 
ATOM     14  C   LIG d   1      -1.584  76.133 114.417  0.00  0.00     0.210 C 
ATOM     15  C   LIG d   1      -0.589  75.003 114.700  0.00  0.00     0.109 C 
ATOM     16  O   LIG d   1      -2.755  75.871 114.107  0.00  0.00    -0.276 OA
ATOM     17  H   LIG d   1      -0.109  77.482 114.725  0.00  0.00     0.149 HD
ENDBRANCH   6  13
BRANCH   5  18
ATOM     18  N   LIG d   1      -1.820  78.496 111.761  0.00  0.00     0.381 N 
ATOM     19  H   LIG d   1      -1.065  77.865 111.578  0.00  0.00    -0.090 HD
ATOM     20  H   LIG d   1      -1.918  79.108 110.970  0.00  0.00    -0.090 HD
ATOM     21  H   LIG d   1      -2.663  77.985 111.902  0.00  0.00    -0.090 HD
ENDBRANCH   5  18
BRANCH   3  22
ATOM     22  C   LIG d   1      -2.321  82.783 113.836  0.00  0.00     0.382 C 
ATOM     23  O   LIG d   1      -2.956  83.463 114.677  0.00  0.00    -0.241 OA
ATOM     24  O   LIG d   1      -1.827  83.345 112.840  0.00  0.00    -0.241 OA
ENDBRANCH   3  22
TORSDOF 7
ENDMDL
MODEL 3
REMARK VINA RESULT:      -5.2      3.206      4.392
REMARK  7 active torsions:
REMARK  status: ('A' for Active; 'I' for Inactive)
REMARK    1  A    between atoms: C_2  and  C_3 
REMARK    2  A    between atoms: C_3  and  O_6 
REMARK    3  A    between atoms: C_3  and  C_4 
REMARK    4  A    between atoms: C_7  and  O_6 
REMARK    5  A    between atoms: C_9  and  C_10 
REMARK    6  A    between atoms: N_15  and  C_14 
REMARK    7  A    between atoms: N_20  and  C_19 
REMARK       I    between atoms: C_22  and  N_20 
ROOT
ATOM      1  C   LIG d   1      -1.394  79.655 115.475  0.00  0.00     0.161 C 
ATOM      2  C   LIG d   1      -1.686  81.002 115.205  0.00  0.00     0.016 C 
ATOM      3  C   LIG d   1      -2.060  81.477 113.927  0.00  0.00     0.038 C 
ATOM      4  C   LIG d   1      -2.317  80.605 112.858  0.00  0.00     0.028 C 
ATOM      5  C   LIG d   1      -1.547  79.292 112.950  0.00  0.00    -0.047 C 
ATOM      6  C   LIG d   1      -1.776  78.673 114.348  0.00  0.00     0.091 C 
ENDROOT
BRANCH   1   7
ATOM      7  O   LIG d   1      -2.013  79.260 116.715  0.00  0.00    -0.368 OA
BRANCH   7   8
ATOM      8  C   LIG d   1      -2.468  80.336 117.572  0.00  0.00     0.119 C 
BRANCH   8   9
ATOM      9  C   LIG d   1      -1.509  80.405 118.777  0.00  0.00     0.028 C 
ATOM     10  C   LIG d   1      -0.636  81.671 118.761  0.00  0.00     0.006 C 
ENDBRANCH   8   9
BRANCH   8  11
ATOM     11  C   LIG d   1      -3.846  80.031 118.166  0.00  0.00     0.028 C 
ATOM     12  C   LIG d   1      -4.998  80.400 117.219  0.00  0.00     0.006 C 
ENDBRANCH   8  11
ENDBRANCH   7   8
ENDBRANCH   1   7
BRANCH   6  13
ATOM     13  N   LIG d   1      -0.992  77.427 114.551  0.00  0.00    -0.311 N 
ATOM     14  C   LIG d   1      -1.528  76.208 114.512  0.00  0.00     0.210 C 
ATOM     15  C   LIG d   1      -0.545  75.061 114.768  0.00  0.00     0.109 C 
ATOM     16  O   LIG d   1      -2.717  75.967 114.257  0.00  0.00    -0.276 OA
ATOM     17  H   LIG d   1      -0.012  77.529 114.733  0.00  0.00     0.149 HD
ENDBRANCH   6  13
BRANCH   5  18
ATOM     18  N   LIG d   1      -2.012  78.425 111.850  0.00  0.00     0.381 N 
ATOM     19  H   LIG d   1      -2.111  77.485 112.178  0.00  0.00    -0.090 HD
ATOM     20  H   LIG d   1      -1.325  78.433 111.117  0.00  0.00    -0.090 HD
ATOM     21  H   LIG d   1      -2.885  78.756 111.501  0.00  0.00    -0.090 HD
ENDBRANCH   5  18
BRANCH   3  22
ATOM     22  C   LIG d   1      -2.143  82.842 113.698  0.00  0.00     0.382 C 
ATOM     23  O   LIG d   1      -2.647  83.594 114.566  0.00  0.00    -0.241 OA
ATOM     24  O   LIG d   1      -1.760  83.325 112.616  0.00  0.00    -0.241 OA
ENDBRANCH   3  22
TORSDOF 7
ENDMDL
MODEL 4
REMARK VINA RESULT:      -5.1      2.551      3.945
REMARK  7 active torsions:
REMARK  status: ('A' for Active; 'I' for Inactive)
REMARK    1  A    between atoms: C_2  and  C_3 
REMARK    2  A    between atoms: C_3  and  O_6 
REMARK    3  A    between atoms: C_3  and  C_4 
REMARK    4  A    between atoms: C_7  and  O_6 
REMARK    5  A    between atoms: C_9  and  C_10 
REMARK    6  A    between atoms: N_15  and  C_14 
REMARK    7  A    between atoms: N_20  and  C_19 
REMARK       I    between atoms: C_22  and  N_20 
ROOT
ATOM      1  C   LIG d   1      -1.495  80.641 114.939  0.00  0.00     0.161 C 
ATOM      2  C   LIG d   1      -1.451  82.004 114.599  0.00  0.00     0.016 C 
ATOM      3  C   LIG d   1      -1.371  82.471 113.267  0.00  0.00     0.038 C 
ATOM      4  C   LIG d   1      -1.483  81.605 112.170  0.00  0.00     0.028 C 
ATOM      5  C   LIG d   1      -1.021  80.183 112.471  0.00  0.00    -0.047 C 
ATOM      6  C   LIG d   1      -1.729  79.685 113.751  0.00  0.00     0.091 C 
ENDROOT
BRANCH   1   7
ATOM      7  O   LIG d   1      -2.488  80.424 115.961  0.00  0.00    -0.368 OA
BRANCH   7   8
ATOM      8  C   LIG d   1      -2.004  79.892 117.218  0.00  0.00     0.119 C 
BRANCH   8   9
ATOM      9  C   LIG d   1      -2.980  78.784 117.659  0.00  0.00     0.028 C 
ATOM     10  C   LIG d   1      -4.128  78.581 116.656  0.00  0.00     0.006 C 
ENDBRANCH   8   9
BRANCH   8  11
ATOM     11  C   LIG d   1      -2.059  80.946 118.328  0.00  0.00     0.028 C 
ATOM     12  C   LIG d   1      -0.707  81.639 118.560  0.00  0.00     0.006 C 
ENDBRANCH   8  11
ENDBRANCH   7   8
ENDBRANCH   1   7
BRANCH   6  13
ATOM     13  N   LIG d   1      -1.271  78.333 114.164  0.00  0.00    -0.311 N 
ATOM     14  C   LIG d   1      -1.961  77.220 113.924  0.00  0.00     0.210 C 
ATOM     15  C   LIG d   1      -1.317  75.934 114.453  0.00  0.00     0.109 C 
ATOM     16  O   LIG d   1      -3.028  77.171 113.295  0.00  0.00    -0.276 OA
ATOM     17  H   LIG d   1      -0.398  78.277 114.653  0.00  0.00     0.149 HD
ENDBRANCH   6  13
BRANCH   5  18
ATOM     18  N   LIG d   1      -1.320  79.357 111.286  0.00  0.00     0.381 N 
ATOM     19  H   LIG d   1      -1.933  78.609 111.541  0.00  0.00    -0.090 HD
ATOM     20  H   LIG d   1      -0.463  78.959 110.942  0.00  0.00    -0.090 HD
ATOM     21  H   LIG d   1      -1.742  79.916 110.578  0.00  0.00    -0.090 HD
ENDBRANCH   5  18
BRANCH   3  22
ATOM     22  C   LIG d   1      -1.138  83.816 113.024  0.00  0.00     0.382 C 
ATOM     23  O   LIG d   1      -1.168  84.255 111.849  0.00  0.00    -0.241 OA
ATOM     24  O   LIG d   1      -0.854  84.587 113.959  0.00  0.00    -0.241 OA
ENDBRANCH   3  22
TORSDOF 7
ENDMDL
MODEL 5
REMARK VINA RESULT:      -4.9      2.184      5.412
REMARK  7 active torsions:
REMARK  status: ('A' for Active; 'I' for Inactive)
REMARK    1  A    between atoms: C_2  and  C_3 
REMARK    2  A    between atoms: C_3  and  O_6 
REMARK    3  A    between atoms: C_3  and  C_4 
REMARK    4  A    between atoms: C_7  and  O_6 
REMARK    5  A    between atoms: C_9  and  C_10 
REMARK    6  A    between atoms: N_15  and  C_14 
REMARK    7  A    between atoms: N_20  and  C_19 
REMARK       I    between atoms: C_22  and  N_20 
ROOT
ATOM      1  C   LIG d   1      -2.286  80.757 114.026  0.00  0.00     0.161 C 
ATOM      2  C   LIG d   1      -2.725  79.546 114.587  0.00  0.00     0.016 C 
ATOM      3  C   LIG d   1      -2.602  78.297 113.937  0.00  0.00     0.038 C 
ATOM      4  C   LIG d   1      -1.889  78.153 112.737  0.00  0.00     0.028 C 
ATOM      5  C   LIG d   1      -1.868  79.420 111.889  0.00  0.00    -0.047 C 
ATOM      6  C   LIG d   1      -1.406  80.605 112.768  0.00  0.00     0.091 C 
ENDROOT
BRANCH   1   7
ATOM      7  O   LIG d   1      -1.601  81.538 115.025  0.00  0.00    -0.368 OA
BRANCH   7   8
ATOM      8  C   LIG d   1      -0.214  81.193 115.263  0.00  0.00     0.119 C 
BRANCH   8   9
ATOM      9  C   LIG d   1      -0.104  80.697 116.718  0.00  0.00     0.028 C 
ATOM     10  C   LIG d   1      -1.104  81.396 117.654  0.00  0.00     0.006 C 
ENDBRANCH   8   9
BRANCH   8  11
ATOM     11  C   LIG d   1       0.688  82.428 115.187  0.00  0.00     0.028 C 
ATOM     12  C   LIG d   1      -0.095  83.722 114.914  0.00  0.00     0.006 C 
ENDBRANCH   8  11
ENDBRANCH   7   8
ENDBRANCH   1   7
BRANCH   6  13
ATOM     13  N   LIG d   1      -1.438  81.899 112.037  0.00  0.00    -0.311 N 
ATOM     14  C   LIG d   1      -0.369  82.438 111.454  0.00  0.00     0.210 C 
ATOM     15  C   LIG d   1      -0.617  83.787 110.772  0.00  0.00     0.109 C 
ATOM     16  O   LIG d   1       0.753  81.912 111.410  0.00  0.00    -0.276 OA
ATOM     17  H   LIG d   1      -2.316  82.378 111.998  0.00  0.00     0.149 HD
ENDBRANCH   6  13
BRANCH   5  18
ATOM     18  N   LIG d   1      -0.979  79.172 110.739  0.00  0.00     0.381 N 
ATOM     19  H   LIG d   1      -1.522  78.909 109.941  0.00  0.00    -0.090 HD
ATOM     20  H   LIG d   1      -0.361  78.412 110.964  0.00  0.00    -0.090 HD
ATOM     21  H   LIG d   1      -0.450  79.991 110.534  0.00  0.00    -0.090 HD
ENDBRANCH   5  18
BRANCH   3  22
ATOM     22  C   LIG d   1      -3.230  77.181 114.467  0.00  0.00     0.382 C 
ATOM     23  O   LIG d   1      -3.737  76.324 113.703  0.00  0.00    -0.241 OA
ATOM     24  O   LIG d   1      -3.336  77.041 115.701  0.00  0.00    -0.241 OA
ENDBRANCH   3  22
TORSDOF 7
ENDMDL
MODEL 6
REMARK VINA RESULT:      -4.8      2.193      5.337
REMARK  7 active torsions:
REMARK  status: ('A' for Active; 'I' for Inactive)
REMARK    1  A    between atoms: C_2  and  C_3 
REMARK    2  A    between atoms: C_3  and  O_6 
REMARK    3  A    between atoms: C_3  and  C_4 
REMARK    4  A    between atoms: C_7  and  O_6 
REMARK    5  A    between atoms: C_9  and  C_10 
REMARK    6  A    between atoms: N_15  and  C_14 
REMARK    7  A    between atoms: N_20  and  C_19 
REMARK       I    between atoms: C_22  and  N_20 
ROOT
ATOM      1  C   LIG d   1      -1.509  80.236 114.587  0.00  0.00     0.161 C 
ATOM      2  C   LIG d   1      -2.141  79.062 115.030  0.00  0.00     0.016 C 
ATOM      3  C   LIG d   1      -2.480  77.990 114.173  0.00  0.00     0.038 C 
ATOM      4  C   LIG d   1      -2.072  77.956 112.831  0.00  0.00     0.028 C 
ATOM      5  C   LIG d   1      -1.876  79.340 112.222  0.00  0.00    -0.047 C 
ATOM      6  C   LIG d   1      -0.957  80.170 113.148  0.00  0.00     0.091 C 
ENDROOT
BRANCH   1   7
ATOM      7  O   LIG d   1      -0.464  80.606 115.509  0.00  0.00    -0.368 OA
BRANCH   7   8
ATOM      8  C   LIG d   1      -0.663  81.844 116.235  0.00  0.00     0.119 C 
BRANCH   8   9
ATOM      9  C   LIG d   1       0.566  82.736 115.975  0.00  0.00     0.028 C 
ATOM     10  C   LIG d   1       0.210  84.015 115.200  0.00  0.00     0.006 C 
ENDBRANCH   8   9
BRANCH   8  11
ATOM     11  C   LIG d   1      -0.680  81.606 117.748  0.00  0.00     0.028 C 
ATOM     12  C   LIG d   1      -2.001  80.995 118.240  0.00  0.00     0.006 C 
ENDBRANCH   8  11
ENDBRANCH   7   8
ENDBRANCH   1   7
BRANCH   6  13
ATOM     13  N   LIG d   1      -0.780  81.566 112.669  0.00  0.00    -0.311 N 
ATOM     14  C   LIG d   1       0.239  81.956 111.906  0.00  0.00     0.210 C 
ATOM     15  C   LIG d   1       0.241  83.444 111.541  0.00  0.00     0.109 C 
ATOM     16  O   LIG d   1       1.124  81.205 111.471  0.00  0.00    -0.276 OA
ATOM     17  H   LIG d   1      -1.470  82.235 112.950  0.00  0.00     0.149 HD
ENDBRANCH   6  13
BRANCH   5  18
ATOM     18  N   LIG d   1      -1.319  79.157 110.869  0.00  0.00     0.381 N 
ATOM     19  H   LIG d   1      -0.387  79.519 110.834  0.00  0.00    -0.090 HD
ATOM     20  H   LIG d   1      -1.882  79.671 110.214  0.00  0.00    -0.090 HD
ATOM     21  H   LIG d   1      -1.317  78.190 110.629  0.00  0.00    -0.090 HD
ENDBRANCH   5  18
BRANCH   3  22
ATOM     22  C   LIG d   1      -3.271  76.955 114.647  0.00  0.00     0.382 C 
ATOM     23  O   LIG d   1      -3.206  75.821 114.114  0.00  0.00    -0.241 OA
ATOM     24  O   LIG d   1      -4.081  77.151 115.573  0.00  0.00    -0.241 OA
ENDBRANCH   3  22
TORSDOF 7
ENDMDL
MODEL 7
REMARK VINA RESULT:      -4.7      3.029      4.791
REMARK  7 active torsions:
REMARK  status: ('A' for Active; 'I' for Inactive)
REMARK    1  A    between atoms: C_2  and  C_3 
REMARK    2  A    between atoms: C_3  and  O_6 
REMARK    3  A    between atoms: C_3  and  C_4 
REMARK    4  A    between atoms: C_7  and  O_6 
REMARK    5  A    between atoms: C_9  and  C_10 
REMARK    6  A    between atoms: N_15  and  C_14 
REMARK    7  A    between atoms: N_20  and  C_19 
REMARK       I    between atoms: C_22  and  N_20 
ROOT
ATOM      1  C   LIG d   1      -2.898  80.165 115.522  0.00  0.00     0.161 C 
ATOM      2  C   LIG d   1      -2.690  81.325 114.757  0.00  0.00     0.016 C 
ATOM      3  C   LIG d   1      -2.229  81.303 113.420  0.00  0.00     0.038 C 
ATOM      4  C   LIG d   1      -2.087  80.105 112.704  0.00  0.00     0.028 C 
ATOM      5  C   LIG d   1      -1.802  78.899 113.592  0.00  0.00    -0.047 C 
ATOM      6  C   LIG d   1      -2.856  78.846 114.722  0.00  0.00     0.091 C 
ENDROOT
BRANCH   1   7
ATOM      7  O   LIG d   1      -4.141  80.273 116.244  0.00  0.00    -0.368 OA
BRANCH   7   8
ATOM      8  C   LIG d   1      -4.054  80.819 117.583  0.00  0.00     0.119 C 
BRANCH   8   9
ATOM      9  C   LIG d   1      -2.838  80.168 118.271  0.00  0.00     0.028 C 
ATOM     10  C   LIG d   1      -3.213  78.893 119.044  0.00  0.00     0.006 C 
ENDBRANCH   8   9
BRANCH   8  11
ATOM     11  C   LIG d   1      -5.264  80.413 118.430  0.00  0.00     0.028 C 
ATOM     12  C   LIG d   1      -6.561  80.319 117.611  0.00  0.00     0.006 C 
ENDBRANCH   8  11
ENDBRANCH   7   8
ENDBRANCH   1   7
BRANCH   6  13
ATOM     13  N   LIG d   1      -2.600  77.744 115.685  0.00  0.00    -0.311 N 
ATOM     14  C   LIG d   1      -3.204  76.559 115.621  0.00  0.00     0.210 C 
ATOM     15  C   LIG d   1      -2.811  75.571 116.724  0.00  0.00     0.109 C 
ATOM     16  O   LIG d   1      -4.005  76.220 114.736  0.00  0.00    -0.276 OA
ATOM     17  H   LIG d   1      -1.941  77.922 116.417  0.00  0.00     0.149 HD
ENDBRANCH   6  13
BRANCH   5  18
ATOM     18  N   LIG d   1      -1.815  77.700 112.733  0.00  0.00     0.381 N 
ATOM     19  H   LIG d   1      -1.286  77.873 111.902  0.00  0.00    -0.090 HD
ATOM     20  H   LIG d   1      -2.763  77.501 112.467  0.00  0.00    -0.090 HD
ATOM     21  H   LIG d   1      -1.430  76.923 113.225  0.00  0.00    -0.090 HD
ENDBRANCH   5  18
BRANCH   3  22
ATOM     22  C   LIG d   1      -1.865  82.488 112.800  0.00  0.00     0.382 C 
ATOM     23  O   LIG d   1      -1.319  82.463 111.670  0.00  0.00    -0.241 OA
ATOM     24  O   LIG d   1      -2.036  83.580 113.374  0.00  0.00    -0.241 OA
ENDBRANCH   3  22
TORSDOF 7
ENDMDL
MODEL 8
REMARK VINA RESULT:      -4.6      4.877      7.605
REMARK  7 active torsions:
REMARK  status: ('A' for Active; 'I' for Inactive)
REMARK    1  A    between atoms: C_2  and  C_3 
REMARK    2  A    between atoms: C_3  and  O_6 
REMARK    3  A    between atoms: C_3  and  C_4 
REMARK    4  A    between atoms: C_7  and  O_6 
REMARK    5  A    between atoms: C_9  and  C_10 
REMARK    6  A    between atoms: N_15  and  C_14 
REMARK    7  A    between atoms: N_20  and  C_19 
REMARK       I    between atoms: C_22  and  N_20 
ROOT
ATOM      1  C   LIG d   1      -3.130  77.619 115.396  0.00  0.00     0.161 C 
ATOM      2  C   LIG d   1      -2.561  76.352 115.606  0.00  0.00     0.016 C 
ATOM      3  C   LIG d   1      -1.223  76.160 116.022  0.00  0.00     0.038 C 
ATOM      4  C   LIG d   1      -0.404  77.233 116.405  0.00  0.00     0.028 C 
ATOM      5  C   LIG d   1      -0.773  78.548 115.727  0.00  0.00    -0.047 C 
ATOM      6  C   LIG d   1      -2.287  78.802 115.915  0.00  0.00     0.091 C 
ENDROOT
BRANCH   1   7
ATOM      7  O   LIG d   1      -4.454  77.660 115.965  0.00  0.00    -0.368 OA
BRANCH   7   8
ATOM      8  C   LIG d   1      -4.809  76.556 116.834  0.00  0.00     0.119 C 
BRANCH   8   9
ATOM      9  C   LIG d   1      -6.237  76.114 116.461  0.00  0.00     0.028 C 
ATOM     10  C   LIG d   1      -6.249  74.874 115.552  0.00  0.00     0.006 C 
ENDBRANCH   8   9
BRANCH   8  11
ATOM     11  C   LIG d   1      -4.890  77.002 118.297  0.00  0.00     0.028 C 
ATOM     12  C   LIG d   1      -3.532  76.948 119.013  0.00  0.00     0.006 C 
ENDBRANCH   8  11
ENDBRANCH   7   8
ENDBRANCH   1   7
BRANCH   6  13
ATOM     13  N   LIG d   1      -2.748  80.027 115.211  0.00  0.00    -0.311 N 
ATOM     14  C   LIG d   1      -2.735  81.239 115.763  0.00  0.00     0.210 C 
ATOM     15  C   LIG d   1      -3.273  82.362 114.871  0.00  0.00     0.109 C 
ATOM     16  O   LIG d   1      -2.300  81.495 116.896  0.00  0.00    -0.276 OA
ATOM     17  H   LIG d   1      -3.088  79.914 114.276  0.00  0.00     0.149 HD
ENDBRANCH   6  13
BRANCH   5  18
ATOM     18  N   LIG d   1       0.068  79.605 116.319  0.00  0.00     0.381 N 
ATOM     19  H   LIG d   1      -0.343  79.927 117.173  0.00  0.00    -0.090 HD
ATOM     20  H   LIG d   1       0.114  80.380 115.680  0.00  0.00    -0.090 HD
ATOM     21  H   LIG d   1       0.984  79.254 116.494  0.00  0.00    -0.090 HD
ENDBRANCH   5  18
BRANCH   3  22
ATOM     22  C   LIG d   1      -0.680  74.884 116.020  0.00  0.00     0.382 C 
ATOM     23  O   LIG d   1      -0.724  74.182 117.059  0.00  0.00    -0.241 OA
ATOM     24  O   LIG d   1      -0.106  74.444 115.006  0.00  0.00    -0.241 OA
ENDBRANCH   3  22
TORSDOF 7
ENDMDL
MODEL 9
REMARK VINA RESULT:      -4.6      4.554      6.162
REMARK  7 active torsions:
REMARK  status: ('A' for Active; 'I' for Inactive)
REMARK    1  A    between atoms: C_2  and  C_3 
REMARK    2  A    between atoms: C_3  and  O_6 
REMARK    3  A    between atoms: C_3  and  C_4 
REMARK    4  A    between atoms: C_7  and  O_6 
REMARK    5  A    between atoms: C_9  and  C_10 
REMARK    6  A    between atoms: N_15  and  C_14 
REMARK    7  A    between atoms: N_20  and  C_19 
REMARK       I    between atoms: C_22  and  N_20 
ROOT
ATOM      1  C   LIG d   1      -2.733  78.573 116.204  0.00  0.00     0.161 C 
ATOM      2  C   LIG d   1      -2.974  79.251 114.997  0.00  0.00     0.016 C 
ATOM      3  C   LIG d   1      -2.614  78.736 113.731  0.00  0.00     0.038 C 
ATOM      4  C   LIG d   1      -2.120  77.433 113.573  0.00  0.00     0.028 C 
ATOM      5  C   LIG d   1      -1.391  76.908 114.806  0.00  0.00    -0.047 C 
ATOM      6  C   LIG d   1      -2.296  77.102 116.044  0.00  0.00     0.091 C 
ENDROOT
BRANCH   1   7
ATOM      7  O   LIG d   1      -3.893  78.662 117.055  0.00  0.00    -0.368 OA
BRANCH   7   8
ATOM      8  C   LIG d   1      -4.418  79.993 117.281  0.00  0.00     0.119 C 
BRANCH   8   9
ATOM      9  C   LIG d   1      -3.674  80.584 118.495  0.00  0.00     0.028 C 
ATOM     10  C   LIG d   1      -3.565  79.584 119.659  0.00  0.00     0.006 C 
ENDBRANCH   8   9
BRANCH   8  11
ATOM     11  C   LIG d   1      -5.893  79.949 117.691  0.00  0.00     0.028 C 
ATOM     12  C   LIG d   1      -6.485  78.532 117.632  0.00  0.00     0.006 C 
ENDBRANCH   8  11
ENDBRANCH   7   8
ENDBRANCH   1   7
BRANCH   6  13
ATOM     13  N   LIG d   1      -1.625  76.692 117.306  0.00  0.00    -0.311 N 
ATOM     14  C   LIG d   1      -1.743  75.477 117.837  0.00  0.00     0.210 C 
ATOM     15  C   LIG d   1      -0.985  75.270 119.152  0.00  0.00     0.109 C 
ATOM     16  O   LIG d   1      -2.377  74.540 117.327  0.00  0.00    -0.276 OA
ATOM     17  H   LIG d   1      -1.066  77.381 117.770  0.00  0.00     0.149 HD
ENDBRANCH   6  13
BRANCH   5  18
ATOM     18  N   LIG d   1      -1.051  75.495 114.555  0.00  0.00     0.381 N 
ATOM     19  H   LIG d   1      -0.662  75.398 113.638  0.00  0.00    -0.090 HD
ATOM     20  H   LIG d   1      -1.890  74.945 114.601  0.00  0.00    -0.090 HD
ATOM     21  H   LIG d   1      -0.398  75.175 115.236  0.00  0.00    -0.090 HD
ENDBRANCH   5  18
BRANCH   3  22
ATOM     22  C   LIG d   1      -2.710  79.544 112.608  0.00  0.00     0.382 C 
ATOM     23  O   LIG d   1      -3.516  80.505 112.594  0.00  0.00    -0.241 OA
ATOM     24  O   LIG d   1      -2.031  79.298 111.593  0.00  0.00    -0.241 OA
ENDBRANCH   3  22
TORSDOF 7
ENDMDL
