MODEL 1
REMARK VINA RESULT:      -5.1      0.000      0.000
REMARK  7 active torsions:
REMARK  status: ('A' for Active; 'I' for Inactive)
REMARK    1  A    between atoms: C_2  and  C_3 
REMARK    2  A    between atoms: C_3  and  O_6 
REMARK    3  A    between atoms: C_3  and  C_4 
REMARK    4  A    between atoms: C_7  and  O_6 
REMARK    5  A    between atoms: C_9  and  C_10 
REMARK    6  A    between atoms: N_15  and  C_14 
REMARK    7  A    between atoms: N_20  and  C_19 
REMARK       I    between atoms: C_22  and  N_20 
ROOT
ATOM      1  C   LIG d   1      -3.233  76.420 115.257  0.00  0.00     0.161 C 
ATOM      2  C   LIG d   1      -3.260  76.057 116.614  0.00  0.00     0.016 C 
ATOM      3  C   LIG d   1      -2.292  76.481 117.552  0.00  0.00     0.038 C 
ATOM      4  C   LIG d   1      -1.309  77.428 117.227  0.00  0.00     0.028 C 
ATOM      5  C   LIG d   1      -0.939  77.433 115.748  0.00  0.00    -0.047 C 
ATOM      6  C   LIG d   1      -2.232  77.541 114.908  0.00  0.00     0.091 C 
ENDROOT
BRANCH   1   7
ATOM      7  O   LIG d   1      -4.559  76.779 114.821  0.00  0.00    -0.368 OA
BRANCH   7   8
ATOM      8  C   LIG d   1      -5.237  75.811 113.982  0.00  0.00     0.119 C 
BRANCH   8   9
ATOM      9  C   LIG d   1      -6.661  76.340 113.724  0.00  0.00     0.028 C 
ATOM     10  C   LIG d   1      -6.903  76.676 112.243  0.00  0.00     0.006 C 
ENDBRANCH   8   9
BRANCH   8  11
ATOM     11  C   LIG d   1      -5.426  74.477 114.710  0.00  0.00     0.028 C 
ATOM     12  C   LIG d   1      -6.725  74.424 115.529  0.00  0.00     0.006 C 
ENDBRANCH   8  11
ENDBRANCH   7   8
ENDBRANCH   1   7
BRANCH   6  13
ATOM     13  N   LIG d   1      -1.966  77.468 113.447  0.00  0.00    -0.311 N 
ATOM     14  C   LIG d   1      -2.527  78.286 112.558  0.00  0.00     0.210 C 
ATOM     15  C   LIG d   1      -2.133  78.026 111.101  0.00  0.00     0.109 C 
ATOM     16  O   LIG d   1      -3.289  79.223 112.842  0.00  0.00    -0.276 OA
ATOM     17  H   LIG d   1      -1.336  76.757 113.133  0.00  0.00     0.149 HD
ENDBRANCH   6  13
BRANCH   5  18
ATOM     18  N   LIG d   1      -0.008  78.556 115.525  0.00  0.00     0.381 N 
ATOM     19  H   LIG d   1      -0.217  79.299 116.160  0.00  0.00    -0.090 HD
ATOM     20  H   LIG d   1      -0.131  78.898 114.588  0.00  0.00    -0.090 HD
ATOM     21  H   LIG d   1       0.931  78.251 115.655  0.00  0.00    -0.090 HD
ENDBRANCH   5  18
BRANCH   3  22
ATOM     22  C   LIG d   1      -2.277  75.927 118.823  0.00  0.00     0.382 C 
ATOM     23  O   LIG d   1      -2.687  76.594 119.803  0.00  0.00    -0.241 OA
ATOM     24  O   LIG d   1      -1.818  74.784 119.009  0.00  0.00    -0.241 OA
ENDBRANCH   3  22
TORSDOF 7
ENDMDL
MODEL 2
REMARK VINA RESULT:      -5.0      1.042      1.793
REMARK  7 active torsions:
REMARK  status: ('A' for Active; 'I' for Inactive)
REMARK    1  A    between atoms: C_2  and  C_3 
REMARK    2  A    between atoms: C_3  and  O_6 
REMARK    3  A    between atoms: C_3  and  C_4 
REMARK    4  A    between atoms: C_7  and  O_6 
REMARK    5  A    between atoms: C_9  and  C_10 
REMARK    6  A    between atoms: N_15  and  C_14 
REMARK    7  A    between atoms: N_20  and  C_19 
REMARK       I    between atoms: C_22  and  N_20 
ROOT
ATOM      1  C   LIG d   1      -2.972  75.752 115.317  0.00  0.00     0.161 C 
ATOM      2  C   LIG d   1      -3.029  75.512 116.700  0.00  0.00     0.016 C 
ATOM      3  C   LIG d   1      -2.764  76.502 117.674  0.00  0.00     0.038 C 
ATOM      4  C   LIG d   1      -2.571  77.848 117.329  0.00  0.00     0.028 C 
ATOM      5  C   LIG d   1      -2.006  78.038 115.925  0.00  0.00    -0.047 C 
ATOM      6  C   LIG d   1      -2.872  77.241 114.923  0.00  0.00     0.091 C 
ENDROOT
BRANCH   1   7
ATOM      7  O   LIG d   1      -4.101  75.137 114.667  0.00  0.00    -0.368 OA
BRANCH   7   8
ATOM      8  C   LIG d   1      -5.292  75.954 114.549  0.00  0.00     0.119 C 
BRANCH   8   9
ATOM      9  C   LIG d   1      -6.348  75.375 115.510  0.00  0.00     0.028 C 
ATOM     10  C   LIG d   1      -6.691  76.341 116.656  0.00  0.00     0.006 C 
ENDBRANCH   8   9
BRANCH   8  11
ATOM     11  C   LIG d   1      -5.909  75.841 113.152  0.00  0.00     0.028 C 
ATOM     12  C   LIG d   1      -7.057  76.837 112.925  0.00  0.00     0.006 C 
ENDBRANCH   8  11
ENDBRANCH   7   8
ENDBRANCH   1   7
BRANCH   6  13
ATOM     13  N   LIG d   1      -2.339  77.304 113.537  0.00  0.00    -0.311 N 
ATOM     14  C   LIG d   1      -2.754  78.188 112.632  0.00  0.00     0.210 C 
ATOM     15  C   LIG d   1      -2.088  78.068 111.258  0.00  0.00     0.109 C 
ATOM     16  O   LIG d   1      -3.588  79.081 112.846  0.00  0.00    -0.276 OA
ATOM     17  H   LIG d   1      -1.636  76.636 113.288  0.00  0.00     0.149 HD
ENDBRANCH   6  13
BRANCH   5  18
ATOM     18  N   LIG d   1      -1.985  79.487 115.646  0.00  0.00     0.381 N 
ATOM     19  H   LIG d   1      -2.894  79.875 115.802  0.00  0.00    -0.090 HD
ATOM     20  H   LIG d   1      -1.744  79.628 114.681  0.00  0.00    -0.090 HD
ATOM     21  H   LIG d   1      -1.318  79.937 116.232  0.00  0.00    -0.090 HD
ENDBRANCH   5  18
BRANCH   3  22
ATOM     22  C   LIG d   1      -2.651  76.141 119.008  0.00  0.00     0.382 C 
ATOM     23  O   LIG d   1      -1.909  75.185 119.338  0.00  0.00    -0.241 OA
ATOM     24  O   LIG d   1      -3.316  76.731 119.880  0.00  0.00    -0.241 OA
ENDBRANCH   3  22
TORSDOF 7
ENDMDL
MODEL 3
REMARK VINA RESULT:      -4.8      1.987      4.607
REMARK  7 active torsions:
REMARK  status: ('A' for Active; 'I' for Inactive)
REMARK    1  A    between atoms: C_2  and  C_3 
REMARK    2  A    between atoms: C_3  and  O_6 
REMARK    3  A    between atoms: C_3  and  C_4 
REMARK    4  A    between atoms: C_7  and  O_6 
REMARK    5  A    between atoms: C_9  and  C_10 
REMARK    6  A    between atoms: N_15  and  C_14 
REMARK    7  A    between atoms: N_20  and  C_19 
REMARK       I    between atoms: C_22  and  N_20 
ROOT
ATOM      1  C   LIG d   1      -3.069  77.143 115.089  0.00  0.00     0.161 C 
ATOM      2  C   LIG d   1      -3.214  78.125 114.095  0.00  0.00     0.016 C 
ATOM      3  C   LIG d   1      -2.203  79.058 113.770  0.00  0.00     0.038 C 
ATOM      4  C   LIG d   1      -0.914  78.976 114.317  0.00  0.00     0.028 C 
ATOM      5  C   LIG d   1      -0.881  78.317 115.692  0.00  0.00    -0.047 C 
ATOM      6  C   LIG d   1      -1.631  76.967 115.620  0.00  0.00     0.091 C 
ENDROOT
BRANCH   1   7
ATOM      7  O   LIG d   1      -3.585  75.885 114.613  0.00  0.00    -0.368 OA
BRANCH   7   8
ATOM      8  C   LIG d   1      -4.704  75.334 115.349  0.00  0.00     0.119 C 
BRANCH   8   9
ATOM      9  C   LIG d   1      -5.798  74.970 114.327  0.00  0.00     0.028 C 
ATOM     10  C   LIG d   1      -6.038  76.090 113.301  0.00  0.00     0.006 C 
ENDBRANCH   8   9
BRANCH   8  11
ATOM     11  C   LIG d   1      -5.339  76.384 116.265  0.00  0.00     0.028 C 
ATOM     12  C   LIG d   1      -6.812  76.083 116.586  0.00  0.00     0.006 C 
ENDBRANCH   8  11
ENDBRANCH   7   8
ENDBRANCH   1   7
BRANCH   6  13
ATOM     13  N   LIG d   1      -1.718  76.296 116.943  0.00  0.00    -0.311 N 
ATOM     14  C   LIG d   1      -1.345  75.034 117.151  0.00  0.00     0.210 C 
ATOM     15  C   LIG d   1      -1.538  74.531 118.585  0.00  0.00     0.109 C 
ATOM     16  O   LIG d   1      -0.844  74.294 116.291  0.00  0.00    -0.276 OA
ATOM     17  H   LIG d   1      -2.085  76.833 117.704  0.00  0.00     0.149 HD
ENDBRANCH   6  13
BRANCH   5  18
ATOM     18  N   LIG d   1       0.534  78.172 116.083  0.00  0.00     0.381 N 
ATOM     19  H   LIG d   1       0.791  77.206 116.070  0.00  0.00    -0.090 HD
ATOM     20  H   LIG d   1       0.649  78.518 117.020  0.00  0.00    -0.090 HD
ATOM     21  H   LIG d   1       1.115  78.687 115.458  0.00  0.00    -0.090 HD
ENDBRANCH   5  18
BRANCH   3  22
ATOM     22  C   LIG d   1      -2.490  80.113 112.917  0.00  0.00     0.382 C 
ATOM     23  O   LIG d   1      -1.561  80.704 112.316  0.00  0.00    -0.241 OA
ATOM     24  O   LIG d   1      -3.663  80.509 112.774  0.00  0.00    -0.241 OA
ENDBRANCH   3  22
TORSDOF 7
ENDMDL
MODEL 4
REMARK VINA RESULT:      -4.8      1.551      2.047
REMARK  7 active torsions:
REMARK  status: ('A' for Active; 'I' for Inactive)
REMARK    1  A    between atoms: C_2  and  C_3 
REMARK    2  A    between atoms: C_3  and  O_6 
REMARK    3  A    between atoms: C_3  and  C_4 
REMARK    4  A    between atoms: C_7  and  O_6 
REMARK    5  A    between atoms: C_9  and  C_10 
REMARK    6  A    between atoms: N_15  and  C_14 
REMARK    7  A    between atoms: N_20  and  C_19 
REMARK       I    between atoms: C_22  and  N_20 
ROOT
ATOM      1  C   LIG d   1      -1.506  75.895 115.054  0.00  0.00     0.161 C 
ATOM      2  C   LIG d   1      -1.312  75.423 116.364  0.00  0.00     0.016 C 
ATOM      3  C   LIG d   1      -0.824  76.230 117.417  0.00  0.00     0.038 C 
ATOM      4  C   LIG d   1      -0.637  77.612 117.267  0.00  0.00     0.028 C 
ATOM      5  C   LIG d   1      -0.339  78.031 115.832  0.00  0.00    -0.047 C 
ATOM      6  C   LIG d   1      -1.413  77.427 114.899  0.00  0.00     0.091 C 
ENDROOT
BRANCH   1   7
ATOM      7  O   LIG d   1      -2.765  75.414 114.543  0.00  0.00    -0.368 OA
BRANCH   7   8
ATOM      8  C   LIG d   1      -3.808  75.193 115.523  0.00  0.00     0.119 C 
BRANCH   8   9
ATOM      9  C   LIG d   1      -4.829  74.221 114.902  0.00  0.00     0.028 C 
ATOM     10  C   LIG d   1      -6.283  74.634 115.187  0.00  0.00     0.006 C 
ENDBRANCH   8   9
BRANCH   8  11
ATOM     11  C   LIG d   1      -4.592  76.479 115.803  0.00  0.00     0.028 C 
ATOM     12  C   LIG d   1      -4.477  76.941 117.265  0.00  0.00     0.006 C 
ENDBRANCH   8  11
ENDBRANCH   7   8
ENDBRANCH   1   7
BRANCH   6  13
ATOM     13  N   LIG d   1      -1.148  77.718 113.466  0.00  0.00    -0.311 N 
ATOM     14  C   LIG d   1      -2.090  78.115 112.612  0.00  0.00     0.210 C 
ATOM     15  C   LIG d   1      -1.607  78.341 111.176  0.00  0.00     0.109 C 
ATOM     16  O   LIG d   1      -3.273  78.331 112.914  0.00  0.00    -0.276 OA
ATOM     17  H   LIG d   1      -0.208  77.599 113.142  0.00  0.00     0.149 HD
ENDBRANCH   6  13
BRANCH   5  18
ATOM     18  N   LIG d   1      -0.304  79.505 115.795  0.00  0.00     0.381 N 
ATOM     19  H   LIG d   1       0.285  79.812 115.047  0.00  0.00    -0.090 HD
ATOM     20  H   LIG d   1       0.082  79.843 116.659  0.00  0.00    -0.090 HD
ATOM     21  H   LIG d   1      -1.225  79.865 115.672  0.00  0.00    -0.090 HD
ENDBRANCH   5  18
BRANCH   3  22
ATOM     22  C   LIG d   1      -0.479  75.646 118.626  0.00  0.00     0.382 C 
ATOM     23  O   LIG d   1       0.678  75.798 119.088  0.00  0.00    -0.241 OA
ATOM     24  O   LIG d   1      -1.295  74.933 119.240  0.00  0.00    -0.241 OA
ENDBRANCH   3  22
TORSDOF 7
ENDMDL
MODEL 5
REMARK VINA RESULT:      -4.7      3.004      5.699
REMARK  7 active torsions:
REMARK  status: ('A' for Active; 'I' for Inactive)
REMARK    1  A    between atoms: C_2  and  C_3 
REMARK    2  A    between atoms: C_3  and  O_6 
REMARK    3  A    between atoms: C_3  and  C_4 
REMARK    4  A    between atoms: C_7  and  O_6 
REMARK    5  A    between atoms: C_9  and  C_10 
REMARK    6  A    between atoms: N_15  and  C_14 
REMARK    7  A    between atoms: N_20  and  C_19 
REMARK       I    between atoms: C_22  and  N_20 
ROOT
ATOM      1  C   LIG d   1      -2.774  78.492 116.082  0.00  0.00     0.161 C 
ATOM      2  C   LIG d   1      -2.929  79.388 115.011  0.00  0.00     0.016 C 
ATOM      3  C   LIG d   1      -2.364  79.177 113.732  0.00  0.00     0.038 C 
ATOM      4  C   LIG d   1      -1.728  77.974 113.392  0.00  0.00     0.028 C 
ATOM      5  C   LIG d   1      -1.111  77.256 114.588  0.00  0.00    -0.047 C 
ATOM      6  C   LIG d   1      -2.178  77.122 115.698  0.00  0.00     0.091 C 
ENDROOT
BRANCH   1   7
ATOM      7  O   LIG d   1      -4.035  78.318 116.760  0.00  0.00    -0.368 OA
BRANCH   7   8
ATOM      8  C   LIG d   1      -4.295  79.221 117.863  0.00  0.00     0.119 C 
BRANCH   8   9
ATOM      9  C   LIG d   1      -3.623  78.627 119.116  0.00  0.00     0.028 C 
ATOM     10  C   LIG d   1      -4.157  77.227 119.461  0.00  0.00     0.006 C 
ENDBRANCH   8   9
BRANCH   8  11
ATOM     11  C   LIG d   1      -5.790  79.279 118.194  0.00  0.00     0.028 C 
ATOM     12  C   LIG d   1      -6.282  80.707 118.478  0.00  0.00     0.006 C 
ENDBRANCH   8  11
ENDBRANCH   7   8
ENDBRANCH   1   7
BRANCH   6  13
ATOM     13  N   LIG d   1      -1.633  76.506 116.936  0.00  0.00    -0.311 N 
ATOM     14  C   LIG d   1      -1.698  75.201 117.195  0.00  0.00     0.210 C 
ATOM     15  C   LIG d   1      -1.094  74.778 118.538  0.00  0.00     0.109 C 
ATOM     16  O   LIG d   1      -2.171  74.350 116.427  0.00  0.00    -0.276 OA
ATOM     17  H   LIG d   1      -1.204  77.120 117.601  0.00  0.00     0.149 HD
ENDBRANCH   6  13
BRANCH   5  18
ATOM     18  N   LIG d   1      -0.604  75.955 114.113  0.00  0.00     0.381 N 
ATOM     19  H   LIG d   1      -0.702  75.269 114.835  0.00  0.00    -0.090 HD
ATOM     20  H   LIG d   1       0.372  76.046 113.895  0.00  0.00    -0.090 HD
ATOM     21  H   LIG d   1      -1.108  75.668 113.302  0.00  0.00    -0.090 HD
ENDBRANCH   5  18
BRANCH   3  22
ATOM     22  C   LIG d   1      -2.398  80.193 112.790  0.00  0.00     0.382 C 
ATOM     23  O   LIG d   1      -1.478  80.295 111.944  0.00  0.00    -0.241 OA
ATOM     24  O   LIG d   1      -3.315  81.037 112.803  0.00  0.00    -0.241 OA
ENDBRANCH   3  22
TORSDOF 7
ENDMDL
MODEL 6
REMARK VINA RESULT:      -4.6      2.857      5.906
REMARK  7 active torsions:
REMARK  status: ('A' for Active; 'I' for Inactive)
REMARK    1  A    between atoms: C_2  and  C_3 
REMARK    2  A    between atoms: C_3  and  O_6 
REMARK    3  A    between atoms: C_3  and  C_4 
REMARK    4  A    between atoms: C_7  and  O_6 
REMARK    5  A    between atoms: C_9  and  C_10 
REMARK    6  A    between atoms: N_15  and  C_14 
REMARK    7  A    between atoms: N_20  and  C_19 
REMARK       I    between atoms: C_22  and  N_20 
ROOT
ATOM      1  C   LIG d   1      -1.328  78.696 113.689  0.00  0.00     0.161 C 
ATOM      2  C   LIG d   1      -2.507  77.979 113.429  0.00  0.00     0.016 C 
ATOM      3  C   LIG d   1      -3.167  77.190 114.399  0.00  0.00     0.038 C 
ATOM      4  C   LIG d   1      -2.773  77.187 115.746  0.00  0.00     0.028 C 
ATOM      5  C   LIG d   1      -1.293  77.496 115.944  0.00  0.00    -0.047 C 
ATOM      6  C   LIG d   1      -0.945  78.794 115.180  0.00  0.00     0.091 C 
ENDROOT
BRANCH   1   7
ATOM      7  O   LIG d   1      -1.419  80.012 113.108  0.00  0.00    -0.368 OA
BRANCH   7   8
ATOM      8  C   LIG d   1      -0.340  80.393 112.218  0.00  0.00     0.119 C 
BRANCH   8   9
ATOM      9  C   LIG d   1      -0.605  81.841 111.762  0.00  0.00     0.028 C 
ATOM     10  C   LIG d   1       0.492  82.813 112.229  0.00  0.00     0.006 C 
ENDBRANCH   8   9
BRANCH   8  11
ATOM     11  C   LIG d   1      -0.354  79.555 110.936  0.00  0.00     0.028 C 
ATOM     12  C   LIG d   1       0.924  79.726 110.100  0.00  0.00     0.006 C 
ENDBRANCH   8  11
ENDBRANCH   7   8
ENDBRANCH   1   7
BRANCH   6  13
ATOM     13  N   LIG d   1       0.503  79.123 115.252  0.00  0.00    -0.311 N 
ATOM     14  C   LIG d   1       1.016  79.983 116.131  0.00  0.00     0.210 C 
ATOM     15  C   LIG d   1       2.529  80.194 116.021  0.00  0.00     0.109 C 
ATOM     16  O   LIG d   1       0.367  80.567 117.011  0.00  0.00    -0.276 OA
ATOM     17  H   LIG d   1       1.107  78.671 114.595  0.00  0.00     0.149 HD
ENDBRANCH   6  13
BRANCH   5  18
ATOM     18  N   LIG d   1      -1.049  77.596 117.395  0.00  0.00     0.381 N 
ATOM     19  H   LIG d   1      -1.620  78.319 117.786  0.00  0.00    -0.090 HD
ATOM     20  H   LIG d   1      -0.086  77.838 117.547  0.00  0.00    -0.090 HD
ATOM     21  H   LIG d   1      -1.254  76.727 117.836  0.00  0.00    -0.090 HD
ENDBRANCH   5  18
BRANCH   3  22
ATOM     22  C   LIG d   1      -4.211  76.361 114.017  0.00  0.00     0.382 C 
ATOM     23  O   LIG d   1      -4.360  75.245 114.570  0.00  0.00    -0.241 OA
ATOM     24  O   LIG d   1      -4.979  76.697 113.096  0.00  0.00    -0.241 OA
ENDBRANCH   3  22
TORSDOF 7
ENDMDL
MODEL 7
REMARK VINA RESULT:      -4.4      2.677      5.690
REMARK  7 active torsions:
REMARK  status: ('A' for Active; 'I' for Inactive)
REMARK    1  A    between atoms: C_2  and  C_3 
REMARK    2  A    between atoms: C_3  and  O_6 
REMARK    3  A    between atoms: C_3  and  C_4 
REMARK    4  A    between atoms: C_7  and  O_6 
REMARK    5  A    between atoms: C_9  and  C_10 
REMARK    6  A    between atoms: N_15  and  C_14 
REMARK    7  A    between atoms: N_20  and  C_19 
REMARK       I    between atoms: C_22  and  N_20 
ROOT
ATOM      1  C   LIG d   1      -2.076  77.629 116.741  0.00  0.00     0.161 C 
ATOM      2  C   LIG d   1      -3.281  77.125 116.224  0.00  0.00     0.016 C 
ATOM      3  C   LIG d   1      -3.384  75.877 115.567  0.00  0.00     0.038 C 
ATOM      4  C   LIG d   1      -2.311  74.975 115.517  0.00  0.00     0.028 C 
ATOM      5  C   LIG d   1      -0.946  75.653 115.581  0.00  0.00    -0.047 C 
ATOM      6  C   LIG d   1      -0.919  76.611 116.794  0.00  0.00     0.091 C 
ENDROOT
BRANCH   1   7
ATOM      7  O   LIG d   1      -2.305  78.196 118.047  0.00  0.00    -0.368 OA
BRANCH   7   8
ATOM      8  C   LIG d   1      -2.386  79.642 118.108  0.00  0.00     0.119 C 
BRANCH   8   9
ATOM      9  C   LIG d   1      -1.194  80.137 118.949  0.00  0.00     0.028 C 
ATOM     10  C   LIG d   1      -0.271  81.080 118.159  0.00  0.00     0.006 C 
ENDBRANCH   8   9
BRANCH   8  11
ATOM     11  C   LIG d   1      -3.636  80.097 118.869  0.00  0.00     0.028 C 
ATOM     12  C   LIG d   1      -4.918  79.987 118.028  0.00  0.00     0.006 C 
ENDBRANCH   8  11
ENDBRANCH   7   8
ENDBRANCH   1   7
BRANCH   6  13
ATOM     13  N   LIG d   1       0.351  77.378 116.882  0.00  0.00    -0.311 N 
ATOM     14  C   LIG d   1       1.145  77.362 117.951  0.00  0.00     0.210 C 
ATOM     15  C   LIG d   1       2.396  78.240 117.841  0.00  0.00     0.109 C 
ATOM     16  O   LIG d   1       0.948  76.680 118.969  0.00  0.00    -0.276 OA
ATOM     17  H   LIG d   1       0.604  77.934 116.088  0.00  0.00     0.149 HD
ENDBRANCH   6  13
BRANCH   5  18
ATOM     18  N   LIG d   1       0.075  74.592 115.659  0.00  0.00     0.381 N 
ATOM     19  H   LIG d   1       0.988  75.001 115.676  0.00  0.00    -0.090 HD
ATOM     20  H   LIG d   1       0.005  74.012 114.841  0.00  0.00    -0.090 HD
ATOM     21  H   LIG d   1      -0.066  74.042 116.478  0.00  0.00    -0.090 HD
ENDBRANCH   5  18
BRANCH   3  22
ATOM     22  C   LIG d   1      -4.561  75.538 114.917  0.00  0.00     0.382 C 
ATOM     23  O   LIG d   1      -4.655  74.435 114.326  0.00  0.00    -0.241 OA
ATOM     24  O   LIG d   1      -5.514  76.339 114.877  0.00  0.00    -0.241 OA
ENDBRANCH   3  22
TORSDOF 7
ENDMDL
MODEL 8
REMARK VINA RESULT:      -4.3      2.423      4.753
REMARK  7 active torsions:
REMARK  status: ('A' for Active; 'I' for Inactive)
REMARK    1  A    between atoms: C_2  and  C_3 
REMARK    2  A    between atoms: C_3  and  O_6 
REMARK    3  A    between atoms: C_3  and  C_4 
REMARK    4  A    between atoms: C_7  and  O_6 
REMARK    5  A    between atoms: C_9  and  C_10 
REMARK    6  A    between atoms: N_15  and  C_14 
REMARK    7  A    between atoms: N_20  and  C_19 
REMARK       I    between atoms: C_22  and  N_20 
ROOT
ATOM      1  C   LIG d   1      -1.415  76.964 114.582  0.00  0.00     0.161 C 
ATOM      2  C   LIG d   1      -2.637  76.292 114.415  0.00  0.00     0.016 C 
ATOM      3  C   LIG d   1      -3.641  76.244 115.409  0.00  0.00     0.038 C 
ATOM      4  C   LIG d   1      -3.553  76.998 116.589  0.00  0.00     0.028 C 
ATOM      5  C   LIG d   1      -2.118  77.286 117.018  0.00  0.00    -0.047 C 
ATOM      6  C   LIG d   1      -1.347  77.884 115.819  0.00  0.00     0.091 C 
ENDROOT
BRANCH   1   7
ATOM      7  O   LIG d   1      -1.098  77.706 113.388  0.00  0.00    -0.368 OA
BRANCH   7   8
ATOM      8  C   LIG d   1      -2.227  78.209 112.632  0.00  0.00     0.119 C 
BRANCH   8   9
ATOM      9  C   LIG d   1      -1.921  77.982 111.138  0.00  0.00     0.028 C 
ATOM     10  C   LIG d   1      -0.628  77.180 110.919  0.00  0.00     0.006 C 
ENDBRANCH   8   9
BRANCH   8  11
ATOM     11  C   LIG d   1      -2.372  79.726 112.790  0.00  0.00     0.028 C 
ATOM     12  C   LIG d   1      -1.099  80.491 112.395  0.00  0.00     0.006 C 
ENDBRANCH   8  11
ENDBRANCH   7   8
ENDBRANCH   1   7
BRANCH   6  13
ATOM     13  N   LIG d   1       0.088  78.117 116.128  0.00  0.00    -0.311 N 
ATOM     14  C   LIG d   1       0.567  79.287 116.548  0.00  0.00     0.210 C 
ATOM     15  C   LIG d   1       2.079  79.318 116.789  0.00  0.00     0.109 C 
ATOM     16  O   LIG d   1      -0.122  80.293 116.774  0.00  0.00    -0.276 OA
ATOM     17  H   LIG d   1       0.713  77.346 116.002  0.00  0.00     0.149 HD
ENDBRANCH   6  13
BRANCH   5  18
ATOM     18  N   LIG d   1      -2.174  78.192 118.180  0.00  0.00     0.381 N 
ATOM     19  H   LIG d   1      -2.997  78.005 118.716  0.00  0.00    -0.090 HD
ATOM     20  H   LIG d   1      -2.221  79.140 117.851  0.00  0.00    -0.090 HD
ATOM     21  H   LIG d   1      -1.364  78.069 118.748  0.00  0.00    -0.090 HD
ENDBRANCH   5  18
BRANCH   3  22
ATOM     22  C   LIG d   1      -4.732  75.404 115.244  0.00  0.00     0.382 C 
ATOM     23  O   LIG d   1      -5.812  75.657 115.830  0.00  0.00    -0.241 OA
ATOM     24  O   LIG d   1      -4.636  74.372 114.553  0.00  0.00    -0.241 OA
ENDBRANCH   3  22
TORSDOF 7
ENDMDL
MODEL 9
REMARK VINA RESULT:      -4.2      2.275      5.318
REMARK  7 active torsions:
REMARK  status: ('A' for Active; 'I' for Inactive)
REMARK    1  A    between atoms: C_2  and  C_3 
REMARK    2  A    between atoms: C_3  and  O_6 
REMARK    3  A    between atoms: C_3  and  C_4 
REMARK    4  A    between atoms: C_7  and  O_6 
REMARK    5  A    between atoms: C_9  and  C_10 
REMARK    6  A    between atoms: N_15  and  C_14 
REMARK    7  A    between atoms: N_20  and  C_19 
REMARK       I    between atoms: C_22  and  N_20 
ROOT
ATOM      1  C   LIG d   1      -2.515  77.595 116.947  0.00  0.00     0.161 C 
ATOM      2  C   LIG d   1      -3.405  76.724 116.297  0.00  0.00     0.016 C 
ATOM      3  C   LIG d   1      -3.631  76.741 114.901  0.00  0.00     0.038 C 
ATOM      4  C   LIG d   1      -2.864  77.536 114.036  0.00  0.00     0.028 C 
ATOM      5  C   LIG d   1      -2.310  78.792 114.699  0.00  0.00    -0.047 C 
ATOM      6  C   LIG d   1      -1.588  78.393 116.006  0.00  0.00     0.091 C 
ENDROOT
BRANCH   1   7
ATOM      7  O   LIG d   1      -1.737  76.865 117.916  0.00  0.00    -0.368 OA
BRANCH   7   8
ATOM      8  C   LIG d   1      -1.627  75.437 117.700  0.00  0.00     0.119 C 
BRANCH   8   9
ATOM      9  C   LIG d   1      -1.621  74.759 119.084  0.00  0.00     0.028 C 
ATOM     10  C   LIG d   1      -0.214  74.694 119.700  0.00  0.00     0.006 C 
ENDBRANCH   8   9
BRANCH   8  11
ATOM     11  C   LIG d   1      -0.282  75.072 117.064  0.00  0.00     0.028 C 
ATOM     12  C   LIG d   1      -0.421  74.596 115.609  0.00  0.00     0.006 C 
ENDBRANCH   8  11
ENDBRANCH   7   8
ENDBRANCH   1   7
BRANCH   6  13
ATOM     13  N   LIG d   1      -1.089  79.572 116.761  0.00  0.00    -0.311 N 
ATOM     14  C   LIG d   1       0.183  79.725 117.125  0.00  0.00     0.210 C 
ATOM     15  C   LIG d   1       0.481  81.004 117.913  0.00  0.00     0.109 C 
ATOM     16  O   LIG d   1       1.099  78.938 116.842  0.00  0.00    -0.276 OA
ATOM     17  H   LIG d   1      -1.759  80.275 117.004  0.00  0.00     0.149 HD
ENDBRANCH   6  13
BRANCH   5  18
ATOM     18  N   LIG d   1      -1.420  79.454 113.726  0.00  0.00     0.381 N 
ATOM     19  H   LIG d   1      -1.372  78.911 112.887  0.00  0.00    -0.090 HD
ATOM     20  H   LIG d   1      -0.497  79.512 114.118  0.00  0.00    -0.090 HD
ATOM     21  H   LIG d   1      -1.760  80.367 113.520  0.00  0.00    -0.090 HD
ENDBRANCH   5  18
BRANCH   3  22
ATOM     22  C   LIG d   1      -4.661  75.985 114.363  0.00  0.00     0.382 C 
ATOM     23  O   LIG d   1      -5.031  74.931 114.934  0.00  0.00    -0.241 OA
ATOM     24  O   LIG d   1      -5.196  76.321 113.289  0.00  0.00    -0.241 OA
ENDBRANCH   3  22
TORSDOF 7
ENDMDL
