MODEL 1
REMARK VINA RESULT:      -5.0      0.000      0.000
REMARK  7 active torsions:
REMARK  status: ('A' for Active; 'I' for Inactive)
REMARK    1  A    between atoms: C_2  and  C_3 
REMARK    2  A    between atoms: C_3  and  O_6 
REMARK    3  A    between atoms: C_3  and  C_4 
REMARK    4  A    between atoms: C_7  and  O_6 
REMARK    5  A    between atoms: C_9  and  C_10 
REMARK    6  A    between atoms: N_15  and  C_14 
REMARK    7  A    between atoms: N_20  and  C_19 
REMARK       I    between atoms: C_22  and  N_20 
ROOT
ATOM      1  C   LIG d   1      -1.535  74.907 115.495  0.00  0.00     0.161 C 
ATOM      2  C   LIG d   1      -1.012  74.447 116.715  0.00  0.00     0.016 C 
ATOM      3  C   LIG d   1      -0.412  75.297 117.673  0.00  0.00     0.038 C 
ATOM      4  C   LIG d   1      -0.431  76.693 117.541  0.00  0.00     0.028 C 
ATOM      5  C   LIG d   1      -0.498  77.164 116.092  0.00  0.00    -0.047 C 
ATOM      6  C   LIG d   1      -1.665  76.440 115.383  0.00  0.00     0.091 C 
ENDROOT
BRANCH   1   7
ATOM      7  O   LIG d   1      -2.807  74.276 115.241  0.00  0.00    -0.368 OA
BRANCH   7   8
ATOM      8  C   LIG d   1      -3.982  75.053 115.578  0.00  0.00     0.119 C 
BRANCH   8   9
ATOM      9  C   LIG d   1      -4.456  74.595 116.971  0.00  0.00     0.028 C 
ATOM     10  C   LIG d   1      -4.425  75.733 118.005  0.00  0.00     0.006 C 
ENDBRANCH   8   9
BRANCH   8  11
ATOM     11  C   LIG d   1      -5.146  74.743 114.632  0.00  0.00     0.028 C 
ATOM     12  C   LIG d   1      -5.829  76.010 114.094  0.00  0.00     0.006 C 
ENDBRANCH   8  11
ENDBRANCH   7   8
ENDBRANCH   1   7
BRANCH   6  13
ATOM     13  N   LIG d   1      -1.749  76.780 113.939  0.00  0.00    -0.311 N 
ATOM     14  C   LIG d   1      -2.439  77.818 113.469  0.00  0.00     0.210 C 
ATOM     15  C   LIG d   1      -2.410  77.977 111.945  0.00  0.00     0.109 C 
ATOM     16  O   LIG d   1      -3.045  78.640 114.171  0.00  0.00    -0.276 OA
ATOM     17  H   LIG d   1      -1.260  76.183 113.300  0.00  0.00     0.149 HD
ENDBRANCH   6  13
BRANCH   5  18
ATOM     18  N   LIG d   1      -0.651  78.631 116.107  0.00  0.00     0.381 N 
ATOM     19  H   LIG d   1       0.063  79.052 115.547  0.00  0.00    -0.090 HD
ATOM     20  H   LIG d   1      -0.546  78.959 117.051  0.00  0.00    -0.090 HD
ATOM     21  H   LIG d   1      -1.549  78.884 115.757  0.00  0.00    -0.090 HD
ENDBRANCH   5  18
BRANCH   3  22
ATOM     22  C   LIG d   1       0.252  74.747 118.759  0.00  0.00     0.382 C 
ATOM     23  O   LIG d   1       1.506  74.753 118.797  0.00  0.00    -0.241 OA
ATOM     24  O   LIG d   1      -0.387  74.204 119.681  0.00  0.00    -0.241 OA
ENDBRANCH   3  22
TORSDOF 7
ENDMDL
MODEL 2
REMARK VINA RESULT:      -4.7      2.942      4.104
REMARK  7 active torsions:
REMARK  status: ('A' for Active; 'I' for Inactive)
REMARK    1  A    between atoms: C_2  and  C_3 
REMARK    2  A    between atoms: C_3  and  O_6 
REMARK    3  A    between atoms: C_3  and  C_4 
REMARK    4  A    between atoms: C_7  and  O_6 
REMARK    5  A    between atoms: C_9  and  C_10 
REMARK    6  A    between atoms: N_15  and  C_14 
REMARK    7  A    between atoms: N_20  and  C_19 
REMARK       I    between atoms: C_22  and  N_20 
ROOT
ATOM      1  C   LIG d   1      -3.610  77.653 117.214  0.00  0.00     0.161 C 
ATOM      2  C   LIG d   1      -2.866  78.632 117.895  0.00  0.00     0.016 C 
ATOM      3  C   LIG d   1      -1.506  78.905 117.622  0.00  0.00     0.038 C 
ATOM      4  C   LIG d   1      -0.834  78.318 116.540  0.00  0.00     0.028 C 
ATOM      5  C   LIG d   1      -1.396  76.957 116.144  0.00  0.00    -0.047 C 
ATOM      6  C   LIG d   1      -2.925  77.081 115.955  0.00  0.00     0.091 C 
ENDROOT
BRANCH   1   7
ATOM      7  O   LIG d   1      -4.913  78.172 116.883  0.00  0.00    -0.368 OA
BRANCH   7   8
ATOM      8  C   LIG d   1      -6.033  77.575 117.583  0.00  0.00     0.119 C 
BRANCH   8   9
ATOM      9  C   LIG d   1      -6.601  78.640 118.540  0.00  0.00     0.028 C 
ATOM     10  C   LIG d   1      -6.608  80.046 117.917  0.00  0.00     0.006 C 
ENDBRANCH   8   9
BRANCH   8  11
ATOM     11  C   LIG d   1      -5.577  76.423 118.483  0.00  0.00     0.028 C 
ATOM     12  C   LIG d   1      -6.139  75.063 118.039  0.00  0.00     0.006 C 
ENDBRANCH   8  11
ENDBRANCH   7   8
ENDBRANCH   1   7
BRANCH   6  13
ATOM     13  N   LIG d   1      -3.566  75.775 115.649  0.00  0.00    -0.311 N 
ATOM     14  C   LIG d   1      -4.440  75.602 114.659  0.00  0.00     0.210 C 
ATOM     15  C   LIG d   1      -4.996  74.180 114.530  0.00  0.00     0.109 C 
ATOM     16  O   LIG d   1      -4.784  76.483 113.857  0.00  0.00    -0.276 OA
ATOM     17  H   LIG d   1      -3.320  74.999 116.232  0.00  0.00     0.149 HD
ENDBRANCH   6  13
BRANCH   5  18
ATOM     18  N   LIG d   1      -0.695  76.524 114.921  0.00  0.00     0.381 N 
ATOM     19  H   LIG d   1      -1.136  75.707 114.549  0.00  0.00    -0.090 HD
ATOM     20  H   LIG d   1       0.254  76.291 115.155  0.00  0.00    -0.090 HD
ATOM     21  H   LIG d   1      -0.708  77.255 114.244  0.00  0.00    -0.090 HD
ENDBRANCH   5  18
BRANCH   3  22
ATOM     22  C   LIG d   1      -0.792  79.745 118.463  0.00  0.00     0.382 C 
ATOM     23  O   LIG d   1      -1.024  79.743 119.696  0.00  0.00    -0.241 OA
ATOM     24  O   LIG d   1       0.049  80.538 117.999  0.00  0.00    -0.241 OA
ENDBRANCH   3  22
TORSDOF 7
ENDMDL
MODEL 3
REMARK VINA RESULT:      -4.5      1.231      1.942
REMARK  7 active torsions:
REMARK  status: ('A' for Active; 'I' for Inactive)
REMARK    1  A    between atoms: C_2  and  C_3 
REMARK    2  A    between atoms: C_3  and  O_6 
REMARK    3  A    between atoms: C_3  and  C_4 
REMARK    4  A    between atoms: C_7  and  O_6 
REMARK    5  A    between atoms: C_9  and  C_10 
REMARK    6  A    between atoms: N_15  and  C_14 
REMARK    7  A    between atoms: N_20  and  C_19 
REMARK       I    between atoms: C_22  and  N_20 
ROOT
ATOM      1  C   LIG d   1      -2.508  75.874 116.379  0.00  0.00     0.161 C 
ATOM      2  C   LIG d   1      -1.762  75.164 117.335  0.00  0.00     0.016 C 
ATOM      3  C   LIG d   1      -0.614  75.689 117.972  0.00  0.00     0.038 C 
ATOM      4  C   LIG d   1      -0.219  77.025 117.807  0.00  0.00     0.028 C 
ATOM      5  C   LIG d   1      -0.646  77.621 116.469  0.00  0.00    -0.047 C 
ATOM      6  C   LIG d   1      -2.158  77.373 116.269  0.00  0.00     0.091 C 
ENDROOT
BRANCH   1   7
ATOM      7  O   LIG d   1      -3.916  75.706 116.636  0.00  0.00    -0.368 OA
BRANCH   7   8
ATOM      8  C   LIG d   1      -4.481  74.421 116.276  0.00  0.00     0.119 C 
BRANCH   8   9
ATOM      9  C   LIG d   1      -4.814  74.467 114.772  0.00  0.00     0.028 C 
ATOM     10  C   LIG d   1      -5.638  75.709 114.391  0.00  0.00     0.006 C 
ENDBRANCH   8   9
BRANCH   8  11
ATOM     11  C   LIG d   1      -5.820  74.183 116.981  0.00  0.00     0.028 C 
ATOM     12  C   LIG d   1      -6.263  75.380 117.837  0.00  0.00     0.006 C 
ENDBRANCH   8  11
ENDBRANCH   7   8
ENDBRANCH   1   7
BRANCH   6  13
ATOM     13  N   LIG d   1      -2.641  77.851 114.946  0.00  0.00    -0.311 N 
ATOM     14  C   LIG d   1      -2.303  77.278 113.792  0.00  0.00     0.210 C 
ATOM     15  C   LIG d   1      -2.895  77.941 112.544  0.00  0.00     0.109 C 
ATOM     16  O   LIG d   1      -1.595  76.265 113.685  0.00  0.00    -0.276 OA
ATOM     17  H   LIG d   1      -3.245  78.649 114.943  0.00  0.00     0.149 HD
ENDBRANCH   6  13
BRANCH   5  18
ATOM     18  N   LIG d   1      -0.293  79.054 116.487  0.00  0.00     0.381 N 
ATOM     19  H   LIG d   1      -0.860  79.534 117.156  0.00  0.00    -0.090 HD
ATOM     20  H   LIG d   1      -0.475  79.445 115.580  0.00  0.00    -0.090 HD
ATOM     21  H   LIG d   1       0.670  79.164 116.717  0.00  0.00    -0.090 HD
ENDBRANCH   5  18
BRANCH   3  22
ATOM     22  C   LIG d   1       0.177  74.861 118.755  0.00  0.00     0.382 C 
ATOM     23  O   LIG d   1      -0.344  74.181 119.672  0.00  0.00    -0.241 OA
ATOM     24  O   LIG d   1       1.410  74.819 118.584  0.00  0.00    -0.241 OA
ENDBRANCH   3  22
TORSDOF 7
ENDMDL
MODEL 4
REMARK VINA RESULT:      -4.5      2.311      4.428
REMARK  7 active torsions:
REMARK  status: ('A' for Active; 'I' for Inactive)
REMARK    1  A    between atoms: C_2  and  C_3 
REMARK    2  A    between atoms: C_3  and  O_6 
REMARK    3  A    between atoms: C_3  and  C_4 
REMARK    4  A    between atoms: C_7  and  O_6 
REMARK    5  A    between atoms: C_9  and  C_10 
REMARK    6  A    between atoms: N_15  and  C_14 
REMARK    7  A    between atoms: N_20  and  C_19 
REMARK       I    between atoms: C_22  and  N_20 
ROOT
ATOM      1  C   LIG d   1      -2.398  77.953 116.301  0.00  0.00     0.161 C 
ATOM      2  C   LIG d   1      -1.257  78.719 116.595  0.00  0.00     0.016 C 
ATOM      3  C   LIG d   1      -0.035  78.157 117.033  0.00  0.00     0.038 C 
ATOM      4  C   LIG d   1       0.175  76.771 117.062  0.00  0.00     0.028 C 
ATOM      5  C   LIG d   1      -1.106  75.967 117.258  0.00  0.00    -0.047 C 
ATOM      6  C   LIG d   1      -2.153  76.432 116.220  0.00  0.00     0.091 C 
ENDROOT
BRANCH   1   7
ATOM      7  O   LIG d   1      -3.004  78.429 115.083  0.00  0.00    -0.368 OA
BRANCH   7   8
ATOM      8  C   LIG d   1      -2.118  78.583 113.947  0.00  0.00     0.119 C 
BRANCH   8   9
ATOM      9  C   LIG d   1      -2.459  79.925 113.272  0.00  0.00     0.028 C 
ATOM     10  C   LIG d   1      -1.303  80.460 112.410  0.00  0.00     0.006 C 
ENDBRANCH   8   9
BRANCH   8  11
ATOM     11  C   LIG d   1      -2.384  77.514 112.883  0.00  0.00     0.028 C 
ATOM     12  C   LIG d   1      -3.778  77.641 112.247  0.00  0.00     0.006 C 
ENDBRANCH   8  11
ENDBRANCH   7   8
ENDBRANCH   1   7
BRANCH   6  13
ATOM     13  N   LIG d   1      -3.465  75.756 116.396  0.00  0.00    -0.311 N 
ATOM     14  C   LIG d   1      -3.981  74.913 115.503  0.00  0.00     0.210 C 
ATOM     15  C   LIG d   1      -5.354  74.342 115.871  0.00  0.00     0.109 C 
ATOM     16  O   LIG d   1      -3.418  74.560 114.456  0.00  0.00    -0.276 OA
ATOM     17  H   LIG d   1      -3.975  75.961 117.233  0.00  0.00     0.149 HD
ENDBRANCH   6  13
BRANCH   5  18
ATOM     18  N   LIG d   1      -0.760  74.539 117.131  0.00  0.00     0.381 N 
ATOM     19  H   LIG d   1       0.080  74.347 117.639  0.00  0.00    -0.090 HD
ATOM     20  H   LIG d   1      -0.597  74.329 116.162  0.00  0.00    -0.090 HD
ATOM     21  H   LIG d   1      -1.504  73.976 117.480  0.00  0.00    -0.090 HD
ENDBRANCH   5  18
BRANCH   3  22
ATOM     22  C   LIG d   1       0.979  78.987 117.486  0.00  0.00     0.382 C 
ATOM     23  O   LIG d   1       1.899  78.521 118.199  0.00  0.00    -0.241 OA
ATOM     24  O   LIG d   1       0.961  80.206 117.227  0.00  0.00    -0.241 OA
ENDBRANCH   3  22
TORSDOF 7
ENDMDL
MODEL 5
REMARK VINA RESULT:      -4.2      2.894      5.233
REMARK  7 active torsions:
REMARK  status: ('A' for Active; 'I' for Inactive)
REMARK    1  A    between atoms: C_2  and  C_3 
REMARK    2  A    between atoms: C_3  and  O_6 
REMARK    3  A    between atoms: C_3  and  C_4 
REMARK    4  A    between atoms: C_7  and  O_6 
REMARK    5  A    between atoms: C_9  and  C_10 
REMARK    6  A    between atoms: N_15  and  C_14 
REMARK    7  A    between atoms: N_20  and  C_19 
REMARK       I    between atoms: C_22  and  N_20 
ROOT
ATOM      1  C   LIG d   1      -2.973  77.932 116.763  0.00  0.00     0.161 C 
ATOM      2  C   LIG d   1      -4.027  77.184 116.212  0.00  0.00     0.016 C 
ATOM      3  C   LIG d   1      -3.834  76.143 115.275  0.00  0.00     0.038 C 
ATOM      4  C   LIG d   1      -2.555  75.676 114.937  0.00  0.00     0.028 C 
ATOM      5  C   LIG d   1      -1.466  76.733 115.084  0.00  0.00    -0.047 C 
ATOM      6  C   LIG d   1      -1.565  77.363 116.492  0.00  0.00     0.091 C 
ENDROOT
BRANCH   1   7
ATOM      7  O   LIG d   1      -3.182  78.099 118.180  0.00  0.00    -0.368 OA
BRANCH   7   8
ATOM      8  C   LIG d   1      -3.694  79.387 118.601  0.00  0.00     0.119 C 
BRANCH   8   9
ATOM      9  C   LIG d   1      -2.930  79.794 119.876  0.00  0.00     0.028 C 
ATOM     10  C   LIG d   1      -1.606  80.511 119.562  0.00  0.00     0.006 C 
ENDBRANCH   8   9
BRANCH   8  11
ATOM     11  C   LIG d   1      -5.163  79.291 119.023  0.00  0.00     0.028 C 
ATOM     12  C   LIG d   1      -6.128  79.793 117.937  0.00  0.00     0.006 C 
ENDBRANCH   8  11
ENDBRANCH   7   8
ENDBRANCH   1   7
BRANCH   6  13
ATOM     13  N   LIG d   1      -0.589  78.467 116.689  0.00  0.00    -0.311 N 
ATOM     14  C   LIG d   1       0.592  78.304 117.284  0.00  0.00     0.210 C 
ATOM     15  C   LIG d   1       1.437  79.576 117.402  0.00  0.00     0.109 C 
ATOM     16  O   LIG d   1       1.032  77.220 117.696  0.00  0.00    -0.276 OA
ATOM     17  H   LIG d   1      -0.852  79.374 116.356  0.00  0.00     0.149 HD
ENDBRANCH   6  13
BRANCH   5  18
ATOM     18  N   LIG d   1      -0.170  76.075 114.834  0.00  0.00     0.381 N 
ATOM     19  H   LIG d   1       0.536  76.767 114.675  0.00  0.00    -0.090 HD
ATOM     20  H   LIG d   1      -0.247  75.507 114.009  0.00  0.00    -0.090 HD
ATOM     21  H   LIG d   1       0.080  75.508 115.614  0.00  0.00    -0.090 HD
ENDBRANCH   5  18
BRANCH   3  22
ATOM     22  C   LIG d   1      -4.930  75.584 114.634  0.00  0.00     0.382 C 
ATOM     23  O   LIG d   1      -4.899  74.384 114.270  0.00  0.00    -0.241 OA
ATOM     24  O   LIG d   1      -5.932  76.278 114.375  0.00  0.00    -0.241 OA
ENDBRANCH   3  22
TORSDOF 7
ENDMDL
MODEL 6
REMARK VINA RESULT:      -4.1      2.717      4.842
REMARK  7 active torsions:
REMARK  status: ('A' for Active; 'I' for Inactive)
REMARK    1  A    between atoms: C_2  and  C_3 
REMARK    2  A    between atoms: C_3  and  O_6 
REMARK    3  A    between atoms: C_3  and  C_4 
REMARK    4  A    between atoms: C_7  and  O_6 
REMARK    5  A    between atoms: C_9  and  C_10 
REMARK    6  A    between atoms: N_15  and  C_14 
REMARK    7  A    between atoms: N_20  and  C_19 
REMARK       I    between atoms: C_22  and  N_20 
ROOT
ATOM      1  C   LIG d   1      -2.794  77.690 117.290  0.00  0.00     0.161 C 
ATOM      2  C   LIG d   1      -3.352  77.461 116.021  0.00  0.00     0.016 C 
ATOM      3  C   LIG d   1      -2.621  76.931 114.933  0.00  0.00     0.038 C 
ATOM      4  C   LIG d   1      -1.312  76.450 115.084  0.00  0.00     0.028 C 
ATOM      5  C   LIG d   1      -0.545  77.124 116.216  0.00  0.00    -0.047 C 
ATOM      6  C   LIG d   1      -1.398  77.067 117.504  0.00  0.00     0.091 C 
ENDROOT
BRANCH   1   7
ATOM      7  O   LIG d   1      -3.705  77.241 118.313  0.00  0.00    -0.368 OA
BRANCH   7   8
ATOM      8  C   LIG d   1      -5.068  76.996 117.889  0.00  0.00     0.119 C 
BRANCH   8   9
ATOM      9  C   LIG d   1      -5.975  77.981 118.652  0.00  0.00     0.028 C 
ATOM     10  C   LIG d   1      -6.296  79.240 117.829  0.00  0.00     0.006 C 
ENDBRANCH   8   9
BRANCH   8  11
ATOM     11  C   LIG d   1      -5.540  75.601 118.310  0.00  0.00     0.028 C 
ATOM     12  C   LIG d   1      -6.623  75.032 117.379  0.00  0.00     0.006 C 
ENDBRANCH   8  11
ENDBRANCH   7   8
ENDBRANCH   1   7
BRANCH   6  13
ATOM     13  N   LIG d   1      -0.758  77.779 118.640  0.00  0.00    -0.311 N 
ATOM     14  C   LIG d   1      -0.328  79.037 118.569  0.00  0.00     0.210 C 
ATOM     15  C   LIG d   1       0.320  79.573 119.849  0.00  0.00     0.109 C 
ATOM     16  O   LIG d   1      -0.452  79.772 117.577  0.00  0.00    -0.276 OA
ATOM     17  H   LIG d   1      -0.646  77.267 119.494  0.00  0.00     0.149 HD
ENDBRANCH   6  13
BRANCH   5  18
ATOM     18  N   LIG d   1       0.751  76.432 116.350  0.00  0.00     0.381 N 
ATOM     19  H   LIG d   1       1.051  76.099 115.456  0.00  0.00    -0.090 HD
ATOM     20  H   LIG d   1       0.636  75.642 116.959  0.00  0.00    -0.090 HD
ATOM     21  H   LIG d   1       1.432  77.055 116.726  0.00  0.00    -0.090 HD
ENDBRANCH   5  18
BRANCH   3  22
ATOM     22  C   LIG d   1      -3.187  76.917 113.667  0.00  0.00     0.382 C 
ATOM     23  O   LIG d   1      -4.421  76.736 113.534  0.00  0.00    -0.241 OA
ATOM     24  O   LIG d   1      -2.472  77.037 112.654  0.00  0.00    -0.241 OA
ENDBRANCH   3  22
TORSDOF 7
ENDMDL
MODEL 7
REMARK VINA RESULT:      -4.1      2.037      3.238
REMARK  7 active torsions:
REMARK  status: ('A' for Active; 'I' for Inactive)
REMARK    1  A    between atoms: C_2  and  C_3 
REMARK    2  A    between atoms: C_3  and  O_6 
REMARK    3  A    between atoms: C_3  and  C_4 
REMARK    4  A    between atoms: C_7  and  O_6 
REMARK    5  A    between atoms: C_9  and  C_10 
REMARK    6  A    between atoms: N_15  and  C_14 
REMARK    7  A    between atoms: N_20  and  C_19 
REMARK       I    between atoms: C_22  and  N_20 
ROOT
ATOM      1  C   LIG d   1      -1.978  75.420 117.985  0.00  0.00     0.161 C 
ATOM      2  C   LIG d   1      -0.725  75.709 118.549  0.00  0.00     0.016 C 
ATOM      3  C   LIG d   1       0.360  76.232 117.808  0.00  0.00     0.038 C 
ATOM      4  C   LIG d   1       0.217  76.644 116.475  0.00  0.00     0.028 C 
ATOM      5  C   LIG d   1      -0.885  75.902 115.726  0.00  0.00    -0.047 C 
ATOM      6  C   LIG d   1      -2.187  75.967 116.557  0.00  0.00     0.091 C 
ENDROOT
BRANCH   1   7
ATOM      7  O   LIG d   1      -3.027  75.885 118.858  0.00  0.00    -0.368 OA
BRANCH   7   8
ATOM      8  C   LIG d   1      -3.588  77.183 118.544  0.00  0.00     0.119 C 
BRANCH   8   9
ATOM      9  C   LIG d   1      -3.149  78.158 119.653  0.00  0.00     0.028 C 
ATOM     10  C   LIG d   1      -2.104  79.174 119.162  0.00  0.00     0.006 C 
ENDBRANCH   8   9
BRANCH   8  11
ATOM     11  C   LIG d   1      -5.118  77.158 118.608  0.00  0.00     0.028 C 
ATOM     12  C   LIG d   1      -5.693  75.733 118.579  0.00  0.00     0.006 C 
ENDBRANCH   8  11
ENDBRANCH   7   8
ENDBRANCH   1   7
BRANCH   6  13
ATOM     13  N   LIG d   1      -3.294  75.194 115.936  0.00  0.00    -0.311 N 
ATOM     14  C   LIG d   1      -4.213  75.739 115.141  0.00  0.00     0.210 C 
ATOM     15  C   LIG d   1      -5.279  74.768 114.624  0.00  0.00     0.109 C 
ATOM     16  O   LIG d   1      -4.229  76.928 114.790  0.00  0.00    -0.276 OA
ATOM     17  H   LIG d   1      -3.339  74.215 116.143  0.00  0.00     0.149 HD
ENDBRANCH   6  13
BRANCH   5  18
ATOM     18  N   LIG d   1      -1.017  76.525 114.395  0.00  0.00     0.381 N 
ATOM     19  H   LIG d   1      -1.496  77.400 114.477  0.00  0.00    -0.090 HD
ATOM     20  H   LIG d   1      -1.563  75.921 113.806  0.00  0.00    -0.090 HD
ATOM     21  H   LIG d   1      -0.116  76.667 113.994  0.00  0.00    -0.090 HD
ENDBRANCH   5  18
BRANCH   3  22
ATOM     22  C   LIG d   1       1.616  76.309 118.390  0.00  0.00     0.382 C 
ATOM     23  O   LIG d   1       1.942  77.328 119.045  0.00  0.00    -0.241 OA
ATOM     24  O   LIG d   1       2.443  75.391 118.231  0.00  0.00    -0.241 OA
ENDBRANCH   3  22
TORSDOF 7
ENDMDL
MODEL 8
REMARK VINA RESULT:      -4.1      2.340      4.956
REMARK  7 active torsions:
REMARK  status: ('A' for Active; 'I' for Inactive)
REMARK    1  A    between atoms: C_2  and  C_3 
REMARK    2  A    between atoms: C_3  and  O_6 
REMARK    3  A    between atoms: C_3  and  C_4 
REMARK    4  A    between atoms: C_7  and  O_6 
REMARK    5  A    between atoms: C_9  and  C_10 
REMARK    6  A    between atoms: N_15  and  C_14 
REMARK    7  A    between atoms: N_20  and  C_19 
REMARK       I    between atoms: C_22  and  N_20 
ROOT
ATOM      1  C   LIG d   1      -3.000  77.135 117.084  0.00  0.00     0.161 C 
ATOM      2  C   LIG d   1      -3.041  78.057 116.024  0.00  0.00     0.016 C 
ATOM      3  C   LIG d   1      -2.418  77.834 114.775  0.00  0.00     0.038 C 
ATOM      4  C   LIG d   1      -1.835  76.601 114.446  0.00  0.00     0.028 C 
ATOM      5  C   LIG d   1      -1.330  75.827 115.659  0.00  0.00    -0.047 C 
ATOM      6  C   LIG d   1      -2.464  75.739 116.706  0.00  0.00     0.091 C 
ENDROOT
BRANCH   1   7
ATOM      7  O   LIG d   1      -4.305  77.025 117.686  0.00  0.00    -0.368 OA
BRANCH   7   8
ATOM      8  C   LIG d   1      -5.435  77.181 116.793  0.00  0.00     0.119 C 
BRANCH   8   9
ATOM      9  C   LIG d   1      -6.554  77.889 117.581  0.00  0.00     0.028 C 
ATOM     10  C   LIG d   1      -6.215  79.356 117.891  0.00  0.00     0.006 C 
ENDBRANCH   8   9
BRANCH   8  11
ATOM     11  C   LIG d   1      -6.018  75.823 116.391  0.00  0.00     0.028 C 
ATOM     12  C   LIG d   1      -5.727  75.460 114.926  0.00  0.00     0.006 C 
ENDBRANCH   8  11
ENDBRANCH   7   8
ENDBRANCH   1   7
BRANCH   6  13
ATOM     13  N   LIG d   1      -2.028  75.070 117.959  0.00  0.00    -0.311 N 
ATOM     14  C   LIG d   1      -0.989  75.479 118.685  0.00  0.00     0.210 C 
ATOM     15  C   LIG d   1      -0.698  74.635 119.930  0.00  0.00     0.109 C 
ATOM     16  O   LIG d   1      -0.300  76.479 118.433  0.00  0.00    -0.276 OA
ATOM     17  H   LIG d   1      -2.550  74.268 118.254  0.00  0.00     0.149 HD
ENDBRANCH   6  13
BRANCH   5  18
ATOM     18  N   LIG d   1      -0.875  74.506 115.187  0.00  0.00     0.381 N 
ATOM     19  H   LIG d   1      -1.665  73.919 115.009  0.00  0.00    -0.090 HD
ATOM     20  H   LIG d   1      -0.319  74.078 115.906  0.00  0.00    -0.090 HD
ATOM     21  H   LIG d   1      -0.335  74.609 114.356  0.00  0.00    -0.090 HD
ENDBRANCH   5  18
BRANCH   3  22
ATOM     22  C   LIG d   1      -2.339  78.867 113.853  0.00  0.00     0.382 C 
ATOM     23  O   LIG d   1      -3.121  78.893 112.872  0.00  0.00    -0.241 OA
ATOM     24  O   LIG d   1      -1.466  79.749 113.965  0.00  0.00    -0.241 OA
ENDBRANCH   3  22
TORSDOF 7
ENDMDL
MODEL 9
REMARK VINA RESULT:      -4.0      2.175      5.417
REMARK  7 active torsions:
REMARK  status: ('A' for Active; 'I' for Inactive)
REMARK    1  A    between atoms: C_2  and  C_3 
REMARK    2  A    between atoms: C_3  and  O_6 
REMARK    3  A    between atoms: C_3  and  C_4 
REMARK    4  A    between atoms: C_7  and  O_6 
REMARK    5  A    between atoms: C_9  and  C_10 
REMARK    6  A    between atoms: N_15  and  C_14 
REMARK    7  A    between atoms: N_20  and  C_19 
REMARK       I    between atoms: C_22  and  N_20 
ROOT
ATOM      1  C   LIG d   1      -1.860  78.248 116.570  0.00  0.00     0.161 C 
ATOM      2  C   LIG d   1      -2.376  78.636 115.323  0.00  0.00     0.016 C 
ATOM      3  C   LIG d   1      -2.387  77.792 114.188  0.00  0.00     0.038 C 
ATOM      4  C   LIG d   1      -2.017  76.441 114.266  0.00  0.00     0.028 C 
ATOM      5  C   LIG d   1      -1.017  76.150 115.380  0.00  0.00    -0.047 C 
ATOM      6  C   LIG d   1      -1.554  76.742 116.703  0.00  0.00     0.091 C 
ENDROOT
BRANCH   1   7
ATOM      7  O   LIG d   1      -2.750  78.674 117.621  0.00  0.00    -0.368 OA
BRANCH   7   8
ATOM      8  C   LIG d   1      -4.106  78.168 117.551  0.00  0.00     0.119 C 
BRANCH   8   9
ATOM      9  C   LIG d   1      -5.055  79.347 117.841  0.00  0.00     0.028 C 
ATOM     10  C   LIG d   1      -4.861  79.922 119.255  0.00  0.00     0.006 C 
ENDBRANCH   8   9
BRANCH   8  11
ATOM     11  C   LIG d   1      -4.378  77.146 118.658  0.00  0.00     0.028 C 
ATOM     12  C   LIG d   1      -4.814  75.778 118.112  0.00  0.00     0.006 C 
ENDBRANCH   8  11
ENDBRANCH   7   8
ENDBRANCH   1   7
BRANCH   6  13
ATOM     13  N   LIG d   1      -0.597  76.575 117.828  0.00  0.00    -0.311 N 
ATOM     14  C   LIG d   1      -0.633  75.547 118.674  0.00  0.00     0.210 C 
ATOM     15  C   LIG d   1       0.432  75.578 119.775  0.00  0.00     0.109 C 
ATOM     16  O   LIG d   1      -1.425  74.595 118.599  0.00  0.00    -0.276 OA
ATOM     17  H   LIG d   1       0.099  77.285 117.944  0.00  0.00     0.149 HD
ENDBRANCH   6  13
BRANCH   5  18
ATOM     18  N   LIG d   1      -0.825  74.688 115.436  0.00  0.00     0.381 N 
ATOM     19  H   LIG d   1      -1.637  74.255 115.830  0.00  0.00    -0.090 HD
ATOM     20  H   LIG d   1      -0.040  74.486 116.029  0.00  0.00    -0.090 HD
ATOM     21  H   LIG d   1      -0.661  74.331 114.521  0.00  0.00    -0.090 HD
ENDBRANCH   5  18
BRANCH   3  22
ATOM     22  C   LIG d   1      -2.733  78.310 112.950  0.00  0.00     0.382 C 
ATOM     23  O   LIG d   1      -2.954  79.539 112.823  0.00  0.00    -0.241 OA
ATOM     24  O   LIG d   1      -2.871  77.558 111.966  0.00  0.00    -0.241 OA
ENDBRANCH   3  22
TORSDOF 7
ENDMDL
