MODEL 1
REMARK VINA RESULT:      -5.3      0.000      0.000
REMARK  7 active torsions:
REMARK  status: ('A' for Active; 'I' for Inactive)
REMARK    1  A    between atoms: C_2  and  C_3 
REMARK    2  A    between atoms: C_3  and  O_6 
REMARK    3  A    between atoms: C_3  and  C_4 
REMARK    4  A    between atoms: C_7  and  O_6 
REMARK    5  A    between atoms: C_9  and  C_10 
REMARK    6  A    between atoms: N_15  and  C_14 
REMARK    7  A    between atoms: N_20  and  C_19 
REMARK       I    between atoms: C_22  and  N_20 
ROOT
ATOM      1  C   LIG d   1      -2.091  81.330 112.432  0.00  0.00     0.161 C 
ATOM      2  C   LIG d   1      -2.662  80.171 112.982  0.00  0.00     0.016 C 
ATOM      3  C   LIG d   1      -2.196  78.866 112.704  0.00  0.00     0.038 C 
ATOM      4  C   LIG d   1      -1.023  78.639 111.968  0.00  0.00     0.028 C 
ATOM      5  C   LIG d   1      -0.705  79.752 110.976  0.00  0.00    -0.047 C 
ATOM      6  C   LIG d   1      -0.742  81.109 111.716  0.00  0.00     0.091 C 
ENDROOT
BRANCH   1   7
ATOM      7  O   LIG d   1      -1.958  82.341 113.451  0.00  0.00    -0.368 OA
BRANCH   7   8
ATOM      8  C   LIG d   1      -0.915  82.122 114.432  0.00  0.00     0.119 C 
BRANCH   8   9
ATOM      9  C   LIG d   1      -1.586  82.085 115.819  0.00  0.00     0.028 C 
ATOM     10  C   LIG d   1      -0.566  82.176 116.967  0.00  0.00     0.006 C 
ENDBRANCH   8   9
BRANCH   8  11
ATOM     11  C   LIG d   1       0.058  83.304 114.484  0.00  0.00     0.028 C 
ATOM     12  C   LIG d   1      -0.404  84.494 113.629  0.00  0.00     0.006 C 
ENDBRANCH   8  11
ENDBRANCH   7   8
ENDBRANCH   1   7
BRANCH   6  13
ATOM     13  N   LIG d   1      -0.525  82.260 110.801  0.00  0.00    -0.311 N 
ATOM     14  C   LIG d   1       0.669  82.810 110.585  0.00  0.00     0.210 C 
ATOM     15  C   LIG d   1       0.668  83.999 109.620  0.00  0.00     0.109 C 
ATOM     16  O   LIG d   1       1.733  82.405 111.076  0.00  0.00    -0.276 OA
ATOM     17  H   LIG d   1      -1.330  82.632 110.336  0.00  0.00     0.149 HD
ENDBRANCH   6  13
BRANCH   5  18
ATOM     18  N   LIG d   1       0.610  79.455 110.379  0.00  0.00     0.381 N 
ATOM     19  H   LIG d   1       0.862  80.179 109.735  0.00  0.00    -0.090 HD
ATOM     20  H   LIG d   1       0.549  78.590 109.872  0.00  0.00    -0.090 HD
ATOM     21  H   LIG d   1       1.301  79.382 111.093  0.00  0.00    -0.090 HD
ENDBRANCH   5  18
BRANCH   3  22
ATOM     22  C   LIG d   1      -2.929  77.769 113.129  0.00  0.00     0.382 C 
ATOM     23  O   LIG d   1      -2.456  76.998 114.000  0.00  0.00    -0.241 OA
ATOM     24  O   LIG d   1      -4.038  77.514 112.623  0.00  0.00    -0.241 OA
ENDBRANCH   3  22
TORSDOF 7
ENDMDL
MODEL 2
REMARK VINA RESULT:      -5.2      2.341      3.675
REMARK  7 active torsions:
REMARK  status: ('A' for Active; 'I' for Inactive)
REMARK    1  A    between atoms: C_2  and  C_3 
REMARK    2  A    between atoms: C_3  and  O_6 
REMARK    3  A    between atoms: C_3  and  C_4 
REMARK    4  A    between atoms: C_7  and  O_6 
REMARK    5  A    between atoms: C_9  and  C_10 
REMARK    6  A    between atoms: N_15  and  C_14 
REMARK    7  A    between atoms: N_20  and  C_19 
REMARK       I    between atoms: C_22  and  N_20 
ROOT
ATOM      1  C   LIG d   1      -2.586  81.529 113.068  0.00  0.00     0.161 C 
ATOM      2  C   LIG d   1      -2.960  81.891 114.373  0.00  0.00     0.016 C 
ATOM      3  C   LIG d   1      -2.679  81.100 115.511  0.00  0.00     0.038 C 
ATOM      4  C   LIG d   1      -1.868  79.958 115.438  0.00  0.00     0.028 C 
ATOM      5  C   LIG d   1      -1.893  79.283 114.071  0.00  0.00    -0.047 C 
ATOM      6  C   LIG d   1      -1.604  80.342 112.983  0.00  0.00     0.091 C 
ENDROOT
BRANCH   1   7
ATOM      7  O   LIG d   1      -2.049  82.675 112.378  0.00  0.00    -0.368 OA
BRANCH   7   8
ATOM      8  C   LIG d   1      -0.610  82.833 112.430  0.00  0.00     0.119 C 
BRANCH   8   9
ATOM      9  C   LIG d   1      -0.303  83.952 113.445  0.00  0.00     0.028 C 
ATOM     10  C   LIG d   1       0.359  83.417 114.725  0.00  0.00     0.006 C 
ENDBRANCH   8   9
BRANCH   8  11
ATOM     11  C   LIG d   1      -0.056  83.335 111.093  0.00  0.00     0.028 C 
ATOM     12  C   LIG d   1      -0.775  84.595 110.586  0.00  0.00     0.006 C 
ENDBRANCH   8  11
ENDBRANCH   7   8
ENDBRANCH   1   7
BRANCH   6  13
ATOM     13  N   LIG d   1      -1.693  79.783 111.609  0.00  0.00    -0.311 N 
ATOM     14  C   LIG d   1      -0.636  79.615 110.816  0.00  0.00     0.210 C 
ATOM     15  C   LIG d   1      -0.952  79.041 109.431  0.00  0.00     0.109 C 
ATOM     16  O   LIG d   1       0.537  79.856 111.139  0.00  0.00    -0.276 OA
ATOM     17  H   LIG d   1      -2.603  79.530 111.277  0.00  0.00     0.149 HD
ENDBRANCH   6  13
BRANCH   5  18
ATOM     18  N   LIG d   1      -0.901  78.192 114.094  0.00  0.00     0.381 N 
ATOM     19  H   LIG d   1      -0.467  78.148 114.994  0.00  0.00    -0.090 HD
ATOM     20  H   LIG d   1      -0.191  78.384 113.410  0.00  0.00    -0.090 HD
ATOM     21  H   LIG d   1      -1.345  77.323 113.889  0.00  0.00    -0.090 HD
ENDBRANCH   5  18
BRANCH   3  22
ATOM     22  C   LIG d   1      -3.247  81.428 116.733  0.00  0.00     0.382 C 
ATOM     23  O   LIG d   1      -4.492  81.542 116.835  0.00  0.00    -0.241 OA
ATOM     24  O   LIG d   1      -2.526  81.654 117.724  0.00  0.00    -0.241 OA
ENDBRANCH   3  22
TORSDOF 7
ENDMDL
MODEL 3
REMARK VINA RESULT:      -5.2      1.330      2.175
REMARK  7 active torsions:
REMARK  status: ('A' for Active; 'I' for Inactive)
REMARK    1  A    between atoms: C_2  and  C_3 
REMARK    2  A    between atoms: C_3  and  O_6 
REMARK    3  A    between atoms: C_3  and  C_4 
REMARK    4  A    between atoms: C_7  and  O_6 
REMARK    5  A    between atoms: C_9  and  C_10 
REMARK    6  A    between atoms: N_15  and  C_14 
REMARK    7  A    between atoms: N_20  and  C_19 
REMARK       I    between atoms: C_22  and  N_20 
ROOT
ATOM      1  C   LIG d   1      -0.672  80.771 112.382  0.00  0.00     0.161 C 
ATOM      2  C   LIG d   1      -1.614  79.946 113.019  0.00  0.00     0.016 C 
ATOM      3  C   LIG d   1      -1.982  78.669 112.537  0.00  0.00     0.038 C 
ATOM      4  C   LIG d   1      -1.316  78.062 111.462  0.00  0.00     0.028 C 
ATOM      5  C   LIG d   1      -0.710  79.062 110.483  0.00  0.00    -0.047 C 
ATOM      6  C   LIG d   1       0.146  80.080 111.271  0.00  0.00     0.091 C 
ENDROOT
BRANCH   1   7
ATOM      7  O   LIG d   1       0.209  81.354 113.363  0.00  0.00    -0.368 OA
BRANCH   7   8
ATOM      8  C   LIG d   1      -0.282  82.539 114.036  0.00  0.00     0.119 C 
BRANCH   8   9
ATOM      9  C   LIG d   1       0.694  83.689 113.720  0.00  0.00     0.028 C 
ATOM     10  C   LIG d   1       0.358  84.397 112.397  0.00  0.00     0.006 C 
ENDBRANCH   8   9
BRANCH   8  11
ATOM     11  C   LIG d   1      -0.237  82.375 115.558  0.00  0.00     0.028 C 
ATOM     12  C   LIG d   1      -1.612  82.053 116.164  0.00  0.00     0.006 C 
ENDBRANCH   8  11
ENDBRANCH   7   8
ENDBRANCH   1   7
BRANCH   6  13
ATOM     13  N   LIG d   1       0.708  81.144 110.399  0.00  0.00    -0.311 N 
ATOM     14  C   LIG d   1       1.996  81.481 110.390  0.00  0.00     0.210 C 
ATOM     15  C   LIG d   1       2.361  82.618 109.430  0.00  0.00     0.109 C 
ATOM     16  O   LIG d   1       2.877  80.924 111.062  0.00  0.00    -0.276 OA
ATOM     17  H   LIG d   1       0.068  81.627 109.798  0.00  0.00     0.149 HD
ENDBRANCH   6  13
BRANCH   5  18
ATOM     18  N   LIG d   1       0.069  78.298 109.490  0.00  0.00     0.381 N 
ATOM     19  H   LIG d   1       0.535  78.928 108.868  0.00  0.00    -0.090 HD
ATOM     20  H   LIG d   1      -0.560  77.730 108.951  0.00  0.00    -0.090 HD
ATOM     21  H   LIG d   1       0.737  77.721 109.952  0.00  0.00    -0.090 HD
ENDBRANCH   5  18
BRANCH   3  22
ATOM     22  C   LIG d   1      -3.054  78.001 113.109  0.00  0.00     0.382 C 
ATOM     23  O   LIG d   1      -3.956  77.524 112.380  0.00  0.00    -0.241 OA
ATOM     24  O   LIG d   1      -3.153  77.909 114.347  0.00  0.00    -0.241 OA
ENDBRANCH   3  22
TORSDOF 7
ENDMDL
MODEL 4
REMARK VINA RESULT:      -5.1      2.663      5.398
REMARK  7 active torsions:
REMARK  status: ('A' for Active; 'I' for Inactive)
REMARK    1  A    between atoms: C_2  and  C_3 
REMARK    2  A    between atoms: C_3  and  O_6 
REMARK    3  A    between atoms: C_3  and  C_4 
REMARK    4  A    between atoms: C_7  and  O_6 
REMARK    5  A    between atoms: C_9  and  C_10 
REMARK    6  A    between atoms: N_15  and  C_14 
REMARK    7  A    between atoms: N_20  and  C_19 
REMARK       I    between atoms: C_22  and  N_20 
ROOT
ATOM      1  C   LIG d   1      -2.370  80.506 114.894  0.00  0.00     0.161 C 
ATOM      2  C   LIG d   1      -2.021  81.660 114.173  0.00  0.00     0.016 C 
ATOM      3  C   LIG d   1      -1.451  81.628 112.880  0.00  0.00     0.038 C 
ATOM      4  C   LIG d   1      -1.330  80.434 112.153  0.00  0.00     0.028 C 
ATOM      5  C   LIG d   1      -1.201  79.198 113.036  0.00  0.00    -0.047 C 
ATOM      6  C   LIG d   1      -2.348  79.200 114.073  0.00  0.00     0.091 C 
ENDROOT
BRANCH   1   7
ATOM      7  O   LIG d   1      -3.659  80.687 115.513  0.00  0.00    -0.368 OA
BRANCH   7   8
ATOM      8  C   LIG d   1      -3.678  81.478 116.726  0.00  0.00     0.119 C 
BRANCH   8   9
ATOM      9  C   LIG d   1      -2.657  80.858 117.699  0.00  0.00     0.028 C 
ATOM     10  C   LIG d   1      -1.560  81.854 118.113  0.00  0.00     0.006 C 
ENDBRANCH   8   9
BRANCH   8  11
ATOM     11  C   LIG d   1      -5.030  81.375 117.438  0.00  0.00     0.028 C 
ATOM     12  C   LIG d   1      -5.114  82.262 118.690  0.00  0.00     0.006 C 
ENDBRANCH   8  11
ENDBRANCH   7   8
ENDBRANCH   1   7
BRANCH   6  13
ATOM     13  N   LIG d   1      -2.248  78.068 115.030  0.00  0.00    -0.311 N 
ATOM     14  C   LIG d   1      -2.930  76.931 114.896  0.00  0.00     0.210 C 
ATOM     15  C   LIG d   1      -2.696  75.902 116.006  0.00  0.00     0.109 C 
ATOM     16  O   LIG d   1      -3.680  76.665 113.945  0.00  0.00    -0.276 OA
ATOM     17  H   LIG d   1      -1.638  78.187 115.815  0.00  0.00     0.149 HD
ENDBRANCH   6  13
BRANCH   5  18
ATOM     18  N   LIG d   1      -1.222  78.016 112.153  0.00  0.00     0.381 N 
ATOM     19  H   LIG d   1      -1.427  77.196 112.690  0.00  0.00    -0.090 HD
ATOM     20  H   LIG d   1      -0.313  77.903 111.739  0.00  0.00    -0.090 HD
ATOM     21  H   LIG d   1      -1.908  78.135 111.440  0.00  0.00    -0.090 HD
ENDBRANCH   5  18
BRANCH   3  22
ATOM     22  C   LIG d   1      -0.958  82.795 112.317  0.00  0.00     0.382 C 
ATOM     23  O   LIG d   1      -0.046  83.433 112.895  0.00  0.00    -0.241 OA
ATOM     24  O   LIG d   1      -1.445  83.241 111.261  0.00  0.00    -0.241 OA
ENDBRANCH   3  22
TORSDOF 7
ENDMDL
MODEL 5
REMARK VINA RESULT:      -5.1      1.984      3.985
REMARK  7 active torsions:
REMARK  status: ('A' for Active; 'I' for Inactive)
REMARK    1  A    between atoms: C_2  and  C_3 
REMARK    2  A    between atoms: C_3  and  O_6 
REMARK    3  A    between atoms: C_3  and  C_4 
REMARK    4  A    between atoms: C_7  and  O_6 
REMARK    5  A    between atoms: C_9  and  C_10 
REMARK    6  A    between atoms: N_15  and  C_14 
REMARK    7  A    between atoms: N_20  and  C_19 
REMARK       I    between atoms: C_22  and  N_20 
ROOT
ATOM      1  C   LIG d   1      -0.522  80.658 111.968  0.00  0.00     0.161 C 
ATOM      2  C   LIG d   1      -1.272  79.470 111.963  0.00  0.00     0.016 C 
ATOM      3  C   LIG d   1      -2.128  79.086 113.021  0.00  0.00     0.038 C 
ATOM      4  C   LIG d   1      -2.410  79.943 114.095  0.00  0.00     0.028 C 
ATOM      5  C   LIG d   1      -1.289  80.934 114.390  0.00  0.00    -0.047 C 
ATOM      6  C   LIG d   1      -0.902  81.658 113.080  0.00  0.00     0.091 C 
ENDROOT
BRANCH   1   7
ATOM      7  O   LIG d   1      -0.603  81.292 110.676  0.00  0.00    -0.368 OA
BRANCH   7   8
ATOM      8  C   LIG d   1       0.561  81.153 109.824  0.00  0.00     0.119 C 
BRANCH   8   9
ATOM      9  C   LIG d   1       1.667  80.478 110.658  0.00  0.00     0.028 C 
ATOM     10  C   LIG d   1       2.525  79.512 109.823  0.00  0.00     0.006 C 
ENDBRANCH   8   9
BRANCH   8  11
ATOM     11  C   LIG d   1       1.129  82.520 109.430  0.00  0.00     0.028 C 
ATOM     12  C   LIG d   1       2.276  82.976 110.346  0.00  0.00     0.006 C 
ENDBRANCH   8  11
ENDBRANCH   7   8
ENDBRANCH   1   7
BRANCH   6  13
ATOM     13  N   LIG d   1       0.245  82.585 113.262  0.00  0.00    -0.311 N 
ATOM     14  C   LIG d   1       0.107  83.900 113.422  0.00  0.00     0.210 C 
ATOM     15  C   LIG d   1       1.420  84.675 113.574  0.00  0.00     0.109 C 
ATOM     16  O   LIG d   1      -0.980  84.495 113.485  0.00  0.00    -0.276 OA
ATOM     17  H   LIG d   1       1.162  82.183 113.255  0.00  0.00     0.149 HD
ENDBRANCH   6  13
BRANCH   5  18
ATOM     18  N   LIG d   1      -1.770  81.853 115.438  0.00  0.00     0.381 N 
ATOM     19  H   LIG d   1      -2.381  82.536 115.036  0.00  0.00    -0.090 HD
ATOM     20  H   LIG d   1      -0.982  82.331 115.838  0.00  0.00    -0.090 HD
ATOM     21  H   LIG d   1      -2.252  81.342 116.145  0.00  0.00    -0.090 HD
ENDBRANCH   5  18
BRANCH   3  22
ATOM     22  C   LIG d   1      -2.681  77.815 113.030  0.00  0.00     0.382 C 
ATOM     23  O   LIG d   1      -3.800  77.614 112.499  0.00  0.00    -0.241 OA
ATOM     24  O   LIG d   1      -2.096  76.875 113.602  0.00  0.00    -0.241 OA
ENDBRANCH   3  22
TORSDOF 7
ENDMDL
MODEL 6
REMARK VINA RESULT:      -5.0      2.891      5.576
REMARK  7 active torsions:
REMARK  status: ('A' for Active; 'I' for Inactive)
REMARK    1  A    between atoms: C_2  and  C_3 
REMARK    2  A    between atoms: C_3  and  O_6 
REMARK    3  A    between atoms: C_3  and  C_4 
REMARK    4  A    between atoms: C_7  and  O_6 
REMARK    5  A    between atoms: C_9  and  C_10 
REMARK    6  A    between atoms: N_15  and  C_14 
REMARK    7  A    between atoms: N_20  and  C_19 
REMARK       I    between atoms: C_22  and  N_20 
ROOT
ATOM      1  C   LIG d   1      -2.487  80.310 115.161  0.00  0.00     0.161 C 
ATOM      2  C   LIG d   1      -2.279  81.507 114.456  0.00  0.00     0.016 C 
ATOM      3  C   LIG d   1      -1.750  81.556 113.146  0.00  0.00     0.038 C 
ATOM      4  C   LIG d   1      -1.532  80.395 112.390  0.00  0.00     0.028 C 
ATOM      5  C   LIG d   1      -1.251  79.162 113.242  0.00  0.00    -0.047 C 
ATOM      6  C   LIG d   1      -2.359  79.028 114.312  0.00  0.00     0.091 C 
ENDROOT
BRANCH   1   7
ATOM      7  O   LIG d   1      -3.767  80.348 115.822  0.00  0.00    -0.368 OA
BRANCH   7   8
ATOM      8  C   LIG d   1      -3.740  80.297 117.269  0.00  0.00     0.119 C 
BRANCH   8   9
ATOM      9  C   LIG d   1      -5.168  79.974 117.748  0.00  0.00     0.028 C 
ATOM     10  C   LIG d   1      -6.113  81.183 117.633  0.00  0.00     0.006 C 
ENDBRANCH   8   9
BRANCH   8  11
ATOM     11  C   LIG d   1      -3.411  81.668 117.868  0.00  0.00     0.028 C 
ATOM     12  C   LIG d   1      -2.067  81.686 118.614  0.00  0.00     0.006 C 
ENDBRANCH   8  11
ENDBRANCH   7   8
ENDBRANCH   1   7
BRANCH   6  13
ATOM     13  N   LIG d   1      -2.115  77.895 115.242  0.00  0.00    -0.311 N 
ATOM     14  C   LIG d   1      -2.645  76.684 115.076  0.00  0.00     0.210 C 
ATOM     15  C   LIG d   1      -2.281  75.666 116.161  0.00  0.00     0.109 C 
ATOM     16  O   LIG d   1      -3.354  76.347 114.116  0.00  0.00    -0.276 OA
ATOM     17  H   LIG d   1      -1.526  78.071 116.031  0.00  0.00     0.149 HD
ENDBRANCH   6  13
BRANCH   5  18
ATOM     18  N   LIG d   1      -1.180  78.000 112.335  0.00  0.00     0.381 N 
ATOM     19  H   LIG d   1      -0.617  77.283 112.747  0.00  0.00    -0.090 HD
ATOM     20  H   LIG d   1      -0.747  78.286 111.475  0.00  0.00    -0.090 HD
ATOM     21  H   LIG d   1      -2.096  77.652 112.155  0.00  0.00    -0.090 HD
ENDBRANCH   5  18
BRANCH   3  22
ATOM     22  C   LIG d   1      -1.395  82.778 112.593  0.00  0.00     0.382 C 
ATOM     23  O   LIG d   1      -1.519  82.967 111.359  0.00  0.00    -0.241 OA
ATOM     24  O   LIG d   1      -0.912  83.677 113.307  0.00  0.00    -0.241 OA
ENDBRANCH   3  22
TORSDOF 7
ENDMDL
MODEL 7
REMARK VINA RESULT:      -5.0      2.482      4.501
REMARK  7 active torsions:
REMARK  status: ('A' for Active; 'I' for Inactive)
REMARK    1  A    between atoms: C_2  and  C_3 
REMARK    2  A    between atoms: C_3  and  O_6 
REMARK    3  A    between atoms: C_3  and  C_4 
REMARK    4  A    between atoms: C_7  and  O_6 
REMARK    5  A    between atoms: C_9  and  C_10 
REMARK    6  A    between atoms: N_15  and  C_14 
REMARK    7  A    between atoms: N_20  and  C_19 
REMARK       I    between atoms: C_22  and  N_20 
ROOT
ATOM      1  C   LIG d   1       0.952  80.924 112.537  0.00  0.00     0.161 C 
ATOM      2  C   LIG d   1       0.378  80.164 111.504  0.00  0.00     0.016 C 
ATOM      3  C   LIG d   1      -0.933  79.639 111.561  0.00  0.00     0.038 C 
ATOM      4  C   LIG d   1      -1.820  79.968 112.597  0.00  0.00     0.028 C 
ATOM      5  C   LIG d   1      -1.119  80.318 113.905  0.00  0.00    -0.047 C 
ATOM      6  C   LIG d   1      -0.038  81.387 113.626  0.00  0.00     0.091 C 
ENDROOT
BRANCH   1   7
ATOM      7  O   LIG d   1       1.650  82.056 111.980  0.00  0.00    -0.368 OA
BRANCH   7   8
ATOM      8  C   LIG d   1       1.453  82.293 110.565  0.00  0.00     0.119 C 
BRANCH   8   9
ATOM      9  C   LIG d   1       2.846  82.385 109.912  0.00  0.00     0.028 C 
ATOM     10  C   LIG d   1       3.440  81.001 109.600  0.00  0.00     0.006 C 
ENDBRANCH   8   9
BRANCH   8  11
ATOM     11  C   LIG d   1       0.797  83.655 110.314  0.00  0.00     0.028 C 
ATOM     12  C   LIG d   1      -0.648  83.725 110.833  0.00  0.00     0.006 C 
ENDBRANCH   8  11
ENDBRANCH   7   8
ENDBRANCH   1   7
BRANCH   6  13
ATOM     13  N   LIG d   1       0.753  81.725 114.838  0.00  0.00    -0.311 N 
ATOM     14  C   LIG d   1       1.058  82.972 115.190  0.00  0.00     0.210 C 
ATOM     15  C   LIG d   1       1.898  83.097 116.465  0.00  0.00     0.109 C 
ATOM     16  O   LIG d   1       0.686  83.989 114.586  0.00  0.00    -0.276 OA
ATOM     17  H   LIG d   1       1.069  80.961 115.404  0.00  0.00     0.149 HD
ENDBRANCH   6  13
BRANCH   5  18
ATOM     18  N   LIG d   1      -2.150  80.773 114.856  0.00  0.00     0.381 N 
ATOM     19  H   LIG d   1      -1.998  81.735 115.087  0.00  0.00    -0.090 HD
ATOM     20  H   LIG d   1      -2.078  80.231 115.699  0.00  0.00    -0.090 HD
ATOM     21  H   LIG d   1      -3.056  80.660 114.457  0.00  0.00    -0.090 HD
ENDBRANCH   5  18
BRANCH   3  22
ATOM     22  C   LIG d   1      -1.357  78.741 110.592  0.00  0.00     0.382 C 
ATOM     23  O   LIG d   1      -2.158  77.824 110.895  0.00  0.00    -0.241 OA
ATOM     24  O   LIG d   1      -0.914  78.810 109.430  0.00  0.00    -0.241 OA
ENDBRANCH   3  22
TORSDOF 7
ENDMDL
MODEL 8
REMARK VINA RESULT:      -4.8      2.057      4.239
REMARK  7 active torsions:
REMARK  status: ('A' for Active; 'I' for Inactive)
REMARK    1  A    between atoms: C_2  and  C_3 
REMARK    2  A    between atoms: C_3  and  O_6 
REMARK    3  A    between atoms: C_3  and  C_4 
REMARK    4  A    between atoms: C_7  and  O_6 
REMARK    5  A    between atoms: C_9  and  C_10 
REMARK    6  A    between atoms: N_15  and  C_14 
REMARK    7  A    between atoms: N_20  and  C_19 
REMARK       I    between atoms: C_22  and  N_20 
ROOT
ATOM      1  C   LIG d   1       0.112  81.324 111.742  0.00  0.00     0.161 C 
ATOM      2  C   LIG d   1      -0.306  80.013 111.460  0.00  0.00     0.016 C 
ATOM      3  C   LIG d   1      -1.461  79.426 112.028  0.00  0.00     0.038 C 
ATOM      4  C   LIG d   1      -2.364  80.167 112.805  0.00  0.00     0.028 C 
ATOM      5  C   LIG d   1      -1.718  81.346 113.525  0.00  0.00    -0.047 C 
ATOM      6  C   LIG d   1      -0.921  82.185 112.500  0.00  0.00     0.091 C 
ENDROOT
BRANCH   1   7
ATOM      7  O   LIG d   1       0.514  81.981 110.524  0.00  0.00    -0.368 OA
BRANCH   7   8
ATOM      8  C   LIG d   1       1.896  82.410 110.457  0.00  0.00     0.119 C 
BRANCH   8   9
ATOM      9  C   LIG d   1       1.907  83.855 109.922  0.00  0.00     0.028 C 
ATOM     10  C   LIG d   1       0.492  84.386 109.636  0.00  0.00     0.006 C 
ENDBRANCH   8   9
BRANCH   8  11
ATOM     11  C   LIG d   1       2.685  81.592 109.430  0.00  0.00     0.028 C 
ATOM     12  C   LIG d   1       3.174  80.247 109.989  0.00  0.00     0.006 C 
ENDBRANCH   8  11
ENDBRANCH   7   8
ENDBRANCH   1   7
BRANCH   6  13
ATOM     13  N   LIG d   1      -0.188  83.311 113.136  0.00  0.00    -0.311 N 
ATOM     14  C   LIG d   1       0.848  83.142 113.955  0.00  0.00     0.210 C 
ATOM     15  C   LIG d   1       1.446  84.435 114.517  0.00  0.00     0.109 C 
ATOM     16  O   LIG d   1       1.350  82.045 114.244  0.00  0.00    -0.276 OA
ATOM     17  H   LIG d   1      -0.509  84.237 112.931  0.00  0.00     0.149 HD
ENDBRANCH   6  13
BRANCH   5  18
ATOM     18  N   LIG d   1      -2.795  82.110 114.184  0.00  0.00     0.381 N 
ATOM     19  H   LIG d   1      -3.082  82.867 113.596  0.00  0.00    -0.090 HD
ATOM     20  H   LIG d   1      -2.442  82.493 115.043  0.00  0.00    -0.090 HD
ATOM     21  H   LIG d   1      -3.570  81.513 114.372  0.00  0.00    -0.090 HD
ENDBRANCH   5  18
BRANCH   3  22
ATOM     22  C   LIG d   1      -1.699  78.072 111.853  0.00  0.00     0.382 C 
ATOM     23  O   LIG d   1      -1.800  77.318 112.851  0.00  0.00    -0.241 OA
ATOM     24  O   LIG d   1      -1.771  77.586 110.708  0.00  0.00    -0.241 OA
ENDBRANCH   3  22
TORSDOF 7
ENDMDL
MODEL 9
REMARK VINA RESULT:      -4.8      2.131      2.697
REMARK  7 active torsions:
REMARK  status: ('A' for Active; 'I' for Inactive)
REMARK    1  A    between atoms: C_2  and  C_3 
REMARK    2  A    between atoms: C_3  and  O_6 
REMARK    3  A    between atoms: C_3  and  C_4 
REMARK    4  A    between atoms: C_7  and  O_6 
REMARK    5  A    between atoms: C_9  and  C_10 
REMARK    6  A    between atoms: N_15  and  C_14 
REMARK    7  A    between atoms: N_20  and  C_19 
REMARK       I    between atoms: C_22  and  N_20 
ROOT
ATOM      1  C   LIG d   1       0.322  81.437 113.291  0.00  0.00     0.161 C 
ATOM      2  C   LIG d   1      -0.585  80.381 113.483  0.00  0.00     0.016 C 
ATOM      3  C   LIG d   1      -1.121  79.614 112.424  0.00  0.00     0.038 C 
ATOM      4  C   LIG d   1      -0.668  79.753 111.104  0.00  0.00     0.028 C 
ATOM      5  C   LIG d   1      -0.127  81.145 110.793  0.00  0.00    -0.047 C 
ATOM      6  C   LIG d   1       0.913  81.531 111.869  0.00  0.00     0.091 C 
ENDROOT
BRANCH   1   7
ATOM      7  O   LIG d   1       1.378  81.358 114.269  0.00  0.00    -0.368 OA
BRANCH   7   8
ATOM      8  C   LIG d   1       1.162  82.088 115.501  0.00  0.00     0.119 C 
BRANCH   8   9
ATOM      9  C   LIG d   1       1.340  83.587 115.188  0.00  0.00     0.028 C 
ATOM     10  C   LIG d   1       2.579  84.186 115.874  0.00  0.00     0.006 C 
ENDBRANCH   8   9
BRANCH   8  11
ATOM     11  C   LIG d   1       2.239  81.760 116.540  0.00  0.00     0.028 C 
ATOM     12  C   LIG d   1       2.470  80.249 116.701  0.00  0.00     0.006 C 
ENDBRANCH   8  11
ENDBRANCH   7   8
ENDBRANCH   1   7
BRANCH   6  13
ATOM     13  N   LIG d   1       1.430  82.913 111.687  0.00  0.00    -0.311 N 
ATOM     14  C   LIG d   1       2.583  83.190 111.081  0.00  0.00     0.210 C 
ATOM     15  C   LIG d   1       2.938  84.679 111.019  0.00  0.00     0.109 C 
ATOM     16  O   LIG d   1       3.330  82.347 110.562  0.00  0.00    -0.276 OA
ATOM     17  H   LIG d   1       0.872  83.660 112.052  0.00  0.00     0.149 HD
ENDBRANCH   6  13
BRANCH   5  18
ATOM     18  N   LIG d   1       0.437  81.110 109.430  0.00  0.00     0.381 N 
ATOM     19  H   LIG d   1       1.007  81.918 109.278  0.00  0.00    -0.090 HD
ATOM     20  H   LIG d   1      -0.317  81.126 108.766  0.00  0.00    -0.090 HD
ATOM     21  H   LIG d   1       0.980  80.283 109.307  0.00  0.00    -0.090 HD
ENDBRANCH   5  18
BRANCH   3  22
ATOM     22  C   LIG d   1      -2.152  78.721 112.675  0.00  0.00     0.382 C 
ATOM     23  O   LIG d   1      -2.274  77.690 111.971  0.00  0.00    -0.241 OA
ATOM     24  O   LIG d   1      -2.988  78.956 113.569  0.00  0.00    -0.241 OA
ENDBRANCH   3  22
TORSDOF 7
ENDMDL
