MODEL 1
REMARK VINA RESULT:      -5.2      0.000      0.000
REMARK  7 active torsions:
REMARK  status: ('A' for Active; 'I' for Inactive)
REMARK    1  A    between atoms: C_2  and  C_3 
REMARK    2  A    between atoms: C_3  and  O_6 
REMARK    3  A    between atoms: C_3  and  C_4 
REMARK    4  A    between atoms: C_7  and  O_6 
REMARK    5  A    between atoms: C_9  and  C_10 
REMARK    6  A    between atoms: N_15  and  C_14 
REMARK    7  A    between atoms: N_20  and  C_19 
REMARK       I    between atoms: C_22  and  N_20 
ROOT
ATOM      1  C   LIG d   1      -3.073  78.316 115.664  0.00  0.00     0.161 C 
ATOM      2  C   LIG d   1      -3.182  79.373 114.744  0.00  0.00     0.016 C 
ATOM      3  C   LIG d   1      -2.541  79.376 113.484  0.00  0.00     0.038 C 
ATOM      4  C   LIG d   1      -1.867  78.248 112.992  0.00  0.00     0.028 C 
ATOM      5  C   LIG d   1      -1.307  77.350 114.090  0.00  0.00    -0.047 C 
ATOM      6  C   LIG d   1      -2.433  77.031 115.100  0.00  0.00     0.091 C 
ENDROOT
BRANCH   1   7
ATOM      7  O   LIG d   1      -4.367  78.026 116.229  0.00  0.00    -0.368 OA
BRANCH   7   8
ATOM      8  C   LIG d   1      -4.627  78.577 117.543  0.00  0.00     0.119 C 
BRANCH   8   9
ATOM      9  C   LIG d   1      -4.608  77.408 118.548  0.00  0.00     0.028 C 
ATOM     10  C   LIG d   1      -5.223  76.124 117.965  0.00  0.00     0.006 C 
ENDBRANCH   8   9
BRANCH   8  11
ATOM     11  C   LIG d   1      -6.038  79.165 117.632  0.00  0.00     0.028 C 
ATOM     12  C   LIG d   1      -6.039  80.697 117.753  0.00  0.00     0.006 C 
ENDBRANCH   8  11
ENDBRANCH   7   8
ENDBRANCH   1   7
BRANCH   6  13
ATOM     13  N   LIG d   1      -1.950  76.226 116.252  0.00  0.00    -0.311 N 
ATOM     14  C   LIG d   1      -2.034  74.898 116.305  0.00  0.00     0.210 C 
ATOM     15  C   LIG d   1      -1.494  74.267 117.593  0.00  0.00     0.109 C 
ATOM     16  O   LIG d   1      -2.475  74.180 115.395  0.00  0.00    -0.276 OA
ATOM     17  H   LIG d   1      -1.549  76.726 117.021  0.00  0.00     0.149 HD
ENDBRANCH   6  13
BRANCH   5  18
ATOM     18  N   LIG d   1      -0.753  76.147 113.442  0.00  0.00     0.381 N 
ATOM     19  H   LIG d   1      -0.072  75.723 114.041  0.00  0.00    -0.090 HD
ATOM     20  H   LIG d   1      -0.296  76.418 112.589  0.00  0.00    -0.090 HD
ATOM     21  H   LIG d   1      -1.483  75.498 113.245  0.00  0.00    -0.090 HD
ENDBRANCH   5  18
BRANCH   3  22
ATOM     22  C   LIG d   1      -2.539  80.531 112.717  0.00  0.00     0.382 C 
ATOM     23  O   LIG d   1      -1.459  80.978 112.261  0.00  0.00    -0.241 OA
ATOM     24  O   LIG d   1      -3.596  81.156 112.513  0.00  0.00    -0.241 OA
ENDBRANCH   3  22
TORSDOF 7
ENDMDL
MODEL 2
REMARK VINA RESULT:      -4.9      2.595      5.200
REMARK  7 active torsions:
REMARK  status: ('A' for Active; 'I' for Inactive)
REMARK    1  A    between atoms: C_2  and  C_3 
REMARK    2  A    between atoms: C_3  and  O_6 
REMARK    3  A    between atoms: C_3  and  C_4 
REMARK    4  A    between atoms: C_7  and  O_6 
REMARK    5  A    between atoms: C_9  and  C_10 
REMARK    6  A    between atoms: N_15  and  C_14 
REMARK    7  A    between atoms: N_20  and  C_19 
REMARK       I    between atoms: C_22  and  N_20 
ROOT
ATOM      1  C   LIG d   1      -2.051  79.212 114.540  0.00  0.00     0.161 C 
ATOM      2  C   LIG d   1      -3.018  78.305 115.004  0.00  0.00     0.016 C 
ATOM      3  C   LIG d   1      -3.581  77.288 114.200  0.00  0.00     0.038 C 
ATOM      4  C   LIG d   1      -3.102  77.012 112.911  0.00  0.00     0.028 C 
ATOM      5  C   LIG d   1      -2.479  78.222 112.223  0.00  0.00    -0.047 C 
ATOM      6  C   LIG d   1      -1.435  78.856 113.171  0.00  0.00     0.091 C 
ENDROOT
BRANCH   1   7
ATOM      7  O   LIG d   1      -1.015  79.371 115.529  0.00  0.00    -0.368 OA
BRANCH   7   8
ATOM      8  C   LIG d   1      -1.148  78.566 116.726  0.00  0.00     0.119 C 
BRANCH   8   9
ATOM      9  C   LIG d   1      -1.005  79.508 117.937  0.00  0.00     0.028 C 
ATOM     10  C   LIG d   1      -2.271  79.539 118.810  0.00  0.00     0.006 C 
ENDBRANCH   8   9
BRANCH   8  11
ATOM     11  C   LIG d   1       0.003  77.563 116.854  0.00  0.00     0.028 C 
ATOM     12  C   LIG d   1      -0.459  76.104 116.714  0.00  0.00     0.006 C 
ENDBRANCH   8  11
ENDBRANCH   7   8
ENDBRANCH   1   7
BRANCH   6  13
ATOM     13  N   LIG d   1      -0.839  80.096 112.609  0.00  0.00    -0.311 N 
ATOM     14  C   LIG d   1      -1.563  81.108 112.136  0.00  0.00     0.210 C 
ATOM     15  C   LIG d   1      -0.749  82.283 111.585  0.00  0.00     0.109 C 
ATOM     16  O   LIG d   1      -2.802  81.159 112.151  0.00  0.00    -0.276 OA
ATOM     17  H   LIG d   1       0.161  80.152 112.588  0.00  0.00     0.149 HD
ENDBRANCH   6  13
BRANCH   5  18
ATOM     18  N   LIG d   1      -1.899  77.761 110.948  0.00  0.00     0.381 N 
ATOM     19  H   LIG d   1      -1.601  76.810 111.036  0.00  0.00    -0.090 HD
ATOM     20  H   LIG d   1      -1.094  78.325 110.735  0.00  0.00    -0.090 HD
ATOM     21  H   LIG d   1      -2.572  77.841 110.218  0.00  0.00    -0.090 HD
ENDBRANCH   5  18
BRANCH   3  22
ATOM     22  C   LIG d   1      -4.664  76.561 114.670  0.00  0.00     0.382 C 
ATOM     23  O   LIG d   1      -4.818  75.366 114.317  0.00  0.00    -0.241 OA
ATOM     24  O   LIG d   1      -5.514  77.097 115.406  0.00  0.00    -0.241 OA
ENDBRANCH   3  22
TORSDOF 7
ENDMDL
MODEL 3
REMARK VINA RESULT:      -4.7      1.967      2.637
REMARK  7 active torsions:
REMARK  status: ('A' for Active; 'I' for Inactive)
REMARK    1  A    between atoms: C_2  and  C_3 
REMARK    2  A    between atoms: C_3  and  O_6 
REMARK    3  A    between atoms: C_3  and  C_4 
REMARK    4  A    between atoms: C_7  and  O_6 
REMARK    5  A    between atoms: C_9  and  C_10 
REMARK    6  A    between atoms: N_15  and  C_14 
REMARK    7  A    between atoms: N_20  and  C_19 
REMARK       I    between atoms: C_22  and  N_20 
ROOT
ATOM      1  C   LIG d   1      -3.160  76.753 115.739  0.00  0.00     0.161 C 
ATOM      2  C   LIG d   1      -3.397  77.820 114.856  0.00  0.00     0.016 C 
ATOM      3  C   LIG d   1      -2.588  78.092 113.729  0.00  0.00     0.038 C 
ATOM      4  C   LIG d   1      -1.569  77.220 113.320  0.00  0.00     0.028 C 
ATOM      5  C   LIG d   1      -0.973  76.406 114.464  0.00  0.00    -0.047 C 
ATOM      6  C   LIG d   1      -2.119  75.726 115.246  0.00  0.00     0.091 C 
ENDROOT
BRANCH   1   7
ATOM      7  O   LIG d   1      -4.403  76.095 116.055  0.00  0.00    -0.368 OA
BRANCH   7   8
ATOM      8  C   LIG d   1      -5.598  76.683 115.485  0.00  0.00     0.119 C 
BRANCH   8   9
ATOM      9  C   LIG d   1      -6.624  76.841 116.623  0.00  0.00     0.028 C 
ATOM     10  C   LIG d   1      -6.447  78.161 117.393  0.00  0.00     0.006 C 
ENDBRANCH   8   9
BRANCH   8  11
ATOM     11  C   LIG d   1      -6.256  75.738 114.475  0.00  0.00     0.028 C 
ATOM     12  C   LIG d   1      -6.036  74.255 114.815  0.00  0.00     0.006 C 
ENDBRANCH   8  11
ENDBRANCH   7   8
ENDBRANCH   1   7
BRANCH   6  13
ATOM     13  N   LIG d   1      -1.629  74.978 116.433  0.00  0.00    -0.311 N 
ATOM     14  C   LIG d   1      -0.945  75.544 117.426  0.00  0.00     0.210 C 
ATOM     15  C   LIG d   1      -0.518  74.588 118.544  0.00  0.00     0.109 C 
ATOM     16  O   LIG d   1      -0.680  76.753 117.502  0.00  0.00    -0.276 OA
ATOM     17  H   LIG d   1      -1.828  73.997 116.468  0.00  0.00     0.149 HD
ENDBRANCH   6  13
BRANCH   5  18
ATOM     18  N   LIG d   1      -0.022  75.443 113.878  0.00  0.00     0.381 N 
ATOM     19  H   LIG d   1      -0.464  74.939 113.136  0.00  0.00    -0.090 HD
ATOM     20  H   LIG d   1       0.253  74.785 114.586  0.00  0.00    -0.090 HD
ATOM     21  H   LIG d   1       0.780  75.923 113.531  0.00  0.00    -0.090 HD
ENDBRANCH   5  18
BRANCH   3  22
ATOM     22  C   LIG d   1      -2.770  79.270 113.020  0.00  0.00     0.382 C 
ATOM     23  O   LIG d   1      -2.440  79.332 111.811  0.00  0.00    -0.241 OA
ATOM     24  O   LIG d   1      -3.220  80.284 113.586  0.00  0.00    -0.241 OA
ENDBRANCH   3  22
TORSDOF 7
ENDMDL
MODEL 4
REMARK VINA RESULT:      -4.6      2.618      5.001
REMARK  7 active torsions:
REMARK  status: ('A' for Active; 'I' for Inactive)
REMARK    1  A    between atoms: C_2  and  C_3 
REMARK    2  A    between atoms: C_3  and  O_6 
REMARK    3  A    between atoms: C_3  and  C_4 
REMARK    4  A    between atoms: C_7  and  O_6 
REMARK    5  A    between atoms: C_9  and  C_10 
REMARK    6  A    between atoms: N_15  and  C_14 
REMARK    7  A    between atoms: N_20  and  C_19 
REMARK       I    between atoms: C_22  and  N_20 
ROOT
ATOM      1  C   LIG d   1      -3.094  78.687 115.479  0.00  0.00     0.161 C 
ATOM      2  C   LIG d   1      -1.859  79.190 115.923  0.00  0.00     0.016 C 
ATOM      3  C   LIG d   1      -0.923  78.422 116.653  0.00  0.00     0.038 C 
ATOM      4  C   LIG d   1      -1.094  77.045 116.860  0.00  0.00     0.028 C 
ATOM      5  C   LIG d   1      -2.556  76.611 116.869  0.00  0.00    -0.047 C 
ATOM      6  C   LIG d   1      -3.249  77.156 115.599  0.00  0.00     0.091 C 
ENDROOT
BRANCH   1   7
ATOM      7  O   LIG d   1      -3.335  79.110 114.123  0.00  0.00    -0.368 OA
BRANCH   7   8
ATOM      8  C   LIG d   1      -2.158  79.379 113.321  0.00  0.00     0.119 C 
BRANCH   8   9
ATOM      9  C   LIG d   1      -2.462  80.617 112.454  0.00  0.00     0.028 C 
ATOM     10  C   LIG d   1      -1.199  81.197 111.796  0.00  0.00     0.006 C 
ENDBRANCH   8   9
BRANCH   8  11
ATOM     11  C   LIG d   1      -1.890  78.245 112.327  0.00  0.00     0.028 C 
ATOM     12  C   LIG d   1      -3.177  77.673 111.713  0.00  0.00     0.006 C 
ENDBRANCH   8  11
ENDBRANCH   7   8
ENDBRANCH   1   7
BRANCH   6  13
ATOM     13  N   LIG d   1      -4.702  76.848 115.570  0.00  0.00    -0.311 N 
ATOM     14  C   LIG d   1      -5.207  75.744 115.022  0.00  0.00     0.210 C 
ATOM     15  C   LIG d   1      -6.733  75.632 115.082  0.00  0.00     0.109 C 
ATOM     16  O   LIG d   1      -4.533  74.832 114.520  0.00  0.00    -0.276 OA
ATOM     17  H   LIG d   1      -5.319  77.520 115.983  0.00  0.00     0.149 HD
ENDBRANCH   6  13
BRANCH   5  18
ATOM     18  N   LIG d   1      -2.583  75.138 116.955  0.00  0.00     0.381 N 
ATOM     19  H   LIG d   1      -2.553  74.745 116.035  0.00  0.00    -0.090 HD
ATOM     20  H   LIG d   1      -3.442  74.854 117.392  0.00  0.00    -0.090 HD
ATOM     21  H   LIG d   1      -1.807  74.814 117.488  0.00  0.00    -0.090 HD
ENDBRANCH   5  18
BRANCH   3  22
ATOM     22  C   LIG d   1       0.181  79.041 117.220  0.00  0.00     0.382 C 
ATOM     23  O   LIG d   1       0.514  80.192 116.847  0.00  0.00    -0.241 OA
ATOM     24  O   LIG d   1       0.873  78.446 118.067  0.00  0.00    -0.241 OA
ENDBRANCH   3  22
TORSDOF 7
ENDMDL
MODEL 5
REMARK VINA RESULT:      -4.4      2.220      5.934
REMARK  7 active torsions:
REMARK  status: ('A' for Active; 'I' for Inactive)
REMARK    1  A    between atoms: C_2  and  C_3 
REMARK    2  A    between atoms: C_3  and  O_6 
REMARK    3  A    between atoms: C_3  and  C_4 
REMARK    4  A    between atoms: C_7  and  O_6 
REMARK    5  A    between atoms: C_9  and  C_10 
REMARK    6  A    between atoms: N_15  and  C_14 
REMARK    7  A    between atoms: N_20  and  C_19 
REMARK       I    between atoms: C_22  and  N_20 
ROOT
ATOM      1  C   LIG d   1      -3.044  78.381 115.634  0.00  0.00     0.161 C 
ATOM      2  C   LIG d   1      -2.227  77.269 115.372  0.00  0.00     0.016 C 
ATOM      3  C   LIG d   1      -2.297  76.062 116.106  0.00  0.00     0.038 C 
ATOM      4  C   LIG d   1      -3.300  75.830 117.058  0.00  0.00     0.028 C 
ATOM      5  C   LIG d   1      -3.827  77.107 117.706  0.00  0.00    -0.047 C 
ATOM      6  C   LIG d   1      -4.220  78.108 116.595  0.00  0.00     0.091 C 
ENDROOT
BRANCH   1   7
ATOM      7  O   LIG d   1      -3.530  78.933 114.393  0.00  0.00    -0.368 OA
BRANCH   7   8
ATOM      8  C   LIG d   1      -2.616  78.876 113.270  0.00  0.00     0.119 C 
BRANCH   8   9
ATOM      9  C   LIG d   1      -2.606  80.270 112.612  0.00  0.00     0.028 C 
ATOM     10  C   LIG d   1      -1.230  80.632 112.027  0.00  0.00     0.006 C 
ENDBRANCH   8   9
BRANCH   8  11
ATOM     11  C   LIG d   1      -3.123  77.920 112.187  0.00  0.00     0.028 C 
ATOM     12  C   LIG d   1      -1.986  77.165 111.480  0.00  0.00     0.006 C 
ENDBRANCH   8  11
ENDBRANCH   7   8
ENDBRANCH   1   7
BRANCH   6  13
ATOM     13  N   LIG d   1      -4.666  79.415 117.143  0.00  0.00    -0.311 N 
ATOM     14  C   LIG d   1      -5.935  79.690 117.442  0.00  0.00     0.210 C 
ATOM     15  C   LIG d   1      -6.181  81.105 117.975  0.00  0.00     0.109 C 
ATOM     16  O   LIG d   1      -6.874  78.886 117.346  0.00  0.00    -0.276 OA
ATOM     17  H   LIG d   1      -3.964  80.115 117.281  0.00  0.00     0.149 HD
ENDBRANCH   6  13
BRANCH   5  18
ATOM     18  N   LIG d   1      -4.959  76.732 118.574  0.00  0.00     0.381 N 
ATOM     19  H   LIG d   1      -4.690  75.979 119.175  0.00  0.00    -0.090 HD
ATOM     20  H   LIG d   1      -5.721  76.419 117.997  0.00  0.00    -0.090 HD
ATOM     21  H   LIG d   1      -5.246  77.516 119.118  0.00  0.00    -0.090 HD
ENDBRANCH   5  18
BRANCH   3  22
ATOM     22  C   LIG d   1      -1.331  75.085 115.916  0.00  0.00     0.382 C 
ATOM     23  O   LIG d   1      -1.388  74.333 114.914  0.00  0.00    -0.241 OA
ATOM     24  O   LIG d   1      -0.428  74.918 116.758  0.00  0.00    -0.241 OA
ENDBRANCH   3  22
TORSDOF 7
ENDMDL
MODEL 6
REMARK VINA RESULT:      -4.3      2.699      5.249
REMARK  7 active torsions:
REMARK  status: ('A' for Active; 'I' for Inactive)
REMARK    1  A    between atoms: C_2  and  C_3 
REMARK    2  A    between atoms: C_3  and  O_6 
REMARK    3  A    between atoms: C_3  and  C_4 
REMARK    4  A    between atoms: C_7  and  O_6 
REMARK    5  A    between atoms: C_9  and  C_10 
REMARK    6  A    between atoms: N_15  and  C_14 
REMARK    7  A    between atoms: N_20  and  C_19 
REMARK       I    between atoms: C_22  and  N_20 
ROOT
ATOM      1  C   LIG d   1      -1.725  75.692 115.455  0.00  0.00     0.161 C 
ATOM      2  C   LIG d   1      -3.051  75.415 115.083  0.00  0.00     0.016 C 
ATOM      3  C   LIG d   1      -4.044  74.993 115.996  0.00  0.00     0.038 C 
ATOM      4  C   LIG d   1      -3.815  74.964 117.380  0.00  0.00     0.028 C 
ATOM      5  C   LIG d   1      -2.350  74.749 117.746  0.00  0.00    -0.047 C 
ATOM      6  C   LIG d   1      -1.485  75.773 116.977  0.00  0.00     0.091 C 
ENDROOT
BRANCH   1   7
ATOM      7  O   LIG d   1      -1.280  76.902 114.812  0.00  0.00    -0.368 OA
BRANCH   7   8
ATOM      8  C   LIG d   1      -2.307  77.702 114.176  0.00  0.00     0.119 C 
BRANCH   8   9
ATOM      9  C   LIG d   1      -1.817  78.040 112.755  0.00  0.00     0.028 C 
ATOM     10  C   LIG d   1      -2.876  77.735 111.681  0.00  0.00     0.006 C 
ENDBRANCH   8   9
BRANCH   8  11
ATOM     11  C   LIG d   1      -2.477  79.052 114.878  0.00  0.00     0.028 C 
ATOM     12  C   LIG d   1      -3.601  79.042 115.926  0.00  0.00     0.006 C 
ENDBRANCH   8  11
ENDBRANCH   7   8
ENDBRANCH   1   7
BRANCH   6  13
ATOM     13  N   LIG d   1      -0.031  75.577 117.213  0.00  0.00    -0.311 N 
ATOM     14  C   LIG d   1       0.645  76.198 118.179  0.00  0.00     0.210 C 
ATOM     15  C   LIG d   1       2.140  75.869 118.236  0.00  0.00     0.109 C 
ATOM     16  O   LIG d   1       0.142  76.965 119.014  0.00  0.00    -0.276 OA
ATOM     17  H   LIG d   1       0.450  74.947 116.601  0.00  0.00     0.149 HD
ENDBRANCH   6  13
BRANCH   5  18
ATOM     18  N   LIG d   1      -2.234  74.878 119.211  0.00  0.00     0.381 N 
ATOM     19  H   LIG d   1      -1.816  75.757 119.441  0.00  0.00    -0.090 HD
ATOM     20  H   LIG d   1      -1.638  74.146 119.556  0.00  0.00    -0.090 HD
ATOM     21  H   LIG d   1      -3.134  74.810 119.632  0.00  0.00    -0.090 HD
ENDBRANCH   5  18
BRANCH   3  22
ATOM     22  C   LIG d   1      -5.272  74.555 115.523  0.00  0.00     0.382 C 
ATOM     23  O   LIG d   1      -6.203  74.312 116.328  0.00  0.00    -0.241 OA
ATOM     24  O   LIG d   1      -5.446  74.359 114.306  0.00  0.00    -0.241 OA
ENDBRANCH   3  22
TORSDOF 7
ENDMDL
MODEL 7
REMARK VINA RESULT:      -4.3      2.615      5.217
REMARK  7 active torsions:
REMARK  status: ('A' for Active; 'I' for Inactive)
REMARK    1  A    between atoms: C_2  and  C_3 
REMARK    2  A    between atoms: C_3  and  O_6 
REMARK    3  A    between atoms: C_3  and  C_4 
REMARK    4  A    between atoms: C_7  and  O_6 
REMARK    5  A    between atoms: C_9  and  C_10 
REMARK    6  A    between atoms: N_15  and  C_14 
REMARK    7  A    between atoms: N_20  and  C_19 
REMARK       I    between atoms: C_22  and  N_20 
ROOT
ATOM      1  C   LIG d   1      -2.479  76.752 115.042  0.00  0.00     0.161 C 
ATOM      2  C   LIG d   1      -3.690  76.309 114.484  0.00  0.00     0.016 C 
ATOM      3  C   LIG d   1      -4.910  76.280 115.198  0.00  0.00     0.038 C 
ATOM      4  C   LIG d   1      -5.034  76.838 116.479  0.00  0.00     0.028 C 
ATOM      5  C   LIG d   1      -3.730  76.836 117.269  0.00  0.00    -0.047 C 
ATOM      6  C   LIG d   1      -2.617  77.469 116.401  0.00  0.00     0.091 C 
ENDROOT
BRANCH   1   7
ATOM      7  O   LIG d   1      -1.787  77.595 114.099  0.00  0.00    -0.368 OA
BRANCH   7   8
ATOM      8  C   LIG d   1      -2.623  78.394 113.226  0.00  0.00     0.119 C 
BRANCH   8   9
ATOM      9  C   LIG d   1      -1.966  78.396 111.832  0.00  0.00     0.028 C 
ATOM     10  C   LIG d   1      -1.748  76.976 111.283  0.00  0.00     0.006 C 
ENDBRANCH   8   9
BRANCH   8  11
ATOM     11  C   LIG d   1      -2.646  79.861 113.665  0.00  0.00     0.028 C 
ATOM     12  C   LIG d   1      -2.714  80.837 112.480  0.00  0.00     0.006 C 
ENDBRANCH   8  11
ENDBRANCH   7   8
ENDBRANCH   1   7
BRANCH   6  13
ATOM     13  N   LIG d   1      -1.289  77.430 117.067  0.00  0.00    -0.311 N 
ATOM     14  C   LIG d   1      -0.435  78.452 117.060  0.00  0.00     0.210 C 
ATOM     15  C   LIG d   1       0.887  78.196 117.789  0.00  0.00     0.109 C 
ATOM     16  O   LIG d   1      -0.661  79.559 116.546  0.00  0.00    -0.276 OA
ATOM     17  H   LIG d   1      -1.037  76.581 117.534  0.00  0.00     0.149 HD
ENDBRANCH   6  13
BRANCH   5  18
ATOM     18  N   LIG d   1      -3.969  77.569 118.526  0.00  0.00     0.381 N 
ATOM     19  H   LIG d   1      -4.903  77.928 118.536  0.00  0.00    -0.090 HD
ATOM     20  H   LIG d   1      -3.332  78.344 118.577  0.00  0.00    -0.090 HD
ATOM     21  H   LIG d   1      -3.830  76.963 119.305  0.00  0.00    -0.090 HD
ENDBRANCH   5  18
BRANCH   3  22
ATOM     22  C   LIG d   1      -6.015  75.651 114.644  0.00  0.00     0.382 C 
ATOM     23  O   LIG d   1      -6.482  76.052 113.551  0.00  0.00    -0.241 OA
ATOM     24  O   LIG d   1      -6.577  74.716 115.245  0.00  0.00    -0.241 OA
ENDBRANCH   3  22
TORSDOF 7
ENDMDL
MODEL 8
REMARK VINA RESULT:      -4.1      2.882      5.214
REMARK  7 active torsions:
REMARK  status: ('A' for Active; 'I' for Inactive)
REMARK    1  A    between atoms: C_2  and  C_3 
REMARK    2  A    between atoms: C_3  and  O_6 
REMARK    3  A    between atoms: C_3  and  C_4 
REMARK    4  A    between atoms: C_7  and  O_6 
REMARK    5  A    between atoms: C_9  and  C_10 
REMARK    6  A    between atoms: N_15  and  C_14 
REMARK    7  A    between atoms: N_20  and  C_19 
REMARK       I    between atoms: C_22  and  N_20 
ROOT
ATOM      1  C   LIG d   1      -2.092  77.234 115.553  0.00  0.00     0.161 C 
ATOM      2  C   LIG d   1      -0.768  77.398 115.992  0.00  0.00     0.016 C 
ATOM      3  C   LIG d   1      -0.199  76.645 117.046  0.00  0.00     0.038 C 
ATOM      4  C   LIG d   1      -0.875  75.566 117.635  0.00  0.00     0.028 C 
ATOM      5  C   LIG d   1      -2.393  75.693 117.568  0.00  0.00    -0.047 C 
ATOM      6  C   LIG d   1      -2.809  75.986 116.109  0.00  0.00     0.091 C 
ENDROOT
BRANCH   1   7
ATOM      7  O   LIG d   1      -2.133  77.235 114.112  0.00  0.00    -0.368 OA
BRANCH   7   8
ATOM      8  C   LIG d   1      -3.014  78.208 113.500  0.00  0.00     0.119 C 
BRANCH   8   9
ATOM      9  C   LIG d   1      -2.941  78.004 111.974  0.00  0.00     0.028 C 
ATOM     10  C   LIG d   1      -1.748  77.128 111.556  0.00  0.00     0.006 C 
ENDBRANCH   8   9
BRANCH   8  11
ATOM     11  C   LIG d   1      -2.521  79.638 113.742  0.00  0.00     0.028 C 
ATOM     12  C   LIG d   1      -2.801  80.574 112.556  0.00  0.00     0.006 C 
ENDBRANCH   8  11
ENDBRANCH   7   8
ENDBRANCH   1   7
BRANCH   6  13
ATOM     13  N   LIG d   1      -4.272  76.207 115.970  0.00  0.00    -0.311 N 
ATOM     14  C   LIG d   1      -5.060  75.448 115.211  0.00  0.00     0.210 C 
ATOM     15  C   LIG d   1      -6.534  75.861 115.193  0.00  0.00     0.109 C 
ATOM     16  O   LIG d   1      -4.683  74.451 114.577  0.00  0.00    -0.276 OA
ATOM     17  H   LIG d   1      -4.667  76.976 116.475  0.00  0.00     0.149 HD
ENDBRANCH   6  13
BRANCH   5  18
ATOM     18  N   LIG d   1      -2.968  74.439 118.093  0.00  0.00     0.381 N 
ATOM     19  H   LIG d   1      -3.325  74.590 119.015  0.00  0.00    -0.090 HD
ATOM     20  H   LIG d   1      -2.243  73.746 118.145  0.00  0.00    -0.090 HD
ATOM     21  H   LIG d   1      -3.698  74.123 117.494  0.00  0.00    -0.090 HD
ENDBRANCH   5  18
BRANCH   3  22
ATOM     22  C   LIG d   1       1.045  76.997 117.547  0.00  0.00     0.382 C 
ATOM     23  O   LIG d   1       1.440  78.185 117.468  0.00  0.00    -0.241 OA
ATOM     24  O   LIG d   1       1.795  76.132 118.038  0.00  0.00    -0.241 OA
ENDBRANCH   3  22
TORSDOF 7
ENDMDL
MODEL 9
REMARK VINA RESULT:      -4.0      2.756      4.071
REMARK  7 active torsions:
REMARK  status: ('A' for Active; 'I' for Inactive)
REMARK    1  A    between atoms: C_2  and  C_3 
REMARK    2  A    between atoms: C_3  and  O_6 
REMARK    3  A    between atoms: C_3  and  C_4 
REMARK    4  A    between atoms: C_7  and  O_6 
REMARK    5  A    between atoms: C_9  and  C_10 
REMARK    6  A    between atoms: N_15  and  C_14 
REMARK    7  A    between atoms: N_20  and  C_19 
REMARK       I    between atoms: C_22  and  N_20 
ROOT
ATOM      1  C   LIG d   1      -3.283  77.632 115.964  0.00  0.00     0.161 C 
ATOM      2  C   LIG d   1      -4.469  77.113 115.420  0.00  0.00     0.016 C 
ATOM      3  C   LIG d   1      -4.707  75.730 115.249  0.00  0.00     0.038 C 
ATOM      4  C   LIG d   1      -3.829  74.759 115.753  0.00  0.00     0.028 C 
ATOM      5  C   LIG d   1      -2.386  75.242 115.856  0.00  0.00    -0.047 C 
ATOM      6  C   LIG d   1      -2.360  76.585 116.622  0.00  0.00     0.091 C 
ENDROOT
BRANCH   1   7
ATOM      7  O   LIG d   1      -3.593  78.684 116.900  0.00  0.00    -0.368 OA
BRANCH   7   8
ATOM      8  C   LIG d   1      -4.939  78.683 117.436  0.00  0.00     0.119 C 
BRANCH   8   9
ATOM      9  C   LIG d   1      -5.360  80.152 117.631  0.00  0.00     0.028 C 
ATOM     10  C   LIG d   1      -6.873  80.303 117.863  0.00  0.00     0.006 C 
ENDBRANCH   8   9
BRANCH   8  11
ATOM     11  C   LIG d   1      -4.981  78.061 118.835  0.00  0.00     0.028 C 
ATOM     12  C   LIG d   1      -5.753  76.733 118.873  0.00  0.00     0.006 C 
ENDBRANCH   8  11
ENDBRANCH   7   8
ENDBRANCH   1   7
BRANCH   6  13
ATOM     13  N   LIG d   1      -0.996  77.169 116.694  0.00  0.00    -0.311 N 
ATOM     14  C   LIG d   1      -0.166  76.969 117.717  0.00  0.00     0.210 C 
ATOM     15  C   LIG d   1       1.186  77.680 117.601  0.00  0.00     0.109 C 
ATOM     16  O   LIG d   1      -0.408  76.244 118.693  0.00  0.00    -0.276 OA
ATOM     17  H   LIG d   1      -0.705  77.746 115.929  0.00  0.00     0.149 HD
ENDBRANCH   6  13
BRANCH   5  18
ATOM     18  N   LIG d   1      -1.608  74.181 116.523  0.00  0.00     0.381 N 
ATOM     19  H   LIG d   1      -0.650  74.461 116.599  0.00  0.00    -0.090 HD
ATOM     20  H   LIG d   1      -1.649  73.347 115.964  0.00  0.00    -0.090 HD
ATOM     21  H   LIG d   1      -1.982  74.001 117.428  0.00  0.00    -0.090 HD
ENDBRANCH   5  18
BRANCH   3  22
ATOM     22  C   LIG d   1      -5.815  75.307 114.531  0.00  0.00     0.382 C 
ATOM     23  O   LIG d   1      -6.304  76.043 113.641  0.00  0.00    -0.241 OA
ATOM     24  O   LIG d   1      -6.359  74.218 114.793  0.00  0.00    -0.241 OA
ENDBRANCH   3  22
TORSDOF 7
ENDMDL
