MODEL 1
REMARK VINA RESULT:      -5.9      0.000      0.000
REMARK  7 active torsions:
REMARK  status: ('A' for Active; 'I' for Inactive)
REMARK    1  A    between atoms: C_2  and  C_3 
REMARK    2  A    between atoms: C_3  and  O_6 
REMARK    3  A    between atoms: C_3  and  C_4 
REMARK    4  A    between atoms: C_7  and  O_6 
REMARK    5  A    between atoms: C_9  and  C_10 
REMARK    6  A    between atoms: N_15  and  C_14 
REMARK    7  A    between atoms: N_20  and  C_19 
REMARK       I    between atoms: C_22  and  N_20 
ROOT
ATOM      1  C   LIG d   1      -3.023  77.434 114.885  0.00  0.00     0.161 C 
ATOM      2  C   LIG d   1      -3.219  78.541 114.043  0.00  0.00     0.016 C 
ATOM      3  C   LIG d   1      -2.171  79.386 113.611  0.00  0.00     0.038 C 
ATOM      4  C   LIG d   1      -0.825  79.089 113.872  0.00  0.00     0.028 C 
ATOM      5  C   LIG d   1      -0.620  78.266 115.139  0.00  0.00    -0.047 C 
ATOM      6  C   LIG d   1      -1.548  77.030 115.090  0.00  0.00     0.091 C 
ENDROOT
BRANCH   1   7
ATOM      7  O   LIG d   1      -3.787  76.311 114.403  0.00  0.00    -0.368 OA
BRANCH   7   8
ATOM      8  C   LIG d   1      -5.145  76.205 114.897  0.00  0.00     0.119 C 
BRANCH   8   9
ATOM      9  C   LIG d   1      -5.097  76.392 116.426  0.00  0.00     0.028 C 
ATOM     10  C   LIG d   1      -5.919  77.605 116.895  0.00  0.00     0.006 C 
ENDBRANCH   8   9
BRANCH   8  11
ATOM     11  C   LIG d   1      -5.710  74.799 114.678  0.00  0.00     0.028 C 
ATOM     12  C   LIG d   1      -6.651  74.352 115.807  0.00  0.00     0.006 C 
ENDBRANCH   8  11
ENDBRANCH   7   8
ENDBRANCH   1   7
BRANCH   6  13
ATOM     13  N   LIG d   1      -1.472  76.215 116.330  0.00  0.00    -0.311 N 
ATOM     14  C   LIG d   1      -1.371  74.887 116.329  0.00  0.00     0.210 C 
ATOM     15  C   LIG d   1      -1.327  74.241 117.718  0.00  0.00     0.109 C 
ATOM     16  O   LIG d   1      -1.281  74.185 115.311  0.00  0.00    -0.276 OA
ATOM     17  H   LIG d   1      -1.507  76.706 117.202  0.00  0.00     0.149 HD
ENDBRANCH   6  13
BRANCH   5  18
ATOM     18  N   LIG d   1       0.810  77.913 115.215  0.00  0.00     0.381 N 
ATOM     19  H   LIG d   1       1.258  78.465 115.919  0.00  0.00    -0.090 HD
ATOM     20  H   LIG d   1       1.243  78.117 114.332  0.00  0.00    -0.090 HD
ATOM     21  H   LIG d   1       0.911  76.945 115.428  0.00  0.00    -0.090 HD
ENDBRANCH   5  18
BRANCH   3  22
ATOM     22  C   LIG d   1      -2.468  80.564 112.943  0.00  0.00     0.382 C 
ATOM     23  O   LIG d   1      -1.550  81.227 112.403  0.00  0.00    -0.241 OA
ATOM     24  O   LIG d   1      -3.637  80.994 112.911  0.00  0.00    -0.241 OA
ENDBRANCH   3  22
TORSDOF 7
ENDMDL
MODEL 2
REMARK VINA RESULT:      -5.5      0.637      1.379
REMARK  7 active torsions:
REMARK  status: ('A' for Active; 'I' for Inactive)
REMARK    1  A    between atoms: C_2  and  C_3 
REMARK    2  A    between atoms: C_3  and  O_6 
REMARK    3  A    between atoms: C_3  and  C_4 
REMARK    4  A    between atoms: C_7  and  O_6 
REMARK    5  A    between atoms: C_9  and  C_10 
REMARK    6  A    between atoms: N_15  and  C_14 
REMARK    7  A    between atoms: N_20  and  C_19 
REMARK       I    between atoms: C_22  and  N_20 
ROOT
ATOM      1  C   LIG d   1      -2.886  77.405 115.063  0.00  0.00     0.161 C 
ATOM      2  C   LIG d   1      -3.025  78.435 114.118  0.00  0.00     0.016 C 
ATOM      3  C   LIG d   1      -1.939  79.199 113.633  0.00  0.00     0.038 C 
ATOM      4  C   LIG d   1      -0.609  78.882 113.951  0.00  0.00     0.028 C 
ATOM      5  C   LIG d   1      -0.460  78.174 115.293  0.00  0.00    -0.047 C 
ATOM      6  C   LIG d   1      -1.430  76.972 115.337  0.00  0.00     0.091 C 
ENDROOT
BRANCH   1   7
ATOM      7  O   LIG d   1      -3.681  76.270 114.669  0.00  0.00    -0.368 OA
BRANCH   7   8
ATOM      8  C   LIG d   1      -4.698  75.847 115.610  0.00  0.00     0.119 C 
BRANCH   8   9
ATOM      9  C   LIG d   1      -5.758  75.054 114.821  0.00  0.00     0.028 C 
ATOM     10  C   LIG d   1      -7.060  75.850 114.624  0.00  0.00     0.006 C 
ENDBRANCH   8   9
BRANCH   8  11
ATOM     11  C   LIG d   1      -5.445  77.047 116.200  0.00  0.00     0.028 C 
ATOM     12  C   LIG d   1      -5.354  77.111 117.733  0.00  0.00     0.006 C 
ENDBRANCH   8  11
ENDBRANCH   7   8
ENDBRANCH   1   7
BRANCH   6  13
ATOM     13  N   LIG d   1      -1.409  76.274 116.649  0.00  0.00    -0.311 N 
ATOM     14  C   LIG d   1      -1.229  74.960 116.777  0.00  0.00     0.210 C 
ATOM     15  C   LIG d   1      -1.262  74.441 118.218  0.00  0.00     0.109 C 
ATOM     16  O   LIG d   1      -1.015  74.180 115.837  0.00  0.00    -0.276 OA
ATOM     17  H   LIG d   1      -1.544  76.835 117.467  0.00  0.00     0.149 HD
ENDBRANCH   6  13
BRANCH   5  18
ATOM     18  N   LIG d   1       0.955  77.781 115.434  0.00  0.00     0.381 N 
ATOM     19  H   LIG d   1       1.049  76.796 115.282  0.00  0.00    -0.090 HD
ATOM     20  H   LIG d   1       1.257  77.985 116.370  0.00  0.00    -0.090 HD
ATOM     21  H   LIG d   1       1.515  78.281 114.779  0.00  0.00    -0.090 HD
ENDBRANCH   5  18
BRANCH   3  22
ATOM     22  C   LIG d   1      -2.180  80.319 112.852  0.00  0.00     0.382 C 
ATOM     23  O   LIG d   1      -1.329  80.690 112.008  0.00  0.00    -0.241 OA
ATOM     24  O   LIG d   1      -3.218  80.989 113.012  0.00  0.00    -0.241 OA
ENDBRANCH   3  22
TORSDOF 7
ENDMDL
MODEL 3
REMARK VINA RESULT:      -5.5      1.206      1.418
REMARK  7 active torsions:
REMARK  status: ('A' for Active; 'I' for Inactive)
REMARK    1  A    between atoms: C_2  and  C_3 
REMARK    2  A    between atoms: C_3  and  O_6 
REMARK    3  A    between atoms: C_3  and  C_4 
REMARK    4  A    between atoms: C_7  and  O_6 
REMARK    5  A    between atoms: C_9  and  C_10 
REMARK    6  A    between atoms: N_15  and  C_14 
REMARK    7  A    between atoms: N_20  and  C_19 
REMARK       I    between atoms: C_22  and  N_20 
ROOT
ATOM      1  C   LIG d   1      -2.608  77.776 116.183  0.00  0.00     0.161 C 
ATOM      2  C   LIG d   1      -2.946  78.696 115.176  0.00  0.00     0.016 C 
ATOM      3  C   LIG d   1      -2.226  78.825 113.966  0.00  0.00     0.038 C 
ATOM      4  C   LIG d   1      -1.203  77.932 113.614  0.00  0.00     0.028 C 
ATOM      5  C   LIG d   1      -0.500  77.311 114.816  0.00  0.00    -0.047 C 
ATOM      6  C   LIG d   1      -1.564  76.719 115.769  0.00  0.00     0.091 C 
ENDROOT
BRANCH   1   7
ATOM      7  O   LIG d   1      -3.800  77.136 116.679  0.00  0.00    -0.368 OA
BRANCH   7   8
ATOM      8  C   LIG d   1      -4.813  76.822 115.692  0.00  0.00     0.119 C 
BRANCH   8   9
ATOM      9  C   LIG d   1      -6.183  77.171 116.306  0.00  0.00     0.028 C 
ATOM     10  C   LIG d   1      -6.062  78.139 117.496  0.00  0.00     0.006 C 
ENDBRANCH   8   9
BRANCH   8  11
ATOM     11  C   LIG d   1      -4.868  75.318 115.409  0.00  0.00     0.028 C 
ATOM     12  C   LIG d   1      -6.283  74.827 115.065  0.00  0.00     0.006 C 
ENDBRANCH   8  11
ENDBRANCH   7   8
ENDBRANCH   1   7
BRANCH   6  13
ATOM     13  N   LIG d   1      -0.966  76.166 117.012  0.00  0.00    -0.311 N 
ATOM     14  C   LIG d   1      -1.293  74.977 117.517  0.00  0.00     0.210 C 
ATOM     15  C   LIG d   1      -0.573  74.607 118.817  0.00  0.00     0.109 C 
ATOM     16  O   LIG d   1      -2.086  74.180 116.993  0.00  0.00    -0.276 OA
ATOM     17  H   LIG d   1      -0.290  76.733 117.485  0.00  0.00     0.149 HD
ENDBRANCH   6  13
BRANCH   5  18
ATOM     18  N   LIG d   1       0.446  76.301 114.307  0.00  0.00     0.381 N 
ATOM     19  H   LIG d   1       0.437  75.497 114.902  0.00  0.00    -0.090 HD
ATOM     20  H   LIG d   1       1.373  76.689 114.316  0.00  0.00    -0.090 HD
ATOM     21  H   LIG d   1       0.198  76.038 113.379  0.00  0.00    -0.090 HD
ENDBRANCH   5  18
BRANCH   3  22
ATOM     22  C   LIG d   1      -2.501  79.881 113.111  0.00  0.00     0.382 C 
ATOM     23  O   LIG d   1      -3.473  80.640 113.345  0.00  0.00    -0.241 OA
ATOM     24  O   LIG d   1      -1.818  80.058 112.085  0.00  0.00    -0.241 OA
ENDBRANCH   3  22
TORSDOF 7
ENDMDL
MODEL 4
REMARK VINA RESULT:      -5.0      2.305      4.747
REMARK  7 active torsions:
REMARK  status: ('A' for Active; 'I' for Inactive)
REMARK    1  A    between atoms: C_2  and  C_3 
REMARK    2  A    between atoms: C_3  and  O_6 
REMARK    3  A    between atoms: C_3  and  C_4 
REMARK    4  A    between atoms: C_7  and  O_6 
REMARK    5  A    between atoms: C_9  and  C_10 
REMARK    6  A    between atoms: N_15  and  C_14 
REMARK    7  A    between atoms: N_20  and  C_19 
REMARK       I    between atoms: C_22  and  N_20 
ROOT
ATOM      1  C   LIG d   1      -1.431  76.733 115.017  0.00  0.00     0.161 C 
ATOM      2  C   LIG d   1      -1.252  76.501 116.391  0.00  0.00     0.016 C 
ATOM      3  C   LIG d   1      -0.459  77.324 117.223  0.00  0.00     0.038 C 
ATOM      4  C   LIG d   1       0.090  78.531 116.765  0.00  0.00     0.028 C 
ATOM      5  C   LIG d   1       0.355  78.544 115.263  0.00  0.00    -0.047 C 
ATOM      6  C   LIG d   1      -0.930  78.107 114.523  0.00  0.00     0.091 C 
ENDROOT
BRANCH   1   7
ATOM      7  O   LIG d   1      -2.817  76.550 114.667  0.00  0.00    -0.368 OA
BRANCH   7   8
ATOM      8  C   LIG d   1      -3.709  76.203 115.755  0.00  0.00     0.119 C 
BRANCH   8   9
ATOM      9  C   LIG d   1      -4.434  74.902 115.361  0.00  0.00     0.028 C 
ATOM     10  C   LIG d   1      -5.831  75.163 114.772  0.00  0.00     0.006 C 
ENDBRANCH   8   9
BRANCH   8  11
ATOM     11  C   LIG d   1      -4.815  77.249 115.924  0.00  0.00     0.028 C 
ATOM     12  C   LIG d   1      -4.302  78.567 116.525  0.00  0.00     0.006 C 
ENDBRANCH   8  11
ENDBRANCH   7   8
ENDBRANCH   1   7
BRANCH   6  13
ATOM     13  N   LIG d   1      -0.733  78.011 113.053  0.00  0.00    -0.311 N 
ATOM     14  C   LIG d   1      -1.316  78.831 112.181  0.00  0.00     0.210 C 
ATOM     15  C   LIG d   1      -0.994  78.546 110.710  0.00  0.00     0.109 C 
ATOM     16  O   LIG d   1      -2.045  79.787 112.486  0.00  0.00    -0.276 OA
ATOM     17  H   LIG d   1      -0.132  77.283 112.720  0.00  0.00     0.149 HD
ENDBRANCH   6  13
BRANCH   5  18
ATOM     18  N   LIG d   1       0.796  79.904 114.900  0.00  0.00     0.381 N 
ATOM     19  H   LIG d   1       1.617  79.854 114.330  0.00  0.00    -0.090 HD
ATOM     20  H   LIG d   1       1.026  80.406 115.740  0.00  0.00    -0.090 HD
ATOM     21  H   LIG d   1       0.070  80.379 114.409  0.00  0.00    -0.090 HD
ENDBRANCH   5  18
BRANCH   3  22
ATOM     22  C   LIG d   1      -0.177  76.922 118.519  0.00  0.00     0.382 C 
ATOM     23  O   LIG d   1      -0.871  77.348 119.474  0.00  0.00    -0.241 OA
ATOM     24  O   LIG d   1       0.792  76.173 118.752  0.00  0.00    -0.241 OA
ENDBRANCH   3  22
TORSDOF 7
ENDMDL
MODEL 5
REMARK VINA RESULT:      -4.7      2.106      2.467
REMARK  7 active torsions:
REMARK  status: ('A' for Active; 'I' for Inactive)
REMARK    1  A    between atoms: C_2  and  C_3 
REMARK    2  A    between atoms: C_3  and  O_6 
REMARK    3  A    between atoms: C_3  and  C_4 
REMARK    4  A    between atoms: C_7  and  O_6 
REMARK    5  A    between atoms: C_9  and  C_10 
REMARK    6  A    between atoms: N_15  and  C_14 
REMARK    7  A    between atoms: N_20  and  C_19 
REMARK       I    between atoms: C_22  and  N_20 
ROOT
ATOM      1  C   LIG d   1      -2.946  77.401 115.459  0.00  0.00     0.161 C 
ATOM      2  C   LIG d   1      -3.043  77.661 114.082  0.00  0.00     0.016 C 
ATOM      3  C   LIG d   1      -1.920  77.850 113.244  0.00  0.00     0.038 C 
ATOM      4  C   LIG d   1      -0.610  77.641 113.702  0.00  0.00     0.028 C 
ATOM      5  C   LIG d   1      -0.448  77.873 115.200  0.00  0.00    -0.047 C 
ATOM      6  C   LIG d   1      -1.525  77.059 115.954  0.00  0.00     0.091 C 
ENDROOT
BRANCH   1   7
ATOM      7  O   LIG d   1      -3.869  76.356 115.825  0.00  0.00    -0.368 OA
BRANCH   7   8
ATOM      8  C   LIG d   1      -5.261  76.744 115.932  0.00  0.00     0.119 C 
BRANCH   8   9
ATOM      9  C   LIG d   1      -5.489  77.257 117.367  0.00  0.00     0.028 C 
ATOM     10  C   LIG d   1      -5.704  78.779 117.420  0.00  0.00     0.006 C 
ENDBRANCH   8   9
BRANCH   8  11
ATOM     11  C   LIG d   1      -6.189  75.536 115.781  0.00  0.00     0.028 C 
ATOM     12  C   LIG d   1      -5.583  74.424 114.909  0.00  0.00     0.006 C 
ENDBRANCH   8  11
ENDBRANCH   7   8
ENDBRANCH   1   7
BRANCH   6  13
ATOM     13  N   LIG d   1      -1.490  77.295 117.421  0.00  0.00    -0.311 N 
ATOM     14  C   LIG d   1      -1.763  78.472 117.980  0.00  0.00     0.210 C 
ATOM     15  C   LIG d   1      -1.649  78.504 119.508  0.00  0.00     0.109 C 
ATOM     16  O   LIG d   1      -2.119  79.485 117.360  0.00  0.00    -0.276 OA
ATOM     17  H   LIG d   1      -1.241  76.518 118.002  0.00  0.00     0.149 HD
ENDBRANCH   6  13
BRANCH   5  18
ATOM     18  N   LIG d   1       0.928  77.487 115.564  0.00  0.00     0.381 N 
ATOM     19  H   LIG d   1       1.141  77.818 116.484  0.00  0.00    -0.090 HD
ATOM     20  H   LIG d   1       1.568  77.916 114.919  0.00  0.00    -0.090 HD
ATOM     21  H   LIG d   1       1.025  76.496 115.530  0.00  0.00    -0.090 HD
ENDBRANCH   5  18
BRANCH   3  22
ATOM     22  C   LIG d   1      -2.100  78.292 111.943  0.00  0.00     0.382 C 
ATOM     23  O   LIG d   1      -2.738  77.587 111.124  0.00  0.00    -0.241 OA
ATOM     24  O   LIG d   1      -1.596  79.367 111.565  0.00  0.00    -0.241 OA
ENDBRANCH   3  22
TORSDOF 7
ENDMDL
MODEL 6
REMARK VINA RESULT:      -4.5      2.803      4.892
REMARK  7 active torsions:
REMARK  status: ('A' for Active; 'I' for Inactive)
REMARK    1  A    between atoms: C_2  and  C_3 
REMARK    2  A    between atoms: C_3  and  O_6 
REMARK    3  A    between atoms: C_3  and  C_4 
REMARK    4  A    between atoms: C_7  and  O_6 
REMARK    5  A    between atoms: C_9  and  C_10 
REMARK    6  A    between atoms: N_15  and  C_14 
REMARK    7  A    between atoms: N_20  and  C_19 
REMARK       I    between atoms: C_22  and  N_20 
ROOT
ATOM      1  C   LIG d   1      -1.323  77.383 114.820  0.00  0.00     0.161 C 
ATOM      2  C   LIG d   1      -0.148  78.089 115.127  0.00  0.00     0.016 C 
ATOM      3  C   LIG d   1       0.033  78.812 116.329  0.00  0.00     0.038 C 
ATOM      4  C   LIG d   1      -0.896  78.751 117.378  0.00  0.00     0.028 C 
ATOM      5  C   LIG d   1      -2.319  78.462 116.911  0.00  0.00    -0.047 C 
ATOM      6  C   LIG d   1      -2.304  77.214 115.999  0.00  0.00     0.091 C 
ENDROOT
BRANCH   1   7
ATOM      7  O   LIG d   1      -0.988  76.098 114.258  0.00  0.00    -0.368 OA
BRANCH   7   8
ATOM      8  C   LIG d   1       0.272  75.525 114.686  0.00  0.00     0.119 C 
BRANCH   8   9
ATOM      9  C   LIG d   1       0.867  74.766 113.484  0.00  0.00     0.028 C 
ATOM     10  C   LIG d   1       2.404  74.752 113.501  0.00  0.00     0.006 C 
ENDBRANCH   8   9
BRANCH   8  11
ATOM     11  C   LIG d   1       0.063  74.466 115.772  0.00  0.00     0.028 C 
ATOM     12  C   LIG d   1       0.329  75.003 117.187  0.00  0.00     0.006 C 
ENDBRANCH   8  11
ENDBRANCH   7   8
ENDBRANCH   1   7
BRANCH   6  13
ATOM     13  N   LIG d   1      -3.643  76.911 115.431  0.00  0.00    -0.311 N 
ATOM     14  C   LIG d   1      -4.157  75.683 115.378  0.00  0.00     0.210 C 
ATOM     15  C   LIG d   1      -5.543  75.589 114.734  0.00  0.00     0.109 C 
ATOM     16  O   LIG d   1      -3.609  74.667 115.833  0.00  0.00    -0.276 OA
ATOM     17  H   LIG d   1      -4.169  77.681 115.067  0.00  0.00     0.149 HD
ENDBRANCH   6  13
BRANCH   5  18
ATOM     18  N   LIG d   1      -3.156  78.289 118.113  0.00  0.00     0.381 N 
ATOM     19  H   LIG d   1      -2.788  77.551 118.679  0.00  0.00    -0.090 HD
ATOM     20  H   LIG d   1      -4.085  78.034 117.828  0.00  0.00    -0.090 HD
ATOM     21  H   LIG d   1      -3.182  79.137 118.635  0.00  0.00    -0.090 HD
ENDBRANCH   5  18
BRANCH   3  22
ATOM     22  C   LIG d   1       1.137  79.638 116.474  0.00  0.00     0.382 C 
ATOM     23  O   LIG d   1       1.958  79.431 117.401  0.00  0.00    -0.241 OA
ATOM     24  O   LIG d   1       1.300  80.614 115.718  0.00  0.00    -0.241 OA
ENDBRANCH   3  22
TORSDOF 7
ENDMDL
MODEL 7
REMARK VINA RESULT:      -4.5      2.112      4.617
REMARK  7 active torsions:
REMARK  status: ('A' for Active; 'I' for Inactive)
REMARK    1  A    between atoms: C_2  and  C_3 
REMARK    2  A    between atoms: C_3  and  O_6 
REMARK    3  A    between atoms: C_3  and  C_4 
REMARK    4  A    between atoms: C_7  and  O_6 
REMARK    5  A    between atoms: C_9  and  C_10 
REMARK    6  A    between atoms: N_15  and  C_14 
REMARK    7  A    between atoms: N_20  and  C_19 
REMARK       I    between atoms: C_22  and  N_20 
ROOT
ATOM      1  C   LIG d   1      -3.070  76.953 115.230  0.00  0.00     0.161 C 
ATOM      2  C   LIG d   1      -2.906  76.129 116.356  0.00  0.00     0.016 C 
ATOM      3  C   LIG d   1      -1.848  76.279 117.282  0.00  0.00     0.038 C 
ATOM      4  C   LIG d   1      -0.962  77.365 117.226  0.00  0.00     0.028 C 
ATOM      5  C   LIG d   1      -0.784  77.930 115.821  0.00  0.00    -0.047 C 
ATOM      6  C   LIG d   1      -2.177  78.211 115.213  0.00  0.00     0.091 C 
ENDROOT
BRANCH   1   7
ATOM      7  O   LIG d   1      -4.456  77.320 115.090  0.00  0.00    -0.368 OA
BRANCH   7   8
ATOM      8  C   LIG d   1      -5.300  77.071 116.242  0.00  0.00     0.119 C 
BRANCH   8   9
ATOM      9  C   LIG d   1      -6.639  76.513 115.723  0.00  0.00     0.028 C 
ATOM     10  C   LIG d   1      -6.722  74.982 115.843  0.00  0.00     0.006 C 
ENDBRANCH   8   9
BRANCH   8  11
ATOM     11  C   LIG d   1      -5.657  78.375 116.963  0.00  0.00     0.028 C 
ATOM     12  C   LIG d   1      -7.059  78.343 117.591  0.00  0.00     0.006 C 
ENDBRANCH   8  11
ENDBRANCH   7   8
ENDBRANCH   1   7
BRANCH   6  13
ATOM     13  N   LIG d   1      -2.097  78.688 113.808  0.00  0.00    -0.311 N 
ATOM     14  C   LIG d   1      -1.441  78.037 112.849  0.00  0.00     0.210 C 
ATOM     15  C   LIG d   1      -1.467  78.712 111.474  0.00  0.00     0.109 C 
ATOM     16  O   LIG d   1      -0.867  76.948 113.000  0.00  0.00    -0.276 OA
ATOM     17  H   LIG d   1      -2.562  79.548 113.591  0.00  0.00     0.149 HD
ENDBRANCH   6  13
BRANCH   5  18
ATOM     18  N   LIG d   1       0.054  79.139 115.930  0.00  0.00     0.381 N 
ATOM     19  H   LIG d   1      -0.136  79.606 116.794  0.00  0.00    -0.090 HD
ATOM     20  H   LIG d   1      -0.177  79.764 115.177  0.00  0.00    -0.090 HD
ATOM     21  H   LIG d   1       1.018  78.892 115.882  0.00  0.00    -0.090 HD
ENDBRANCH   5  18
BRANCH   3  22
ATOM     22  C   LIG d   1      -1.644  75.312 118.255  0.00  0.00     0.382 C 
ATOM     23  O   LIG d   1      -1.143  74.205 117.943  0.00  0.00    -0.241 OA
ATOM     24  O   LIG d   1      -1.995  75.517 119.432  0.00  0.00    -0.241 OA
ENDBRANCH   3  22
TORSDOF 7
ENDMDL
MODEL 8
REMARK VINA RESULT:      -4.5      2.205      5.369
REMARK  7 active torsions:
REMARK  status: ('A' for Active; 'I' for Inactive)
REMARK    1  A    between atoms: C_2  and  C_3 
REMARK    2  A    between atoms: C_3  and  O_6 
REMARK    3  A    between atoms: C_3  and  C_4 
REMARK    4  A    between atoms: C_7  and  O_6 
REMARK    5  A    between atoms: C_9  and  C_10 
REMARK    6  A    between atoms: N_15  and  C_14 
REMARK    7  A    between atoms: N_20  and  C_19 
REMARK       I    between atoms: C_22  and  N_20 
ROOT
ATOM      1  C   LIG d   1      -2.404  77.729 114.745  0.00  0.00     0.161 C 
ATOM      2  C   LIG d   1      -3.644  77.209 114.339  0.00  0.00     0.016 C 
ATOM      3  C   LIG d   1      -4.447  76.384 115.160  0.00  0.00     0.038 C 
ATOM      4  C   LIG d   1      -4.133  76.145 116.506  0.00  0.00     0.028 C 
ATOM      5  C   LIG d   1      -2.640  76.235 116.804  0.00  0.00    -0.047 C 
ATOM      6  C   LIG d   1      -2.097  77.571 116.249  0.00  0.00     0.091 C 
ENDROOT
BRANCH   1   7
ATOM      7  O   LIG d   1      -2.304  79.114 114.356  0.00  0.00    -0.368 OA
BRANCH   7   8
ATOM      8  C   LIG d   1      -2.118  79.367 112.942  0.00  0.00     0.119 C 
BRANCH   8   9
ATOM      9  C   LIG d   1      -1.152  78.294 112.403  0.00  0.00     0.028 C 
ATOM     10  C   LIG d   1      -1.503  77.855 110.971  0.00  0.00     0.006 C 
ENDBRANCH   8   9
BRANCH   8  11
ATOM     11  C   LIG d   1      -1.411  80.705 112.703  0.00  0.00     0.028 C 
ATOM     12  C   LIG d   1       0.118  80.600 112.823  0.00  0.00     0.006 C 
ENDBRANCH   8  11
ENDBRANCH   7   8
ENDBRANCH   1   7
BRANCH   6  13
ATOM     13  N   LIG d   1      -0.627  77.702 116.424  0.00  0.00    -0.311 N 
ATOM     14  C   LIG d   1      -0.045  78.767 116.972  0.00  0.00     0.210 C 
ATOM     15  C   LIG d   1       1.484  78.707 117.038  0.00  0.00     0.109 C 
ATOM     16  O   LIG d   1      -0.653  79.743 117.438  0.00  0.00    -0.276 OA
ATOM     17  H   LIG d   1      -0.060  76.942 116.101  0.00  0.00     0.149 HD
ENDBRANCH   6  13
BRANCH   5  18
ATOM     18  N   LIG d   1      -2.468  76.102 118.263  0.00  0.00     0.381 N 
ATOM     19  H   LIG d   1      -1.508  75.918 118.476  0.00  0.00    -0.090 HD
ATOM     20  H   LIG d   1      -3.017  75.325 118.586  0.00  0.00    -0.090 HD
ATOM     21  H   LIG d   1      -2.762  76.938 118.718  0.00  0.00    -0.090 HD
ENDBRANCH   5  18
BRANCH   3  22
ATOM     22  C   LIG d   1      -5.560  75.755 114.622  0.00  0.00     0.382 C 
ATOM     23  O   LIG d   1      -6.639  76.384 114.503  0.00  0.00    -0.241 OA
ATOM     24  O   LIG d   1      -5.511  74.554 114.295  0.00  0.00    -0.241 OA
ENDBRANCH   3  22
TORSDOF 7
ENDMDL
MODEL 9
REMARK VINA RESULT:      -4.4      2.748      4.175
REMARK  7 active torsions:
REMARK  status: ('A' for Active; 'I' for Inactive)
REMARK    1  A    between atoms: C_2  and  C_3 
REMARK    2  A    between atoms: C_3  and  O_6 
REMARK    3  A    between atoms: C_3  and  C_4 
REMARK    4  A    between atoms: C_7  and  O_6 
REMARK    5  A    between atoms: C_9  and  C_10 
REMARK    6  A    between atoms: N_15  and  C_14 
REMARK    7  A    between atoms: N_20  and  C_19 
REMARK       I    between atoms: C_22  and  N_20 
ROOT
ATOM      1  C   LIG d   1      -1.472  77.904 115.892  0.00  0.00     0.161 C 
ATOM      2  C   LIG d   1      -2.117  77.587 114.684  0.00  0.00     0.016 C 
ATOM      3  C   LIG d   1      -1.740  78.132 113.435  0.00  0.00     0.038 C 
ATOM      4  C   LIG d   1      -0.589  78.920 113.286  0.00  0.00     0.028 C 
ATOM      5  C   LIG d   1      -0.203  79.674 114.555  0.00  0.00    -0.047 C 
ATOM      6  C   LIG d   1      -0.145  78.676 115.734  0.00  0.00     0.091 C 
ENDROOT
BRANCH   1   7
ATOM      7  O   LIG d   1      -1.266  76.705 116.665  0.00  0.00    -0.368 OA
BRANCH   7   8
ATOM      8  C   LIG d   1      -1.376  75.454 115.942  0.00  0.00     0.119 C 
BRANCH   8   9
ATOM      9  C   LIG d   1      -2.201  74.487 116.813  0.00  0.00     0.028 C 
ATOM     10  C   LIG d   1      -1.566  74.256 118.195  0.00  0.00     0.006 C 
ENDBRANCH   8   9
BRANCH   8  11
ATOM     11  C   LIG d   1      -0.009  74.785 115.776  0.00  0.00     0.028 C 
ATOM     12  C   LIG d   1       0.714  75.215 114.490  0.00  0.00     0.006 C 
ENDBRANCH   8  11
ENDBRANCH   7   8
ENDBRANCH   1   7
BRANCH   6  13
ATOM     13  N   LIG d   1       0.143  79.344 117.029  0.00  0.00    -0.311 N 
ATOM     14  C   LIG d   1       1.353  79.374 117.586  0.00  0.00     0.210 C 
ATOM     15  C   LIG d   1       1.427  80.099 118.933  0.00  0.00     0.109 C 
ATOM     16  O   LIG d   1       2.378  78.896 117.076  0.00  0.00    -0.276 OA
ATOM     17  H   LIG d   1      -0.625  79.785 117.496  0.00  0.00     0.149 HD
ENDBRANCH   6  13
BRANCH   5  18
ATOM     18  N   LIG d   1       1.086  80.344 114.300  0.00  0.00     0.381 N 
ATOM     19  H   LIG d   1       1.797  79.940 114.877  0.00  0.00    -0.090 HD
ATOM     20  H   LIG d   1       1.000  81.316 114.540  0.00  0.00    -0.090 HD
ATOM     21  H   LIG d   1       1.335  80.251 113.340  0.00  0.00    -0.090 HD
ENDBRANCH   5  18
BRANCH   3  22
ATOM     22  C   LIG d   1      -2.542  77.922 112.324  0.00  0.00     0.382 C 
ATOM     23  O   LIG d   1      -3.764  77.675 112.470  0.00  0.00    -0.241 OA
ATOM     24  O   LIG d   1      -2.051  77.932 111.179  0.00  0.00    -0.241 OA
ENDBRANCH   3  22
TORSDOF 7
ENDMDL
