MODEL 1
REMARK VINA RESULT:      -4.8      0.000      0.000
REMARK  7 active torsions:
REMARK  status: ('A' for Active; 'I' for Inactive)
REMARK    1  A    between atoms: C_2  and  C_3 
REMARK    2  A    between atoms: C_3  and  O_6 
REMARK    3  A    between atoms: C_3  and  C_4 
REMARK    4  A    between atoms: C_7  and  O_6 
REMARK    5  A    between atoms: C_9  and  C_10 
REMARK    6  A    between atoms: N_15  and  C_14 
REMARK    7  A    between atoms: N_20  and  C_19 
REMARK       I    between atoms: C_22  and  N_20 
ROOT
ATOM      1  C   LIG d   1      -1.654  75.754 115.407  0.00  0.00     0.161 C 
ATOM      2  C   LIG d   1      -1.589  75.396 116.764  0.00  0.00     0.016 C 
ATOM      3  C   LIG d   1      -0.863  76.132 117.729  0.00  0.00     0.038 C 
ATOM      4  C   LIG d   1      -0.273  77.368 117.429  0.00  0.00     0.028 C 
ATOM      5  C   LIG d   1       0.114  77.514 115.961  0.00  0.00    -0.047 C 
ATOM      6  C   LIG d   1      -1.107  77.160 115.082  0.00  0.00     0.091 C 
ENDROOT
BRANCH   1   7
ATOM      7  O   LIG d   1      -3.007  75.620 114.930  0.00  0.00    -0.368 OA
BRANCH   7   8
ATOM      8  C   LIG d   1      -4.036  75.537 115.947  0.00  0.00     0.119 C 
BRANCH   8   9
ATOM      9  C   LIG d   1      -5.181  74.677 115.377  0.00  0.00     0.028 C 
ATOM     10  C   LIG d   1      -5.759  75.257 114.075  0.00  0.00     0.006 C 
ENDBRANCH   8   9
BRANCH   8  11
ATOM     11  C   LIG d   1      -4.658  76.908 116.224  0.00  0.00     0.028 C 
ATOM     12  C   LIG d   1      -4.539  77.330 117.697  0.00  0.00     0.006 C 
ENDBRANCH   8  11
ENDBRANCH   7   8
ENDBRANCH   1   7
BRANCH   6  13
ATOM     13  N   LIG d   1      -0.791  77.196 113.631  0.00  0.00    -0.311 N 
ATOM     14  C   LIG d   1      -1.546  77.824 112.731  0.00  0.00     0.210 C 
ATOM     15  C   LIG d   1      -1.050  77.720 111.285  0.00  0.00     0.109 C 
ATOM     16  O   LIG d   1      -2.561  78.485 112.997  0.00  0.00    -0.276 OA
ATOM     17  H   LIG d   1       0.033  76.712 113.331  0.00  0.00     0.149 HD
ENDBRANCH   6  13
BRANCH   5  18
ATOM     18  N   LIG d   1       0.590  78.896 115.761  0.00  0.00     0.381 N 
ATOM     19  H   LIG d   1       0.420  79.436 116.586  0.00  0.00    -0.090 HD
ATOM     20  H   LIG d   1       0.077  79.310 115.002  0.00  0.00    -0.090 HD
ATOM     21  H   LIG d   1       1.564  78.895 115.551  0.00  0.00    -0.090 HD
ENDBRANCH   5  18
BRANCH   3  22
ATOM     22  C   LIG d   1      -0.690  75.610 119.002  0.00  0.00     0.382 C 
ATOM     23  O   LIG d   1       0.304  75.950 119.688  0.00  0.00    -0.241 OA
ATOM     24  O   LIG d   1      -1.490  74.771 119.456  0.00  0.00    -0.241 OA
ENDBRANCH   3  22
TORSDOF 7
ENDMDL
MODEL 2
REMARK VINA RESULT:      -4.8      5.374      8.317
REMARK  7 active torsions:
REMARK  status: ('A' for Active; 'I' for Inactive)
REMARK    1  A    between atoms: C_2  and  C_3 
REMARK    2  A    between atoms: C_3  and  O_6 
REMARK    3  A    between atoms: C_3  and  C_4 
REMARK    4  A    between atoms: C_7  and  O_6 
REMARK    5  A    between atoms: C_9  and  C_10 
REMARK    6  A    between atoms: N_15  and  C_14 
REMARK    7  A    between atoms: N_20  and  C_19 
REMARK       I    between atoms: C_22  and  N_20 
ROOT
ATOM      1  C   LIG d   1      -0.106  82.538 112.572  0.00  0.00     0.161 C 
ATOM      2  C   LIG d   1       0.887  83.421 113.030  0.00  0.00     0.016 C 
ATOM      3  C   LIG d   1       1.771  83.115 114.089  0.00  0.00     0.038 C 
ATOM      4  C   LIG d   1       1.822  81.838 114.668  0.00  0.00     0.028 C 
ATOM      5  C   LIG d   1       0.501  81.081 114.582  0.00  0.00    -0.047 C 
ATOM      6  C   LIG d   1       0.007  81.099 113.117  0.00  0.00     0.091 C 
ENDROOT
BRANCH   1   7
ATOM      7  O   LIG d   1      -0.125  82.529 111.131  0.00  0.00    -0.368 OA
BRANCH   7   8
ATOM      8  C   LIG d   1       1.167  82.484 110.477  0.00  0.00     0.119 C 
BRANCH   8   9
ATOM      9  C   LIG d   1       1.316  83.780 109.657  0.00  0.00     0.028 C 
ATOM     10  C   LIG d   1       2.705  84.419 109.816  0.00  0.00     0.006 C 
ENDBRANCH   8   9
BRANCH   8  11
ATOM     11  C   LIG d   1       1.234  81.346 109.454  0.00  0.00     0.028 C 
ATOM     12  C   LIG d   1       2.518  80.511 109.574  0.00  0.00     0.006 C 
ENDBRANCH   8  11
ENDBRANCH   7   8
ENDBRANCH   1   7
BRANCH   6  13
ATOM     13  N   LIG d   1      -1.322  80.453 112.959  0.00  0.00    -0.311 N 
ATOM     14  C   LIG d   1      -1.576  79.510 112.053  0.00  0.00     0.210 C 
ATOM     15  C   LIG d   1      -3.017  78.992 112.045  0.00  0.00     0.109 C 
ATOM     16  O   LIG d   1      -0.736  79.032 111.276  0.00  0.00    -0.276 OA
ATOM     17  H   LIG d   1      -2.054  80.759 113.570  0.00  0.00     0.149 HD
ENDBRANCH   6  13
BRANCH   5  18
ATOM     18  N   LIG d   1       0.733  79.718 115.097  0.00  0.00     0.381 N 
ATOM     19  H   LIG d   1       1.502  79.300 114.612  0.00  0.00    -0.090 HD
ATOM     20  H   LIG d   1      -0.087  79.163 114.928  0.00  0.00    -0.090 HD
ATOM     21  H   LIG d   1       0.925  79.751 116.074  0.00  0.00    -0.090 HD
ENDBRANCH   5  18
BRANCH   3  22
ATOM     22  C   LIG d   1       2.591  84.106 114.608  0.00  0.00     0.382 C 
ATOM     23  O   LIG d   1       3.440  84.665 113.873  0.00  0.00    -0.241 OA
ATOM     24  O   LIG d   1       2.522  84.416 115.812  0.00  0.00    -0.241 OA
ENDBRANCH   3  22
TORSDOF 7
ENDMDL
MODEL 3
REMARK VINA RESULT:      -4.6      4.944      6.214
REMARK  7 active torsions:
REMARK  status: ('A' for Active; 'I' for Inactive)
REMARK    1  A    between atoms: C_2  and  C_3 
REMARK    2  A    between atoms: C_3  and  O_6 
REMARK    3  A    between atoms: C_3  and  C_4 
REMARK    4  A    between atoms: C_7  and  O_6 
REMARK    5  A    between atoms: C_9  and  C_10 
REMARK    6  A    between atoms: N_15  and  C_14 
REMARK    7  A    between atoms: N_20  and  C_19 
REMARK       I    between atoms: C_22  and  N_20 
ROOT
ATOM      1  C   LIG d   1       0.455  81.281 112.513  0.00  0.00     0.161 C 
ATOM      2  C   LIG d   1       0.559  80.487 113.667  0.00  0.00     0.016 C 
ATOM      3  C   LIG d   1       0.843  81.010 114.949  0.00  0.00     0.038 C 
ATOM      4  C   LIG d   1       0.891  82.391 115.192  0.00  0.00     0.028 C 
ATOM      5  C   LIG d   1       1.293  83.208 113.968  0.00  0.00    -0.047 C 
ATOM      6  C   LIG d   1       0.395  82.800 112.777  0.00  0.00     0.091 C 
ENDROOT
BRANCH   1   7
ATOM      7  O   LIG d   1      -0.683  80.863 111.733  0.00  0.00    -0.368 OA
BRANCH   7   8
ATOM      8  C   LIG d   1      -1.305  79.617 112.131  0.00  0.00     0.119 C 
BRANCH   8   9
ATOM      9  C   LIG d   1      -1.236  78.659 110.925  0.00  0.00     0.028 C 
ATOM     10  C   LIG d   1      -2.545  77.879 110.720  0.00  0.00     0.006 C 
ENDBRANCH   8   9
BRANCH   8  11
ATOM     11  C   LIG d   1      -2.798  79.805 112.414  0.00  0.00     0.028 C 
ATOM     12  C   LIG d   1      -3.163  81.261 112.745  0.00  0.00     0.006 C 
ENDBRANCH   8  11
ENDBRANCH   7   8
ENDBRANCH   1   7
BRANCH   6  13
ATOM     13  N   LIG d   1       0.777  83.491 111.518  0.00  0.00    -0.311 N 
ATOM     14  C   LIG d   1      -0.107  84.034 110.682  0.00  0.00     0.210 C 
ATOM     15  C   LIG d   1       0.497  84.680 109.432  0.00  0.00     0.109 C 
ATOM     16  O   LIG d   1      -1.332  84.070 110.874  0.00  0.00    -0.276 OA
ATOM     17  H   LIG d   1       1.753  83.536 111.299  0.00  0.00     0.149 HD
ENDBRANCH   6  13
BRANCH   5  18
ATOM     18  N   LIG d   1       1.170  84.634 114.324  0.00  0.00     0.381 N 
ATOM     19  H   LIG d   1       2.057  84.986 114.622  0.00  0.00    -0.090 HD
ATOM     20  H   LIG d   1       0.522  84.724 115.087  0.00  0.00    -0.090 HD
ATOM     21  H   LIG d   1       0.844  85.154 113.539  0.00  0.00    -0.090 HD
ENDBRANCH   5  18
BRANCH   3  22
ATOM     22  C   LIG d   1       1.120  80.147 115.998  0.00  0.00     0.382 C 
ATOM     23  O   LIG d   1       2.029  80.427 116.817  0.00  0.00    -0.241 OA
ATOM     24  O   LIG d   1       0.503  79.071 116.110  0.00  0.00    -0.241 OA
ENDBRANCH   3  22
TORSDOF 7
ENDMDL
MODEL 4
REMARK VINA RESULT:      -4.6      4.067      7.398
REMARK  7 active torsions:
REMARK  status: ('A' for Active; 'I' for Inactive)
REMARK    1  A    between atoms: C_2  and  C_3 
REMARK    2  A    between atoms: C_3  and  O_6 
REMARK    3  A    between atoms: C_3  and  C_4 
REMARK    4  A    between atoms: C_7  and  O_6 
REMARK    5  A    between atoms: C_9  and  C_10 
REMARK    6  A    between atoms: N_15  and  C_14 
REMARK    7  A    between atoms: N_20  and  C_19 
REMARK       I    between atoms: C_22  and  N_20 
ROOT
ATOM      1  C   LIG d   1       0.379  80.736 113.842  0.00  0.00     0.161 C 
ATOM      2  C   LIG d   1       0.212  82.058 113.394  0.00  0.00     0.016 C 
ATOM      3  C   LIG d   1      -0.666  82.419 112.346  0.00  0.00     0.038 C 
ATOM      4  C   LIG d   1      -1.554  81.497 111.772  0.00  0.00     0.028 C 
ATOM      5  C   LIG d   1      -1.061  80.056 111.844  0.00  0.00    -0.047 C 
ATOM      6  C   LIG d   1      -0.662  79.734 113.302  0.00  0.00     0.091 C 
ENDROOT
BRANCH   1   7
ATOM      7  O   LIG d   1       0.403  80.708 115.282  0.00  0.00    -0.368 OA
BRANCH   7   8
ATOM      8  C   LIG d   1       1.672  81.025 115.905  0.00  0.00     0.119 C 
BRANCH   8   9
ATOM      9  C   LIG d   1       2.145  79.767 116.658  0.00  0.00     0.028 C 
ATOM     10  C   LIG d   1       0.984  78.821 117.009  0.00  0.00     0.006 C 
ENDBRANCH   8   9
BRANCH   8  11
ATOM     11  C   LIG d   1       1.511  82.104 116.980  0.00  0.00     0.028 C 
ATOM     12  C   LIG d   1       1.851  83.512 116.467  0.00  0.00     0.006 C 
ENDBRANCH   8  11
ENDBRANCH   7   8
ENDBRANCH   1   7
BRANCH   6  13
ATOM     13  N   LIG d   1      -0.090  78.370 113.446  0.00  0.00    -0.311 N 
ATOM     14  C   LIG d   1      -0.825  77.291 113.712  0.00  0.00     0.210 C 
ATOM     15  C   LIG d   1      -0.034  75.986 113.839  0.00  0.00     0.109 C 
ATOM     16  O   LIG d   1      -2.060  77.286 113.823  0.00  0.00    -0.276 OA
ATOM     17  H   LIG d   1       0.901  78.278 113.341  0.00  0.00     0.149 HD
ENDBRANCH   6  13
BRANCH   5  18
ATOM     18  N   LIG d   1      -2.141  79.189 111.336  0.00  0.00     0.381 N 
ATOM     19  H   LIG d   1      -2.990  79.381 111.830  0.00  0.00    -0.090 HD
ATOM     20  H   LIG d   1      -1.892  78.230 111.497  0.00  0.00    -0.090 HD
ATOM     21  H   LIG d   1      -2.274  79.346 110.361  0.00  0.00    -0.090 HD
ENDBRANCH   5  18
BRANCH   3  22
ATOM     22  C   LIG d   1      -0.632  83.707 111.835  0.00  0.00     0.382 C 
ATOM     23  O   LIG d   1      -1.287  83.989 110.803  0.00  0.00    -0.241 OA
ATOM     24  O   LIG d   1       0.081  84.579 112.367  0.00  0.00    -0.241 OA
ENDBRANCH   3  22
TORSDOF 7
ENDMDL
MODEL 5
REMARK VINA RESULT:      -4.4      4.931      8.151
REMARK  7 active torsions:
REMARK  status: ('A' for Active; 'I' for Inactive)
REMARK    1  A    between atoms: C_2  and  C_3 
REMARK    2  A    between atoms: C_3  and  O_6 
REMARK    3  A    between atoms: C_3  and  C_4 
REMARK    4  A    between atoms: C_7  and  O_6 
REMARK    5  A    between atoms: C_9  and  C_10 
REMARK    6  A    between atoms: N_15  and  C_14 
REMARK    7  A    between atoms: N_20  and  C_19 
REMARK       I    between atoms: C_22  and  N_20 
ROOT
ATOM      1  C   LIG d   1      -0.153  81.513 113.000  0.00  0.00     0.161 C 
ATOM      2  C   LIG d   1      -0.456  82.290 111.869  0.00  0.00     0.016 C 
ATOM      3  C   LIG d   1       0.191  83.511 111.568  0.00  0.00     0.038 C 
ATOM      4  C   LIG d   1       1.297  83.965 112.301  0.00  0.00     0.028 C 
ATOM      5  C   LIG d   1       1.311  83.471 113.744  0.00  0.00    -0.047 C 
ATOM      6  C   LIG d   1       1.127  81.936 113.751  0.00  0.00     0.091 C 
ENDROOT
BRANCH   1   7
ATOM      7  O   LIG d   1      -0.081  80.122 112.632  0.00  0.00    -0.368 OA
BRANCH   7   8
ATOM      8  C   LIG d   1      -1.093  79.655 111.706  0.00  0.00     0.119 C 
BRANCH   8   9
ATOM      9  C   LIG d   1      -1.935  78.592 112.437  0.00  0.00     0.028 C 
ATOM     10  C   LIG d   1      -3.183  78.180 111.638  0.00  0.00     0.006 C 
ENDBRANCH   8   9
BRANCH   8  11
ATOM     11  C   LIG d   1      -0.463  78.924 110.515  0.00  0.00     0.028 C 
ATOM     12  C   LIG d   1       0.175  79.883 109.498  0.00  0.00     0.006 C 
ENDBRANCH   8  11
ENDBRANCH   7   8
ENDBRANCH   1   7
BRANCH   6  13
ATOM     13  N   LIG d   1       1.045  81.381 115.128  0.00  0.00    -0.311 N 
ATOM     14  C   LIG d   1       2.111  81.007 115.832  0.00  0.00     0.210 C 
ATOM     15  C   LIG d   1       1.802  80.443 117.222  0.00  0.00     0.109 C 
ATOM     16  O   LIG d   1       3.286  81.119 115.450  0.00  0.00    -0.276 OA
ATOM     17  H   LIG d   1       0.132  81.285 115.527  0.00  0.00     0.149 HD
ENDBRANCH   6  13
BRANCH   5  18
ATOM     18  N   LIG d   1       2.585  83.903 114.351  0.00  0.00     0.381 N 
ATOM     19  H   LIG d   1       2.905  84.740 113.906  0.00  0.00    -0.090 HD
ATOM     20  H   LIG d   1       3.273  83.186 114.206  0.00  0.00    -0.090 HD
ATOM     21  H   LIG d   1       2.461  84.063 115.326  0.00  0.00    -0.090 HD
ENDBRANCH   5  18
BRANCH   3  22
ATOM     22  C   LIG d   1      -0.294  84.312 110.545  0.00  0.00     0.382 C 
ATOM     23  O   LIG d   1      -1.507  84.634 110.523  0.00  0.00    -0.241 OA
ATOM     24  O   LIG d   1       0.455  84.679 109.621  0.00  0.00    -0.241 OA
ENDBRANCH   3  22
TORSDOF 7
ENDMDL
MODEL 6
REMARK VINA RESULT:      -4.3      5.027      7.576
REMARK  7 active torsions:
REMARK  status: ('A' for Active; 'I' for Inactive)
REMARK    1  A    between atoms: C_2  and  C_3 
REMARK    2  A    between atoms: C_3  and  O_6 
REMARK    3  A    between atoms: C_3  and  C_4 
REMARK    4  A    between atoms: C_7  and  O_6 
REMARK    5  A    between atoms: C_9  and  C_10 
REMARK    6  A    between atoms: N_15  and  C_14 
REMARK    7  A    between atoms: N_20  and  C_19 
REMARK       I    between atoms: C_22  and  N_20 
ROOT
ATOM      1  C   LIG d   1      -1.051  81.539 112.030  0.00  0.00     0.161 C 
ATOM      2  C   LIG d   1      -1.945  80.528 112.422  0.00  0.00     0.016 C 
ATOM      3  C   LIG d   1      -1.933  79.225 111.875  0.00  0.00     0.038 C 
ATOM      4  C   LIG d   1      -0.922  78.796 111.002  0.00  0.00     0.028 C 
ATOM      5  C   LIG d   1      -0.299  79.930 110.194  0.00  0.00    -0.047 C 
ATOM      6  C   LIG d   1       0.129  81.058 111.160  0.00  0.00     0.091 C 
ENDROOT
BRANCH   1   7
ATOM      7  O   LIG d   1      -0.564  82.238 113.193  0.00  0.00    -0.368 OA
BRANCH   7   8
ATOM      8  C   LIG d   1       0.813  81.980 113.561  0.00  0.00     0.119 C 
BRANCH   8   9
ATOM      9  C   LIG d   1       0.798  81.027 114.772  0.00  0.00     0.028 C 
ATOM     10  C   LIG d   1       2.036  81.196 115.669  0.00  0.00     0.006 C 
ENDBRANCH   8   9
BRANCH   8  11
ATOM     11  C   LIG d   1       1.506  83.253 114.056  0.00  0.00     0.028 C 
ATOM     12  C   LIG d   1       1.229  84.469 113.159  0.00  0.00     0.006 C 
ENDBRANCH   8  11
ENDBRANCH   7   8
ENDBRANCH   1   7
BRANCH   6  13
ATOM     13  N   LIG d   1       0.672  82.242 110.444  0.00  0.00    -0.311 N 
ATOM     14  C   LIG d   1       1.964  82.401 110.165  0.00  0.00     0.210 C 
ATOM     15  C   LIG d   1       2.314  83.703 109.438  0.00  0.00     0.109 C 
ATOM     16  O   LIG d   1       2.850  81.572 110.422  0.00  0.00    -0.276 OA
ATOM     17  H   LIG d   1       0.018  82.949 110.171  0.00  0.00     0.149 HD
ENDBRANCH   6  13
BRANCH   5  18
ATOM     18  N   LIG d   1       0.829  79.364 109.430  0.00  0.00     0.381 N 
ATOM     19  H   LIG d   1       0.939  79.862 108.569  0.00  0.00    -0.090 HD
ATOM     20  H   LIG d   1       0.628  78.404 109.215  0.00  0.00    -0.090 HD
ATOM     21  H   LIG d   1       1.667  79.424 109.965  0.00  0.00    -0.090 HD
ENDBRANCH   5  18
BRANCH   3  22
ATOM     22  C   LIG d   1      -2.964  78.346 112.171  0.00  0.00     0.382 C 
ATOM     23  O   LIG d   1      -3.428  78.293 113.335  0.00  0.00    -0.241 OA
ATOM     24  O   LIG d   1      -3.406  77.575 111.299  0.00  0.00    -0.241 OA
ENDBRANCH   3  22
TORSDOF 7
ENDMDL
MODEL 7
REMARK VINA RESULT:      -4.2      5.216      6.725
REMARK  7 active torsions:
REMARK  status: ('A' for Active; 'I' for Inactive)
REMARK    1  A    between atoms: C_2  and  C_3 
REMARK    2  A    between atoms: C_3  and  O_6 
REMARK    3  A    between atoms: C_3  and  C_4 
REMARK    4  A    between atoms: C_7  and  O_6 
REMARK    5  A    between atoms: C_9  and  C_10 
REMARK    6  A    between atoms: N_15  and  C_14 
REMARK    7  A    between atoms: N_20  and  C_19 
REMARK       I    between atoms: C_22  and  N_20 
ROOT
ATOM      1  C   LIG d   1       0.816  81.349 112.653  0.00  0.00     0.161 C 
ATOM      2  C   LIG d   1       0.697  80.772 113.929  0.00  0.00     0.016 C 
ATOM      3  C   LIG d   1       1.092  81.427 115.118  0.00  0.00     0.038 C 
ATOM      4  C   LIG d   1       1.495  82.771 115.126  0.00  0.00     0.028 C 
ATOM      5  C   LIG d   1       2.108  83.227 113.807  0.00  0.00    -0.047 C 
ATOM      6  C   LIG d   1       1.149  82.855 112.653  0.00  0.00     0.091 C 
ENDROOT
BRANCH   1   7
ATOM      7  O   LIG d   1      -0.383  81.100 111.892  0.00  0.00    -0.368 OA
BRANCH   7   8
ATOM      8  C   LIG d   1      -0.838  79.725 111.851  0.00  0.00     0.119 C 
BRANCH   8   9
ATOM      9  C   LIG d   1      -0.768  79.259 110.384  0.00  0.00     0.028 C 
ATOM     10  C   LIG d   1       0.283  80.034 109.571  0.00  0.00     0.006 C 
ENDBRANCH   8   9
BRANCH   8  11
ATOM     11  C   LIG d   1      -2.315  79.616 112.241  0.00  0.00     0.028 C 
ATOM     12  C   LIG d   1      -2.949  80.978 112.564  0.00  0.00     0.006 C 
ENDBRANCH   8  11
ENDBRANCH   7   8
ENDBRANCH   1   7
BRANCH   6  13
ATOM     13  N   LIG d   1       1.711  83.191 111.318  0.00  0.00    -0.311 N 
ATOM     14  C   LIG d   1       2.800  82.612 110.815  0.00  0.00     0.210 C 
ATOM     15  C   LIG d   1       3.220  83.119 109.432  0.00  0.00     0.109 C 
ATOM     16  O   LIG d   1       3.439  81.705 111.368  0.00  0.00    -0.276 OA
ATOM     17  H   LIG d   1       1.236  83.895 110.787  0.00  0.00     0.149 HD
ENDBRANCH   6  13
BRANCH   5  18
ATOM     18  N   LIG d   1       2.355  84.678 113.908  0.00  0.00     0.381 N 
ATOM     19  H   LIG d   1       1.747  85.078 114.594  0.00  0.00    -0.090 HD
ATOM     20  H   LIG d   1       2.154  85.105 113.021  0.00  0.00    -0.090 HD
ATOM     21  H   LIG d   1       3.305  84.845 114.158  0.00  0.00    -0.090 HD
ENDBRANCH   5  18
BRANCH   3  22
ATOM     22  C   LIG d   1       1.124  80.723 116.313  0.00  0.00     0.382 C 
ATOM     23  O   LIG d   1       0.561  79.605 116.396  0.00  0.00    -0.241 OA
ATOM     24  O   LIG d   1       1.671  81.212 117.320  0.00  0.00    -0.241 OA
ENDBRANCH   3  22
TORSDOF 7
ENDMDL
MODEL 8
REMARK VINA RESULT:      -4.1      2.892      5.467
REMARK  7 active torsions:
REMARK  status: ('A' for Active; 'I' for Inactive)
REMARK    1  A    between atoms: C_2  and  C_3 
REMARK    2  A    between atoms: C_3  and  O_6 
REMARK    3  A    between atoms: C_3  and  C_4 
REMARK    4  A    between atoms: C_7  and  O_6 
REMARK    5  A    between atoms: C_9  and  C_10 
REMARK    6  A    between atoms: N_15  and  C_14 
REMARK    7  A    between atoms: N_20  and  C_19 
REMARK       I    between atoms: C_22  and  N_20 
ROOT
ATOM      1  C   LIG d   1      -3.155  77.191 117.759  0.00  0.00     0.161 C 
ATOM      2  C   LIG d   1      -4.246  77.645 118.518  0.00  0.00     0.016 C 
ATOM      3  C   LIG d   1      -5.589  77.544 118.089  0.00  0.00     0.038 C 
ATOM      4  C   LIG d   1      -5.946  76.841 116.929  0.00  0.00     0.028 C 
ATOM      5  C   LIG d   1      -4.841  76.806 115.878  0.00  0.00    -0.047 C 
ATOM      6  C   LIG d   1      -3.532  76.321 116.541  0.00  0.00     0.091 C 
ENDROOT
BRANCH   1   7
ATOM      7  O   LIG d   1      -2.227  76.488 118.608  0.00  0.00    -0.368 OA
BRANCH   7   8
ATOM      8  C   LIG d   1      -1.524  77.292 119.587  0.00  0.00     0.119 C 
BRANCH   8   9
ATOM      9  C   LIG d   1      -1.213  78.652 118.932  0.00  0.00     0.028 C 
ATOM     10  C   LIG d   1      -1.520  79.836 119.864  0.00  0.00     0.006 C 
ENDBRANCH   8   9
BRANCH   8  11
ATOM     11  C   LIG d   1      -0.160  76.686 119.930  0.00  0.00     0.028 C 
ATOM     12  C   LIG d   1       0.958  77.166 118.991  0.00  0.00     0.006 C 
ENDBRANCH   8  11
ENDBRANCH   7   8
ENDBRANCH   1   7
BRANCH   6  13
ATOM     13  N   LIG d   1      -2.381  76.338 115.602  0.00  0.00    -0.311 N 
ATOM     14  C   LIG d   1      -1.383  75.457 115.650  0.00  0.00     0.210 C 
ATOM     15  C   LIG d   1      -0.285  75.666 114.602  0.00  0.00     0.109 C 
ATOM     16  O   LIG d   1      -1.318  74.503 116.440  0.00  0.00    -0.276 OA
ATOM     17  H   LIG d   1      -2.368  77.060 114.909  0.00  0.00     0.149 HD
ENDBRANCH   6  13
BRANCH   5  18
ATOM     18  N   LIG d   1      -5.295  75.927 114.783  0.00  0.00     0.381 N 
ATOM     19  H   LIG d   1      -4.718  75.111 114.743  0.00  0.00    -0.090 HD
ATOM     20  H   LIG d   1      -5.205  76.420 113.912  0.00  0.00    -0.090 HD
ATOM     21  H   LIG d   1      -6.245  75.665 114.928  0.00  0.00    -0.090 HD
ENDBRANCH   5  18
BRANCH   3  22
ATOM     22  C   LIG d   1      -6.589  78.186 118.803  0.00  0.00     0.382 C 
ATOM     23  O   LIG d   1      -7.059  77.656 119.839  0.00  0.00    -0.241 OA
ATOM     24  O   LIG d   1      -7.058  79.268 118.401  0.00  0.00    -0.241 OA
ENDBRANCH   3  22
TORSDOF 7
ENDMDL
MODEL 9
REMARK VINA RESULT:      -4.0      5.887      7.448
REMARK  7 active torsions:
REMARK  status: ('A' for Active; 'I' for Inactive)
REMARK    1  A    between atoms: C_2  and  C_3 
REMARK    2  A    between atoms: C_3  and  O_6 
REMARK    3  A    between atoms: C_3  and  C_4 
REMARK    4  A    between atoms: C_7  and  O_6 
REMARK    5  A    between atoms: C_9  and  C_10 
REMARK    6  A    between atoms: N_15  and  C_14 
REMARK    7  A    between atoms: N_20  and  C_19 
REMARK       I    between atoms: C_22  and  N_20 
ROOT
ATOM      1  C   LIG d   1       1.319  81.529 113.923  0.00  0.00     0.161 C 
ATOM      2  C   LIG d   1       1.094  82.294 115.079  0.00  0.00     0.016 C 
ATOM      3  C   LIG d   1       1.359  83.681 115.158  0.00  0.00     0.038 C 
ATOM      4  C   LIG d   1       1.727  84.431 114.031  0.00  0.00     0.028 C 
ATOM      5  C   LIG d   1       2.451  83.611 112.968  0.00  0.00    -0.047 C 
ATOM      6  C   LIG d   1       1.615  82.350 112.651  0.00  0.00     0.091 C 
ENDROOT
BRANCH   1   7
ATOM      7  O   LIG d   1       0.205  80.642 113.699  0.00  0.00    -0.368 OA
BRANCH   7   8
ATOM      8  C   LIG d   1      -0.553  80.865 112.484  0.00  0.00     0.119 C 
BRANCH   8   9
ATOM      9  C   LIG d   1      -1.827  81.641 112.869  0.00  0.00     0.028 C 
ATOM     10  C   LIG d   1      -3.110  80.846 112.573  0.00  0.00     0.006 C 
ENDBRANCH   8   9
BRANCH   8  11
ATOM     11  C   LIG d   1      -1.047  79.544 111.886  0.00  0.00     0.028 C 
ATOM     12  C   LIG d   1      -0.721  79.409 110.391  0.00  0.00     0.006 C 
ENDBRANCH   8  11
ENDBRANCH   7   8
ENDBRANCH   1   7
BRANCH   6  13
ATOM     13  N   LIG d   1       2.293  81.450 111.682  0.00  0.00    -0.311 N 
ATOM     14  C   LIG d   1       2.181  81.578 110.361  0.00  0.00     0.210 C 
ATOM     15  C   LIG d   1       2.946  80.532 109.543  0.00  0.00     0.109 C 
ATOM     16  O   LIG d   1       1.548  82.477 109.788  0.00  0.00    -0.276 OA
ATOM     17  H   LIG d   1       2.853  80.711 112.060  0.00  0.00     0.149 HD
ENDBRANCH   6  13
BRANCH   5  18
ATOM     18  N   LIG d   1       2.653  84.482 111.795  0.00  0.00     0.381 N 
ATOM     19  H   LIG d   1       3.581  84.365 111.442  0.00  0.00    -0.090 HD
ATOM     20  H   LIG d   1       2.541  85.439 112.077  0.00  0.00    -0.090 HD
ATOM     21  H   LIG d   1       1.990  84.257 111.086  0.00  0.00    -0.090 HD
ENDBRANCH   5  18
BRANCH   3  22
ATOM     22  C   LIG d   1       1.294  84.324 116.385  0.00  0.00     0.382 C 
ATOM     23  O   LIG d   1       0.179  84.599 116.891  0.00  0.00    -0.241 OA
ATOM     24  O   LIG d   1       2.337  84.673 116.970  0.00  0.00    -0.241 OA
ENDBRANCH   3  22
TORSDOF 7
ENDMDL
