MODEL 1
REMARK VINA RESULT:      -5.5      0.000      0.000
REMARK  7 active torsions:
REMARK  status: ('A' for Active; 'I' for Inactive)
REMARK    1  A    between atoms: C_2  and  C_3 
REMARK    2  A    between atoms: C_3  and  O_6 
REMARK    3  A    between atoms: C_3  and  C_4 
REMARK    4  A    between atoms: C_7  and  O_6 
REMARK    5  A    between atoms: C_9  and  C_10 
REMARK    6  A    between atoms: N_15  and  C_14 
REMARK    7  A    between atoms: N_20  and  C_19 
REMARK       I    between atoms: C_22  and  N_20 
ROOT
ATOM      1  C   LIG d   1      -1.124  81.574 112.016  0.00  0.00     0.161 C 
ATOM      2  C   LIG d   1      -2.061  80.568 112.307  0.00  0.00     0.016 C 
ATOM      3  C   LIG d   1      -2.045  79.291 111.701  0.00  0.00     0.038 C 
ATOM      4  C   LIG d   1      -0.994  78.878 110.869  0.00  0.00     0.028 C 
ATOM      5  C   LIG d   1      -0.300  80.031 110.153  0.00  0.00    -0.047 C 
ATOM      6  C   LIG d   1       0.095  81.104 111.194  0.00  0.00     0.091 C 
ENDROOT
BRANCH   1   7
ATOM      7  O   LIG d   1      -0.691  82.206 113.237  0.00  0.00    -0.368 OA
BRANCH   7   8
ATOM      8  C   LIG d   1       0.580  81.760 113.770  0.00  0.00     0.119 C 
BRANCH   8   9
ATOM      9  C   LIG d   1       0.281  80.845 114.974  0.00  0.00     0.028 C 
ATOM     10  C   LIG d   1       0.657  81.498 116.315  0.00  0.00     0.006 C 
ENDBRANCH   8   9
BRANCH   8  11
ATOM     11  C   LIG d   1       1.387  82.930 114.340  0.00  0.00     0.028 C 
ATOM     12  C   LIG d   1       1.096  84.259 113.625  0.00  0.00     0.006 C 
ENDBRANCH   8  11
ENDBRANCH   7   8
ENDBRANCH   1   7
BRANCH   6  13
ATOM     13  N   LIG d   1       0.705  82.305 110.568  0.00  0.00    -0.311 N 
ATOM     14  C   LIG d   1       2.020  82.505 110.492  0.00  0.00     0.210 C 
ATOM     15  C   LIG d   1       2.437  83.819 109.824  0.00  0.00     0.109 C 
ATOM     16  O   LIG d   1       2.880  81.704 110.886  0.00  0.00    -0.276 OA
ATOM     17  H   LIG d   1       0.080  82.992 110.194  0.00  0.00     0.149 HD
ENDBRANCH   6  13
BRANCH   5  18
ATOM     18  N   LIG d   1       0.859  79.474 109.430  0.00  0.00     0.381 N 
ATOM     19  H   LIG d   1       0.973  78.509 109.666  0.00  0.00    -0.090 HD
ATOM     20  H   LIG d   1       1.687  79.968 109.713  0.00  0.00    -0.090 HD
ATOM     21  H   LIG d   1       0.726  79.569 108.447  0.00  0.00    -0.090 HD
ENDBRANCH   5  18
BRANCH   3  22
ATOM     22  C   LIG d   1      -3.111  78.425 111.894  0.00  0.00     0.382 C 
ATOM     23  O   LIG d   1      -3.757  77.996 110.908  0.00  0.00    -0.241 OA
ATOM     24  O   LIG d   1      -3.463  78.104 113.045  0.00  0.00    -0.241 OA
ENDBRANCH   3  22
TORSDOF 7
ENDMDL
MODEL 2
REMARK VINA RESULT:      -5.5      4.912      7.467
REMARK  7 active torsions:
REMARK  status: ('A' for Active; 'I' for Inactive)
REMARK    1  A    between atoms: C_2  and  C_3 
REMARK    2  A    between atoms: C_3  and  O_6 
REMARK    3  A    between atoms: C_3  and  C_4 
REMARK    4  A    between atoms: C_7  and  O_6 
REMARK    5  A    between atoms: C_9  and  C_10 
REMARK    6  A    between atoms: N_15  and  C_14 
REMARK    7  A    between atoms: N_20  and  C_19 
REMARK       I    between atoms: C_22  and  N_20 
ROOT
ATOM      1  C   LIG d   1      -2.312  75.889 114.900  0.00  0.00     0.161 C 
ATOM      2  C   LIG d   1      -2.138  75.468 116.229  0.00  0.00     0.016 C 
ATOM      3  C   LIG d   1      -1.421  76.212 117.194  0.00  0.00     0.038 C 
ATOM      4  C   LIG d   1      -0.953  77.508 116.932  0.00  0.00     0.028 C 
ATOM      5  C   LIG d   1      -0.666  77.763 115.457  0.00  0.00    -0.047 C 
ATOM      6  C   LIG d   1      -1.904  77.352 114.627  0.00  0.00     0.091 C 
ENDROOT
BRANCH   1   7
ATOM      7  O   LIG d   1      -3.675  75.664 114.490  0.00  0.00    -0.368 OA
BRANCH   7   8
ATOM      8  C   LIG d   1      -4.649  75.539 115.556  0.00  0.00     0.119 C 
BRANCH   8   9
ATOM      9  C   LIG d   1      -5.622  74.411 115.164  0.00  0.00     0.028 C 
ATOM     10  C   LIG d   1      -6.712  74.180 116.225  0.00  0.00     0.006 C 
ENDBRANCH   8   9
BRANCH   8  11
ATOM     11  C   LIG d   1      -5.513  76.798 115.672  0.00  0.00     0.028 C 
ATOM     12  C   LIG d   1      -5.369  77.497 117.033  0.00  0.00     0.006 C 
ENDBRANCH   8  11
ENDBRANCH   7   8
ENDBRANCH   1   7
BRANCH   6  13
ATOM     13  N   LIG d   1      -1.677  77.490 113.164  0.00  0.00    -0.311 N 
ATOM     14  C   LIG d   1      -2.409  78.279 112.380  0.00  0.00     0.210 C 
ATOM     15  C   LIG d   1      -2.021  78.258 110.899  0.00  0.00     0.109 C 
ATOM     16  O   LIG d   1      -3.323  79.018 112.776  0.00  0.00    -0.276 OA
ATOM     17  H   LIG d   1      -0.936  76.949 112.765  0.00  0.00     0.149 HD
ENDBRANCH   6  13
BRANCH   5  18
ATOM     18  N   LIG d   1      -0.319  79.189 115.309  0.00  0.00     0.381 N 
ATOM     19  H   LIG d   1      -0.265  79.426 114.339  0.00  0.00    -0.090 HD
ATOM     20  H   LIG d   1       0.582  79.349 115.724  0.00  0.00    -0.090 HD
ATOM     21  H   LIG d   1      -1.005  79.755 115.759  0.00  0.00    -0.090 HD
ENDBRANCH   5  18
BRANCH   3  22
ATOM     22  C   LIG d   1      -1.130  75.642 118.424  0.00  0.00     0.382 C 
ATOM     23  O   LIG d   1      -1.376  74.429 118.627  0.00  0.00    -0.241 OA
ATOM     24  O   LIG d   1      -0.666  76.337 119.348  0.00  0.00    -0.241 OA
ENDBRANCH   3  22
TORSDOF 7
ENDMDL
MODEL 3
REMARK VINA RESULT:      -5.1      2.341      5.518
REMARK  7 active torsions:
REMARK  status: ('A' for Active; 'I' for Inactive)
REMARK    1  A    between atoms: C_2  and  C_3 
REMARK    2  A    between atoms: C_3  and  O_6 
REMARK    3  A    between atoms: C_3  and  C_4 
REMARK    4  A    between atoms: C_7  and  O_6 
REMARK    5  A    between atoms: C_9  and  C_10 
REMARK    6  A    between atoms: N_15  and  C_14 
REMARK    7  A    between atoms: N_20  and  C_19 
REMARK       I    between atoms: C_22  and  N_20 
ROOT
ATOM      1  C   LIG d   1       0.094  80.685 113.995  0.00  0.00     0.161 C 
ATOM      2  C   LIG d   1       0.899  81.685 114.566  0.00  0.00     0.016 C 
ATOM      3  C   LIG d   1       1.078  82.963 113.989  0.00  0.00     0.038 C 
ATOM      4  C   LIG d   1       0.338  83.383 112.874  0.00  0.00     0.028 C 
ATOM      5  C   LIG d   1      -0.105  82.235 111.974  0.00  0.00    -0.047 C 
ATOM      6  C   LIG d   1      -0.807  81.162 112.838  0.00  0.00     0.091 C 
ENDROOT
BRANCH   1   7
ATOM      7  O   LIG d   1      -0.698  80.052 115.019  0.00  0.00    -0.368 OA
BRANCH   7   8
ATOM      8  C   LIG d   1      -0.158  78.829 115.579  0.00  0.00     0.119 C 
BRANCH   8   9
ATOM      9  C   LIG d   1      -1.134  77.689 115.231  0.00  0.00     0.028 C 
ATOM     10  C   LIG d   1      -0.671  76.871 114.015  0.00  0.00     0.006 C 
ENDBRANCH   8   9
BRANCH   8  11
ATOM     11  C   LIG d   1      -0.126  78.884 117.109  0.00  0.00     0.028 C 
ATOM     12  C   LIG d   1      -0.778  80.156 117.674  0.00  0.00     0.006 C 
ENDBRANCH   8  11
ENDBRANCH   7   8
ENDBRANCH   1   7
BRANCH   6  13
ATOM     13  N   LIG d   1      -1.198  79.965 112.049  0.00  0.00    -0.311 N 
ATOM     14  C   LIG d   1      -2.451  79.522 111.961  0.00  0.00     0.210 C 
ATOM     15  C   LIG d   1      -2.633  78.260 111.112  0.00  0.00     0.109 C 
ATOM     16  O   LIG d   1      -3.434  80.072 112.480  0.00  0.00    -0.276 OA
ATOM     17  H   LIG d   1      -0.468  79.476 111.570  0.00  0.00     0.149 HD
ENDBRANCH   6  13
BRANCH   5  18
ATOM     18  N   LIG d   1      -0.981  82.800 110.929  0.00  0.00     0.381 N 
ATOM     19  H   LIG d   1      -0.570  83.633 110.557  0.00  0.00    -0.090 HD
ATOM     20  H   LIG d   1      -1.865  83.041 111.341  0.00  0.00    -0.090 HD
ATOM     21  H   LIG d   1      -1.116  82.133 110.201  0.00  0.00    -0.090 HD
ENDBRANCH   5  18
BRANCH   3  22
ATOM     22  C   LIG d   1       2.034  83.823 114.507  0.00  0.00     0.382 C 
ATOM     23  O   LIG d   1       1.766  84.530 115.508  0.00  0.00    -0.241 OA
ATOM     24  O   LIG d   1       3.147  83.933 113.959  0.00  0.00    -0.241 OA
ENDBRANCH   3  22
TORSDOF 7
ENDMDL
MODEL 4
REMARK VINA RESULT:      -4.9      5.093      7.756
REMARK  7 active torsions:
REMARK  status: ('A' for Active; 'I' for Inactive)
REMARK    1  A    between atoms: C_2  and  C_3 
REMARK    2  A    between atoms: C_3  and  O_6 
REMARK    3  A    between atoms: C_3  and  C_4 
REMARK    4  A    between atoms: C_7  and  O_6 
REMARK    5  A    between atoms: C_9  and  C_10 
REMARK    6  A    between atoms: N_15  and  C_14 
REMARK    7  A    between atoms: N_20  and  C_19 
REMARK       I    between atoms: C_22  and  N_20 
ROOT
ATOM      1  C   LIG d   1      -3.271  76.598 115.421  0.00  0.00     0.161 C 
ATOM      2  C   LIG d   1      -3.490  77.179 114.161  0.00  0.00     0.016 C 
ATOM      3  C   LIG d   1      -2.445  77.561 113.288  0.00  0.00     0.038 C 
ATOM      4  C   LIG d   1      -1.104  77.247 113.555  0.00  0.00     0.028 C 
ATOM      5  C   LIG d   1      -0.797  77.114 115.042  0.00  0.00    -0.047 C 
ATOM      6  C   LIG d   1      -1.819  76.146 115.681  0.00  0.00     0.091 C 
ENDROOT
BRANCH   1   7
ATOM      7  O   LIG d   1      -4.181  75.497 115.617  0.00  0.00    -0.368 OA
BRANCH   7   8
ATOM      8  C   LIG d   1      -5.308  75.749 116.491  0.00  0.00     0.119 C 
BRANCH   8   9
ATOM      9  C   LIG d   1      -6.574  75.246 115.772  0.00  0.00     0.028 C 
ATOM     10  C   LIG d   1      -6.940  76.111 114.554  0.00  0.00     0.006 C 
ENDBRANCH   8   9
BRANCH   8  11
ATOM     11  C   LIG d   1      -5.528  77.250 116.698  0.00  0.00     0.028 C 
ATOM     12  C   LIG d   1      -6.259  77.571 118.011  0.00  0.00     0.006 C 
ENDBRANCH   8  11
ENDBRANCH   7   8
ENDBRANCH   1   7
BRANCH   6  13
ATOM     13  N   LIG d   1      -1.642  76.025 117.152  0.00  0.00    -0.311 N 
ATOM     14  C   LIG d   1      -0.906  75.074 117.726  0.00  0.00     0.210 C 
ATOM     15  C   LIG d   1      -0.873  75.119 119.257  0.00  0.00     0.109 C 
ATOM     16  O   LIG d   1      -0.252  74.219 117.112  0.00  0.00    -0.276 OA
ATOM     17  H   LIG d   1      -2.113  76.697 117.725  0.00  0.00     0.149 HD
ENDBRANCH   6  13
BRANCH   5  18
ATOM     18  N   LIG d   1       0.597  76.651 115.170  0.00  0.00     0.381 N 
ATOM     19  H   LIG d   1       1.042  76.663 114.274  0.00  0.00    -0.090 HD
ATOM     20  H   LIG d   1       0.596  75.705 115.509  0.00  0.00    -0.090 HD
ATOM     21  H   LIG d   1       1.095  77.237 115.804  0.00  0.00    -0.090 HD
ENDBRANCH   5  18
BRANCH   3  22
ATOM     22  C   LIG d   1      -2.735  78.301 112.152  0.00  0.00     0.382 C 
ATOM     23  O   LIG d   1      -3.226  79.451 112.261  0.00  0.00    -0.241 OA
ATOM     24  O   LIG d   1      -2.554  77.816 111.019  0.00  0.00    -0.241 OA
ENDBRANCH   3  22
TORSDOF 7
ENDMDL
MODEL 5
REMARK VINA RESULT:      -4.9      4.557      6.310
REMARK  7 active torsions:
REMARK  status: ('A' for Active; 'I' for Inactive)
REMARK    1  A    between atoms: C_2  and  C_3 
REMARK    2  A    between atoms: C_3  and  O_6 
REMARK    3  A    between atoms: C_3  and  C_4 
REMARK    4  A    between atoms: C_7  and  O_6 
REMARK    5  A    between atoms: C_9  and  C_10 
REMARK    6  A    between atoms: N_15  and  C_14 
REMARK    7  A    between atoms: N_20  and  C_19 
REMARK       I    between atoms: C_22  and  N_20 
ROOT
ATOM      1  C   LIG d   1      -1.392  77.256 114.734  0.00  0.00     0.161 C 
ATOM      2  C   LIG d   1      -2.686  76.743 114.546  0.00  0.00     0.016 C 
ATOM      3  C   LIG d   1      -3.313  75.862 115.457  0.00  0.00     0.038 C 
ATOM      4  C   LIG d   1      -2.743  75.552 116.701  0.00  0.00     0.028 C 
ATOM      5  C   LIG d   1      -1.221  75.645 116.709  0.00  0.00    -0.047 C 
ATOM      6  C   LIG d   1      -0.799  77.018 116.138  0.00  0.00     0.091 C 
ENDROOT
BRANCH   1   7
ATOM      7  O   LIG d   1      -1.372  78.662 114.414  0.00  0.00    -0.368 OA
BRANCH   7   8
ATOM      8  C   LIG d   1      -1.092  78.997 113.033  0.00  0.00     0.119 C 
BRANCH   8   9
ATOM      9  C   LIG d   1      -0.398  80.373 113.023  0.00  0.00     0.028 C 
ATOM     10  C   LIG d   1      -1.307  81.484 112.469  0.00  0.00     0.006 C 
ENDBRANCH   8   9
BRANCH   8  11
ATOM     11  C   LIG d   1      -2.383  79.188 112.232  0.00  0.00     0.028 C 
ATOM     12  C   LIG d   1      -2.458  78.277 110.996  0.00  0.00     0.006 C 
ENDBRANCH   8  11
ENDBRANCH   7   8
ENDBRANCH   1   7
BRANCH   6  13
ATOM     13  N   LIG d   1       0.677  77.158 116.033  0.00  0.00    -0.311 N 
ATOM     14  C   LIG d   1       1.436  77.668 117.001  0.00  0.00     0.210 C 
ATOM     15  C   LIG d   1       2.932  77.741 116.679  0.00  0.00     0.109 C 
ATOM     16  O   LIG d   1       1.017  78.038 118.108  0.00  0.00    -0.276 OA
ATOM     17  H   LIG d   1       1.105  76.853 115.180  0.00  0.00     0.149 HD
ENDBRANCH   6  13
BRANCH   5  18
ATOM     18  N   LIG d   1      -0.769  75.432 118.098  0.00  0.00     0.381 N 
ATOM     19  H   LIG d   1      -1.469  75.757 118.735  0.00  0.00    -0.090 HD
ATOM     20  H   LIG d   1       0.069  75.964 118.252  0.00  0.00    -0.090 HD
ATOM     21  H   LIG d   1      -0.591  74.465 118.254  0.00  0.00    -0.090 HD
ENDBRANCH   5  18
BRANCH   3  22
ATOM     22  C   LIG d   1      -4.508  75.250 115.109  0.00  0.00     0.382 C 
ATOM     23  O   LIG d   1      -4.893  75.261 113.915  0.00  0.00    -0.241 OA
ATOM     24  O   LIG d   1      -5.226  74.725 115.981  0.00  0.00    -0.241 OA
ENDBRANCH   3  22
TORSDOF 7
ENDMDL
MODEL 6
REMARK VINA RESULT:      -4.8      5.216      7.890
REMARK  7 active torsions:
REMARK  status: ('A' for Active; 'I' for Inactive)
REMARK    1  A    between atoms: C_2  and  C_3 
REMARK    2  A    between atoms: C_3  and  O_6 
REMARK    3  A    between atoms: C_3  and  C_4 
REMARK    4  A    between atoms: C_7  and  O_6 
REMARK    5  A    between atoms: C_9  and  C_10 
REMARK    6  A    between atoms: N_15  and  C_14 
REMARK    7  A    between atoms: N_20  and  C_19 
REMARK       I    between atoms: C_22  and  N_20 
ROOT
ATOM      1  C   LIG d   1      -2.543  76.867 115.972  0.00  0.00     0.161 C 
ATOM      2  C   LIG d   1      -2.893  77.248 114.666  0.00  0.00     0.016 C 
ATOM      3  C   LIG d   1      -1.983  77.246 113.584  0.00  0.00     0.038 C 
ATOM      4  C   LIG d   1      -0.690  76.714 113.704  0.00  0.00     0.028 C 
ATOM      5  C   LIG d   1      -0.134  76.786 115.122  0.00  0.00    -0.047 C 
ATOM      6  C   LIG d   1      -1.168  76.178 116.097  0.00  0.00     0.091 C 
ENDROOT
BRANCH   1   7
ATOM      7  O   LIG d   1      -3.575  76.030 116.530  0.00  0.00    -0.368 OA
BRANCH   7   8
ATOM      8  C   LIG d   1      -4.834  76.008 115.813  0.00  0.00     0.119 C 
BRANCH   8   9
ATOM      9  C   LIG d   1      -5.931  76.474 116.791  0.00  0.00     0.028 C 
ATOM     10  C   LIG d   1      -5.746  77.936 117.228  0.00  0.00     0.006 C 
ENDBRANCH   8   9
BRANCH   8  11
ATOM     11  C   LIG d   1      -5.225  74.582 115.415  0.00  0.00     0.028 C 
ATOM     12  C   LIG d   1      -6.617  74.180 115.927  0.00  0.00     0.006 C 
ENDBRANCH   8  11
ENDBRANCH   7   8
ENDBRANCH   1   7
BRANCH   6  13
ATOM     13  N   LIG d   1      -0.739  76.285 117.516  0.00  0.00    -0.311 N 
ATOM     14  C   LIG d   1      -0.886  75.302 118.403  0.00  0.00     0.210 C 
ATOM     15  C   LIG d   1      -0.395  75.628 119.817  0.00  0.00     0.109 C 
ATOM     16  O   LIG d   1      -1.348  74.180 118.145  0.00  0.00    -0.276 OA
ATOM     17  H   LIG d   1      -0.326  77.150 117.804  0.00  0.00     0.149 HD
ENDBRANCH   6  13
BRANCH   5  18
ATOM     18  N   LIG d   1       1.158  76.074 115.131  0.00  0.00     0.381 N 
ATOM     19  H   LIG d   1       1.394  75.790 114.201  0.00  0.00    -0.090 HD
ATOM     20  H   LIG d   1       1.071  75.251 115.700  0.00  0.00    -0.090 HD
ATOM     21  H   LIG d   1       1.871  76.666 115.497  0.00  0.00    -0.090 HD
ENDBRANCH   5  18
BRANCH   3  22
ATOM     22  C   LIG d   1      -2.351  77.817 112.375  0.00  0.00     0.382 C 
ATOM     23  O   LIG d   1      -1.979  77.295 111.296  0.00  0.00    -0.241 OA
ATOM     24  O   LIG d   1      -3.012  78.872 112.350  0.00  0.00    -0.241 OA
ENDBRANCH   3  22
TORSDOF 7
ENDMDL
MODEL 7
REMARK VINA RESULT:      -4.7      1.436      2.127
REMARK  7 active torsions:
REMARK  status: ('A' for Active; 'I' for Inactive)
REMARK    1  A    between atoms: C_2  and  C_3 
REMARK    2  A    between atoms: C_3  and  O_6 
REMARK    3  A    between atoms: C_3  and  C_4 
REMARK    4  A    between atoms: C_7  and  O_6 
REMARK    5  A    between atoms: C_9  and  C_10 
REMARK    6  A    between atoms: N_15  and  C_14 
REMARK    7  A    between atoms: N_20  and  C_19 
REMARK       I    between atoms: C_22  and  N_20 
ROOT
ATOM      1  C   LIG d   1      -0.233  80.912 112.984  0.00  0.00     0.161 C 
ATOM      2  C   LIG d   1      -0.782  79.810 113.659  0.00  0.00     0.016 C 
ATOM      3  C   LIG d   1      -1.297  78.670 112.999  0.00  0.00     0.038 C 
ATOM      4  C   LIG d   1      -1.158  78.490 111.615  0.00  0.00     0.028 C 
ATOM      5  C   LIG d   1      -1.065  79.799 110.839  0.00  0.00    -0.047 C 
ATOM      6  C   LIG d   1       0.028  80.685 111.480  0.00  0.00     0.091 C 
ENDROOT
BRANCH   1   7
ATOM      7  O   LIG d   1       0.976  81.337 113.644  0.00  0.00    -0.368 OA
BRANCH   7   8
ATOM      8  C   LIG d   1       0.836  82.420 114.596  0.00  0.00     0.119 C 
BRANCH   8   9
ATOM      9  C   LIG d   1       1.175  83.730 113.860  0.00  0.00     0.028 C 
ATOM     10  C   LIG d   1      -0.067  84.606 113.619  0.00  0.00     0.006 C 
ENDBRANCH   8   9
BRANCH   8  11
ATOM     11  C   LIG d   1       1.869  82.309 115.722  0.00  0.00     0.028 C 
ATOM     12  C   LIG d   1       2.068  80.864 116.207  0.00  0.00     0.006 C 
ENDBRANCH   8  11
ENDBRANCH   7   8
ENDBRANCH   1   7
BRANCH   6  13
ATOM     13  N   LIG d   1       0.126  82.020 110.834  0.00  0.00    -0.311 N 
ATOM     14  C   LIG d   1       1.237  82.475 110.256  0.00  0.00     0.210 C 
ATOM     15  C   LIG d   1       1.129  83.885 109.667  0.00  0.00     0.109 C 
ATOM     16  O   LIG d   1       2.291  81.831 110.146  0.00  0.00    -0.276 OA
ATOM     17  H   LIG d   1      -0.693  82.596 110.849  0.00  0.00     0.149 HD
ENDBRANCH   6  13
BRANCH   5  18
ATOM     18  N   LIG d   1      -0.785  79.464 109.430  0.00  0.00     0.381 N 
ATOM     19  H   LIG d   1      -1.128  78.547 109.226  0.00  0.00    -0.090 HD
ATOM     20  H   LIG d   1       0.209  79.469 109.286  0.00  0.00    -0.090 HD
ATOM     21  H   LIG d   1      -1.218  80.130 108.829  0.00  0.00    -0.090 HD
ENDBRANCH   5  18
BRANCH   3  22
ATOM     22  C   LIG d   1      -1.994  77.714 113.721  0.00  0.00     0.382 C 
ATOM     23  O   LIG d   1      -2.924  77.071 113.177  0.00  0.00    -0.241 OA
ATOM     24  O   LIG d   1      -1.735  77.517 114.924  0.00  0.00    -0.241 OA
ENDBRANCH   3  22
TORSDOF 7
ENDMDL
MODEL 8
REMARK VINA RESULT:      -4.7      1.530      2.309
REMARK  7 active torsions:
REMARK  status: ('A' for Active; 'I' for Inactive)
REMARK    1  A    between atoms: C_2  and  C_3 
REMARK    2  A    between atoms: C_3  and  O_6 
REMARK    3  A    between atoms: C_3  and  C_4 
REMARK    4  A    between atoms: C_7  and  O_6 
REMARK    5  A    between atoms: C_9  and  C_10 
REMARK    6  A    between atoms: N_15  and  C_14 
REMARK    7  A    between atoms: N_20  and  C_19 
REMARK       I    between atoms: C_22  and  N_20 
ROOT
ATOM      1  C   LIG d   1       0.534  81.555 113.300  0.00  0.00     0.161 C 
ATOM      2  C   LIG d   1      -0.443  80.564 113.495  0.00  0.00     0.016 C 
ATOM      3  C   LIG d   1      -1.068  79.868 112.435  0.00  0.00     0.038 C 
ATOM      4  C   LIG d   1      -0.646  80.010 111.104  0.00  0.00     0.028 C 
ATOM      5  C   LIG d   1      -0.013  81.366 110.811  0.00  0.00    -0.047 C 
ATOM      6  C   LIG d   1       1.085  81.645 111.862  0.00  0.00     0.091 C 
ENDROOT
BRANCH   1   7
ATOM      7  O   LIG d   1       1.611  81.371 114.239  0.00  0.00    -0.368 OA
BRANCH   7   8
ATOM      8  C   LIG d   1       1.284  81.587 115.634  0.00  0.00     0.119 C 
BRANCH   8   9
ATOM      9  C   LIG d   1       1.371  83.103 115.901  0.00  0.00     0.028 C 
ATOM     10  C   LIG d   1       0.452  83.550 117.050  0.00  0.00     0.006 C 
ENDBRANCH   8   9
BRANCH   8  11
ATOM     11  C   LIG d   1       2.329  80.953 116.556  0.00  0.00     0.028 C 
ATOM     12  C   LIG d   1       1.848  79.636 117.185  0.00  0.00     0.006 C 
ENDBRANCH   8  11
ENDBRANCH   7   8
ENDBRANCH   1   7
BRANCH   6  13
ATOM     13  N   LIG d   1       1.698  82.989 111.698  0.00  0.00    -0.311 N 
ATOM     14  C   LIG d   1       2.814  83.206 111.004  0.00  0.00     0.210 C 
ATOM     15  C   LIG d   1       3.285  84.664 110.978  0.00  0.00     0.109 C 
ATOM     16  O   LIG d   1       3.440  82.336 110.380  0.00  0.00    -0.276 OA
ATOM     17  H   LIG d   1       1.238  83.757 112.145  0.00  0.00     0.149 HD
ENDBRANCH   6  13
BRANCH   5  18
ATOM     18  N   LIG d   1       0.503  81.327 109.430  0.00  0.00     0.381 N 
ATOM     19  H   LIG d   1      -0.255  81.210 108.788  0.00  0.00    -0.090 HD
ATOM     20  H   LIG d   1       1.121  80.540 109.336  0.00  0.00    -0.090 HD
ATOM     21  H   LIG d   1       0.994  82.170 109.226  0.00  0.00    -0.090 HD
ENDBRANCH   5  18
BRANCH   3  22
ATOM     22  C   LIG d   1      -2.154  79.047 112.698  0.00  0.00     0.382 C 
ATOM     23  O   LIG d   1      -1.971  77.883 113.130  0.00  0.00    -0.241 OA
ATOM     24  O   LIG d   1      -3.313  79.440 112.466  0.00  0.00    -0.241 OA
ENDBRANCH   3  22
TORSDOF 7
ENDMDL
MODEL 9
REMARK VINA RESULT:      -4.6      2.691      4.933
REMARK  7 active torsions:
REMARK  status: ('A' for Active; 'I' for Inactive)
REMARK    1  A    between atoms: C_2  and  C_3 
REMARK    2  A    between atoms: C_3  and  O_6 
REMARK    3  A    between atoms: C_3  and  C_4 
REMARK    4  A    between atoms: C_7  and  O_6 
REMARK    5  A    between atoms: C_9  and  C_10 
REMARK    6  A    between atoms: N_15  and  C_14 
REMARK    7  A    between atoms: N_20  and  C_19 
REMARK       I    between atoms: C_22  and  N_20 
ROOT
ATOM      1  C   LIG d   1      -0.169  80.200 114.182  0.00  0.00     0.161 C 
ATOM      2  C   LIG d   1      -0.247  81.511 113.682  0.00  0.00     0.016 C 
ATOM      3  C   LIG d   1      -0.931  81.851 112.493  0.00  0.00     0.038 C 
ATOM      4  C   LIG d   1      -1.716  80.920 111.797  0.00  0.00     0.028 C 
ATOM      5  C   LIG d   1      -1.255  79.478 111.984  0.00  0.00    -0.047 C 
ATOM      6  C   LIG d   1      -1.112  79.190 113.496  0.00  0.00     0.091 C 
ENDROOT
BRANCH   1   7
ATOM      7  O   LIG d   1      -0.390  80.206 115.606  0.00  0.00    -0.368 OA
BRANCH   7   8
ATOM      8  C   LIG d   1       0.767  80.492 116.430  0.00  0.00     0.119 C 
BRANCH   8   9
ATOM      9  C   LIG d   1       1.214  79.167 117.076  0.00  0.00     0.028 C 
ATOM     10  C   LIG d   1       0.083  78.489 117.868  0.00  0.00     0.006 C 
ENDBRANCH   8   9
BRANCH   8  11
ATOM     11  C   LIG d   1       0.404  81.412 117.599  0.00  0.00     0.028 C 
ATOM     12  C   LIG d   1       0.442  82.901 117.220  0.00  0.00     0.006 C 
ENDBRANCH   8  11
ENDBRANCH   7   8
ENDBRANCH   1   7
BRANCH   6  13
ATOM     13  N   LIG d   1      -0.584  77.827 113.766  0.00  0.00    -0.311 N 
ATOM     14  C   LIG d   1      -1.116  76.999 114.664  0.00  0.00     0.210 C 
ATOM     15  C   LIG d   1      -0.405  75.648 114.798  0.00  0.00     0.109 C 
ATOM     16  O   LIG d   1      -2.127  77.242 115.338  0.00  0.00    -0.276 OA
ATOM     17  H   LIG d   1       0.217  77.536 113.240  0.00  0.00     0.149 HD
ENDBRANCH   6  13
BRANCH   5  18
ATOM     18  N   LIG d   1      -2.241  78.605 111.320  0.00  0.00     0.381 N 
ATOM     19  H   LIG d   1      -2.302  77.732 111.805  0.00  0.00    -0.090 HD
ATOM     20  H   LIG d   1      -1.932  78.422 110.381  0.00  0.00    -0.090 HD
ATOM     21  H   LIG d   1      -3.133  79.048 111.303  0.00  0.00    -0.090 HD
ENDBRANCH   5  18
BRANCH   3  22
ATOM     22  C   LIG d   1      -0.800  83.127 111.966  0.00  0.00     0.382 C 
ATOM     23  O   LIG d   1      -1.465  83.458 110.955  0.00  0.00    -0.241 OA
ATOM     24  O   LIG d   1       0.007  83.935 112.461  0.00  0.00    -0.241 OA
ENDBRANCH   3  22
TORSDOF 7
ENDMDL
