MODEL 1
REMARK VINA RESULT:      -5.0      0.000      0.000
REMARK  7 active torsions:
REMARK  status: ('A' for Active; 'I' for Inactive)
REMARK    1  A    between atoms: C_2  and  C_3 
REMARK    2  A    between atoms: C_3  and  O_6 
REMARK    3  A    between atoms: C_3  and  C_4 
REMARK    4  A    between atoms: C_7  and  O_6 
REMARK    5  A    between atoms: C_9  and  C_10 
REMARK    6  A    between atoms: N_15  and  C_14 
REMARK    7  A    between atoms: N_20  and  C_19 
REMARK       I    between atoms: C_22  and  N_20 
ROOT
ATOM      1  C   LIG d   1      -2.643  77.990 116.088  0.00  0.00     0.161 C 
ATOM      2  C   LIG d   1      -2.969  78.802 114.989  0.00  0.00     0.016 C 
ATOM      3  C   LIG d   1      -2.358  78.676 113.720  0.00  0.00     0.038 C 
ATOM      4  C   LIG d   1      -1.481  77.622 113.420  0.00  0.00     0.028 C 
ATOM      5  C   LIG d   1      -0.742  77.084 114.641  0.00  0.00    -0.047 C 
ATOM      6  C   LIG d   1      -1.770  76.764 115.750  0.00  0.00     0.091 C 
ENDROOT
BRANCH   1   7
ATOM      7  O   LIG d   1      -3.847  77.577 116.764  0.00  0.00    -0.368 OA
BRANCH   7   8
ATOM      8  C   LIG d   1      -4.941  77.153 115.915  0.00  0.00     0.119 C 
BRANCH   8   9
ATOM      9  C   LIG d   1      -6.252  77.591 116.597  0.00  0.00     0.028 C 
ATOM     10  C   LIG d   1      -6.122  78.953 117.299  0.00  0.00     0.006 C 
ENDBRANCH   8   9
BRANCH   8  11
ATOM     11  C   LIG d   1      -5.020  75.626 115.828  0.00  0.00     0.028 C 
ATOM     12  C   LIG d   1      -4.869  75.103 114.390  0.00  0.00     0.006 C 
ENDBRANCH   8  11
ENDBRANCH   7   8
ENDBRANCH   1   7
BRANCH   6  13
ATOM     13  N   LIG d   1      -1.123  76.311 117.009  0.00  0.00    -0.311 N 
ATOM     14  C   LIG d   1      -1.278  75.089 117.515  0.00  0.00     0.210 C 
ATOM     15  C   LIG d   1      -0.539  74.836 118.833  0.00  0.00     0.109 C 
ATOM     16  O   LIG d   1      -1.932  74.181 116.981  0.00  0.00    -0.276 OA
ATOM     17  H   LIG d   1      -0.549  76.975 117.491  0.00  0.00     0.149 HD
ENDBRANCH   6  13
BRANCH   5  18
ATOM     18  N   LIG d   1       0.030  75.904 114.209  0.00  0.00     0.381 N 
ATOM     19  H   LIG d   1      -0.587  75.220 113.818  0.00  0.00    -0.090 HD
ATOM     20  H   LIG d   1       0.482  75.500 115.011  0.00  0.00    -0.090 HD
ATOM     21  H   LIG d   1       0.713  76.170 113.534  0.00  0.00    -0.090 HD
ENDBRANCH   5  18
BRANCH   3  22
ATOM     22  C   LIG d   1      -2.592  79.634 112.746  0.00  0.00     0.382 C 
ATOM     23  O   LIG d   1      -2.022  79.549 111.632  0.00  0.00    -0.241 OA
ATOM     24  O   LIG d   1      -3.332  80.608 112.983  0.00  0.00    -0.241 OA
ENDBRANCH   3  22
TORSDOF 7
ENDMDL
MODEL 2
REMARK VINA RESULT:      -4.9      1.527      2.401
REMARK  7 active torsions:
REMARK  status: ('A' for Active; 'I' for Inactive)
REMARK    1  A    between atoms: C_2  and  C_3 
REMARK    2  A    between atoms: C_3  and  O_6 
REMARK    3  A    between atoms: C_3  and  C_4 
REMARK    4  A    between atoms: C_7  and  O_6 
REMARK    5  A    between atoms: C_9  and  C_10 
REMARK    6  A    between atoms: N_15  and  C_14 
REMARK    7  A    between atoms: N_20  and  C_19 
REMARK       I    between atoms: C_22  and  N_20 
ROOT
ATOM      1  C   LIG d   1      -3.001  78.652 115.522  0.00  0.00     0.161 C 
ATOM      2  C   LIG d   1      -3.155  79.630 114.525  0.00  0.00     0.016 C 
ATOM      3  C   LIG d   1      -2.473  79.594 113.287  0.00  0.00     0.038 C 
ATOM      4  C   LIG d   1      -1.700  78.489 112.899  0.00  0.00     0.028 C 
ATOM      5  C   LIG d   1      -1.114  77.716 114.075  0.00  0.00    -0.047 C 
ATOM      6  C   LIG d   1      -2.248  77.382 115.071  0.00  0.00     0.091 C 
ENDROOT
BRANCH   1   7
ATOM      7  O   LIG d   1      -4.289  78.303 116.067  0.00  0.00    -0.368 OA
BRANCH   7   8
ATOM      8  C   LIG d   1      -4.642  78.935 117.322  0.00  0.00     0.119 C 
BRANCH   8   9
ATOM      9  C   LIG d   1      -4.520  77.869 118.428  0.00  0.00     0.028 C 
ATOM     10  C   LIG d   1      -3.323  78.124 119.359  0.00  0.00     0.006 C 
ENDBRANCH   8   9
BRANCH   8  11
ATOM     11  C   LIG d   1      -6.111  79.367 117.335  0.00  0.00     0.028 C 
ATOM     12  C   LIG d   1      -6.290  80.863 117.638  0.00  0.00     0.006 C 
ENDBRANCH   8  11
ENDBRANCH   7   8
ENDBRANCH   1   7
BRANCH   6  13
ATOM     13  N   LIG d   1      -1.748  76.699 116.292  0.00  0.00    -0.311 N 
ATOM     14  C   LIG d   1      -2.228  75.536 116.731  0.00  0.00     0.210 C 
ATOM     15  C   LIG d   1      -1.584  75.016 118.020  0.00  0.00     0.109 C 
ATOM     16  O   LIG d   1      -3.102  74.871 116.156  0.00  0.00    -0.276 OA
ATOM     17  H   LIG d   1      -1.016  77.154 116.802  0.00  0.00     0.149 HD
ENDBRANCH   6  13
BRANCH   5  18
ATOM     18  N   LIG d   1      -0.450  76.516 113.533  0.00  0.00     0.381 N 
ATOM     19  H   LIG d   1      -0.591  76.468 112.544  0.00  0.00    -0.090 HD
ATOM     20  H   LIG d   1      -0.861  75.700 113.950  0.00  0.00    -0.090 HD
ATOM     21  H   LIG d   1       0.525  76.545 113.735  0.00  0.00    -0.090 HD
ENDBRANCH   5  18
BRANCH   3  22
ATOM     22  C   LIG d   1      -2.528  80.690 112.440  0.00  0.00     0.382 C 
ATOM     23  O   LIG d   1      -3.578  81.372 112.365  0.00  0.00    -0.241 OA
ATOM     24  O   LIG d   1      -1.556  80.978 111.716  0.00  0.00    -0.241 OA
ENDBRANCH   3  22
TORSDOF 7
ENDMDL
MODEL 3
REMARK VINA RESULT:      -4.8      3.172      5.476
REMARK  7 active torsions:
REMARK  status: ('A' for Active; 'I' for Inactive)
REMARK    1  A    between atoms: C_2  and  C_3 
REMARK    2  A    between atoms: C_3  and  O_6 
REMARK    3  A    between atoms: C_3  and  C_4 
REMARK    4  A    between atoms: C_7  and  O_6 
REMARK    5  A    between atoms: C_9  and  C_10 
REMARK    6  A    between atoms: N_15  and  C_14 
REMARK    7  A    between atoms: N_20  and  C_19 
REMARK       I    between atoms: C_22  and  N_20 
ROOT
ATOM      1  C   LIG d   1      -1.566  79.533 114.186  0.00  0.00     0.161 C 
ATOM      2  C   LIG d   1      -2.355  78.390 114.396  0.00  0.00     0.016 C 
ATOM      3  C   LIG d   1      -2.744  77.511 113.358  0.00  0.00     0.038 C 
ATOM      4  C   LIG d   1      -2.239  77.635 112.055  0.00  0.00     0.028 C 
ATOM      5  C   LIG d   1      -1.845  79.062 111.690  0.00  0.00    -0.047 C 
ATOM      6  C   LIG d   1      -0.914  79.622 112.791  0.00  0.00     0.091 C 
ENDROOT
BRANCH   1   7
ATOM      7  O   LIG d   1      -0.561  79.627 115.215  0.00  0.00    -0.368 OA
BRANCH   7   8
ATOM      8  C   LIG d   1      -0.828  78.894 116.436  0.00  0.00     0.119 C 
BRANCH   8   9
ATOM      9  C   LIG d   1      -1.026  79.927 117.563  0.00  0.00     0.028 C 
ATOM     10  C   LIG d   1      -2.471  79.954 118.087  0.00  0.00     0.006 C 
ENDBRANCH   8   9
BRANCH   8  11
ATOM     11  C   LIG d   1       0.384  78.058 116.860  0.00  0.00     0.028 C 
ATOM     12  C   LIG d   1       0.333  76.620 116.323  0.00  0.00     0.006 C 
ENDBRANCH   8  11
ENDBRANCH   7   8
ENDBRANCH   1   7
BRANCH   6  13
ATOM     13  N   LIG d   1      -0.549  81.043 112.555  0.00  0.00    -0.311 N 
ATOM     14  C   LIG d   1       0.522  81.419 111.858  0.00  0.00     0.210 C 
ATOM     15  C   LIG d   1       0.726  82.933 111.752  0.00  0.00     0.109 C 
ATOM     16  O   LIG d   1       1.304  80.642 111.290  0.00  0.00    -0.276 OA
ATOM     17  H   LIG d   1      -1.147  81.740 112.954  0.00  0.00     0.149 HD
ENDBRANCH   6  13
BRANCH   5  18
ATOM     18  N   LIG d   1      -1.209  79.023 110.360  0.00  0.00     0.381 N 
ATOM     19  H   LIG d   1      -0.883  78.097 110.168  0.00  0.00    -0.090 HD
ATOM     20  H   LIG d   1      -0.417  79.642 110.360  0.00  0.00    -0.090 HD
ATOM     21  H   LIG d   1      -1.861  79.305 109.662  0.00  0.00    -0.090 HD
ENDBRANCH   5  18
BRANCH   3  22
ATOM     22  C   LIG d   1      -3.678  76.519 113.611  0.00  0.00     0.382 C 
ATOM     23  O   LIG d   1      -3.336  75.475 114.217  0.00  0.00    -0.241 OA
ATOM     24  O   LIG d   1      -4.849  76.634 113.202  0.00  0.00    -0.241 OA
ENDBRANCH   3  22
TORSDOF 7
ENDMDL
MODEL 4
REMARK VINA RESULT:      -4.7      1.955      5.019
REMARK  7 active torsions:
REMARK  status: ('A' for Active; 'I' for Inactive)
REMARK    1  A    between atoms: C_2  and  C_3 
REMARK    2  A    between atoms: C_3  and  O_6 
REMARK    3  A    between atoms: C_3  and  C_4 
REMARK    4  A    between atoms: C_7  and  O_6 
REMARK    5  A    between atoms: C_9  and  C_10 
REMARK    6  A    between atoms: N_15  and  C_14 
REMARK    7  A    between atoms: N_20  and  C_19 
REMARK       I    between atoms: C_22  and  N_20 
ROOT
ATOM      1  C   LIG d   1      -1.829  75.766 114.828  0.00  0.00     0.161 C 
ATOM      2  C   LIG d   1      -1.572  75.372 116.152  0.00  0.00     0.016 C 
ATOM      3  C   LIG d   1      -0.905  76.192 117.092  0.00  0.00     0.038 C 
ATOM      4  C   LIG d   1      -0.581  77.528 116.813  0.00  0.00     0.028 C 
ATOM      5  C   LIG d   1      -0.368  77.802 115.328  0.00  0.00    -0.047 C 
ATOM      6  C   LIG d   1      -1.582  77.261 114.538  0.00  0.00     0.091 C 
ENDROOT
BRANCH   1   7
ATOM      7  O   LIG d   1      -3.174  75.400 114.462  0.00  0.00    -0.368 OA
BRANCH   7   8
ATOM      8  C   LIG d   1      -4.164  75.474 115.517  0.00  0.00     0.119 C 
BRANCH   8   9
ATOM      9  C   LIG d   1      -5.148  74.306 115.312  0.00  0.00     0.028 C 
ATOM     10  C   LIG d   1      -6.206  74.227 116.425  0.00  0.00     0.006 C 
ENDBRANCH   8   9
BRANCH   8  11
ATOM     11  C   LIG d   1      -5.012  76.744 115.397  0.00  0.00     0.028 C 
ATOM     12  C   LIG d   1      -4.699  77.775 116.492  0.00  0.00     0.006 C 
ENDBRANCH   8  11
ENDBRANCH   7   8
ENDBRANCH   1   7
BRANCH   6  13
ATOM     13  N   LIG d   1      -1.416  77.413 113.069  0.00  0.00    -0.311 N 
ATOM     14  C   LIG d   1      -2.310  78.019 112.289  0.00  0.00     0.210 C 
ATOM     15  C   LIG d   1      -1.954  78.049 110.800  0.00  0.00     0.109 C 
ATOM     16  O   LIG d   1      -3.349  78.562 112.694  0.00  0.00    -0.276 OA
ATOM     17  H   LIG d   1      -0.587  77.029 112.661  0.00  0.00     0.149 HD
ENDBRANCH   6  13
BRANCH   5  18
ATOM     18  N   LIG d   1      -0.174  79.255 115.166  0.00  0.00     0.381 N 
ATOM     19  H   LIG d   1      -0.809  79.607 114.477  0.00  0.00    -0.090 HD
ATOM     20  H   LIG d   1       0.764  79.425 114.847  0.00  0.00    -0.090 HD
ATOM     21  H   LIG d   1      -0.326  79.718 116.035  0.00  0.00    -0.090 HD
ENDBRANCH   5  18
BRANCH   3  22
ATOM     22  C   LIG d   1      -0.519  75.662 118.313  0.00  0.00     0.382 C 
ATOM     23  O   LIG d   1      -0.850  76.236 119.379  0.00  0.00    -0.241 OA
ATOM     24  O   LIG d   1       0.194  74.641 118.363  0.00  0.00    -0.241 OA
ENDBRANCH   3  22
TORSDOF 7
ENDMDL
MODEL 5
REMARK VINA RESULT:      -4.6      0.998      1.448
REMARK  7 active torsions:
REMARK  status: ('A' for Active; 'I' for Inactive)
REMARK    1  A    between atoms: C_2  and  C_3 
REMARK    2  A    between atoms: C_3  and  O_6 
REMARK    3  A    between atoms: C_3  and  C_4 
REMARK    4  A    between atoms: C_7  and  O_6 
REMARK    5  A    between atoms: C_9  and  C_10 
REMARK    6  A    between atoms: N_15  and  C_14 
REMARK    7  A    between atoms: N_20  and  C_19 
REMARK       I    between atoms: C_22  and  N_20 
ROOT
ATOM      1  C   LIG d   1      -2.921  78.024 115.844  0.00  0.00     0.161 C 
ATOM      2  C   LIG d   1      -3.159  78.787 114.690  0.00  0.00     0.016 C 
ATOM      3  C   LIG d   1      -2.415  78.646 113.496  0.00  0.00     0.038 C 
ATOM      4  C   LIG d   1      -1.474  77.620 113.326  0.00  0.00     0.028 C 
ATOM      5  C   LIG d   1      -0.847  77.150 114.634  0.00  0.00    -0.047 C 
ATOM      6  C   LIG d   1      -1.973  76.823 115.641  0.00  0.00     0.091 C 
ENDROOT
BRANCH   1   7
ATOM      7  O   LIG d   1      -4.173  77.584 116.406  0.00  0.00    -0.368 OA
BRANCH   7   8
ATOM      8  C   LIG d   1      -4.626  76.268 116.002  0.00  0.00     0.119 C 
BRANCH   8   9
ATOM      9  C   LIG d   1      -5.727  76.464 114.941  0.00  0.00     0.028 C 
ATOM     10  C   LIG d   1      -5.320  75.910 113.565  0.00  0.00     0.006 C 
ENDBRANCH   8   9
BRANCH   8  11
ATOM     11  C   LIG d   1      -5.306  75.533 117.161  0.00  0.00     0.028 C 
ATOM     12  C   LIG d   1      -6.754  75.128 116.841  0.00  0.00     0.006 C 
ENDBRANCH   8  11
ENDBRANCH   7   8
ENDBRANCH   1   7
BRANCH   6  13
ATOM     13  N   LIG d   1      -1.445  76.436 116.975  0.00  0.00    -0.311 N 
ATOM     14  C   LIG d   1      -1.280  75.171 117.360  0.00  0.00     0.210 C 
ATOM     15  C   LIG d   1      -0.742  74.993 118.783  0.00  0.00     0.109 C 
ATOM     16  O   LIG d   1      -1.498  74.181 116.646  0.00  0.00    -0.276 OA
ATOM     17  H   LIG d   1      -1.213  77.177 117.607  0.00  0.00     0.149 HD
ENDBRANCH   6  13
BRANCH   5  18
ATOM     18  N   LIG d   1       0.008  75.988 114.326  0.00  0.00     0.381 N 
ATOM     19  H   LIG d   1       0.912  76.114 114.737  0.00  0.00    -0.090 HD
ATOM     20  H   LIG d   1       0.121  75.922 113.330  0.00  0.00    -0.090 HD
ATOM     21  H   LIG d   1      -0.410  75.154 114.676  0.00  0.00    -0.090 HD
ENDBRANCH   5  18
BRANCH   3  22
ATOM     22  C   LIG d   1      -2.581  79.564 112.470  0.00  0.00     0.382 C 
ATOM     23  O   LIG d   1      -2.001  79.388 111.371  0.00  0.00    -0.241 OA
ATOM     24  O   LIG d   1      -3.267  80.589 112.644  0.00  0.00    -0.241 OA
ENDBRANCH   3  22
TORSDOF 7
ENDMDL
MODEL 6
REMARK VINA RESULT:      -4.4      2.607      4.439
REMARK  7 active torsions:
REMARK  status: ('A' for Active; 'I' for Inactive)
REMARK    1  A    between atoms: C_2  and  C_3 
REMARK    2  A    between atoms: C_3  and  O_6 
REMARK    3  A    between atoms: C_3  and  C_4 
REMARK    4  A    between atoms: C_7  and  O_6 
REMARK    5  A    between atoms: C_9  and  C_10 
REMARK    6  A    between atoms: N_15  and  C_14 
REMARK    7  A    between atoms: N_20  and  C_19 
REMARK       I    between atoms: C_22  and  N_20 
ROOT
ATOM      1  C   LIG d   1      -2.632  78.748 115.567  0.00  0.00     0.161 C 
ATOM      2  C   LIG d   1      -1.408  79.385 115.835  0.00  0.00     0.016 C 
ATOM      3  C   LIG d   1      -0.221  78.686 116.154  0.00  0.00     0.038 C 
ATOM      4  C   LIG d   1      -0.141  77.288 116.078  0.00  0.00     0.028 C 
ATOM      5  C   LIG d   1      -1.478  76.591 116.305  0.00  0.00    -0.047 C 
ATOM      6  C   LIG d   1      -2.537  77.221 115.371  0.00  0.00     0.091 C 
ENDROOT
BRANCH   1   7
ATOM      7  O   LIG d   1      -3.262  79.362 114.426  0.00  0.00    -0.368 OA
BRANCH   7   8
ATOM      8  C   LIG d   1      -2.469  79.421 113.215  0.00  0.00     0.119 C 
BRANCH   8   9
ATOM      9  C   LIG d   1      -2.691  80.809 112.583  0.00  0.00     0.028 C 
ATOM     10  C   LIG d   1      -1.387  81.429 112.055  0.00  0.00     0.006 C 
ENDBRANCH   8   9
BRANCH   8  11
ATOM     11  C   LIG d   1      -2.968  78.416 112.172  0.00  0.00     0.028 C 
ATOM     12  C   LIG d   1      -1.838  77.865 111.287  0.00  0.00     0.006 C 
ENDBRANCH   8  11
ENDBRANCH   7   8
ENDBRANCH   1   7
BRANCH   6  13
ATOM     13  N   LIG d   1      -3.893  76.654 115.588  0.00  0.00    -0.311 N 
ATOM     14  C   LIG d   1      -4.419  75.697 114.825  0.00  0.00     0.210 C 
ATOM     15  C   LIG d   1      -5.839  75.270 115.210  0.00  0.00     0.109 C 
ATOM     16  O   LIG d   1      -3.832  75.139 113.886  0.00  0.00    -0.276 OA
ATOM     17  H   LIG d   1      -4.427  77.027 116.348  0.00  0.00     0.149 HD
ENDBRANCH   6  13
BRANCH   5  18
ATOM     18  N   LIG d   1      -1.276  75.150 116.062  0.00  0.00     0.381 N 
ATOM     19  H   LIG d   1      -1.800  74.866 115.258  0.00  0.00    -0.090 HD
ATOM     20  H   LIG d   1      -1.614  74.636 116.856  0.00  0.00    -0.090 HD
ATOM     21  H   LIG d   1      -0.308  74.960 115.921  0.00  0.00    -0.090 HD
ENDBRANCH   5  18
BRANCH   3  22
ATOM     22  C   LIG d   1       0.892  79.387 116.593  0.00  0.00     0.382 C 
ATOM     23  O   LIG d   1       1.922  78.768 116.950  0.00  0.00    -0.241 OA
ATOM     24  O   LIG d   1       0.862  80.630 116.679  0.00  0.00    -0.241 OA
ENDBRANCH   3  22
TORSDOF 7
ENDMDL
MODEL 7
REMARK VINA RESULT:      -4.4      2.676      4.406
REMARK  7 active torsions:
REMARK  status: ('A' for Active; 'I' for Inactive)
REMARK    1  A    between atoms: C_2  and  C_3 
REMARK    2  A    between atoms: C_3  and  O_6 
REMARK    3  A    between atoms: C_3  and  C_4 
REMARK    4  A    between atoms: C_7  and  O_6 
REMARK    5  A    between atoms: C_9  and  C_10 
REMARK    6  A    between atoms: N_15  and  C_14 
REMARK    7  A    between atoms: N_20  and  C_19 
REMARK       I    between atoms: C_22  and  N_20 
ROOT
ATOM      1  C   LIG d   1      -2.653  77.248 116.527  0.00  0.00     0.161 C 
ATOM      2  C   LIG d   1      -3.443  76.415 115.717  0.00  0.00     0.016 C 
ATOM      3  C   LIG d   1      -3.720  76.687 114.358  0.00  0.00     0.038 C 
ATOM      4  C   LIG d   1      -3.097  77.739 113.670  0.00  0.00     0.028 C 
ATOM      5  C   LIG d   1      -2.689  78.897 114.575  0.00  0.00    -0.047 C 
ATOM      6  C   LIG d   1      -1.874  78.341 115.765  0.00  0.00     0.091 C 
ENDROOT
BRANCH   1   7
ATOM      7  O   LIG d   1      -1.751  76.448 117.317  0.00  0.00    -0.368 OA
BRANCH   7   8
ATOM      8  C   LIG d   1      -1.375  75.167 116.754  0.00  0.00     0.119 C 
BRANCH   8   9
ATOM      9  C   LIG d   1      -1.186  74.184 117.926  0.00  0.00     0.028 C 
ATOM     10  C   LIG d   1      -0.490  74.837 119.132  0.00  0.00     0.006 C 
ENDBRANCH   8   9
BRANCH   8  11
ATOM     11  C   LIG d   1      -0.011  75.241 116.062  0.00  0.00     0.028 C 
ATOM     12  C   LIG d   1      -0.115  75.170 114.531  0.00  0.00     0.006 C 
ENDBRANCH   8  11
ENDBRANCH   7   8
ENDBRANCH   1   7
BRANCH   6  13
ATOM     13  N   LIG d   1      -1.507  79.397 116.744  0.00  0.00    -0.311 N 
ATOM     14  C   LIG d   1      -0.249  79.685 117.074  0.00  0.00     0.210 C 
ATOM     15  C   LIG d   1      -0.093  80.796 118.118  0.00  0.00     0.109 C 
ATOM     16  O   LIG d   1       0.753  79.149 116.578  0.00  0.00    -0.276 OA
ATOM     17  H   LIG d   1      -2.257  79.903 117.171  0.00  0.00     0.149 HD
ENDBRANCH   6  13
BRANCH   5  18
ATOM     18  N   LIG d   1      -1.930  79.858 113.753  0.00  0.00     0.381 N 
ATOM     19  H   LIG d   1      -0.949  79.686 113.850  0.00  0.00    -0.090 HD
ATOM     20  H   LIG d   1      -2.121  80.788 114.082  0.00  0.00    -0.090 HD
ATOM     21  H   LIG d   1      -2.196  79.775 112.797  0.00  0.00    -0.090 HD
ENDBRANCH   5  18
BRANCH   3  22
ATOM     22  C   LIG d   1      -4.661  75.925 113.682  0.00  0.00     0.382 C 
ATOM     23  O   LIG d   1      -5.566  76.488 113.021  0.00  0.00    -0.241 OA
ATOM     24  O   LIG d   1      -4.642  74.682 113.762  0.00  0.00    -0.241 OA
ENDBRANCH   3  22
TORSDOF 7
ENDMDL
MODEL 8
REMARK VINA RESULT:      -4.3      2.841      3.912
REMARK  7 active torsions:
REMARK  status: ('A' for Active; 'I' for Inactive)
REMARK    1  A    between atoms: C_2  and  C_3 
REMARK    2  A    between atoms: C_3  and  O_6 
REMARK    3  A    between atoms: C_3  and  C_4 
REMARK    4  A    between atoms: C_7  and  O_6 
REMARK    5  A    between atoms: C_9  and  C_10 
REMARK    6  A    between atoms: N_15  and  C_14 
REMARK    7  A    between atoms: N_20  and  C_19 
REMARK       I    between atoms: C_22  and  N_20 
ROOT
ATOM      1  C   LIG d   1      -1.933  78.791 115.516  0.00  0.00     0.161 C 
ATOM      2  C   LIG d   1      -3.012  78.083 114.961  0.00  0.00     0.016 C 
ATOM      3  C   LIG d   1      -2.926  76.734 114.546  0.00  0.00     0.038 C 
ATOM      4  C   LIG d   1      -1.790  75.951 114.799  0.00  0.00     0.028 C 
ATOM      5  C   LIG d   1      -0.504  76.764 114.899  0.00  0.00    -0.047 C 
ATOM      6  C   LIG d   1      -0.718  77.921 115.902  0.00  0.00     0.091 C 
ENDROOT
BRANCH   1   7
ATOM      7  O   LIG d   1      -2.383  79.555 116.652  0.00  0.00    -0.368 OA
BRANCH   7   8
ATOM      8  C   LIG d   1      -2.439  78.847 117.915  0.00  0.00     0.119 C 
BRANCH   8   9
ATOM      9  C   LIG d   1      -3.909  78.844 118.379  0.00  0.00     0.028 C 
ATOM     10  C   LIG d   1      -4.743  79.938 117.691  0.00  0.00     0.006 C 
ENDBRANCH   8   9
BRANCH   8  11
ATOM     11  C   LIG d   1      -1.670  79.594 119.008  0.00  0.00     0.028 C 
ATOM     12  C   LIG d   1      -1.209  80.991 118.563  0.00  0.00     0.006 C 
ENDBRANCH   8  11
ENDBRANCH   7   8
ENDBRANCH   1   7
BRANCH   6  13
ATOM     13  N   LIG d   1       0.465  78.816 115.996  0.00  0.00    -0.311 N 
ATOM     14  C   LIG d   1       1.380  78.722 116.960  0.00  0.00     0.210 C 
ATOM     15  C   LIG d   1       2.508  79.756 116.882  0.00  0.00     0.109 C 
ATOM     16  O   LIG d   1       1.381  77.861 117.852  0.00  0.00    -0.276 OA
ATOM     17  H   LIG d   1       0.558  79.524 115.294  0.00  0.00     0.149 HD
ENDBRANCH   6  13
BRANCH   5  18
ATOM     18  N   LIG d   1       0.576  75.843 115.300  0.00  0.00     0.381 N 
ATOM     19  H   LIG d   1       0.485  75.617 116.271  0.00  0.00    -0.090 HD
ATOM     20  H   LIG d   1       1.461  76.300 115.165  0.00  0.00    -0.090 HD
ATOM     21  H   LIG d   1       0.536  75.012 114.753  0.00  0.00    -0.090 HD
ENDBRANCH   5  18
BRANCH   3  22
ATOM     22  C   LIG d   1      -3.972  76.167 113.833  0.00  0.00     0.382 C 
ATOM     23  O   LIG d   1      -4.214  74.941 113.945  0.00  0.00    -0.241 OA
ATOM     24  O   LIG d   1      -4.648  76.856 113.047  0.00  0.00    -0.241 OA
ENDBRANCH   3  22
TORSDOF 7
ENDMDL
MODEL 9
REMARK VINA RESULT:      -4.1      2.526      4.138
REMARK  7 active torsions:
REMARK  status: ('A' for Active; 'I' for Inactive)
REMARK    1  A    between atoms: C_2  and  C_3 
REMARK    2  A    between atoms: C_3  and  O_6 
REMARK    3  A    between atoms: C_3  and  C_4 
REMARK    4  A    between atoms: C_7  and  O_6 
REMARK    5  A    between atoms: C_9  and  C_10 
REMARK    6  A    between atoms: N_15  and  C_14 
REMARK    7  A    between atoms: N_20  and  C_19 
REMARK       I    between atoms: C_22  and  N_20 
ROOT
ATOM      1  C   LIG d   1      -1.566  77.916 114.627  0.00  0.00     0.161 C 
ATOM      2  C   LIG d   1      -0.747  78.968 114.184  0.00  0.00     0.016 C 
ATOM      3  C   LIG d   1      -0.890  79.587 112.921  0.00  0.00     0.038 C 
ATOM      4  C   LIG d   1      -1.967  79.295 112.070  0.00  0.00     0.028 C 
ATOM      5  C   LIG d   1      -2.522  77.887 112.258  0.00  0.00    -0.047 C 
ATOM      6  C   LIG d   1      -2.815  77.659 113.759  0.00  0.00     0.091 C 
ENDROOT
BRANCH   1   7
ATOM      7  O   LIG d   1      -1.947  78.138 115.999  0.00  0.00    -0.368 OA
BRANCH   7   8
ATOM      8  C   LIG d   1      -1.318  77.280 116.983  0.00  0.00     0.119 C 
BRANCH   8   9
ATOM      9  C   LIG d   1      -2.382  76.280 117.474  0.00  0.00     0.028 C 
ATOM     10  C   LIG d   1      -2.055  74.831 117.075  0.00  0.00     0.006 C 
ENDBRANCH   8   9
BRANCH   8  11
ATOM     11  C   LIG d   1      -0.899  78.070 118.226  0.00  0.00     0.028 C 
ATOM     12  C   LIG d   1      -0.179  77.202 119.270  0.00  0.00     0.006 C 
ENDBRANCH   8  11
ENDBRANCH   7   8
ENDBRANCH   1   7
BRANCH   6  13
ATOM     13  N   LIG d   1      -3.282  76.277 114.041  0.00  0.00    -0.311 N 
ATOM     14  C   LIG d   1      -4.568  75.939 114.115  0.00  0.00     0.210 C 
ATOM     15  C   LIG d   1      -4.832  74.464 114.436  0.00  0.00     0.109 C 
ATOM     16  O   LIG d   1      -5.516  76.713 113.912  0.00  0.00    -0.276 OA
ATOM     17  H   LIG d   1      -2.580  75.579 114.187  0.00  0.00     0.149 HD
ENDBRANCH   6  13
BRANCH   5  18
ATOM     18  N   LIG d   1      -3.723  77.765 111.410  0.00  0.00     0.381 N 
ATOM     19  H   LIG d   1      -4.536  78.012 111.937  0.00  0.00    -0.090 HD
ATOM     20  H   LIG d   1      -3.816  76.809 111.115  0.00  0.00    -0.090 HD
ATOM     21  H   LIG d   1      -3.640  78.359 110.614  0.00  0.00    -0.090 HD
ENDBRANCH   5  18
BRANCH   3  22
ATOM     22  C   LIG d   1       0.073  80.482 112.481  0.00  0.00     0.382 C 
ATOM     23  O   LIG d   1       0.126  80.801 111.269  0.00  0.00    -0.241 OA
ATOM     24  O   LIG d   1       0.918  80.941 113.273  0.00  0.00    -0.241 OA
ENDBRANCH   3  22
TORSDOF 7
ENDMDL
