MODEL 1
REMARK VINA RESULT:      -5.3      0.000      0.000
REMARK  7 active torsions:
REMARK  status: ('A' for Active; 'I' for Inactive)
REMARK    1  A    between atoms: C_2  and  C_3 
REMARK    2  A    between atoms: C_3  and  O_6 
REMARK    3  A    between atoms: C_3  and  C_4 
REMARK    4  A    between atoms: C_7  and  O_6 
REMARK    5  A    between atoms: C_9  and  C_10 
REMARK    6  A    between atoms: N_15  and  C_14 
REMARK    7  A    between atoms: N_20  and  C_19 
REMARK       I    between atoms: C_22  and  N_20 
ROOT
ATOM      1  C   LIG d   1      -1.463  76.086 115.286  0.00  0.00     0.161 C 
ATOM      2  C   LIG d   1      -1.375  75.293 116.442  0.00  0.00     0.016 C 
ATOM      3  C   LIG d   1      -0.721  75.710 117.624  0.00  0.00     0.038 C 
ATOM      4  C   LIG d   1      -0.238  77.017 117.783  0.00  0.00     0.028 C 
ATOM      5  C   LIG d   1       0.143  77.686 116.466  0.00  0.00    -0.047 C 
ATOM      6  C   LIG d   1      -1.039  77.557 115.478  0.00  0.00     0.091 C 
ENDROOT
BRANCH   1   7
ATOM      7  O   LIG d   1      -2.797  76.015 114.746  0.00  0.00    -0.368 OA
BRANCH   7   8
ATOM      8  C   LIG d   1      -3.863  75.800 115.704  0.00  0.00     0.119 C 
BRANCH   8   9
ATOM      9  C   LIG d   1      -4.891  74.858 115.048  0.00  0.00     0.028 C 
ATOM     10  C   LIG d   1      -5.947  75.621 114.230  0.00  0.00     0.006 C 
ENDBRANCH   8   9
BRANCH   8  11
ATOM     11  C   LIG d   1      -4.625  77.097 115.991  0.00  0.00     0.028 C 
ATOM     12  C   LIG d   1      -4.095  77.838 117.228  0.00  0.00     0.006 C 
ENDBRANCH   8  11
ENDBRANCH   7   8
ENDBRANCH   1   7
BRANCH   6  13
ATOM     13  N   LIG d   1      -0.719  78.111 114.136  0.00  0.00    -0.311 N 
ATOM     14  C   LIG d   1      -1.529  78.933 113.471  0.00  0.00     0.210 C 
ATOM     15  C   LIG d   1      -1.017  79.371 112.095  0.00  0.00     0.109 C 
ATOM     16  O   LIG d   1      -2.608  79.366 113.902  0.00  0.00    -0.276 OA
ATOM     17  H   LIG d   1       0.151  77.837 113.725  0.00  0.00     0.149 HD
ENDBRANCH   6  13
BRANCH   5  18
ATOM     18  N   LIG d   1       0.498  79.086 116.764  0.00  0.00     0.381 N 
ATOM     19  H   LIG d   1      -0.089  79.703 116.238  0.00  0.00    -0.090 HD
ATOM     20  H   LIG d   1       1.450  79.246 116.487  0.00  0.00    -0.090 HD
ATOM     21  H   LIG d   1       0.392  79.265 117.738  0.00  0.00    -0.090 HD
ENDBRANCH   5  18
BRANCH   3  22
ATOM     22  C   LIG d   1      -0.509  74.801 118.650  0.00  0.00     0.382 C 
ATOM     23  O   LIG d   1      -1.474  74.408 119.349  0.00  0.00    -0.241 OA
ATOM     24  O   LIG d   1       0.641  74.402 118.914  0.00  0.00    -0.241 OA
ENDBRANCH   3  22
TORSDOF 7
ENDMDL
MODEL 2
REMARK VINA RESULT:      -5.1      2.316      5.548
REMARK  7 active torsions:
REMARK  status: ('A' for Active; 'I' for Inactive)
REMARK    1  A    between atoms: C_2  and  C_3 
REMARK    2  A    between atoms: C_3  and  O_6 
REMARK    3  A    between atoms: C_3  and  C_4 
REMARK    4  A    between atoms: C_7  and  O_6 
REMARK    5  A    between atoms: C_9  and  C_10 
REMARK    6  A    between atoms: N_15  and  C_14 
REMARK    7  A    between atoms: N_20  and  C_19 
REMARK       I    between atoms: C_22  and  N_20 
ROOT
ATOM      1  C   LIG d   1      -2.648  78.208 116.158  0.00  0.00     0.161 C 
ATOM      2  C   LIG d   1      -2.916  79.029 115.050  0.00  0.00     0.016 C 
ATOM      3  C   LIG d   1      -2.346  78.823 113.773  0.00  0.00     0.038 C 
ATOM      4  C   LIG d   1      -1.582  77.685 113.477  0.00  0.00     0.028 C 
ATOM      5  C   LIG d   1      -0.873  77.099 114.693  0.00  0.00    -0.047 C 
ATOM      6  C   LIG d   1      -1.904  76.898 115.827  0.00  0.00     0.091 C 
ENDROOT
BRANCH   1   7
ATOM      7  O   LIG d   1      -3.872  77.925 116.865  0.00  0.00    -0.368 OA
BRANCH   7   8
ATOM      8  C   LIG d   1      -4.283  78.908 117.846  0.00  0.00     0.119 C 
BRANCH   8   9
ATOM      9  C   LIG d   1      -3.446  78.672 119.118  0.00  0.00     0.028 C 
ATOM     10  C   LIG d   1      -2.976  79.986 119.764  0.00  0.00     0.006 C 
ENDBRANCH   8   9
BRANCH   8  11
ATOM     11  C   LIG d   1      -5.739  78.694 118.272  0.00  0.00     0.028 C 
ATOM     12  C   LIG d   1      -6.531  80.008 118.370  0.00  0.00     0.006 C 
ENDBRANCH   8  11
ENDBRANCH   7   8
ENDBRANCH   1   7
BRANCH   6  13
ATOM     13  N   LIG d   1      -1.278  76.406 117.082  0.00  0.00    -0.311 N 
ATOM     14  C   LIG d   1      -1.152  75.114 117.381  0.00  0.00     0.210 C 
ATOM     15  C   LIG d   1      -0.495  74.825 118.734  0.00  0.00     0.109 C 
ATOM     16  O   LIG d   1      -1.493  74.180 116.640  0.00  0.00    -0.276 OA
ATOM     17  H   LIG d   1      -0.945  77.096 117.726  0.00  0.00     0.149 HD
ENDBRANCH   6  13
BRANCH   5  18
ATOM     18  N   LIG d   1      -0.227  75.842 114.269  0.00  0.00     0.381 N 
ATOM     19  H   LIG d   1      -0.584  75.561 113.378  0.00  0.00    -0.090 HD
ATOM     20  H   LIG d   1      -0.445  75.123 114.936  0.00  0.00    -0.090 HD
ATOM     21  H   LIG d   1       0.760  75.967 114.215  0.00  0.00    -0.090 HD
ENDBRANCH   5  18
BRANCH   3  22
ATOM     22  C   LIG d   1      -2.507  79.784 112.786  0.00  0.00     0.382 C 
ATOM     23  O   LIG d   1      -1.850  79.704 111.720  0.00  0.00    -0.241 OA
ATOM     24  O   LIG d   1      -3.268  80.753 112.966  0.00  0.00    -0.241 OA
ENDBRANCH   3  22
TORSDOF 7
ENDMDL
MODEL 3
REMARK VINA RESULT:      -5.0      2.382      4.548
REMARK  7 active torsions:
REMARK  status: ('A' for Active; 'I' for Inactive)
REMARK    1  A    between atoms: C_2  and  C_3 
REMARK    2  A    between atoms: C_3  and  O_6 
REMARK    3  A    between atoms: C_3  and  C_4 
REMARK    4  A    between atoms: C_7  and  O_6 
REMARK    5  A    between atoms: C_9  and  C_10 
REMARK    6  A    between atoms: N_15  and  C_14 
REMARK    7  A    between atoms: N_20  and  C_19 
REMARK       I    between atoms: C_22  and  N_20 
ROOT
ATOM      1  C   LIG d   1      -2.598  78.331 115.805  0.00  0.00     0.161 C 
ATOM      2  C   LIG d   1      -1.280  78.654 116.166  0.00  0.00     0.016 C 
ATOM      3  C   LIG d   1      -0.338  77.697 116.609  0.00  0.00     0.038 C 
ATOM      4  C   LIG d   1      -0.607  76.321 116.576  0.00  0.00     0.028 C 
ATOM      5  C   LIG d   1      -2.091  75.991 116.698  0.00  0.00    -0.047 C 
ATOM      6  C   LIG d   1      -2.876  76.820 115.656  0.00  0.00     0.091 C 
ENDROOT
BRANCH   1   7
ATOM      7  O   LIG d   1      -2.958  79.028 114.595  0.00  0.00    -0.368 OA
BRANCH   7   8
ATOM      8  C   LIG d   1      -2.192  78.689 113.413  0.00  0.00     0.119 C 
BRANCH   8   9
ATOM      9  C   LIG d   1      -1.852  80.006 112.689  0.00  0.00     0.028 C 
ATOM     10  C   LIG d   1      -3.024  81.002 112.701  0.00  0.00     0.006 C 
ENDBRANCH   8   9
BRANCH   8  11
ATOM     11  C   LIG d   1      -3.032  77.884 112.417  0.00  0.00     0.028 C 
ATOM     12  C   LIG d   1      -2.410  77.840 111.012  0.00  0.00     0.006 C 
ENDBRANCH   8  11
ENDBRANCH   7   8
ENDBRANCH   1   7
BRANCH   6  13
ATOM     13  N   LIG d   1      -4.345  76.621 115.763  0.00  0.00    -0.311 N 
ATOM     14  C   LIG d   1      -5.021  75.741 115.026  0.00  0.00     0.210 C 
ATOM     15  C   LIG d   1      -6.532  75.710 115.280  0.00  0.00     0.109 C 
ATOM     16  O   LIG d   1      -4.509  74.962 114.209  0.00  0.00    -0.276 OA
ATOM     17  H   LIG d   1      -4.836  77.190 116.424  0.00  0.00     0.149 HD
ENDBRANCH   6  13
BRANCH   5  18
ATOM     18  N   LIG d   1      -2.241  74.536 116.510  0.00  0.00     0.381 N 
ATOM     19  H   LIG d   1      -2.115  74.304 115.545  0.00  0.00    -0.090 HD
ATOM     20  H   LIG d   1      -3.171  74.267 116.780  0.00  0.00    -0.090 HD
ATOM     21  H   LIG d   1      -1.573  74.050 117.066  0.00  0.00    -0.090 HD
ENDBRANCH   5  18
BRANCH   3  22
ATOM     22  C   LIG d   1       0.876  78.118 117.130  0.00  0.00     0.382 C 
ATOM     23  O   LIG d   1       1.728  77.273 117.498  0.00  0.00    -0.241 OA
ATOM     24  O   LIG d   1       1.113  79.332 117.278  0.00  0.00    -0.241 OA
ENDBRANCH   3  22
TORSDOF 7
ENDMDL
MODEL 4
REMARK VINA RESULT:      -5.0      1.771      5.182
REMARK  7 active torsions:
REMARK  status: ('A' for Active; 'I' for Inactive)
REMARK    1  A    between atoms: C_2  and  C_3 
REMARK    2  A    between atoms: C_3  and  O_6 
REMARK    3  A    between atoms: C_3  and  C_4 
REMARK    4  A    between atoms: C_7  and  O_6 
REMARK    5  A    between atoms: C_9  and  C_10 
REMARK    6  A    between atoms: N_15  and  C_14 
REMARK    7  A    between atoms: N_20  and  C_19 
REMARK       I    between atoms: C_22  and  N_20 
ROOT
ATOM      1  C   LIG d   1      -2.274  77.967 116.141  0.00  0.00     0.161 C 
ATOM      2  C   LIG d   1      -2.682  78.816 115.099  0.00  0.00     0.016 C 
ATOM      3  C   LIG d   1      -2.221  78.691 113.768  0.00  0.00     0.038 C 
ATOM      4  C   LIG d   1      -1.432  77.607 113.355  0.00  0.00     0.028 C 
ATOM      5  C   LIG d   1      -0.588  77.010 114.477  0.00  0.00    -0.047 C 
ATOM      6  C   LIG d   1      -1.501  76.711 115.687  0.00  0.00     0.091 C 
ENDROOT
BRANCH   1   7
ATOM      7  O   LIG d   1      -3.414  77.592 116.940  0.00  0.00    -0.368 OA
BRANCH   7   8
ATOM      8  C   LIG d   1      -4.665  77.428 116.228  0.00  0.00     0.119 C 
BRANCH   8   9
ATOM      9  C   LIG d   1      -5.804  77.552 117.259  0.00  0.00     0.028 C 
ATOM     10  C   LIG d   1      -5.736  78.868 118.053  0.00  0.00     0.006 C 
ENDBRANCH   8   9
BRANCH   8  11
ATOM     11  C   LIG d   1      -4.796  76.017 115.647  0.00  0.00     0.028 C 
ATOM     12  C   LIG d   1      -6.239  75.668 115.250  0.00  0.00     0.006 C 
ENDBRANCH   8  11
ENDBRANCH   7   8
ENDBRANCH   1   7
BRANCH   6  13
ATOM     13  N   LIG d   1      -0.740  76.203 116.859  0.00  0.00    -0.311 N 
ATOM     14  C   LIG d   1      -0.961  75.014 117.417  0.00  0.00     0.210 C 
ATOM     15  C   LIG d   1      -0.079  74.695 118.628  0.00  0.00     0.109 C 
ATOM     16  O   LIG d   1      -1.781  74.180 117.004  0.00  0.00    -0.276 OA
ATOM     17  H   LIG d   1      -0.034  76.803 117.239  0.00  0.00     0.149 HD
ENDBRANCH   6  13
BRANCH   5  18
ATOM     18  N   LIG d   1       0.077  75.807 113.942  0.00  0.00     0.381 N 
ATOM     19  H   LIG d   1       0.281  75.935 112.971  0.00  0.00    -0.090 HD
ATOM     20  H   LIG d   1      -0.545  75.024 114.033  0.00  0.00    -0.090 HD
ATOM     21  H   LIG d   1       0.919  75.631 114.445  0.00  0.00    -0.090 HD
ENDBRANCH   5  18
BRANCH   3  22
ATOM     22  C   LIG d   1      -2.517  79.680 112.842  0.00  0.00     0.382 C 
ATOM     23  O   LIG d   1      -1.974  79.663 111.712  0.00  0.00    -0.241 OA
ATOM     24  O   LIG d   1      -3.287  80.613 113.139  0.00  0.00    -0.241 OA
ENDBRANCH   3  22
TORSDOF 7
ENDMDL
MODEL 5
REMARK VINA RESULT:      -4.9      2.068      4.836
REMARK  7 active torsions:
REMARK  status: ('A' for Active; 'I' for Inactive)
REMARK    1  A    between atoms: C_2  and  C_3 
REMARK    2  A    between atoms: C_3  and  O_6 
REMARK    3  A    between atoms: C_3  and  C_4 
REMARK    4  A    between atoms: C_7  and  O_6 
REMARK    5  A    between atoms: C_9  and  C_10 
REMARK    6  A    between atoms: N_15  and  C_14 
REMARK    7  A    between atoms: N_20  and  C_19 
REMARK       I    between atoms: C_22  and  N_20 
ROOT
ATOM      1  C   LIG d   1      -2.497  77.185 116.947  0.00  0.00     0.161 C 
ATOM      2  C   LIG d   1      -3.449  76.351 116.338  0.00  0.00     0.016 C 
ATOM      3  C   LIG d   1      -3.813  76.451 114.976  0.00  0.00     0.038 C 
ATOM      4  C   LIG d   1      -3.135  77.299 114.088  0.00  0.00     0.028 C 
ATOM      5  C   LIG d   1      -2.515  78.516 114.766  0.00  0.00    -0.047 C 
ATOM      6  C   LIG d   1      -1.667  78.041 115.968  0.00  0.00     0.091 C 
ENDROOT
BRANCH   1   7
ATOM      7  O   LIG d   1      -1.627  76.401 117.788  0.00  0.00    -0.368 OA
BRANCH   7   8
ATOM      8  C   LIG d   1      -1.524  74.993 117.462  0.00  0.00     0.119 C 
BRANCH   8   9
ATOM      9  C   LIG d   1      -1.337  74.224 118.784  0.00  0.00     0.028 C 
ATOM     10  C   LIG d   1       0.081  74.382 119.360  0.00  0.00     0.006 C 
ENDBRANCH   8   9
BRANCH   8  11
ATOM     11  C   LIG d   1      -0.263  74.703 116.642  0.00  0.00     0.028 C 
ATOM     12  C   LIG d   1      -0.557  74.508 115.146  0.00  0.00     0.006 C 
ENDBRANCH   8  11
ENDBRANCH   7   8
ENDBRANCH   1   7
BRANCH   6  13
ATOM     13  N   LIG d   1      -1.092  79.175 116.739  0.00  0.00    -0.311 N 
ATOM     14  C   LIG d   1       0.147  79.175 117.228  0.00  0.00     0.210 C 
ATOM     15  C   LIG d   1       0.533  80.435 118.009  0.00  0.00     0.109 C 
ATOM     16  O   LIG d   1       0.973  78.265 117.063  0.00  0.00    -0.276 OA
ATOM     17  H   LIG d   1      -1.683  79.968 116.893  0.00  0.00     0.149 HD
ENDBRANCH   6  13
BRANCH   5  18
ATOM     18  N   LIG d   1      -1.725  79.238 113.751  0.00  0.00     0.381 N 
ATOM     19  H   LIG d   1      -0.751  79.173 113.969  0.00  0.00    -0.090 HD
ATOM     20  H   LIG d   1      -1.988  80.208 113.764  0.00  0.00    -0.090 HD
ATOM     21  H   LIG d   1      -1.897  78.853 112.848  0.00  0.00    -0.090 HD
ENDBRANCH   5  18
BRANCH   3  22
ATOM     22  C   LIG d   1      -4.894  75.725 114.498  0.00  0.00     0.382 C 
ATOM     23  O   LIG d   1      -5.541  76.143 113.508  0.00  0.00    -0.241 OA
ATOM     24  O   LIG d   1      -5.257  74.681 115.073  0.00  0.00    -0.241 OA
ENDBRANCH   3  22
TORSDOF 7
ENDMDL
MODEL 6
REMARK VINA RESULT:      -4.7      2.520      4.689
REMARK  7 active torsions:
REMARK  status: ('A' for Active; 'I' for Inactive)
REMARK    1  A    between atoms: C_2  and  C_3 
REMARK    2  A    between atoms: C_3  and  O_6 
REMARK    3  A    between atoms: C_3  and  C_4 
REMARK    4  A    between atoms: C_7  and  O_6 
REMARK    5  A    between atoms: C_9  and  C_10 
REMARK    6  A    between atoms: N_15  and  C_14 
REMARK    7  A    between atoms: N_20  and  C_19 
REMARK       I    between atoms: C_22  and  N_20 
ROOT
ATOM      1  C   LIG d   1      -1.606  77.972 114.838  0.00  0.00     0.161 C 
ATOM      2  C   LIG d   1      -2.780  78.424 115.462  0.00  0.00     0.016 C 
ATOM      3  C   LIG d   1      -3.167  78.037 116.766  0.00  0.00     0.038 C 
ATOM      4  C   LIG d   1      -2.324  77.284 117.597  0.00  0.00     0.028 C 
ATOM      5  C   LIG d   1      -1.358  76.389 116.828  0.00  0.00    -0.047 C 
ATOM      6  C   LIG d   1      -0.619  77.239 115.770  0.00  0.00     0.091 C 
ENDROOT
BRANCH   1   7
ATOM      7  O   LIG d   1      -0.949  79.071 114.177  0.00  0.00    -0.368 OA
BRANCH   7   8
ATOM      8  C   LIG d   1      -1.374  79.345 112.819  0.00  0.00     0.119 C 
BRANCH   8   9
ATOM      9  C   LIG d   1      -1.443  77.997 112.076  0.00  0.00     0.028 C 
ATOM     10  C   LIG d   1      -2.633  77.923 111.104  0.00  0.00     0.006 C 
ENDBRANCH   8   9
BRANCH   8  11
ATOM     11  C   LIG d   1      -0.329  80.171 112.064  0.00  0.00     0.028 C 
ATOM     12  C   LIG d   1      -0.736  81.645 111.905  0.00  0.00     0.006 C 
ENDBRANCH   8  11
ENDBRANCH   7   8
ENDBRANCH   1   7
BRANCH   6  13
ATOM     13  N   LIG d   1       0.284  76.423 114.918  0.00  0.00    -0.311 N 
ATOM     14  C   LIG d   1      -0.011  75.192 114.505  0.00  0.00     0.210 C 
ATOM     15  C   LIG d   1       1.068  74.520 113.650  0.00  0.00     0.109 C 
ATOM     16  O   LIG d   1      -1.079  74.605 114.738  0.00  0.00    -0.276 OA
ATOM     17  H   LIG d   1       1.159  76.835 114.655  0.00  0.00     0.149 HD
ENDBRANCH   6  13
BRANCH   5  18
ATOM     18  N   LIG d   1      -0.449  75.768 117.810  0.00  0.00     0.381 N 
ATOM     19  H   LIG d   1      -0.043  76.475 118.390  0.00  0.00    -0.090 HD
ATOM     20  H   LIG d   1       0.292  75.301 117.317  0.00  0.00    -0.090 HD
ATOM     21  H   LIG d   1      -0.948  75.114 118.372  0.00  0.00    -0.090 HD
ENDBRANCH   5  18
BRANCH   3  22
ATOM     22  C   LIG d   1      -4.429  78.370 117.236  0.00  0.00     0.382 C 
ATOM     23  O   LIG d   1      -4.549  79.162 118.201  0.00  0.00    -0.241 OA
ATOM     24  O   LIG d   1      -5.446  77.854 116.735  0.00  0.00    -0.241 OA
ENDBRANCH   3  22
TORSDOF 7
ENDMDL
MODEL 7
REMARK VINA RESULT:      -4.6      2.505      4.977
REMARK  7 active torsions:
REMARK  status: ('A' for Active; 'I' for Inactive)
REMARK    1  A    between atoms: C_2  and  C_3 
REMARK    2  A    between atoms: C_3  and  O_6 
REMARK    3  A    between atoms: C_3  and  C_4 
REMARK    4  A    between atoms: C_7  and  O_6 
REMARK    5  A    between atoms: C_9  and  C_10 
REMARK    6  A    between atoms: N_15  and  C_14 
REMARK    7  A    between atoms: N_20  and  C_19 
REMARK       I    between atoms: C_22  and  N_20 
ROOT
ATOM      1  C   LIG d   1      -1.151  78.192 114.600  0.00  0.00     0.161 C 
ATOM      2  C   LIG d   1      -2.288  77.512 114.132  0.00  0.00     0.016 C 
ATOM      3  C   LIG d   1      -3.222  76.878 114.983  0.00  0.00     0.038 C 
ATOM      4  C   LIG d   1      -3.162  77.011 116.379  0.00  0.00     0.028 C 
ATOM      5  C   LIG d   1      -1.752  77.262 116.903  0.00  0.00    -0.047 C 
ATOM      6  C   LIG d   1      -1.129  78.442 116.123  0.00  0.00     0.091 C 
ENDROOT
BRANCH   1   7
ATOM      7  O   LIG d   1      -0.996  79.434 113.886  0.00  0.00    -0.368 OA
BRANCH   7   8
ATOM      8  C   LIG d   1      -1.736  79.553 112.646  0.00  0.00     0.119 C 
BRANCH   8   9
ATOM      9  C   LIG d   1      -0.712  79.571 111.495  0.00  0.00     0.028 C 
ATOM     10  C   LIG d   1      -1.008  78.501 110.430  0.00  0.00     0.006 C 
ENDBRANCH   8   9
BRANCH   8  11
ATOM     11  C   LIG d   1      -2.465  80.897 112.561  0.00  0.00     0.028 C 
ATOM     12  C   LIG d   1      -1.539  82.053 112.149  0.00  0.00     0.006 C 
ENDBRANCH   8  11
ENDBRANCH   7   8
ENDBRANCH   1   7
BRANCH   6  13
ATOM     13  N   LIG d   1       0.281  78.700 116.516  0.00  0.00    -0.311 N 
ATOM     14  C   LIG d   1       0.659  79.751 117.241  0.00  0.00     0.210 C 
ATOM     15  C   LIG d   1       2.163  79.839 117.517  0.00  0.00     0.109 C 
ATOM     16  O   LIG d   1      -0.112  80.602 117.709  0.00  0.00    -0.276 OA
ATOM     17  H   LIG d   1       0.969  78.042 116.205  0.00  0.00     0.149 HD
ENDBRANCH   6  13
BRANCH   5  18
ATOM     18  N   LIG d   1      -1.855  77.518 118.352  0.00  0.00     0.381 N 
ATOM     19  H   LIG d   1      -1.283  78.300 118.600  0.00  0.00    -0.090 HD
ATOM     20  H   LIG d   1      -1.519  76.712 118.849  0.00  0.00    -0.090 HD
ATOM     21  H   LIG d   1      -2.803  77.698 118.601  0.00  0.00    -0.090 HD
ENDBRANCH   5  18
BRANCH   3  22
ATOM     22  C   LIG d   1      -4.207  76.068 114.441  0.00  0.00     0.382 C 
ATOM     23  O   LIG d   1      -4.424  74.932 114.928  0.00  0.00    -0.241 OA
ATOM     24  O   LIG d   1      -4.852  76.440 113.442  0.00  0.00    -0.241 OA
ENDBRANCH   3  22
TORSDOF 7
ENDMDL
MODEL 8
REMARK VINA RESULT:      -4.5      2.416      5.896
REMARK  7 active torsions:
REMARK  status: ('A' for Active; 'I' for Inactive)
REMARK    1  A    between atoms: C_2  and  C_3 
REMARK    2  A    between atoms: C_3  and  O_6 
REMARK    3  A    between atoms: C_3  and  C_4 
REMARK    4  A    between atoms: C_7  and  O_6 
REMARK    5  A    between atoms: C_9  and  C_10 
REMARK    6  A    between atoms: N_15  and  C_14 
REMARK    7  A    between atoms: N_20  and  C_19 
REMARK       I    between atoms: C_22  and  N_20 
ROOT
ATOM      1  C   LIG d   1      -0.172  77.639 117.079  0.00  0.00     0.161 C 
ATOM      2  C   LIG d   1      -0.745  78.365 116.021  0.00  0.00     0.016 C 
ATOM      3  C   LIG d   1      -1.633  77.797 115.079  0.00  0.00     0.038 C 
ATOM      4  C   LIG d   1      -2.129  76.493 115.220  0.00  0.00     0.028 C 
ATOM      5  C   LIG d   1      -1.190  75.566 115.984  0.00  0.00    -0.047 C 
ATOM      6  C   LIG d   1      -0.788  76.244 117.314  0.00  0.00     0.091 C 
ENDROOT
BRANCH   1   7
ATOM      7  O   LIG d   1      -0.220  78.419 118.290  0.00  0.00    -0.368 OA
BRANCH   7   8
ATOM      8  C   LIG d   1      -1.236  79.451 118.343  0.00  0.00     0.119 C 
BRANCH   8   9
ATOM      9  C   LIG d   1      -0.577  80.720 118.917  0.00  0.00     0.028 C 
ATOM     10  C   LIG d   1       0.623  81.189 118.077  0.00  0.00     0.006 C 
ENDBRANCH   8   9
BRANCH   8  11
ATOM     11  C   LIG d   1      -2.347  79.088 119.333  0.00  0.00     0.028 C 
ATOM     12  C   LIG d   1      -3.738  79.054 118.680  0.00  0.00     0.006 C 
ENDBRANCH   8  11
ENDBRANCH   7   8
ENDBRANCH   1   7
BRANCH   6  13
ATOM     13  N   LIG d   1       0.197  75.441 118.085  0.00  0.00    -0.311 N 
ATOM     14  C   LIG d   1      -0.041  74.965 119.306  0.00  0.00     0.210 C 
ATOM     15  C   LIG d   1       1.117  74.180 119.930  0.00  0.00     0.109 C 
ATOM     16  O   LIG d   1      -1.112  75.092 119.918  0.00  0.00    -0.276 OA
ATOM     17  H   LIG d   1       1.081  75.264 117.650  0.00  0.00     0.149 HD
ENDBRANCH   6  13
BRANCH   5  18
ATOM     18  N   LIG d   1      -1.890  74.283 116.177  0.00  0.00     0.381 N 
ATOM     19  H   LIG d   1      -1.997  74.099 117.155  0.00  0.00    -0.090 HD
ATOM     20  H   LIG d   1      -1.335  73.546 115.778  0.00  0.00    -0.090 HD
ATOM     21  H   LIG d   1      -2.783  74.311 115.737  0.00  0.00    -0.090 HD
ENDBRANCH   5  18
BRANCH   3  22
ATOM     22  C   LIG d   1      -2.002  78.525 113.957  0.00  0.00     0.382 C 
ATOM     23  O   LIG d   1      -1.420  78.328 112.863  0.00  0.00    -0.241 OA
ATOM     24  O   LIG d   1      -2.878  79.406 114.036  0.00  0.00    -0.241 OA
ENDBRANCH   3  22
TORSDOF 7
ENDMDL
MODEL 9
REMARK VINA RESULT:      -4.1      2.071      4.996
REMARK  7 active torsions:
REMARK  status: ('A' for Active; 'I' for Inactive)
REMARK    1  A    between atoms: C_2  and  C_3 
REMARK    2  A    between atoms: C_3  and  O_6 
REMARK    3  A    between atoms: C_3  and  C_4 
REMARK    4  A    between atoms: C_7  and  O_6 
REMARK    5  A    between atoms: C_9  and  C_10 
REMARK    6  A    between atoms: N_15  and  C_14 
REMARK    7  A    between atoms: N_20  and  C_19 
REMARK       I    between atoms: C_22  and  N_20 
ROOT
ATOM      1  C   LIG d   1      -1.827  77.336 116.875  0.00  0.00     0.161 C 
ATOM      2  C   LIG d   1      -2.880  76.618 116.284  0.00  0.00     0.016 C 
ATOM      3  C   LIG d   1      -3.215  76.714 114.914  0.00  0.00     0.038 C 
ATOM      4  C   LIG d   1      -2.419  77.425 114.004  0.00  0.00     0.028 C 
ATOM      5  C   LIG d   1      -1.642  78.570 114.645  0.00  0.00    -0.047 C 
ATOM      6  C   LIG d   1      -0.878  78.031 115.876  0.00  0.00     0.091 C 
ENDROOT
BRANCH   1   7
ATOM      7  O   LIG d   1      -1.081  76.473 117.757  0.00  0.00    -0.368 OA
BRANCH   7   8
ATOM      8  C   LIG d   1      -1.530  76.428 119.133  0.00  0.00     0.119 C 
BRANCH   8   9
ATOM      9  C   LIG d   1      -0.861  77.600 119.877  0.00  0.00     0.028 C 
ATOM     10  C   LIG d   1      -1.757  78.849 119.930  0.00  0.00     0.006 C 
ENDBRANCH   8   9
BRANCH   8  11
ATOM     11  C   LIG d   1      -1.034  75.163 119.840  0.00  0.00     0.028 C 
ATOM     12  C   LIG d   1       0.474  74.930 119.654  0.00  0.00     0.006 C 
ENDBRANCH   8  11
ENDBRANCH   7   8
ENDBRANCH   1   7
BRANCH   6  13
ATOM     13  N   LIG d   1      -0.158  79.104 116.611  0.00  0.00    -0.311 N 
ATOM     14  C   LIG d   1       1.002  78.912 117.237  0.00  0.00     0.210 C 
ATOM     15  C   LIG d   1       1.563  80.146 117.951  0.00  0.00     0.109 C 
ATOM     16  O   LIG d   1       1.635  77.846 117.243  0.00  0.00    -0.276 OA
ATOM     17  H   LIG d   1      -0.586  80.009 116.631  0.00  0.00     0.149 HD
ENDBRANCH   6  13
BRANCH   5  18
ATOM     18  N   LIG d   1      -0.751  79.136 113.614  0.00  0.00     0.381 N 
ATOM     19  H   LIG d   1       0.013  78.513 113.448  0.00  0.00    -0.090 HD
ATOM     20  H   LIG d   1      -0.380  80.008 113.949  0.00  0.00    -0.090 HD
ATOM     21  H   LIG d   1      -1.258  79.285 112.770  0.00  0.00    -0.090 HD
ENDBRANCH   5  18
BRANCH   3  22
ATOM     22  C   LIG d   1      -4.382  76.126 114.449  0.00  0.00     0.382 C 
ATOM     23  O   LIG d   1      -4.854  76.465 113.337  0.00  0.00    -0.241 OA
ATOM     24  O   LIG d   1      -4.992  75.294 115.147  0.00  0.00    -0.241 OA
ENDBRANCH   3  22
TORSDOF 7
ENDMDL
