MODEL 1
REMARK VINA RESULT:      -5.1      0.000      0.000
REMARK  7 active torsions:
REMARK  status: ('A' for Active; 'I' for Inactive)
REMARK    1  A    between atoms: C_2  and  C_3 
REMARK    2  A    between atoms: C_3  and  O_6 
REMARK    3  A    between atoms: C_3  and  C_4 
REMARK    4  A    between atoms: C_7  and  O_6 
REMARK    5  A    between atoms: C_9  and  C_10 
REMARK    6  A    between atoms: N_15  and  C_14 
REMARK    7  A    between atoms: N_20  and  C_19 
REMARK       I    between atoms: C_22  and  N_20 
ROOT
ATOM      1  C   LIG d   1      -2.760  79.832 114.960  0.00  0.00     0.161 C 
ATOM      2  C   LIG d   1      -2.446  81.043 114.321  0.00  0.00     0.016 C 
ATOM      3  C   LIG d   1      -1.856  81.115 113.037  0.00  0.00     0.038 C 
ATOM      4  C   LIG d   1      -1.679  79.976 112.238  0.00  0.00     0.028 C 
ATOM      5  C   LIG d   1      -1.516  78.691 113.042  0.00  0.00    -0.047 C 
ATOM      6  C   LIG d   1      -2.677  78.583 114.057  0.00  0.00     0.091 C 
ENDROOT
BRANCH   1   7
ATOM      7  O   LIG d   1      -4.064  79.925 115.567  0.00  0.00    -0.368 OA
BRANCH   7   8
ATOM      8  C   LIG d   1      -4.086  80.172 116.995  0.00  0.00     0.119 C 
BRANCH   8   9
ATOM      9  C   LIG d   1      -5.175  79.268 117.604  0.00  0.00     0.028 C 
ATOM     10  C   LIG d   1      -5.628  78.161 116.638  0.00  0.00     0.006 C 
ENDBRANCH   8   9
BRANCH   8  11
ATOM     11  C   LIG d   1      -4.528  81.605 117.305  0.00  0.00     0.028 C 
ATOM     12  C   LIG d   1      -6.020  81.706 117.657  0.00  0.00     0.006 C 
ENDBRANCH   8  11
ENDBRANCH   7   8
ENDBRANCH   1   7
BRANCH   6  13
ATOM     13  N   LIG d   1      -2.548  77.396 114.942  0.00  0.00    -0.311 N 
ATOM     14  C   LIG d   1      -3.069  76.205 114.652  0.00  0.00     0.210 C 
ATOM     15  C   LIG d   1      -2.836  75.123 115.710  0.00  0.00     0.109 C 
ATOM     16  O   LIG d   1      -3.673  75.934 113.603  0.00  0.00    -0.276 OA
ATOM     17  H   LIG d   1      -2.046  77.519 115.800  0.00  0.00     0.149 HD
ENDBRANCH   6  13
BRANCH   5  18
ATOM     18  N   LIG d   1      -1.479  77.568 112.085  0.00  0.00     0.381 N 
ATOM     19  H   LIG d   1      -1.663  77.905 111.161  0.00  0.00    -0.090 HD
ATOM     20  H   LIG d   1      -2.197  76.909 112.330  0.00  0.00    -0.090 HD
ATOM     21  H   LIG d   1      -0.587  77.125 112.114  0.00  0.00    -0.090 HD
ENDBRANCH   5  18
BRANCH   3  22
ATOM     22  C   LIG d   1      -1.400  82.334 112.558  0.00  0.00     0.382 C 
ATOM     23  O   LIG d   1      -1.186  83.279 113.354  0.00  0.00    -0.241 OA
ATOM     24  O   LIG d   1      -1.243  82.513 111.336  0.00  0.00    -0.241 OA
ENDBRANCH   3  22
TORSDOF 7
ENDMDL
MODEL 2
REMARK VINA RESULT:      -5.0      3.298      7.169
REMARK  7 active torsions:
REMARK  status: ('A' for Active; 'I' for Inactive)
REMARK    1  A    between atoms: C_2  and  C_3 
REMARK    2  A    between atoms: C_3  and  O_6 
REMARK    3  A    between atoms: C_3  and  C_4 
REMARK    4  A    between atoms: C_7  and  O_6 
REMARK    5  A    between atoms: C_9  and  C_10 
REMARK    6  A    between atoms: N_15  and  C_14 
REMARK    7  A    between atoms: N_20  and  C_19 
REMARK       I    between atoms: C_22  and  N_20 
ROOT
ATOM      1  C   LIG d   1      -0.344  80.925 112.022  0.00  0.00     0.161 C 
ATOM      2  C   LIG d   1      -1.089  79.765 111.748  0.00  0.00     0.016 C 
ATOM      3  C   LIG d   1      -2.095  79.266 112.606  0.00  0.00     0.038 C 
ATOM      4  C   LIG d   1      -2.532  79.981 113.731  0.00  0.00     0.028 C 
ATOM      5  C   LIG d   1      -1.464  80.898 114.318  0.00  0.00    -0.047 C 
ATOM      6  C   LIG d   1      -0.883  81.778 113.189  0.00  0.00     0.091 C 
ENDROOT
BRANCH   1   7
ATOM      7  O   LIG d   1      -0.228  81.724 110.828  0.00  0.00    -0.368 OA
BRANCH   7   8
ATOM      8  C   LIG d   1       0.946  81.486 110.013  0.00  0.00     0.119 C 
BRANCH   8   9
ATOM      9  C   LIG d   1       2.056  80.957 110.943  0.00  0.00     0.028 C 
ATOM     10  C   LIG d   1       3.335  80.583 110.176  0.00  0.00     0.006 C 
ENDBRANCH   8   9
BRANCH   8  11
ATOM     11  C   LIG d   1       1.494  82.792 109.430  0.00  0.00     0.028 C 
ATOM     12  C   LIG d   1       0.910  84.040 110.111  0.00  0.00     0.006 C 
ENDBRANCH   8  11
ENDBRANCH   7   8
ENDBRANCH   1   7
BRANCH   6  13
ATOM     13  N   LIG d   1       0.227  82.646 113.661  0.00  0.00    -0.311 N 
ATOM     14  C   LIG d   1       0.164  83.977 113.672  0.00  0.00     0.210 C 
ATOM     15  C   LIG d   1       1.427  84.680 114.179  0.00  0.00     0.109 C 
ATOM     16  O   LIG d   1      -0.830  84.640 113.340  0.00  0.00    -0.276 OA
ATOM     17  H   LIG d   1       1.060  82.190 113.977  0.00  0.00     0.149 HD
ENDBRANCH   6  13
BRANCH   5  18
ATOM     18  N   LIG d   1      -2.094  81.682 115.397  0.00  0.00     0.381 N 
ATOM     19  H   LIG d   1      -3.084  81.719 115.255  0.00  0.00    -0.090 HD
ATOM     20  H   LIG d   1      -1.736  82.621 115.368  0.00  0.00    -0.090 HD
ATOM     21  H   LIG d   1      -1.893  81.269 116.281  0.00  0.00    -0.090 HD
ENDBRANCH   5  18
BRANCH   3  22
ATOM     22  C   LIG d   1      -2.648  78.017 112.363  0.00  0.00     0.382 C 
ATOM     23  O   LIG d   1      -2.065  76.984 112.770  0.00  0.00    -0.241 OA
ATOM     24  O   LIG d   1      -3.699  77.909 111.704  0.00  0.00    -0.241 OA
ENDBRANCH   3  22
TORSDOF 7
ENDMDL
MODEL 3
REMARK VINA RESULT:      -5.0      2.990      5.235
REMARK  7 active torsions:
REMARK  status: ('A' for Active; 'I' for Inactive)
REMARK    1  A    between atoms: C_2  and  C_3 
REMARK    2  A    between atoms: C_3  and  O_6 
REMARK    3  A    between atoms: C_3  and  C_4 
REMARK    4  A    between atoms: C_7  and  O_6 
REMARK    5  A    between atoms: C_9  and  C_10 
REMARK    6  A    between atoms: N_15  and  C_14 
REMARK    7  A    between atoms: N_20  and  C_19 
REMARK       I    between atoms: C_22  and  N_20 
ROOT
ATOM      1  C   LIG d   1       0.742  81.308 113.610  0.00  0.00     0.161 C 
ATOM      2  C   LIG d   1       1.716  81.411 112.603  0.00  0.00     0.016 C 
ATOM      3  C   LIG d   1       1.540  80.902 111.295  0.00  0.00     0.038 C 
ATOM      4  C   LIG d   1       0.311  80.384 110.860  0.00  0.00     0.028 C 
ATOM      5  C   LIG d   1      -0.534  79.801 111.987  0.00  0.00    -0.047 C 
ATOM      6  C   LIG d   1      -0.647  80.846 113.122  0.00  0.00     0.091 C 
ENDROOT
BRANCH   1   7
ATOM      7  O   LIG d   1       0.634  82.560 114.316  0.00  0.00    -0.368 OA
BRANCH   7   8
ATOM      8  C   LIG d   1      -0.376  83.479 113.832  0.00  0.00     0.119 C 
BRANCH   8   9
ATOM      9  C   LIG d   1       0.345  84.582 113.033  0.00  0.00     0.028 C 
ATOM     10  C   LIG d   1      -0.062  84.594 111.550  0.00  0.00     0.006 C 
ENDBRANCH   8   9
BRANCH   8  11
ATOM     11  C   LIG d   1      -1.070  84.204 114.989  0.00  0.00     0.028 C 
ATOM     12  C   LIG d   1      -0.851  83.511 116.343  0.00  0.00     0.006 C 
ENDBRANCH   8  11
ENDBRANCH   7   8
ENDBRANCH   1   7
BRANCH   6  13
ATOM     13  N   LIG d   1      -1.388  80.325 114.300  0.00  0.00    -0.311 N 
ATOM     14  C   LIG d   1      -2.613  80.727 114.632  0.00  0.00     0.210 C 
ATOM     15  C   LIG d   1      -3.187  80.078 115.896  0.00  0.00     0.109 C 
ATOM     16  O   LIG d   1      -3.292  81.537 113.983  0.00  0.00    -0.276 OA
ATOM     17  H   LIG d   1      -0.923  79.641 114.865  0.00  0.00     0.149 HD
ENDBRANCH   6  13
BRANCH   5  18
ATOM     18  N   LIG d   1      -1.841  79.425 111.416  0.00  0.00     0.381 N 
ATOM     19  H   LIG d   1      -2.505  80.154 111.580  0.00  0.00    -0.090 HD
ATOM     20  H   LIG d   1      -2.168  78.592 111.873  0.00  0.00    -0.090 HD
ATOM     21  H   LIG d   1      -1.751  79.262 110.437  0.00  0.00    -0.090 HD
ENDBRANCH   5  18
BRANCH   3  22
ATOM     22  C   LIG d   1       2.615  80.871 110.420  0.00  0.00     0.382 C 
ATOM     23  O   LIG d   1       2.788  79.877 109.674  0.00  0.00    -0.241 OA
ATOM     24  O   LIG d   1       3.439  81.804 110.398  0.00  0.00    -0.241 OA
ENDBRANCH   3  22
TORSDOF 7
ENDMDL
MODEL 4
REMARK VINA RESULT:      -4.9      2.506      3.438
REMARK  7 active torsions:
REMARK  status: ('A' for Active; 'I' for Inactive)
REMARK    1  A    between atoms: C_2  and  C_3 
REMARK    2  A    between atoms: C_3  and  O_6 
REMARK    3  A    between atoms: C_3  and  C_4 
REMARK    4  A    between atoms: C_7  and  O_6 
REMARK    5  A    between atoms: C_9  and  C_10 
REMARK    6  A    between atoms: N_15  and  C_14 
REMARK    7  A    between atoms: N_20  and  C_19 
REMARK       I    between atoms: C_22  and  N_20 
ROOT
ATOM      1  C   LIG d   1      -2.388  78.236 114.615  0.00  0.00     0.161 C 
ATOM      2  C   LIG d   1      -2.710  79.198 113.643  0.00  0.00     0.016 C 
ATOM      3  C   LIG d   1      -1.874  80.293 113.325  0.00  0.00     0.038 C 
ATOM      4  C   LIG d   1      -0.581  80.416 113.854  0.00  0.00     0.028 C 
ATOM      5  C   LIG d   1      -0.416  79.746 115.214  0.00  0.00    -0.047 C 
ATOM      6  C   LIG d   1      -0.932  78.292 115.122  0.00  0.00     0.091 C 
ENDROOT
BRANCH   1   7
ATOM      7  O   LIG d   1      -2.695  76.918 114.118  0.00  0.00    -0.368 OA
BRANCH   7   8
ATOM      8  C   LIG d   1      -3.664  76.159 114.882  0.00  0.00     0.119 C 
BRANCH   8   9
ATOM      9  C   LIG d   1      -4.806  75.768 113.923  0.00  0.00     0.028 C 
ATOM     10  C   LIG d   1      -5.030  74.248 113.866  0.00  0.00     0.006 C 
ENDBRANCH   8   9
BRANCH   8  11
ATOM     11  C   LIG d   1      -4.321  77.022 115.963  0.00  0.00     0.028 C 
ATOM     12  C   LIG d   1      -5.848  77.108 115.811  0.00  0.00     0.006 C 
ENDBRANCH   8  11
ENDBRANCH   7   8
ENDBRANCH   1   7
BRANCH   6  13
ATOM     13  N   LIG d   1      -0.885  77.591 116.432  0.00  0.00    -0.311 N 
ATOM     14  C   LIG d   1      -0.360  76.378 116.596  0.00  0.00     0.210 C 
ATOM     15  C   LIG d   1      -0.432  75.830 118.024  0.00  0.00     0.109 C 
ATOM     16  O   LIG d   1       0.187  75.717 115.700  0.00  0.00    -0.276 OA
ATOM     17  H   LIG d   1      -1.279  78.068 117.219  0.00  0.00     0.149 HD
ENDBRANCH   6  13
BRANCH   5  18
ATOM     18  N   LIG d   1       1.010  79.832 115.583  0.00  0.00     0.381 N 
ATOM     19  H   LIG d   1       1.104  79.809 116.578  0.00  0.00    -0.090 HD
ATOM     20  H   LIG d   1       1.379  80.705 115.251  0.00  0.00    -0.090 HD
ATOM     21  H   LIG d   1       1.513  79.074 115.176  0.00  0.00    -0.090 HD
ENDBRANCH   5  18
BRANCH   3  22
ATOM     22  C   LIG d   1      -2.347  81.301 112.498  0.00  0.00     0.382 C 
ATOM     23  O   LIG d   1      -3.582  81.487 112.380  0.00  0.00    -0.241 OA
ATOM     24  O   LIG d   1      -1.555  81.996 111.834  0.00  0.00    -0.241 OA
ENDBRANCH   3  22
TORSDOF 7
ENDMDL
MODEL 5
REMARK VINA RESULT:      -4.9      2.782      3.391
REMARK  7 active torsions:
REMARK  status: ('A' for Active; 'I' for Inactive)
REMARK    1  A    between atoms: C_2  and  C_3 
REMARK    2  A    between atoms: C_3  and  O_6 
REMARK    3  A    between atoms: C_3  and  C_4 
REMARK    4  A    between atoms: C_7  and  O_6 
REMARK    5  A    between atoms: C_9  and  C_10 
REMARK    6  A    between atoms: N_15  and  C_14 
REMARK    7  A    between atoms: N_20  and  C_19 
REMARK       I    between atoms: C_22  and  N_20 
ROOT
ATOM      1  C   LIG d   1      -0.665  80.429 115.711  0.00  0.00     0.161 C 
ATOM      2  C   LIG d   1      -1.343  81.218 114.767  0.00  0.00     0.016 C 
ATOM      3  C   LIG d   1      -1.994  80.684 113.631  0.00  0.00     0.038 C 
ATOM      4  C   LIG d   1      -2.140  79.302 113.441  0.00  0.00     0.028 C 
ATOM      5  C   LIG d   1      -1.038  78.480 114.101  0.00  0.00    -0.047 C 
ATOM      6  C   LIG d   1      -0.908  78.911 115.580  0.00  0.00     0.091 C 
ENDROOT
BRANCH   1   7
ATOM      7  O   LIG d   1      -0.987  80.876 117.043  0.00  0.00    -0.368 OA
BRANCH   7   8
ATOM      8  C   LIG d   1      -1.707  82.130 117.138  0.00  0.00     0.119 C 
BRANCH   8   9
ATOM      9  C   LIG d   1      -0.835  83.102 117.956  0.00  0.00     0.028 C 
ATOM     10  C   LIG d   1       0.105  83.935 117.069  0.00  0.00     0.006 C 
ENDBRANCH   8   9
BRANCH   8  11
ATOM     11  C   LIG d   1      -3.000  81.970 117.942  0.00  0.00     0.028 C 
ATOM     12  C   LIG d   1      -4.207  81.605 117.063  0.00  0.00     0.006 C 
ENDBRANCH   8  11
ENDBRANCH   7   8
ENDBRANCH   1   7
BRANCH   6  13
ATOM     13  N   LIG d   1       0.205  78.216 116.277  0.00  0.00    -0.311 N 
ATOM     14  C   LIG d   1       0.048  77.086 116.964  0.00  0.00     0.210 C 
ATOM     15  C   LIG d   1       1.321  76.546 117.623  0.00  0.00     0.109 C 
ATOM     16  O   LIG d   1      -1.019  76.461 117.063  0.00  0.00    -0.276 OA
ATOM     17  H   LIG d   1       1.112  78.637 116.222  0.00  0.00     0.149 HD
ENDBRANCH   6  13
BRANCH   5  18
ATOM     18  N   LIG d   1      -1.388  77.056 113.943  0.00  0.00     0.381 N 
ATOM     19  H   LIG d   1      -2.331  76.904 114.242  0.00  0.00    -0.090 HD
ATOM     20  H   LIG d   1      -0.780  76.505 114.523  0.00  0.00    -0.090 HD
ATOM     21  H   LIG d   1      -1.286  76.784 112.990  0.00  0.00    -0.090 HD
ENDBRANCH   5  18
BRANCH   3  22
ATOM     22  C   LIG d   1      -2.474  81.538 112.649  0.00  0.00     0.382 C 
ATOM     23  O   LIG d   1      -3.683  81.497 112.318  0.00  0.00    -0.241 OA
ATOM     24  O   LIG d   1      -1.702  82.318 112.059  0.00  0.00    -0.241 OA
ENDBRANCH   3  22
TORSDOF 7
ENDMDL
MODEL 6
REMARK VINA RESULT:      -4.9      3.132      7.029
REMARK  7 active torsions:
REMARK  status: ('A' for Active; 'I' for Inactive)
REMARK    1  A    between atoms: C_2  and  C_3 
REMARK    2  A    between atoms: C_3  and  O_6 
REMARK    3  A    between atoms: C_3  and  C_4 
REMARK    4  A    between atoms: C_7  and  O_6 
REMARK    5  A    between atoms: C_9  and  C_10 
REMARK    6  A    between atoms: N_15  and  C_14 
REMARK    7  A    between atoms: N_20  and  C_19 
REMARK       I    between atoms: C_22  and  N_20 
ROOT
ATOM      1  C   LIG d   1      -0.636  80.974 112.363  0.00  0.00     0.161 C 
ATOM      2  C   LIG d   1      -1.251  79.764 112.005  0.00  0.00     0.016 C 
ATOM      3  C   LIG d   1      -2.225  79.120 112.803  0.00  0.00     0.038 C 
ATOM      4  C   LIG d   1      -2.763  79.725 113.948  0.00  0.00     0.028 C 
ATOM      5  C   LIG d   1      -1.810  80.710 114.617  0.00  0.00    -0.047 C 
ATOM      6  C   LIG d   1      -1.290  81.705 113.555  0.00  0.00     0.091 C 
ENDROOT
BRANCH   1   7
ATOM      7  O   LIG d   1      -0.568  81.846 111.218  0.00  0.00    -0.368 OA
BRANCH   7   8
ATOM      8  C   LIG d   1       0.761  82.161 110.734  0.00  0.00     0.119 C 
BRANCH   8   9
ATOM      9  C   LIG d   1       0.718  83.589 110.157  0.00  0.00     0.028 C 
ATOM     10  C   LIG d   1      -0.342  84.467 110.844  0.00  0.00     0.006 C 
ENDBRANCH   8   9
BRANCH   8  11
ATOM     11  C   LIG d   1       1.154  81.261 109.558  0.00  0.00     0.028 C 
ATOM     12  C   LIG d   1       2.425  80.442 109.833  0.00  0.00     0.006 C 
ENDBRANCH   8  11
ENDBRANCH   7   8
ENDBRANCH   1   7
BRANCH   6  13
ATOM     13  N   LIG d   1      -0.287  82.651 114.108  0.00  0.00    -0.311 N 
ATOM     14  C   LIG d   1      -0.599  83.855 114.585  0.00  0.00     0.210 C 
ATOM     15  C   LIG d   1       0.589  84.680 115.089  0.00  0.00     0.109 C 
ATOM     16  O   LIG d   1      -1.752  84.306 114.667  0.00  0.00    -0.276 OA
ATOM     17  H   LIG d   1       0.669  82.354 114.108  0.00  0.00     0.149 HD
ENDBRANCH   6  13
BRANCH   5  18
ATOM     18  N   LIG d   1      -2.546  81.367 115.714  0.00  0.00     0.381 N 
ATOM     19  H   LIG d   1      -3.506  81.087 115.693  0.00  0.00    -0.090 HD
ATOM     20  H   LIG d   1      -2.505  82.362 115.582  0.00  0.00    -0.090 HD
ATOM     21  H   LIG d   1      -2.141  81.124 116.591  0.00  0.00    -0.090 HD
ENDBRANCH   5  18
BRANCH   3  22
ATOM     22  C   LIG d   1      -2.642  77.838 112.477  0.00  0.00     0.382 C 
ATOM     23  O   LIG d   1      -3.675  77.672 111.784  0.00  0.00    -0.241 OA
ATOM     24  O   LIG d   1      -2.023  76.845 112.904  0.00  0.00    -0.241 OA
ENDBRANCH   3  22
TORSDOF 7
ENDMDL
MODEL 7
REMARK VINA RESULT:      -4.8      0.819      1.734
REMARK  7 active torsions:
REMARK  status: ('A' for Active; 'I' for Inactive)
REMARK    1  A    between atoms: C_2  and  C_3 
REMARK    2  A    between atoms: C_3  and  O_6 
REMARK    3  A    between atoms: C_3  and  C_4 
REMARK    4  A    between atoms: C_7  and  O_6 
REMARK    5  A    between atoms: C_9  and  C_10 
REMARK    6  A    between atoms: N_15  and  C_14 
REMARK    7  A    between atoms: N_20  and  C_19 
REMARK       I    between atoms: C_22  and  N_20 
ROOT
ATOM      1  C   LIG d   1      -2.795  79.840 115.063  0.00  0.00     0.161 C 
ATOM      2  C   LIG d   1      -2.493  81.068 114.451  0.00  0.00     0.016 C 
ATOM      3  C   LIG d   1      -1.918  81.175 113.164  0.00  0.00     0.038 C 
ATOM      4  C   LIG d   1      -1.745  80.057 112.334  0.00  0.00     0.028 C 
ATOM      5  C   LIG d   1      -1.566  78.753 113.104  0.00  0.00    -0.047 C 
ATOM      6  C   LIG d   1      -2.715  78.614 114.129  0.00  0.00     0.091 C 
ENDROOT
BRANCH   1   7
ATOM      7  O   LIG d   1      -4.092  79.911 115.687  0.00  0.00    -0.368 OA
BRANCH   7   8
ATOM      8  C   LIG d   1      -4.099  80.061 117.128  0.00  0.00     0.119 C 
BRANCH   8   9
ATOM      9  C   LIG d   1      -4.199  81.567 117.437  0.00  0.00     0.028 C 
ATOM     10  C   LIG d   1      -3.319  81.982 118.628  0.00  0.00     0.006 C 
ENDBRANCH   8   9
BRANCH   8  11
ATOM     11  C   LIG d   1      -2.770  79.609 117.742  0.00  0.00     0.028 C 
ATOM     12  C   LIG d   1      -2.876  78.255 118.461  0.00  0.00     0.006 C 
ENDBRANCH   8  11
ENDBRANCH   7   8
ENDBRANCH   1   7
BRANCH   6  13
ATOM     13  N   LIG d   1      -2.570  77.407 114.983  0.00  0.00    -0.311 N 
ATOM     14  C   LIG d   1      -3.076  76.217 114.662  0.00  0.00     0.210 C 
ATOM     15  C   LIG d   1      -2.830  75.110 115.692  0.00  0.00     0.109 C 
ATOM     16  O   LIG d   1      -3.678  75.966 113.607  0.00  0.00    -0.276 OA
ATOM     17  H   LIG d   1      -2.069  77.513 115.843  0.00  0.00     0.149 HD
ENDBRANCH   6  13
BRANCH   5  18
ATOM     18  N   LIG d   1      -1.535  77.655 112.120  0.00  0.00     0.381 N 
ATOM     19  H   LIG d   1      -2.376  77.660 111.578  0.00  0.00    -0.090 HD
ATOM     20  H   LIG d   1      -1.481  76.780 112.611  0.00  0.00    -0.090 HD
ATOM     21  H   LIG d   1      -0.745  77.757 111.521  0.00  0.00    -0.090 HD
ENDBRANCH   5  18
BRANCH   3  22
ATOM     22  C   LIG d   1      -1.474  82.407 112.710  0.00  0.00     0.382 C 
ATOM     23  O   LIG d   1      -1.217  83.322 113.529  0.00  0.00    -0.241 OA
ATOM     24  O   LIG d   1      -1.368  82.630 111.489  0.00  0.00    -0.241 OA
ENDBRANCH   3  22
TORSDOF 7
ENDMDL
MODEL 8
REMARK VINA RESULT:      -4.7      3.409      6.093
REMARK  7 active torsions:
REMARK  status: ('A' for Active; 'I' for Inactive)
REMARK    1  A    between atoms: C_2  and  C_3 
REMARK    2  A    between atoms: C_3  and  O_6 
REMARK    3  A    between atoms: C_3  and  C_4 
REMARK    4  A    between atoms: C_7  and  O_6 
REMARK    5  A    between atoms: C_9  and  C_10 
REMARK    6  A    between atoms: N_15  and  C_14 
REMARK    7  A    between atoms: N_20  and  C_19 
REMARK       I    between atoms: C_22  and  N_20 
ROOT
ATOM      1  C   LIG d   1      -2.762  75.518 115.798  0.00  0.00     0.161 C 
ATOM      2  C   LIG d   1      -2.188  75.095 117.009  0.00  0.00     0.016 C 
ATOM      3  C   LIG d   1      -1.076  75.732 117.607  0.00  0.00     0.038 C 
ATOM      4  C   LIG d   1      -0.553  76.934 117.108  0.00  0.00     0.028 C 
ATOM      5  C   LIG d   1      -0.778  77.118 115.611  0.00  0.00    -0.047 C 
ATOM      6  C   LIG d   1      -2.275  76.894 115.297  0.00  0.00     0.091 C 
ENDROOT
BRANCH   1   7
ATOM      7  O   LIG d   1      -4.199  75.504 115.908  0.00  0.00    -0.368 OA
BRANCH   7   8
ATOM      8  C   LIG d   1      -4.862  74.303 115.443  0.00  0.00     0.119 C 
BRANCH   8   9
ATOM      9  C   LIG d   1      -5.067  74.446 113.923  0.00  0.00     0.028 C 
ATOM     10  C   LIG d   1      -5.892  75.691 113.557  0.00  0.00     0.006 C 
ENDBRANCH   8   9
BRANCH   8  11
ATOM     11  C   LIG d   1      -6.270  74.180 116.033  0.00  0.00     0.028 C 
ATOM     12  C   LIG d   1      -6.570  75.255 117.090  0.00  0.00     0.006 C 
ENDBRANCH   8  11
ENDBRANCH   7   8
ENDBRANCH   1   7
BRANCH   6  13
ATOM     13  N   LIG d   1      -2.568  76.972 113.842  0.00  0.00    -0.311 N 
ATOM     14  C   LIG d   1      -2.899  78.102 113.221  0.00  0.00     0.210 C 
ATOM     15  C   LIG d   1      -3.179  77.957 111.722  0.00  0.00     0.109 C 
ATOM     16  O   LIG d   1      -2.956  79.216 113.762  0.00  0.00    -0.276 OA
ATOM     17  H   LIG d   1      -2.514  76.119 113.320  0.00  0.00     0.149 HD
ENDBRANCH   6  13
BRANCH   5  18
ATOM     18  N   LIG d   1      -0.308  78.469 115.252  0.00  0.00     0.381 N 
ATOM     19  H   LIG d   1      -0.242  78.551 114.257  0.00  0.00    -0.090 HD
ATOM     20  H   LIG d   1       0.607  78.609 115.641  0.00  0.00    -0.090 HD
ATOM     21  H   LIG d   1      -0.937  79.155 115.608  0.00  0.00    -0.090 HD
ENDBRANCH   5  18
BRANCH   3  22
ATOM     22  C   LIG d   1      -0.449  75.143 118.694  0.00  0.00     0.382 C 
ATOM     23  O   LIG d   1      -0.712  75.534 119.857  0.00  0.00    -0.241 OA
ATOM     24  O   LIG d   1       0.408  74.255 118.525  0.00  0.00    -0.241 OA
ENDBRANCH   3  22
TORSDOF 7
ENDMDL
MODEL 9
REMARK VINA RESULT:      -4.7      1.694      2.373
REMARK  7 active torsions:
REMARK  status: ('A' for Active; 'I' for Inactive)
REMARK    1  A    between atoms: C_2  and  C_3 
REMARK    2  A    between atoms: C_3  and  O_6 
REMARK    3  A    between atoms: C_3  and  C_4 
REMARK    4  A    between atoms: C_7  and  O_6 
REMARK    5  A    between atoms: C_9  and  C_10 
REMARK    6  A    between atoms: N_15  and  C_14 
REMARK    7  A    between atoms: N_20  and  C_19 
REMARK       I    between atoms: C_22  and  N_20 
ROOT
ATOM      1  C   LIG d   1      -2.435  79.502 116.295  0.00  0.00     0.161 C 
ATOM      2  C   LIG d   1      -2.712  80.506 115.352  0.00  0.00     0.016 C 
ATOM      3  C   LIG d   1      -2.503  80.349 113.963  0.00  0.00     0.038 C 
ATOM      4  C   LIG d   1      -2.141  79.115 113.403  0.00  0.00     0.028 C 
ATOM      5  C   LIG d   1      -1.364  78.219 114.362  0.00  0.00    -0.047 C 
ATOM      6  C   LIG d   1      -2.144  78.112 115.692  0.00  0.00     0.091 C 
ENDROOT
BRANCH   1   7
ATOM      7  O   LIG d   1      -3.510  79.419 117.251  0.00  0.00    -0.368 OA
BRANCH   7   8
ATOM      8  C   LIG d   1      -4.852  79.480 116.709  0.00  0.00     0.119 C 
BRANCH   8   9
ATOM      9  C   LIG d   1      -5.699  80.339 117.666  0.00  0.00     0.028 C 
ATOM     10  C   LIG d   1      -5.328  81.831 117.601  0.00  0.00     0.006 C 
ENDBRANCH   8   9
BRANCH   8  11
ATOM     11  C   LIG d   1      -5.516  78.100 116.707  0.00  0.00     0.028 C 
ATOM     12  C   LIG d   1      -5.073  77.224 117.891  0.00  0.00     0.006 C 
ENDBRANCH   8  11
ENDBRANCH   7   8
ENDBRANCH   1   7
BRANCH   6  13
ATOM     13  N   LIG d   1      -1.413  77.321 116.716  0.00  0.00    -0.311 N 
ATOM     14  C   LIG d   1      -1.622  76.023 116.927  0.00  0.00     0.210 C 
ATOM     15  C   LIG d   1      -0.776  75.404 118.044  0.00  0.00     0.109 C 
ATOM     16  O   LIG d   1      -2.404  75.317 116.273  0.00  0.00    -0.276 OA
ATOM     17  H   LIG d   1      -0.737  77.808 117.271  0.00  0.00     0.149 HD
ENDBRANCH   6  13
BRANCH   5  18
ATOM     18  N   LIG d   1      -1.172  76.916 113.697  0.00  0.00     0.381 N 
ATOM     19  H   LIG d   1      -1.635  76.916 112.811  0.00  0.00    -0.090 HD
ATOM     20  H   LIG d   1      -1.581  76.197 114.268  0.00  0.00    -0.090 HD
ATOM     21  H   LIG d   1      -0.199  76.737 113.572  0.00  0.00    -0.090 HD
ENDBRANCH   5  18
BRANCH   3  22
ATOM     22  C   LIG d   1      -2.617  81.446 113.122  0.00  0.00     0.382 C 
ATOM     23  O   LIG d   1      -1.809  82.400 113.224  0.00  0.00    -0.241 OA
ATOM     24  O   LIG d   1      -3.544  81.512 112.293  0.00  0.00    -0.241 OA
ENDBRANCH   3  22
TORSDOF 7
ENDMDL
