MODEL 1
REMARK VINA RESULT:      -5.1      0.000      0.000
REMARK  7 active torsions:
REMARK  status: ('A' for Active; 'I' for Inactive)
REMARK    1  A    between atoms: C_2  and  C_3 
REMARK    2  A    between atoms: C_3  and  O_6 
REMARK    3  A    between atoms: C_3  and  C_4 
REMARK    4  A    between atoms: C_7  and  O_6 
REMARK    5  A    between atoms: C_9  and  C_10 
REMARK    6  A    between atoms: N_15  and  C_14 
REMARK    7  A    between atoms: N_20  and  C_19 
REMARK       I    between atoms: C_22  and  N_20 
ROOT
ATOM      1  C   LIG d   1      -1.929  77.397 114.674  0.00  0.00     0.161 C 
ATOM      2  C   LIG d   1      -3.152  76.958 114.140  0.00  0.00     0.016 C 
ATOM      3  C   LIG d   1      -4.120  76.251 114.890  0.00  0.00     0.038 C 
ATOM      4  C   LIG d   1      -3.993  76.065 116.275  0.00  0.00     0.028 C 
ATOM      5  C   LIG d   1      -2.546  76.047 116.754  0.00  0.00    -0.047 C 
ATOM      6  C   LIG d   1      -1.822  77.300 116.210  0.00  0.00     0.091 C 
ENDROOT
BRANCH   1   7
ATOM      7  O   LIG d   1      -1.660  78.743 114.236  0.00  0.00    -0.368 OA
BRANCH   7   8
ATOM      8  C   LIG d   1      -2.340  79.170 113.030  0.00  0.00     0.119 C 
BRANCH   8   9
ATOM      9  C   LIG d   1      -1.331  79.070 111.870  0.00  0.00     0.028 C 
ATOM     10  C   LIG d   1      -1.730  78.004 110.836  0.00  0.00     0.006 C 
ENDBRANCH   8   9
BRANCH   8  11
ATOM     11  C   LIG d   1      -2.729  80.649 113.103  0.00  0.00     0.028 C 
ATOM     12  C   LIG d   1      -1.543  81.591 112.838  0.00  0.00     0.006 C 
ENDBRANCH   8  11
ENDBRANCH   7   8
ENDBRANCH   1   7
BRANCH   6  13
ATOM     13  N   LIG d   1      -0.378  77.319 116.562  0.00  0.00    -0.311 N 
ATOM     14  C   LIG d   1       0.115  77.993 117.600  0.00  0.00     0.210 C 
ATOM     15  C   LIG d   1       1.634  77.893 117.773  0.00  0.00     0.109 C 
ATOM     16  O   LIG d   1      -0.566  78.637 118.412  0.00  0.00    -0.276 OA
ATOM     17  H   LIG d   1       0.242  76.797 115.974  0.00  0.00     0.149 HD
ENDBRANCH   6  13
BRANCH   5  18
ATOM     18  N   LIG d   1      -2.565  75.985 118.228  0.00  0.00     0.381 N 
ATOM     19  H   LIG d   1      -3.293  76.572 118.582  0.00  0.00    -0.090 HD
ATOM     20  H   LIG d   1      -1.687  76.325 118.579  0.00  0.00    -0.090 HD
ATOM     21  H   LIG d   1      -2.709  75.046 118.528  0.00  0.00    -0.090 HD
ENDBRANCH   5  18
BRANCH   3  22
ATOM     22  C   LIG d   1      -5.210  75.686 114.247  0.00  0.00     0.382 C 
ATOM     23  O   LIG d   1      -5.149  74.505 113.828  0.00  0.00    -0.241 OA
ATOM     24  O   LIG d   1      -6.239  76.357 114.040  0.00  0.00    -0.241 OA
ENDBRANCH   3  22
TORSDOF 7
ENDMDL
MODEL 2
REMARK VINA RESULT:      -5.1      2.114      4.815
REMARK  7 active torsions:
REMARK  status: ('A' for Active; 'I' for Inactive)
REMARK    1  A    between atoms: C_2  and  C_3 
REMARK    2  A    between atoms: C_3  and  O_6 
REMARK    3  A    between atoms: C_3  and  C_4 
REMARK    4  A    between atoms: C_7  and  O_6 
REMARK    5  A    between atoms: C_9  and  C_10 
REMARK    6  A    between atoms: N_15  and  C_14 
REMARK    7  A    between atoms: N_20  and  C_19 
REMARK       I    between atoms: C_22  and  N_20 
ROOT
ATOM      1  C   LIG d   1      -3.279  77.600 115.956  0.00  0.00     0.161 C 
ATOM      2  C   LIG d   1      -3.418  78.359 114.782  0.00  0.00     0.016 C 
ATOM      3  C   LIG d   1      -2.352  78.612 113.888  0.00  0.00     0.038 C 
ATOM      4  C   LIG d   1      -1.102  77.991 114.031  0.00  0.00     0.028 C 
ATOM      5  C   LIG d   1      -0.770  77.621 115.472  0.00  0.00    -0.047 C 
ATOM      6  C   LIG d   1      -1.951  76.823 116.070  0.00  0.00     0.091 C 
ENDROOT
BRANCH   1   7
ATOM      7  O   LIG d   1      -4.398  76.701 116.092  0.00  0.00    -0.368 OA
BRANCH   7   8
ATOM      8  C   LIG d   1      -4.281  75.429 115.410  0.00  0.00     0.119 C 
BRANCH   8   9
ATOM      9  C   LIG d   1      -5.403  75.362 114.356  0.00  0.00     0.028 C 
ATOM     10  C   LIG d   1      -6.712  75.998 114.853  0.00  0.00     0.006 C 
ENDBRANCH   8   9
BRANCH   8  11
ATOM     11  C   LIG d   1      -4.549  74.259 116.363  0.00  0.00     0.028 C 
ATOM     12  C   LIG d   1      -4.941  74.720 117.776  0.00  0.00     0.006 C 
ENDBRANCH   8  11
ENDBRANCH   7   8
ENDBRANCH   1   7
BRANCH   6  13
ATOM     13  N   LIG d   1      -1.744  76.494 117.504  0.00  0.00    -0.311 N 
ATOM     14  C   LIG d   1      -1.321  75.305 117.930  0.00  0.00     0.210 C 
ATOM     15  C   LIG d   1      -1.194  75.170 119.451  0.00  0.00     0.109 C 
ATOM     16  O   LIG d   1      -1.007  74.359 117.191  0.00  0.00    -0.276 OA
ATOM     17  H   LIG d   1      -1.945  77.213 118.171  0.00  0.00     0.149 HD
ENDBRANCH   6  13
BRANCH   5  18
ATOM     18  N   LIG d   1       0.494  76.861 115.457  0.00  0.00     0.381 N 
ATOM     19  H   LIG d   1       1.208  77.401 115.012  0.00  0.00    -0.090 HD
ATOM     20  H   LIG d   1       0.359  76.017 114.928  0.00  0.00    -0.090 HD
ATOM     21  H   LIG d   1       0.768  76.638 116.389  0.00  0.00    -0.090 HD
ENDBRANCH   5  18
BRANCH   3  22
ATOM     22  C   LIG d   1      -2.521  79.526 112.859  0.00  0.00     0.382 C 
ATOM     23  O   LIG d   1      -3.302  80.497 113.005  0.00  0.00    -0.241 OA
ATOM     24  O   LIG d   1      -1.935  79.367 111.771  0.00  0.00    -0.241 OA
ENDBRANCH   3  22
TORSDOF 7
ENDMDL
MODEL 3
REMARK VINA RESULT:      -5.1      2.280      5.743
REMARK  7 active torsions:
REMARK  status: ('A' for Active; 'I' for Inactive)
REMARK    1  A    between atoms: C_2  and  C_3 
REMARK    2  A    between atoms: C_3  and  O_6 
REMARK    3  A    between atoms: C_3  and  C_4 
REMARK    4  A    between atoms: C_7  and  O_6 
REMARK    5  A    between atoms: C_9  and  C_10 
REMARK    6  A    between atoms: N_15  and  C_14 
REMARK    7  A    between atoms: N_20  and  C_19 
REMARK       I    between atoms: C_22  and  N_20 
ROOT
ATOM      1  C   LIG d   1      -2.798  75.762 116.216  0.00  0.00     0.161 C 
ATOM      2  C   LIG d   1      -2.310  75.341 117.465  0.00  0.00     0.016 C 
ATOM      3  C   LIG d   1      -1.123  75.843 118.046  0.00  0.00     0.038 C 
ATOM      4  C   LIG d   1      -0.418  76.917 117.482  0.00  0.00     0.028 C 
ATOM      5  C   LIG d   1      -0.594  77.031 115.972  0.00  0.00    -0.047 C 
ATOM      6  C   LIG d   1      -2.103  77.013 115.639  0.00  0.00     0.091 C 
ENDROOT
BRANCH   1   7
ATOM      7  O   LIG d   1      -4.222  75.971 116.293  0.00  0.00    -0.368 OA
BRANCH   7   8
ATOM      8  C   LIG d   1      -5.048  74.787 116.172  0.00  0.00     0.119 C 
BRANCH   8   9
ATOM      9  C   LIG d   1      -5.174  74.462 114.671  0.00  0.00     0.028 C 
ATOM     10  C   LIG d   1      -5.731  75.644 113.860  0.00  0.00     0.006 C 
ENDBRANCH   8   9
BRANCH   8  11
ATOM     11  C   LIG d   1      -6.478  75.053 116.651  0.00  0.00     0.028 C 
ATOM     12  C   LIG d   1      -6.808  74.335 117.969  0.00  0.00     0.006 C 
ENDBRANCH   8  11
ENDBRANCH   7   8
ENDBRANCH   1   7
BRANCH   6  13
ATOM     13  N   LIG d   1      -2.361  77.035 114.175  0.00  0.00    -0.311 N 
ATOM     14  C   LIG d   1      -2.629  78.148 113.495  0.00  0.00     0.210 C 
ATOM     15  C   LIG d   1      -2.884  77.946 111.998  0.00  0.00     0.109 C 
ATOM     16  O   LIG d   1      -2.649  79.288 113.983  0.00  0.00    -0.276 OA
ATOM     17  H   LIG d   1      -2.334  76.158 113.694  0.00  0.00     0.149 HD
ENDBRANCH   6  13
BRANCH   5  18
ATOM     18  N   LIG d   1       0.080  78.269 115.537  0.00  0.00     0.381 N 
ATOM     19  H   LIG d   1       0.424  78.765 116.334  0.00  0.00    -0.090 HD
ATOM     20  H   LIG d   1      -0.588  78.854 115.065  0.00  0.00    -0.090 HD
ATOM     21  H   LIG d   1       0.833  78.050 114.922  0.00  0.00    -0.090 HD
ENDBRANCH   5  18
BRANCH   3  22
ATOM     22  C   LIG d   1      -0.607  75.242 119.184  0.00  0.00     0.382 C 
ATOM     23  O   LIG d   1      -1.268  74.357 119.780  0.00  0.00    -0.241 OA
ATOM     24  O   LIG d   1       0.491  75.604 119.647  0.00  0.00    -0.241 OA
ENDBRANCH   3  22
TORSDOF 7
ENDMDL
MODEL 4
REMARK VINA RESULT:      -5.0      2.302      5.453
REMARK  7 active torsions:
REMARK  status: ('A' for Active; 'I' for Inactive)
REMARK    1  A    between atoms: C_2  and  C_3 
REMARK    2  A    between atoms: C_3  and  O_6 
REMARK    3  A    between atoms: C_3  and  C_4 
REMARK    4  A    between atoms: C_7  and  O_6 
REMARK    5  A    between atoms: C_9  and  C_10 
REMARK    6  A    between atoms: N_15  and  C_14 
REMARK    7  A    between atoms: N_20  and  C_19 
REMARK       I    between atoms: C_22  and  N_20 
ROOT
ATOM      1  C   LIG d   1      -1.965  75.451 115.258  0.00  0.00     0.161 C 
ATOM      2  C   LIG d   1      -1.816  75.020 116.586  0.00  0.00     0.016 C 
ATOM      3  C   LIG d   1      -1.022  75.698 117.540  0.00  0.00     0.038 C 
ATOM      4  C   LIG d   1      -0.441  76.946 117.268  0.00  0.00     0.028 C 
ATOM      5  C   LIG d   1      -0.149  77.168 115.787  0.00  0.00    -0.047 C 
ATOM      6  C   LIG d   1      -1.429  76.869 114.974  0.00  0.00     0.091 C 
ENDROOT
BRANCH   1   7
ATOM      7  O   LIG d   1      -3.348  75.350 114.864  0.00  0.00    -0.368 OA
BRANCH   7   8
ATOM      8  C   LIG d   1      -4.317  75.315 115.942  0.00  0.00     0.119 C 
BRANCH   8   9
ATOM      9  C   LIG d   1      -5.378  74.260 115.576  0.00  0.00     0.028 C 
ATOM     10  C   LIG d   1      -6.701  74.471 116.332  0.00  0.00     0.006 C 
ENDBRANCH   8   9
BRANCH   8  11
ATOM     11  C   LIG d   1      -5.080  76.639 116.048  0.00  0.00     0.028 C 
ATOM     12  C   LIG d   1      -4.482  77.588 117.098  0.00  0.00     0.006 C 
ENDBRANCH   8  11
ENDBRANCH   7   8
ENDBRANCH   1   7
BRANCH   6  13
ATOM     13  N   LIG d   1      -1.208  76.981 113.508  0.00  0.00    -0.311 N 
ATOM     14  C   LIG d   1      -1.991  77.694 112.701  0.00  0.00     0.210 C 
ATOM     15  C   LIG d   1      -1.597  77.659 111.221  0.00  0.00     0.109 C 
ATOM     16  O   LIG d   1      -2.956  78.378 113.074  0.00  0.00    -0.276 OA
ATOM     17  H   LIG d   1      -0.428  76.483 113.125  0.00  0.00     0.149 HD
ENDBRANCH   6  13
BRANCH   5  18
ATOM     18  N   LIG d   1       0.325  78.556 115.630  0.00  0.00     0.381 N 
ATOM     19  H   LIG d   1      -0.432  79.192 115.783  0.00  0.00    -0.090 HD
ATOM     20  H   LIG d   1       0.658  78.682 114.691  0.00  0.00    -0.090 HD
ATOM     21  H   LIG d   1       1.059  78.741 116.278  0.00  0.00    -0.090 HD
ENDBRANCH   5  18
BRANCH   3  22
ATOM     22  C   LIG d   1      -0.770  75.108 118.769  0.00  0.00     0.382 C 
ATOM     23  O   LIG d   1      -1.558  74.243 119.222  0.00  0.00    -0.241 OA
ATOM     24  O   LIG d   1       0.211  75.462 119.450  0.00  0.00    -0.241 OA
ENDBRANCH   3  22
TORSDOF 7
ENDMDL
MODEL 5
REMARK VINA RESULT:      -4.8      1.525      4.820
REMARK  7 active torsions:
REMARK  status: ('A' for Active; 'I' for Inactive)
REMARK    1  A    between atoms: C_2  and  C_3 
REMARK    2  A    between atoms: C_3  and  O_6 
REMARK    3  A    between atoms: C_3  and  C_4 
REMARK    4  A    between atoms: C_7  and  O_6 
REMARK    5  A    between atoms: C_9  and  C_10 
REMARK    6  A    between atoms: N_15  and  C_14 
REMARK    7  A    between atoms: N_20  and  C_19 
REMARK       I    between atoms: C_22  and  N_20 
ROOT
ATOM      1  C   LIG d   1      -2.103  77.324 114.723  0.00  0.00     0.161 C 
ATOM      2  C   LIG d   1      -0.943  77.545 115.483  0.00  0.00     0.016 C 
ATOM      3  C   LIG d   1      -0.728  76.975 116.759  0.00  0.00     0.038 C 
ATOM      4  C   LIG d   1      -1.599  76.017 117.299  0.00  0.00     0.028 C 
ATOM      5  C   LIG d   1      -3.031  76.147 116.792  0.00  0.00    -0.047 C 
ATOM      6  C   LIG d   1      -3.015  76.195 115.247  0.00  0.00     0.091 C 
ENDROOT
BRANCH   1   7
ATOM      7  O   LIG d   1      -1.748  77.083 113.347  0.00  0.00    -0.368 OA
BRANCH   7   8
ATOM      8  C   LIG d   1      -1.560  78.259 112.522  0.00  0.00     0.119 C 
BRANCH   8   9
ATOM      9  C   LIG d   1      -2.813  79.142 112.682  0.00  0.00     0.028 C 
ATOM     10  C   LIG d   1      -2.465  80.590 113.065  0.00  0.00     0.006 C 
ENDBRANCH   8   9
BRANCH   8  11
ATOM     11  C   LIG d   1      -1.509  77.894 111.035  0.00  0.00     0.028 C 
ATOM     12  C   LIG d   1      -0.733  78.922 110.196  0.00  0.00     0.006 C 
ENDBRANCH   8  11
ENDBRANCH   7   8
ENDBRANCH   1   7
BRANCH   6  13
ATOM     13  N   LIG d   1      -4.369  76.406 114.672  0.00  0.00    -0.311 N 
ATOM     14  C   LIG d   1      -5.142  75.413 114.235  0.00  0.00     0.210 C 
ATOM     15  C   LIG d   1      -6.493  75.851 113.661  0.00  0.00     0.109 C 
ATOM     16  O   LIG d   1      -4.851  74.209 114.298  0.00  0.00    -0.276 OA
ATOM     17  H   LIG d   1      -4.697  77.350 114.612  0.00  0.00     0.149 HD
ENDBRANCH   6  13
BRANCH   5  18
ATOM     18  N   LIG d   1      -3.798  75.006 117.327  0.00  0.00     0.381 N 
ATOM     19  H   LIG d   1      -4.595  74.832 116.747  0.00  0.00    -0.090 HD
ATOM     20  H   LIG d   1      -4.124  75.237 118.249  0.00  0.00    -0.090 HD
ATOM     21  H   LIG d   1      -3.222  74.195 117.365  0.00  0.00    -0.090 HD
ENDBRANCH   5  18
BRANCH   3  22
ATOM     22  C   LIG d   1       0.350  77.392 117.526  0.00  0.00     0.382 C 
ATOM     23  O   LIG d   1       0.778  76.664 118.453  0.00  0.00    -0.241 OA
ATOM     24  O   LIG d   1       0.870  78.507 117.330  0.00  0.00    -0.241 OA
ENDBRANCH   3  22
TORSDOF 7
ENDMDL
MODEL 6
REMARK VINA RESULT:      -4.6      2.502      5.053
REMARK  7 active torsions:
REMARK  status: ('A' for Active; 'I' for Inactive)
REMARK    1  A    between atoms: C_2  and  C_3 
REMARK    2  A    between atoms: C_3  and  O_6 
REMARK    3  A    between atoms: C_3  and  C_4 
REMARK    4  A    between atoms: C_7  and  O_6 
REMARK    5  A    between atoms: C_9  and  C_10 
REMARK    6  A    between atoms: N_15  and  C_14 
REMARK    7  A    between atoms: N_20  and  C_19 
REMARK       I    between atoms: C_22  and  N_20 
ROOT
ATOM      1  C   LIG d   1      -2.946  77.608 115.930  0.00  0.00     0.161 C 
ATOM      2  C   LIG d   1      -3.131  78.496 114.857  0.00  0.00     0.016 C 
ATOM      3  C   LIG d   1      -2.361  78.456 113.672  0.00  0.00     0.038 C 
ATOM      4  C   LIG d   1      -1.448  77.422 113.416  0.00  0.00     0.028 C 
ATOM      5  C   LIG d   1      -0.870  76.798 114.681  0.00  0.00    -0.047 C 
ATOM      6  C   LIG d   1      -2.031  76.405 115.623  0.00  0.00     0.091 C 
ENDROOT
BRANCH   1   7
ATOM      7  O   LIG d   1      -4.225  77.154 116.415  0.00  0.00    -0.368 OA
BRANCH   7   8
ATOM      8  C   LIG d   1      -5.012  78.126 117.146  0.00  0.00     0.119 C 
BRANCH   8   9
ATOM      9  C   LIG d   1      -4.514  78.122 118.604  0.00  0.00     0.028 C 
ATOM     10  C   LIG d   1      -5.141  79.249 119.442  0.00  0.00     0.006 C 
ENDBRANCH   8   9
BRANCH   8  11
ATOM     11  C   LIG d   1      -6.484  77.710 117.219  0.00  0.00     0.028 C 
ATOM     12  C   LIG d   1      -6.827  76.561 116.258  0.00  0.00     0.006 C 
ENDBRANCH   8  11
ENDBRANCH   7   8
ENDBRANCH   1   7
BRANCH   6  13
ATOM     13  N   LIG d   1      -1.549  75.863 116.920  0.00  0.00    -0.311 N 
ATOM     14  C   LIG d   1      -2.121  74.833 117.542  0.00  0.00     0.210 C 
ATOM     15  C   LIG d   1      -1.479  74.448 118.879  0.00  0.00     0.109 C 
ATOM     16  O   LIG d   1      -3.079  74.182 117.099  0.00  0.00    -0.276 OA
ATOM     17  H   LIG d   1      -0.757  76.312 117.336  0.00  0.00     0.149 HD
ENDBRANCH   6  13
BRANCH   5  18
ATOM     18  N   LIG d   1      -0.042  75.647 114.272  0.00  0.00     0.381 N 
ATOM     19  H   LIG d   1       0.301  75.171 115.082  0.00  0.00    -0.090 HD
ATOM     20  H   LIG d   1       0.745  75.983 113.746  0.00  0.00    -0.090 HD
ATOM     21  H   LIG d   1      -0.581  75.021 113.714  0.00  0.00    -0.090 HD
ENDBRANCH   5  18
BRANCH   3  22
ATOM     22  C   LIG d   1      -2.473  79.481 112.745  0.00  0.00     0.382 C 
ATOM     23  O   LIG d   1      -1.754  79.477 111.717  0.00  0.00    -0.241 OA
ATOM     24  O   LIG d   1      -3.251  80.433 112.947  0.00  0.00    -0.241 OA
ENDBRANCH   3  22
TORSDOF 7
ENDMDL
MODEL 7
REMARK VINA RESULT:      -4.5      2.308      3.036
REMARK  7 active torsions:
REMARK  status: ('A' for Active; 'I' for Inactive)
REMARK    1  A    between atoms: C_2  and  C_3 
REMARK    2  A    between atoms: C_3  and  O_6 
REMARK    3  A    between atoms: C_3  and  C_4 
REMARK    4  A    between atoms: C_7  and  O_6 
REMARK    5  A    between atoms: C_9  and  C_10 
REMARK    6  A    between atoms: N_15  and  C_14 
REMARK    7  A    between atoms: N_20  and  C_19 
REMARK       I    between atoms: C_22  and  N_20 
ROOT
ATOM      1  C   LIG d   1      -2.112  77.723 115.102  0.00  0.00     0.161 C 
ATOM      2  C   LIG d   1      -3.193  77.987 115.960  0.00  0.00     0.016 C 
ATOM      3  C   LIG d   1      -3.279  77.487 117.280  0.00  0.00     0.038 C 
ATOM      4  C   LIG d   1      -2.211  76.811 117.888  0.00  0.00     0.028 C 
ATOM      5  C   LIG d   1      -1.308  76.088 116.894  0.00  0.00    -0.047 C 
ATOM      6  C   LIG d   1      -0.887  77.080 115.785  0.00  0.00     0.091 C 
ENDROOT
BRANCH   1   7
ATOM      7  O   LIG d   1      -1.726  78.931 114.417  0.00  0.00    -0.368 OA
BRANCH   7   8
ATOM      8  C   LIG d   1      -2.428  79.214 113.181  0.00  0.00     0.119 C 
BRANCH   8   9
ATOM      9  C   LIG d   1      -1.482  78.856 112.019  0.00  0.00     0.028 C 
ATOM     10  C   LIG d   1      -2.133  77.900 111.005  0.00  0.00     0.006 C 
ENDBRANCH   8   9
BRANCH   8  11
ATOM     11  C   LIG d   1      -2.707  80.712 113.030  0.00  0.00     0.028 C 
ATOM     12  C   LIG d   1      -1.429  81.538 112.813  0.00  0.00     0.006 C 
ENDBRANCH   8  11
ENDBRANCH   7   8
ENDBRANCH   1   7
BRANCH   6  13
ATOM     13  N   LIG d   1      -0.070  76.432 114.726  0.00  0.00    -0.311 N 
ATOM     14  C   LIG d   1      -0.312  75.209 114.258  0.00  0.00     0.210 C 
ATOM     15  C   LIG d   1       0.663  74.723 113.181  0.00  0.00     0.109 C 
ATOM     16  O   LIG d   1      -1.261  74.492 114.610  0.00  0.00    -0.276 OA
ATOM     17  H   LIG d   1       0.702  76.955 114.362  0.00  0.00     0.149 HD
ENDBRANCH   6  13
BRANCH   5  18
ATOM     18  N   LIG d   1      -0.163  75.543 117.647  0.00  0.00     0.381 N 
ATOM     19  H   LIG d   1       0.443  75.042 117.028  0.00  0.00    -0.090 HD
ATOM     20  H   LIG d   1      -0.505  74.901 118.340  0.00  0.00    -0.090 HD
ATOM     21  H   LIG d   1       0.339  76.282 118.088  0.00  0.00    -0.090 HD
ENDBRANCH   5  18
BRANCH   3  22
ATOM     22  C   LIG d   1      -4.460  77.629 117.993  0.00  0.00     0.382 C 
ATOM     23  O   LIG d   1      -5.105  76.613 118.345  0.00  0.00    -0.241 OA
ATOM     24  O   LIG d   1      -4.910  78.762 118.249  0.00  0.00    -0.241 OA
ENDBRANCH   3  22
TORSDOF 7
ENDMDL
MODEL 8
REMARK VINA RESULT:      -4.3      3.112      6.258
REMARK  7 active torsions:
REMARK  status: ('A' for Active; 'I' for Inactive)
REMARK    1  A    between atoms: C_2  and  C_3 
REMARK    2  A    between atoms: C_3  and  O_6 
REMARK    3  A    between atoms: C_3  and  C_4 
REMARK    4  A    between atoms: C_7  and  O_6 
REMARK    5  A    between atoms: C_9  and  C_10 
REMARK    6  A    between atoms: N_15  and  C_14 
REMARK    7  A    between atoms: N_20  and  C_19 
REMARK       I    between atoms: C_22  and  N_20 
ROOT
ATOM      1  C   LIG d   1      -3.510  77.366 117.234  0.00  0.00     0.161 C 
ATOM      2  C   LIG d   1      -2.619  78.125 118.011  0.00  0.00     0.016 C 
ATOM      3  C   LIG d   1      -1.216  77.961 117.968  0.00  0.00     0.038 C 
ATOM      4  C   LIG d   1      -0.595  77.124 117.028  0.00  0.00     0.028 C 
ATOM      5  C   LIG d   1      -1.477  75.967 116.572  0.00  0.00    -0.047 C 
ATOM      6  C   LIG d   1      -2.846  76.527 116.123  0.00  0.00     0.091 C 
ENDROOT
BRANCH   1   7
ATOM      7  O   LIG d   1      -4.525  78.224 116.676  0.00  0.00    -0.368 OA
BRANCH   7   8
ATOM      8  C   LIG d   1      -5.883  77.974 117.115  0.00  0.00     0.119 C 
BRANCH   8   9
ATOM      9  C   LIG d   1      -6.425  79.287 117.712  0.00  0.00     0.028 C 
ATOM     10  C   LIG d   1      -5.926  79.530 119.146  0.00  0.00     0.006 C 
ENDBRANCH   8   9
BRANCH   8  11
ATOM     11  C   LIG d   1      -5.920  76.961 118.264  0.00  0.00     0.028 C 
ATOM     12  C   LIG d   1      -6.762  75.718 117.935  0.00  0.00     0.006 C 
ENDBRANCH   8  11
ENDBRANCH   7   8
ENDBRANCH   1   7
BRANCH   6  13
ATOM     13  N   LIG d   1      -3.799  75.452 115.740  0.00  0.00    -0.311 N 
ATOM     14  C   LIG d   1      -4.509  75.469 114.613  0.00  0.00     0.210 C 
ATOM     15  C   LIG d   1      -5.447  74.274 114.421  0.00  0.00     0.109 C 
ATOM     16  O   LIG d   1      -4.426  76.345 113.738  0.00  0.00    -0.276 OA
ATOM     17  H   LIG d   1      -3.905  74.688 116.377  0.00  0.00     0.149 HD
ENDBRANCH   6  13
BRANCH   5  18
ATOM     18  N   LIG d   1      -0.760  75.259 115.495  0.00  0.00     0.381 N 
ATOM     19  H   LIG d   1       0.146  74.982 115.815  0.00  0.00    -0.090 HD
ATOM     20  H   LIG d   1      -0.643  75.884 114.717  0.00  0.00    -0.090 HD
ATOM     21  H   LIG d   1      -1.279  74.457 115.210  0.00  0.00    -0.090 HD
ENDBRANCH   5  18
BRANCH   3  22
ATOM     22  C   LIG d   1      -0.419  78.609 118.900  0.00  0.00     0.382 C 
ATOM     23  O   LIG d   1      -0.580  79.834 119.118  0.00  0.00    -0.241 OA
ATOM     24  O   LIG d   1       0.486  77.993 119.494  0.00  0.00    -0.241 OA
ENDBRANCH   3  22
TORSDOF 7
ENDMDL
MODEL 9
REMARK VINA RESULT:      -4.2      2.186      4.911
REMARK  7 active torsions:
REMARK  status: ('A' for Active; 'I' for Inactive)
REMARK    1  A    between atoms: C_2  and  C_3 
REMARK    2  A    between atoms: C_3  and  O_6 
REMARK    3  A    between atoms: C_3  and  C_4 
REMARK    4  A    between atoms: C_7  and  O_6 
REMARK    5  A    between atoms: C_9  and  C_10 
REMARK    6  A    between atoms: N_15  and  C_14 
REMARK    7  A    between atoms: N_20  and  C_19 
REMARK       I    between atoms: C_22  and  N_20 
ROOT
ATOM      1  C   LIG d   1      -3.291  77.364 115.489  0.00  0.00     0.161 C 
ATOM      2  C   LIG d   1      -3.323  78.425 114.570  0.00  0.00     0.016 C 
ATOM      3  C   LIG d   1      -2.347  78.612 113.563  0.00  0.00     0.038 C 
ATOM      4  C   LIG d   1      -1.350  77.659 113.311  0.00  0.00     0.028 C 
ATOM      5  C   LIG d   1      -0.981  76.829 114.537  0.00  0.00    -0.047 C 
ATOM      6  C   LIG d   1      -2.272  76.252 115.159  0.00  0.00     0.091 C 
ENDROOT
BRANCH   1   7
ATOM      7  O   LIG d   1      -4.611  76.805 115.637  0.00  0.00    -0.368 OA
BRANCH   7   8
ATOM      8  C   LIG d   1      -5.166  76.826 116.976  0.00  0.00     0.119 C 
BRANCH   8   9
ATOM      9  C   LIG d   1      -5.754  75.429 117.254  0.00  0.00     0.028 C 
ATOM     10  C   LIG d   1      -5.835  75.115 118.758  0.00  0.00     0.006 C 
ENDBRANCH   8   9
BRANCH   8  11
ATOM     11  C   LIG d   1      -6.350  77.791 117.073  0.00  0.00     0.028 C 
ATOM     12  C   LIG d   1      -5.970  79.139 117.707  0.00  0.00     0.006 C 
ENDBRANCH   8  11
ENDBRANCH   7   8
ENDBRANCH   1   7
BRANCH   6  13
ATOM     13  N   LIG d   1      -2.009  75.497 116.412  0.00  0.00    -0.311 N 
ATOM     14  C   LIG d   1      -1.417  76.030 117.479  0.00  0.00     0.210 C 
ATOM     15  C   LIG d   1      -1.224  75.072 118.658  0.00  0.00     0.109 C 
ATOM     16  O   LIG d   1      -1.063  77.215 117.573  0.00  0.00    -0.276 OA
ATOM     17  H   LIG d   1      -2.293  74.537 116.434  0.00  0.00     0.149 HD
ENDBRANCH   6  13
BRANCH   5  18
ATOM     18  N   LIG d   1      -0.033  75.786 114.100  0.00  0.00     0.381 N 
ATOM     19  H   LIG d   1      -0.345  74.891 114.418  0.00  0.00    -0.090 HD
ATOM     20  H   LIG d   1       0.865  75.971 114.510  0.00  0.00    -0.090 HD
ATOM     21  H   LIG d   1       0.041  75.787 113.107  0.00  0.00    -0.090 HD
ENDBRANCH   5  18
BRANCH   3  22
ATOM     22  C   LIG d   1      -2.341  79.784 112.822  0.00  0.00     0.382 C 
ATOM     23  O   LIG d   1      -1.394  80.022 112.034  0.00  0.00    -0.241 OA
ATOM     24  O   LIG d   1      -3.247  80.627 112.965  0.00  0.00    -0.241 OA
ENDBRANCH   3  22
TORSDOF 7
ENDMDL
