MODEL 1
REMARK VINA RESULT:      -5.1      0.000      0.000
REMARK  7 active torsions:
REMARK  status: ('A' for Active; 'I' for Inactive)
REMARK    1  A    between atoms: C_2  and  C_3 
REMARK    2  A    between atoms: C_3  and  O_6 
REMARK    3  A    between atoms: C_3  and  C_4 
REMARK    4  A    between atoms: C_7  and  O_6 
REMARK    5  A    between atoms: C_9  and  C_10 
REMARK    6  A    between atoms: N_15  and  C_14 
REMARK    7  A    between atoms: N_20  and  C_19 
REMARK       I    between atoms: C_22  and  N_20 
ROOT
ATOM      1  C   LIG d   1      -2.770  80.089 115.696  0.00  0.00     0.161 C 
ATOM      2  C   LIG d   1      -2.685  81.282 114.959  0.00  0.00     0.016 C 
ATOM      3  C   LIG d   1      -2.109  81.361 113.670  0.00  0.00     0.038 C 
ATOM      4  C   LIG d   1      -1.713  80.216 112.963  0.00  0.00     0.028 C 
ATOM      5  C   LIG d   1      -1.317  79.053 113.867  0.00  0.00    -0.047 C 
ATOM      6  C   LIG d   1      -2.444  78.810 114.896  0.00  0.00     0.091 C 
ENDROOT
BRANCH   1   7
ATOM      7  O   LIG d   1      -4.073  79.981 116.303  0.00  0.00    -0.368 OA
BRANCH   7   8
ATOM      8  C   LIG d   1      -4.497  81.111 117.106  0.00  0.00     0.119 C 
BRANCH   8   9
ATOM      9  C   LIG d   1      -4.012  80.863 118.547  0.00  0.00     0.028 C 
ATOM     10  C   LIG d   1      -2.836  81.774 118.936  0.00  0.00     0.006 C 
ENDBRANCH   8   9
BRANCH   8  11
ATOM     11  C   LIG d   1      -6.024  81.186 117.199  0.00  0.00     0.028 C 
ATOM     12  C   LIG d   1      -6.514  81.641 118.583  0.00  0.00     0.006 C 
ENDBRANCH   8  11
ENDBRANCH   7   8
ENDBRANCH   1   7
BRANCH   6  13
ATOM     13  N   LIG d   1      -2.100  77.744 115.872  0.00  0.00    -0.311 N 
ATOM     14  C   LIG d   1      -2.423  76.463 115.703  0.00  0.00     0.210 C 
ATOM     15  C   LIG d   1      -1.991  75.531 116.840  0.00  0.00     0.109 C 
ATOM     16  O   LIG d   1      -2.998  76.004 114.705  0.00  0.00    -0.276 OA
ATOM     17  H   LIG d   1      -1.606  78.023 116.697  0.00  0.00     0.149 HD
ENDBRANCH   6  13
BRANCH   5  18
ATOM     18  N   LIG d   1      -1.060  77.885 113.003  0.00  0.00     0.381 N 
ATOM     19  H   LIG d   1      -0.878  78.189 112.068  0.00  0.00    -0.090 HD
ATOM     20  H   LIG d   1      -1.879  77.303 112.992  0.00  0.00    -0.090 HD
ATOM     21  H   LIG d   1      -0.282  77.369 113.350  0.00  0.00    -0.090 HD
ENDBRANCH   5  18
BRANCH   3  22
ATOM     22  C   LIG d   1      -1.888  82.602 113.092  0.00  0.00     0.382 C 
ATOM     23  O   LIG d   1      -1.828  82.709 111.843  0.00  0.00    -0.241 OA
ATOM     24  O   LIG d   1      -1.704  83.607 113.803  0.00  0.00    -0.241 OA
ENDBRANCH   3  22
TORSDOF 7
ENDMDL
MODEL 2
REMARK VINA RESULT:      -4.8      1.456      2.114
REMARK  7 active torsions:
REMARK  status: ('A' for Active; 'I' for Inactive)
REMARK    1  A    between atoms: C_2  and  C_3 
REMARK    2  A    between atoms: C_3  and  O_6 
REMARK    3  A    between atoms: C_3  and  C_4 
REMARK    4  A    between atoms: C_7  and  O_6 
REMARK    5  A    between atoms: C_9  and  C_10 
REMARK    6  A    between atoms: N_15  and  C_14 
REMARK    7  A    between atoms: N_20  and  C_19 
REMARK       I    between atoms: C_22  and  N_20 
ROOT
ATOM      1  C   LIG d   1      -2.031  79.593 116.130  0.00  0.00     0.161 C 
ATOM      2  C   LIG d   1      -2.470  80.746 115.458  0.00  0.00     0.016 C 
ATOM      3  C   LIG d   1      -2.441  80.885 114.051  0.00  0.00     0.038 C 
ATOM      4  C   LIG d   1      -2.111  79.814 113.207  0.00  0.00     0.028 C 
ATOM      5  C   LIG d   1      -1.181  78.795 113.857  0.00  0.00    -0.047 C 
ATOM      6  C   LIG d   1      -1.772  78.374 115.221  0.00  0.00     0.091 C 
ENDROOT
BRANCH   1   7
ATOM      7  O   LIG d   1      -2.966  79.251 117.173  0.00  0.00    -0.368 OA
BRANCH   7   8
ATOM      8  C   LIG d   1      -4.360  79.186 116.784  0.00  0.00     0.119 C 
BRANCH   8   9
ATOM      9  C   LIG d   1      -5.166  80.004 117.811  0.00  0.00     0.028 C 
ATOM     10  C   LIG d   1      -5.734  81.302 117.211  0.00  0.00     0.006 C 
ENDBRANCH   8   9
BRANCH   8  11
ATOM     11  C   LIG d   1      -4.901  77.757 116.890  0.00  0.00     0.028 C 
ATOM     12  C   LIG d   1      -4.087  76.881 117.855  0.00  0.00     0.006 C 
ENDBRANCH   8  11
ENDBRANCH   7   8
ENDBRANCH   1   7
BRANCH   6  13
ATOM     13  N   LIG d   1      -0.882  77.442 115.961  0.00  0.00    -0.311 N 
ATOM     14  C   LIG d   1      -0.980  76.116 115.882  0.00  0.00     0.210 C 
ATOM     15  C   LIG d   1       0.023  75.341 116.743  0.00  0.00     0.109 C 
ATOM     16  O   LIG d   1      -1.781  75.508 115.157  0.00  0.00    -0.276 OA
ATOM     17  H   LIG d   1      -0.182  77.851 116.550  0.00  0.00     0.149 HD
ENDBRANCH   6  13
BRANCH   5  18
ATOM     18  N   LIG d   1      -1.030  77.667 112.918  0.00  0.00     0.381 N 
ATOM     19  H   LIG d   1      -0.695  78.002 112.037  0.00  0.00    -0.090 HD
ATOM     20  H   LIG d   1      -1.929  77.243 112.773  0.00  0.00    -0.090 HD
ATOM     21  H   LIG d   1      -0.394  76.997 113.291  0.00  0.00    -0.090 HD
ENDBRANCH   5  18
BRANCH   3  22
ATOM     22  C   LIG d   1      -2.708  82.118 113.476  0.00  0.00     0.382 C 
ATOM     23  O   LIG d   1      -2.614  83.163 114.164  0.00  0.00    -0.241 OA
ATOM     24  O   LIG d   1      -3.084  82.195 112.291  0.00  0.00    -0.241 OA
ENDBRANCH   3  22
TORSDOF 7
ENDMDL
MODEL 3
REMARK VINA RESULT:      -4.6      1.459      2.041
REMARK  7 active torsions:
REMARK  status: ('A' for Active; 'I' for Inactive)
REMARK    1  A    between atoms: C_2  and  C_3 
REMARK    2  A    between atoms: C_3  and  O_6 
REMARK    3  A    between atoms: C_3  and  C_4 
REMARK    4  A    between atoms: C_7  and  O_6 
REMARK    5  A    between atoms: C_9  and  C_10 
REMARK    6  A    between atoms: N_15  and  C_14 
REMARK    7  A    between atoms: N_20  and  C_19 
REMARK       I    between atoms: C_22  and  N_20 
ROOT
ATOM      1  C   LIG d   1      -2.198  79.585 116.098  0.00  0.00     0.161 C 
ATOM      2  C   LIG d   1      -2.612  80.742 115.417  0.00  0.00     0.016 C 
ATOM      3  C   LIG d   1      -2.502  80.901 114.017  0.00  0.00     0.038 C 
ATOM      4  C   LIG d   1      -2.108  79.847 113.179  0.00  0.00     0.028 C 
ATOM      5  C   LIG d   1      -1.203  78.831 113.869  0.00  0.00    -0.047 C 
ATOM      6  C   LIG d   1      -1.868  78.382 115.190  0.00  0.00     0.091 C 
ENDROOT
BRANCH   1   7
ATOM      7  O   LIG d   1      -3.187  79.215 117.079  0.00  0.00    -0.368 OA
BRANCH   7   8
ATOM      8  C   LIG d   1      -2.823  79.433 118.465  0.00  0.00     0.119 C 
BRANCH   8   9
ATOM      9  C   LIG d   1      -3.433  78.284 119.290  0.00  0.00     0.028 C 
ATOM     10  C   LIG d   1      -2.628  76.980 119.164  0.00  0.00     0.006 C 
ENDBRANCH   8   9
BRANCH   8  11
ATOM     11  C   LIG d   1      -3.464  80.712 119.014  0.00  0.00     0.028 C 
ATOM     12  C   LIG d   1      -2.444  81.839 119.240  0.00  0.00     0.006 C 
ENDBRANCH   8  11
ENDBRANCH   7   8
ENDBRANCH   1   7
BRANCH   6  13
ATOM     13  N   LIG d   1      -1.010  77.452 115.968  0.00  0.00    -0.311 N 
ATOM     14  C   LIG d   1      -1.088  76.126 115.869  0.00  0.00     0.210 C 
ATOM     15  C   LIG d   1      -0.126  75.352 116.775  0.00  0.00     0.109 C 
ATOM     16  O   LIG d   1      -1.839  75.518 115.091  0.00  0.00    -0.276 OA
ATOM     17  H   LIG d   1      -0.350  77.861 116.601  0.00  0.00     0.149 HD
ENDBRANCH   6  13
BRANCH   5  18
ATOM     18  N   LIG d   1      -0.981  77.719 112.925  0.00  0.00     0.381 N 
ATOM     19  H   LIG d   1      -1.380  76.879 113.293  0.00  0.00    -0.090 HD
ATOM     20  H   LIG d   1       0.007  77.578 112.816  0.00  0.00    -0.090 HD
ATOM     21  H   LIG d   1      -1.393  77.933 112.044  0.00  0.00    -0.090 HD
ENDBRANCH   5  18
BRANCH   3  22
ATOM     22  C   LIG d   1      -2.751  82.139 113.444  0.00  0.00     0.382 C 
ATOM     23  O   LIG d   1      -2.280  82.414 112.315  0.00  0.00    -0.241 OA
ATOM     24  O   LIG d   1      -3.404  83.001 114.063  0.00  0.00    -0.241 OA
ENDBRANCH   3  22
TORSDOF 7
ENDMDL
MODEL 4
REMARK VINA RESULT:      -4.3      2.616      5.207
REMARK  7 active torsions:
REMARK  status: ('A' for Active; 'I' for Inactive)
REMARK    1  A    between atoms: C_2  and  C_3 
REMARK    2  A    between atoms: C_3  and  O_6 
REMARK    3  A    between atoms: C_3  and  C_4 
REMARK    4  A    between atoms: C_7  and  O_6 
REMARK    5  A    between atoms: C_9  and  C_10 
REMARK    6  A    between atoms: N_15  and  C_14 
REMARK    7  A    between atoms: N_20  and  C_19 
REMARK       I    between atoms: C_22  and  N_20 
ROOT
ATOM      1  C   LIG d   1      -1.727  77.241 115.036  0.00  0.00     0.161 C 
ATOM      2  C   LIG d   1      -2.989  77.019 114.461  0.00  0.00     0.016 C 
ATOM      3  C   LIG d   1      -3.908  76.061 114.947  0.00  0.00     0.038 C 
ATOM      4  C   LIG d   1      -3.685  75.359 116.141  0.00  0.00     0.028 C 
ATOM      5  C   LIG d   1      -2.208  75.185 116.474  0.00  0.00    -0.047 C 
ATOM      6  C   LIG d   1      -1.511  76.563 116.405  0.00  0.00     0.091 C 
ENDROOT
BRANCH   1   7
ATOM      7  O   LIG d   1      -1.475  78.657 115.132  0.00  0.00    -0.368 OA
BRANCH   7   8
ATOM      8  C   LIG d   1      -2.643  79.514 115.111  0.00  0.00     0.119 C 
BRANCH   8   9
ATOM      9  C   LIG d   1      -2.325  80.706 114.186  0.00  0.00     0.028 C 
ATOM     10  C   LIG d   1      -2.460  80.345 112.697  0.00  0.00     0.006 C 
ENDBRANCH   8   9
BRANCH   8  11
ATOM     11  C   LIG d   1      -2.908  80.129 116.488  0.00  0.00     0.028 C 
ATOM     12  C   LIG d   1      -4.334  79.861 116.996  0.00  0.00     0.006 C 
ENDBRANCH   8  11
ENDBRANCH   7   8
ENDBRANCH   1   7
BRANCH   6  13
ATOM     13  N   LIG d   1      -0.046  76.470 116.635  0.00  0.00    -0.311 N 
ATOM     14  C   LIG d   1       0.520  76.631 117.830  0.00  0.00     0.210 C 
ATOM     15  C   LIG d   1       2.047  76.515 117.843  0.00  0.00     0.109 C 
ATOM     16  O   LIG d   1      -0.101  76.826 118.886  0.00  0.00    -0.276 OA
ATOM     17  H   LIG d   1       0.530  76.283 115.838  0.00  0.00     0.149 HD
ENDBRANCH   6  13
BRANCH   5  18
ATOM     18  N   LIG d   1      -2.122  74.560 117.808  0.00  0.00     0.381 N 
ATOM     19  H   LIG d   1      -1.279  74.848 118.263  0.00  0.00    -0.090 HD
ATOM     20  H   LIG d   1      -2.097  73.562 117.699  0.00  0.00    -0.090 HD
ATOM     21  H   LIG d   1      -2.911  74.822 118.358  0.00  0.00    -0.090 HD
ENDBRANCH   5  18
BRANCH   3  22
ATOM     22  C   LIG d   1      -5.048  75.768 114.214  0.00  0.00     0.382 C 
ATOM     23  O   LIG d   1      -5.781  74.807 114.551  0.00  0.00    -0.241 OA
ATOM     24  O   LIG d   1      -5.329  76.424 113.193  0.00  0.00    -0.241 OA
ENDBRANCH   3  22
TORSDOF 7
ENDMDL
MODEL 5
REMARK VINA RESULT:      -4.3      3.487      7.088
REMARK  7 active torsions:
REMARK  status: ('A' for Active; 'I' for Inactive)
REMARK    1  A    between atoms: C_2  and  C_3 
REMARK    2  A    between atoms: C_3  and  O_6 
REMARK    3  A    between atoms: C_3  and  C_4 
REMARK    4  A    between atoms: C_7  and  O_6 
REMARK    5  A    between atoms: C_9  and  C_10 
REMARK    6  A    between atoms: N_15  and  C_14 
REMARK    7  A    between atoms: N_20  and  C_19 
REMARK       I    between atoms: C_22  and  N_20 
ROOT
ATOM      1  C   LIG d   1      -0.426  81.134 112.281  0.00  0.00     0.161 C 
ATOM      2  C   LIG d   1      -0.899  79.812 112.320  0.00  0.00     0.016 C 
ATOM      3  C   LIG d   1      -1.910  79.373 113.206  0.00  0.00     0.038 C 
ATOM      4  C   LIG d   1      -2.627  80.267 114.014  0.00  0.00     0.028 C 
ATOM      5  C   LIG d   1      -1.841  81.524 114.373  0.00  0.00    -0.047 C 
ATOM      6  C   LIG d   1      -1.274  82.148 113.077  0.00  0.00     0.091 C 
ENDROOT
BRANCH   1   7
ATOM      7  O   LIG d   1      -0.287  81.563 110.912  0.00  0.00    -0.368 OA
BRANCH   7   8
ATOM      8  C   LIG d   1       1.005  81.331 110.299  0.00  0.00     0.119 C 
BRANCH   8   9
ATOM      9  C   LIG d   1       2.048  81.260 111.432  0.00  0.00     0.028 C 
ATOM     10  C   LIG d   1       3.405  80.724 110.946  0.00  0.00     0.006 C 
ENDBRANCH   8   9
BRANCH   8  11
ATOM     11  C   LIG d   1       1.430  82.518 109.430  0.00  0.00     0.028 C 
ATOM     12  C   LIG d   1       1.137  83.875 110.090  0.00  0.00     0.006 C 
ENDBRANCH   8  11
ENDBRANCH   7   8
ENDBRANCH   1   7
BRANCH   6  13
ATOM     13  N   LIG d   1      -0.421  83.335 113.346  0.00  0.00    -0.311 N 
ATOM     14  C   LIG d   1       0.639  83.308 114.151  0.00  0.00     0.210 C 
ATOM     15  C   LIG d   1       1.368  84.647 114.305  0.00  0.00     0.109 C 
ATOM     16  O   LIG d   1       1.065  82.296 114.728  0.00  0.00    -0.276 OA
ATOM     17  H   LIG d   1      -0.676  84.191 112.894  0.00  0.00     0.149 HD
ENDBRANCH   6  13
BRANCH   5  18
ATOM     18  N   LIG d   1      -2.753  82.428 115.099  0.00  0.00     0.381 N 
ATOM     19  H   LIG d   1      -2.467  82.500 116.055  0.00  0.00    -0.090 HD
ATOM     20  H   LIG d   1      -3.680  82.042 115.076  0.00  0.00    -0.090 HD
ATOM     21  H   LIG d   1      -2.749  83.329 114.675  0.00  0.00    -0.090 HD
ENDBRANCH   5  18
BRANCH   3  22
ATOM     22  C   LIG d   1      -2.184  78.018 113.319  0.00  0.00     0.382 C 
ATOM     23  O   LIG d   1      -1.277  77.221 113.659  0.00  0.00    -0.241 OA
ATOM     24  O   LIG d   1      -3.316  77.578 113.041  0.00  0.00    -0.241 OA
ENDBRANCH   3  22
TORSDOF 7
ENDMDL
MODEL 6
REMARK VINA RESULT:      -4.3      3.164      5.249
REMARK  7 active torsions:
REMARK  status: ('A' for Active; 'I' for Inactive)
REMARK    1  A    between atoms: C_2  and  C_3 
REMARK    2  A    between atoms: C_3  and  O_6 
REMARK    3  A    between atoms: C_3  and  C_4 
REMARK    4  A    between atoms: C_7  and  O_6 
REMARK    5  A    between atoms: C_9  and  C_10 
REMARK    6  A    between atoms: N_15  and  C_14 
REMARK    7  A    between atoms: N_20  and  C_19 
REMARK       I    between atoms: C_22  and  N_20 
ROOT
ATOM      1  C   LIG d   1      -3.548  76.531 117.788  0.00  0.00     0.161 C 
ATOM      2  C   LIG d   1      -4.485  77.542 117.519  0.00  0.00     0.016 C 
ATOM      3  C   LIG d   1      -4.136  78.806 116.990  0.00  0.00     0.038 C 
ATOM      4  C   LIG d   1      -2.836  79.091 116.549  0.00  0.00     0.028 C 
ATOM      5  C   LIG d   1      -1.761  78.281 117.267  0.00  0.00    -0.047 C 
ATOM      6  C   LIG d   1      -2.140  76.784 117.210  0.00  0.00     0.091 C 
ENDROOT
BRANCH   1   7
ATOM      7  O   LIG d   1      -4.056  75.261 117.334  0.00  0.00    -0.368 OA
BRANCH   7   8
ATOM      8  C   LIG d   1      -5.146  75.314 116.381  0.00  0.00     0.119 C 
BRANCH   8   9
ATOM      9  C   LIG d   1      -6.133  74.187 116.743  0.00  0.00     0.028 C 
ATOM     10  C   LIG d   1      -6.659  74.309 118.183  0.00  0.00     0.006 C 
ENDBRANCH   8   9
BRANCH   8  11
ATOM     11  C   LIG d   1      -4.665  74.992 114.964  0.00  0.00     0.028 C 
ATOM     12  C   LIG d   1      -5.488  75.702 113.878  0.00  0.00     0.006 C 
ENDBRANCH   8  11
ENDBRANCH   7   8
ENDBRANCH   1   7
BRANCH   6  13
ATOM     13  N   LIG d   1      -1.185  75.929 117.962  0.00  0.00    -0.311 N 
ATOM     14  C   LIG d   1      -0.474  74.953 117.399  0.00  0.00     0.210 C 
ATOM     15  C   LIG d   1       0.436  74.180 118.358  0.00  0.00     0.109 C 
ATOM     16  O   LIG d   1      -0.487  74.676 116.190  0.00  0.00    -0.276 OA
ATOM     17  H   LIG d   1      -1.089  76.105 118.943  0.00  0.00     0.149 HD
ENDBRANCH   6  13
BRANCH   5  18
ATOM     18  N   LIG d   1      -0.471  78.576 116.615  0.00  0.00     0.381 N 
ATOM     19  H   LIG d   1       0.278  78.202 117.163  0.00  0.00    -0.090 HD
ATOM     20  H   LIG d   1      -0.355  79.573 116.561  0.00  0.00    -0.090 HD
ATOM     21  H   LIG d   1      -0.453  78.182 115.701  0.00  0.00    -0.090 HD
ENDBRANCH   5  18
BRANCH   3  22
ATOM     22  C   LIG d   1      -5.087  79.814 116.934  0.00  0.00     0.382 C 
ATOM     23  O   LIG d   1      -6.308  79.527 116.961  0.00  0.00    -0.241 OA
ATOM     24  O   LIG d   1      -4.739  81.004 116.812  0.00  0.00    -0.241 OA
ENDBRANCH   3  22
TORSDOF 7
ENDMDL
MODEL 7
REMARK VINA RESULT:      -4.2      1.582      1.988
REMARK  7 active torsions:
REMARK  status: ('A' for Active; 'I' for Inactive)
REMARK    1  A    between atoms: C_2  and  C_3 
REMARK    2  A    between atoms: C_3  and  O_6 
REMARK    3  A    between atoms: C_3  and  C_4 
REMARK    4  A    between atoms: C_7  and  O_6 
REMARK    5  A    between atoms: C_9  and  C_10 
REMARK    6  A    between atoms: N_15  and  C_14 
REMARK    7  A    between atoms: N_20  and  C_19 
REMARK       I    between atoms: C_22  and  N_20 
ROOT
ATOM      1  C   LIG d   1      -1.805  81.588 114.946  0.00  0.00     0.161 C 
ATOM      2  C   LIG d   1      -1.580  82.652 114.056  0.00  0.00     0.016 C 
ATOM      3  C   LIG d   1      -1.134  82.474 112.727  0.00  0.00     0.038 C 
ATOM      4  C   LIG d   1      -1.027  81.202 112.145  0.00  0.00     0.028 C 
ATOM      5  C   LIG d   1      -0.759  80.093 113.157  0.00  0.00    -0.047 C 
ATOM      6  C   LIG d   1      -1.801  80.189 114.295  0.00  0.00     0.091 C 
ENDROOT
BRANCH   1   7
ATOM      7  O   LIG d   1      -3.037  81.804 115.663  0.00  0.00    -0.368 OA
BRANCH   7   8
ATOM      8  C   LIG d   1      -2.909  82.092 117.077  0.00  0.00     0.119 C 
BRANCH   8   9
ATOM      9  C   LIG d   1      -1.418  81.960 117.443  0.00  0.00     0.028 C 
ATOM     10  C   LIG d   1      -0.873  83.214 118.147  0.00  0.00     0.006 C 
ENDBRANCH   8   9
BRANCH   8  11
ATOM     11  C   LIG d   1      -3.630  81.042 117.927  0.00  0.00     0.028 C 
ATOM     12  C   LIG d   1      -4.883  80.477 117.239  0.00  0.00     0.006 C 
ENDBRANCH   8  11
ENDBRANCH   7   8
ENDBRANCH   1   7
BRANCH   6  13
ATOM     13  N   LIG d   1      -1.559  79.193 115.371  0.00  0.00    -0.311 N 
ATOM     14  C   LIG d   1      -2.413  78.215 115.670  0.00  0.00     0.210 C 
ATOM     15  C   LIG d   1      -1.979  77.310 116.827  0.00  0.00     0.109 C 
ATOM     16  O   LIG d   1      -3.472  77.992 115.065  0.00  0.00    -0.276 OA
ATOM     17  H   LIG d   1      -0.709  79.282 115.891  0.00  0.00     0.149 HD
ENDBRANCH   6  13
BRANCH   5  18
ATOM     18  N   LIG d   1      -0.808  78.808 112.434  0.00  0.00     0.381 N 
ATOM     19  H   LIG d   1      -1.555  78.247 112.792  0.00  0.00    -0.090 HD
ATOM     20  H   LIG d   1       0.055  78.317 112.585  0.00  0.00    -0.090 HD
ATOM     21  H   LIG d   1      -0.942  78.970 111.460  0.00  0.00    -0.090 HD
ENDBRANCH   5  18
BRANCH   3  22
ATOM     22  C   LIG d   1      -0.750  83.575 111.977  0.00  0.00     0.382 C 
ATOM     23  O   LIG d   1      -0.910  83.573 110.732  0.00  0.00    -0.241 OA
ATOM     24  O   LIG d   1      -0.206  84.553 112.523  0.00  0.00    -0.241 OA
ENDBRANCH   3  22
TORSDOF 7
ENDMDL
MODEL 8
REMARK VINA RESULT:      -4.2      3.109      3.969
REMARK  7 active torsions:
REMARK  status: ('A' for Active; 'I' for Inactive)
REMARK    1  A    between atoms: C_2  and  C_3 
REMARK    2  A    between atoms: C_3  and  O_6 
REMARK    3  A    between atoms: C_3  and  C_4 
REMARK    4  A    between atoms: C_7  and  O_6 
REMARK    5  A    between atoms: C_9  and  C_10 
REMARK    6  A    between atoms: N_15  and  C_14 
REMARK    7  A    between atoms: N_20  and  C_19 
REMARK       I    between atoms: C_22  and  N_20 
ROOT
ATOM      1  C   LIG d   1      -3.900  78.277 117.000  0.00  0.00     0.161 C 
ATOM      2  C   LIG d   1      -3.092  79.202 117.681  0.00  0.00     0.016 C 
ATOM      3  C   LIG d   1      -1.691  79.285 117.511  0.00  0.00     0.038 C 
ATOM      4  C   LIG d   1      -1.018  78.543 116.528  0.00  0.00     0.028 C 
ATOM      5  C   LIG d   1      -1.719  77.236 116.171  0.00  0.00    -0.047 C 
ATOM      6  C   LIG d   1      -3.200  77.535 115.843  0.00  0.00     0.091 C 
ENDROOT
BRANCH   1   7
ATOM      7  O   LIG d   1      -5.096  78.928 116.527  0.00  0.00    -0.368 OA
BRANCH   7   8
ATOM      8  C   LIG d   1      -6.334  78.530 117.165  0.00  0.00     0.119 C 
BRANCH   8   9
ATOM      9  C   LIG d   1      -6.844  79.735 117.978  0.00  0.00     0.028 C 
ATOM     10  C   LIG d   1      -6.372  81.078 117.396  0.00  0.00     0.006 C 
ENDBRANCH   8   9
BRANCH   8  11
ATOM     11  C   LIG d   1      -6.099  77.418 118.192  0.00  0.00     0.028 C 
ATOM     12  C   LIG d   1      -6.837  76.117 117.842  0.00  0.00     0.006 C 
ENDBRANCH   8  11
ENDBRANCH   7   8
ENDBRANCH   1   7
BRANCH   6  13
ATOM     13  N   LIG d   1      -3.978  76.300 115.564  0.00  0.00    -0.311 N 
ATOM     14  C   LIG d   1      -4.545  76.041 114.387  0.00  0.00     0.210 C 
ATOM     15  C   LIG d   1      -5.319  74.721 114.318  0.00  0.00     0.109 C 
ATOM     16  O   LIG d   1      -4.453  76.764 113.383  0.00  0.00    -0.276 OA
ATOM     17  H   LIG d   1      -4.076  75.643 116.313  0.00  0.00     0.149 HD
ENDBRANCH   6  13
BRANCH   5  18
ATOM     18  N   LIG d   1      -0.987  76.633 115.041  0.00  0.00     0.381 N 
ATOM     19  H   LIG d   1      -0.002  76.680 115.212  0.00  0.00    -0.090 HD
ATOM     20  H   LIG d   1      -1.187  77.156 114.207  0.00  0.00    -0.090 HD
ATOM     21  H   LIG d   1      -1.266  75.684 114.922  0.00  0.00    -0.090 HD
ENDBRANCH   5  18
BRANCH   3  22
ATOM     22  C   LIG d   1      -0.942  80.089 118.357  0.00  0.00     0.382 C 
ATOM     23  O   LIG d   1      -0.853  81.320 118.135  0.00  0.00    -0.241 OA
ATOM     24  O   LIG d   1      -0.318  79.591 119.313  0.00  0.00    -0.241 OA
ENDBRANCH   3  22
TORSDOF 7
ENDMDL
MODEL 9
REMARK VINA RESULT:      -4.1      2.364      4.571
REMARK  7 active torsions:
REMARK  status: ('A' for Active; 'I' for Inactive)
REMARK    1  A    between atoms: C_2  and  C_3 
REMARK    2  A    between atoms: C_3  and  O_6 
REMARK    3  A    between atoms: C_3  and  C_4 
REMARK    4  A    between atoms: C_7  and  O_6 
REMARK    5  A    between atoms: C_9  and  C_10 
REMARK    6  A    between atoms: N_15  and  C_14 
REMARK    7  A    between atoms: N_20  and  C_19 
REMARK       I    between atoms: C_22  and  N_20 
ROOT
ATOM      1  C   LIG d   1      -2.724  78.467 115.406  0.00  0.00     0.161 C 
ATOM      2  C   LIG d   1      -2.511  79.066 114.154  0.00  0.00     0.016 C 
ATOM      3  C   LIG d   1      -2.500  80.466 113.952  0.00  0.00     0.038 C 
ATOM      4  C   LIG d   1      -2.553  81.369 115.024  0.00  0.00     0.028 C 
ATOM      5  C   LIG d   1      -3.274  80.816 116.248  0.00  0.00    -0.047 C 
ATOM      6  C   LIG d   1      -2.672  79.437 116.605  0.00  0.00     0.091 C 
ENDROOT
BRANCH   1   7
ATOM      7  O   LIG d   1      -1.790  77.386 115.596  0.00  0.00    -0.368 OA
BRANCH   7   8
ATOM      8  C   LIG d   1      -2.275  76.060 115.272  0.00  0.00     0.119 C 
BRANCH   8   9
ATOM      9  C   LIG d   1      -3.734  75.969 115.759  0.00  0.00     0.028 C 
ATOM     10  C   LIG d   1      -4.674  75.388 114.689  0.00  0.00     0.006 C 
ENDBRANCH   8   9
BRANCH   8  11
ATOM     11  C   LIG d   1      -1.518  74.983 116.056  0.00  0.00     0.028 C 
ATOM     12  C   LIG d   1      -2.139  74.702 117.433  0.00  0.00     0.006 C 
ENDBRANCH   8  11
ENDBRANCH   7   8
ENDBRANCH   1   7
BRANCH   6  13
ATOM     13  N   LIG d   1      -3.378  78.787 117.740  0.00  0.00    -0.311 N 
ATOM     14  C   LIG d   1      -2.746  78.193 118.751  0.00  0.00     0.210 C 
ATOM     15  C   LIG d   1      -3.663  77.568 119.808  0.00  0.00     0.109 C 
ATOM     16  O   LIG d   1      -1.515  78.151 118.890  0.00  0.00    -0.276 OA
ATOM     17  H   LIG d   1      -4.379  78.802 117.724  0.00  0.00     0.149 HD
ENDBRANCH   6  13
BRANCH   5  18
ATOM     18  N   LIG d   1      -3.135  81.805 117.333  0.00  0.00     0.381 N 
ATOM     19  H   LIG d   1      -3.203  81.348 118.220  0.00  0.00    -0.090 HD
ATOM     20  H   LIG d   1      -3.885  82.471 117.264  0.00  0.00    -0.090 HD
ATOM     21  H   LIG d   1      -2.258  82.273 117.258  0.00  0.00    -0.090 HD
ENDBRANCH   5  18
BRANCH   3  22
ATOM     22  C   LIG d   1      -2.477  80.974 112.663  0.00  0.00     0.382 C 
ATOM     23  O   LIG d   1      -3.075  82.045 112.400  0.00  0.00    -0.241 OA
ATOM     24  O   LIG d   1      -1.902  80.352 111.749  0.00  0.00    -0.241 OA
ENDBRANCH   3  22
TORSDOF 7
ENDMDL
