MODEL 1
REMARK VINA RESULT:      -5.5      0.000      0.000
REMARK  7 active torsions:
REMARK  status: ('A' for Active; 'I' for Inactive)
REMARK    1  A    between atoms: C_2  and  C_3 
REMARK    2  A    between atoms: C_3  and  O_6 
REMARK    3  A    between atoms: C_3  and  C_4 
REMARK    4  A    between atoms: C_7  and  O_6 
REMARK    5  A    between atoms: C_9  and  C_10 
REMARK    6  A    between atoms: N_15  and  C_14 
REMARK    7  A    between atoms: N_20  and  C_19 
REMARK       I    between atoms: C_22  and  N_20 
ROOT
ATOM      1  C   LIG d   1      -2.699  78.083 116.487  0.00  0.00     0.161 C 
ATOM      2  C   LIG d   1      -2.998  78.902 115.385  0.00  0.00     0.016 C 
ATOM      3  C   LIG d   1      -2.342  78.796 114.136  0.00  0.00     0.038 C 
ATOM      4  C   LIG d   1      -1.442  77.757 113.857  0.00  0.00     0.028 C 
ATOM      5  C   LIG d   1      -0.737  77.217 115.097  0.00  0.00    -0.047 C 
ATOM      6  C   LIG d   1      -1.798  76.872 116.167  0.00  0.00     0.091 C 
ENDROOT
BRANCH   1   7
ATOM      7  O   LIG d   1      -3.919  77.648 117.117  0.00  0.00    -0.368 OA
BRANCH   7   8
ATOM      8  C   LIG d   1      -5.083  77.559 116.259  0.00  0.00     0.119 C 
BRANCH   8   9
ATOM      9  C   LIG d   1      -6.313  77.940 117.107  0.00  0.00     0.028 C 
ATOM     10  C   LIG d   1      -6.208  79.359 117.689  0.00  0.00     0.006 C 
ENDBRANCH   8   9
BRANCH   8  11
ATOM     11  C   LIG d   1      -5.334  76.118 115.806  0.00  0.00     0.028 C 
ATOM     12  C   LIG d   1      -5.288  75.957 114.279  0.00  0.00     0.006 C 
ENDBRANCH   8  11
ENDBRANCH   7   8
ENDBRANCH   1   7
BRANCH   6  13
ATOM     13  N   LIG d   1      -1.188  76.416 117.444  0.00  0.00    -0.311 N 
ATOM     14  C   LIG d   1      -1.014  75.133 117.756  0.00  0.00     0.210 C 
ATOM     15  C   LIG d   1      -0.386  74.881 119.130  0.00  0.00     0.109 C 
ATOM     16  O   LIG d   1      -1.292  74.180 117.012  0.00  0.00    -0.276 OA
ATOM     17  H   LIG d   1      -0.905  77.124 118.093  0.00  0.00     0.149 HD
ENDBRANCH   6  13
BRANCH   5  18
ATOM     18  N   LIG d   1       0.066  76.051 114.682  0.00  0.00     0.381 N 
ATOM     19  H   LIG d   1       0.445  75.597 115.488  0.00  0.00    -0.090 HD
ATOM     20  H   LIG d   1       0.828  76.369 114.110  0.00  0.00    -0.090 HD
ATOM     21  H   LIG d   1      -0.501  75.413 114.167  0.00  0.00    -0.090 HD
ENDBRANCH   5  18
BRANCH   3  22
ATOM     22  C   LIG d   1      -2.556  79.761 113.164  0.00  0.00     0.382 C 
ATOM     23  O   LIG d   1      -1.959  79.685 112.063  0.00  0.00    -0.241 OA
ATOM     24  O   LIG d   1      -3.304  80.731 113.390  0.00  0.00    -0.241 OA
ENDBRANCH   3  22
TORSDOF 7
ENDMDL
MODEL 2
REMARK VINA RESULT:      -5.4      1.980      4.991
REMARK  7 active torsions:
REMARK  status: ('A' for Active; 'I' for Inactive)
REMARK    1  A    between atoms: C_2  and  C_3 
REMARK    2  A    between atoms: C_3  and  O_6 
REMARK    3  A    between atoms: C_3  and  C_4 
REMARK    4  A    between atoms: C_7  and  O_6 
REMARK    5  A    between atoms: C_9  and  C_10 
REMARK    6  A    between atoms: N_15  and  C_14 
REMARK    7  A    between atoms: N_20  and  C_19 
REMARK       I    between atoms: C_22  and  N_20 
ROOT
ATOM      1  C   LIG d   1      -2.201  76.042 114.913  0.00  0.00     0.161 C 
ATOM      2  C   LIG d   1      -2.092  75.662 116.261  0.00  0.00     0.016 C 
ATOM      3  C   LIG d   1      -1.371  76.406 117.223  0.00  0.00     0.038 C 
ATOM      4  C   LIG d   1      -0.832  77.669 116.933  0.00  0.00     0.028 C 
ATOM      5  C   LIG d   1      -0.485  77.855 115.460  0.00  0.00    -0.047 C 
ATOM      6  C   LIG d   1      -1.714  77.473 114.603  0.00  0.00     0.091 C 
ENDROOT
BRANCH   1   7
ATOM      7  O   LIG d   1      -3.560  75.867 114.465  0.00  0.00    -0.368 OA
BRANCH   7   8
ATOM      8  C   LIG d   1      -4.545  75.618 115.498  0.00  0.00     0.119 C 
BRANCH   8   9
ATOM      9  C   LIG d   1      -5.385  74.405 115.053  0.00  0.00     0.028 C 
ATOM     10  C   LIG d   1      -6.613  74.180 115.952  0.00  0.00     0.006 C 
ENDBRANCH   8   9
BRANCH   8  11
ATOM     11  C   LIG d   1      -5.537  76.779 115.613  0.00  0.00     0.028 C 
ATOM     12  C   LIG d   1      -5.054  77.883 116.566  0.00  0.00     0.006 C 
ENDBRANCH   8  11
ENDBRANCH   7   8
ENDBRANCH   1   7
BRANCH   6  13
ATOM     13  N   LIG d   1      -1.433  77.546 113.145  0.00  0.00    -0.311 N 
ATOM     14  C   LIG d   1      -2.253  78.124 112.269  0.00  0.00     0.210 C 
ATOM     15  C   LIG d   1      -1.783  78.072 110.812  0.00  0.00     0.109 C 
ATOM     16  O   LIG d   1      -3.310  78.703 112.564  0.00  0.00    -0.276 OA
ATOM     17  H   LIG d   1      -0.582  77.129 112.823  0.00  0.00     0.149 HD
ENDBRANCH   6  13
BRANCH   5  18
ATOM     18  N   LIG d   1      -0.065  79.257 115.275  0.00  0.00     0.381 N 
ATOM     19  H   LIG d   1       0.199  79.408 114.322  0.00  0.00    -0.090 HD
ATOM     20  H   LIG d   1       0.735  79.435 115.856  0.00  0.00    -0.090 HD
ATOM     21  H   LIG d   1      -0.809  79.871 115.522  0.00  0.00    -0.090 HD
ENDBRANCH   5  18
BRANCH   3  22
ATOM     22  C   LIG d   1      -1.148  75.869 118.482  0.00  0.00     0.382 C 
ATOM     23  O   LIG d   1      -1.335  76.570 119.505  0.00  0.00    -0.241 OA
ATOM     24  O   LIG d   1      -0.721  74.705 118.605  0.00  0.00    -0.241 OA
ENDBRANCH   3  22
TORSDOF 7
ENDMDL
MODEL 3
REMARK VINA RESULT:      -5.2      0.892      1.384
REMARK  7 active torsions:
REMARK  status: ('A' for Active; 'I' for Inactive)
REMARK    1  A    between atoms: C_2  and  C_3 
REMARK    2  A    between atoms: C_3  and  O_6 
REMARK    3  A    between atoms: C_3  and  C_4 
REMARK    4  A    between atoms: C_7  and  O_6 
REMARK    5  A    between atoms: C_9  and  C_10 
REMARK    6  A    between atoms: N_15  and  C_14 
REMARK    7  A    between atoms: N_20  and  C_19 
REMARK       I    between atoms: C_22  and  N_20 
ROOT
ATOM      1  C   LIG d   1      -2.762  78.141 116.334  0.00  0.00     0.161 C 
ATOM      2  C   LIG d   1      -2.970  78.999 115.241  0.00  0.00     0.016 C 
ATOM      3  C   LIG d   1      -2.251  78.901 114.027  0.00  0.00     0.038 C 
ATOM      4  C   LIG d   1      -1.376  77.836 113.768  0.00  0.00     0.028 C 
ATOM      5  C   LIG d   1      -0.760  77.237 115.028  0.00  0.00    -0.047 C 
ATOM      6  C   LIG d   1      -1.890  76.905 116.029  0.00  0.00     0.091 C 
ENDROOT
BRANCH   1   7
ATOM      7  O   LIG d   1      -4.030  77.736 116.886  0.00  0.00    -0.368 OA
BRANCH   7   8
ATOM      8  C   LIG d   1      -4.983  78.798 117.139  0.00  0.00     0.119 C 
BRANCH   8   9
ATOM      9  C   LIG d   1      -4.675  79.372 118.535  0.00  0.00     0.028 C 
ATOM     10  C   LIG d   1      -5.666  80.474 118.948  0.00  0.00     0.006 C 
ENDBRANCH   8   9
BRANCH   8  11
ATOM     11  C   LIG d   1      -6.412  78.254 117.231  0.00  0.00     0.028 C 
ATOM     12  C   LIG d   1      -6.524  76.792 116.767  0.00  0.00     0.006 C 
ENDBRANCH   8  11
ENDBRANCH   7   8
ENDBRANCH   1   7
BRANCH   6  13
ATOM     13  N   LIG d   1      -1.368  76.392 117.323  0.00  0.00    -0.311 N 
ATOM     14  C   LIG d   1      -1.197  75.097 117.582  0.00  0.00     0.210 C 
ATOM     15  C   LIG d   1      -0.667  74.784 118.985  0.00  0.00     0.109 C 
ATOM     16  O   LIG d   1      -1.403  74.180 116.773  0.00  0.00    -0.276 OA
ATOM     17  H   LIG d   1      -1.146  77.070 118.025  0.00  0.00     0.149 HD
ENDBRANCH   6  13
BRANCH   5  18
ATOM     18  N   LIG d   1       0.020  76.053 114.623  0.00  0.00     0.381 N 
ATOM     19  H   LIG d   1      -0.269  75.751 113.714  0.00  0.00    -0.090 HD
ATOM     20  H   LIG d   1      -0.158  75.308 115.273  0.00  0.00    -0.090 HD
ATOM     21  H   LIG d   1       0.992  76.271 114.614  0.00  0.00    -0.090 HD
ENDBRANCH   5  18
BRANCH   3  22
ATOM     22  C   LIG d   1      -2.376  79.899 113.073  0.00  0.00     0.382 C 
ATOM     23  O   LIG d   1      -3.284  80.758 113.179  0.00  0.00    -0.241 OA
ATOM     24  O   LIG d   1      -1.620  79.925 112.083  0.00  0.00    -0.241 OA
ENDBRANCH   3  22
TORSDOF 7
ENDMDL
MODEL 4
REMARK VINA RESULT:      -5.1      1.165      1.807
REMARK  7 active torsions:
REMARK  status: ('A' for Active; 'I' for Inactive)
REMARK    1  A    between atoms: C_2  and  C_3 
REMARK    2  A    between atoms: C_3  and  O_6 
REMARK    3  A    between atoms: C_3  and  C_4 
REMARK    4  A    between atoms: C_7  and  O_6 
REMARK    5  A    between atoms: C_9  and  C_10 
REMARK    6  A    between atoms: N_15  and  C_14 
REMARK    7  A    between atoms: N_20  and  C_19 
REMARK       I    between atoms: C_22  and  N_20 
ROOT
ATOM      1  C   LIG d   1      -3.049  78.031 116.187  0.00  0.00     0.161 C 
ATOM      2  C   LIG d   1      -3.191  78.912 115.101  0.00  0.00     0.016 C 
ATOM      3  C   LIG d   1      -2.326  78.913 113.982  0.00  0.00     0.038 C 
ATOM      4  C   LIG d   1      -1.346  77.927 113.802  0.00  0.00     0.028 C 
ATOM      5  C   LIG d   1      -0.841  77.328 115.110  0.00  0.00    -0.047 C 
ATOM      6  C   LIG d   1      -2.053  76.875 115.956  0.00  0.00     0.091 C 
ENDROOT
BRANCH   1   7
ATOM      7  O   LIG d   1      -4.339  77.513 116.567  0.00  0.00    -0.368 OA
BRANCH   7   8
ATOM      8  C   LIG d   1      -4.857  77.963 117.843  0.00  0.00     0.119 C 
BRANCH   8   9
ATOM      9  C   LIG d   1      -6.138  78.773 117.563  0.00  0.00     0.028 C 
ATOM     10  C   LIG d   1      -5.961  80.272 117.857  0.00  0.00     0.006 C 
ENDBRANCH   8   9
BRANCH   8  11
ATOM     11  C   LIG d   1      -3.895  78.946 118.518  0.00  0.00     0.028 C 
ATOM     12  C   LIG d   1      -3.345  78.420 119.853  0.00  0.00     0.006 C 
ENDBRANCH   8  11
ENDBRANCH   7   8
ENDBRANCH   1   7
BRANCH   6  13
ATOM     13  N   LIG d   1      -1.652  76.354 117.288  0.00  0.00    -0.311 N 
ATOM     14  C   LIG d   1      -1.378  75.072 117.522  0.00  0.00     0.210 C 
ATOM     15  C   LIG d   1      -1.004  74.744 118.971  0.00  0.00     0.109 C 
ATOM     16  O   LIG d   1      -1.378  74.180 116.660  0.00  0.00    -0.276 OA
ATOM     17  H   LIG d   1      -1.597  77.015 118.039  0.00  0.00     0.149 HD
ENDBRANCH   6  13
BRANCH   5  18
ATOM     18  N   LIG d   1       0.073  76.220 114.770  0.00  0.00     0.381 N 
ATOM     19  H   LIG d   1      -0.049  75.964 113.811  0.00  0.00    -0.090 HD
ATOM     20  H   LIG d   1      -0.154  75.425 115.341  0.00  0.00    -0.090 HD
ATOM     21  H   LIG d   1       1.016  76.495 114.932  0.00  0.00    -0.090 HD
ENDBRANCH   5  18
BRANCH   3  22
ATOM     22  C   LIG d   1      -2.413  79.934 113.048  0.00  0.00     0.382 C 
ATOM     23  O   LIG d   1      -1.602  79.980 112.092  0.00  0.00    -0.241 OA
ATOM     24  O   LIG d   1      -3.264  80.836 113.175  0.00  0.00    -0.241 OA
ENDBRANCH   3  22
TORSDOF 7
ENDMDL
MODEL 5
REMARK VINA RESULT:      -4.7      2.593      4.479
REMARK  7 active torsions:
REMARK  status: ('A' for Active; 'I' for Inactive)
REMARK    1  A    between atoms: C_2  and  C_3 
REMARK    2  A    between atoms: C_3  and  O_6 
REMARK    3  A    between atoms: C_3  and  C_4 
REMARK    4  A    between atoms: C_7  and  O_6 
REMARK    5  A    between atoms: C_9  and  C_10 
REMARK    6  A    between atoms: N_15  and  C_14 
REMARK    7  A    between atoms: N_20  and  C_19 
REMARK       I    between atoms: C_22  and  N_20 
ROOT
ATOM      1  C   LIG d   1      -3.028  77.508 116.902  0.00  0.00     0.161 C 
ATOM      2  C   LIG d   1      -3.869  76.760 116.061  0.00  0.00     0.016 C 
ATOM      3  C   LIG d   1      -3.928  76.940 114.660  0.00  0.00     0.038 C 
ATOM      4  C   LIG d   1      -3.034  77.783 113.982  0.00  0.00     0.028 C 
ATOM      5  C   LIG d   1      -2.512  78.929 114.842  0.00  0.00    -0.047 C 
ATOM      6  C   LIG d   1      -1.966  78.353 116.168  0.00  0.00     0.091 C 
ENDROOT
BRANCH   1   7
ATOM      7  O   LIG d   1      -2.399  76.637 117.863  0.00  0.00    -0.368 OA
BRANCH   7   8
ATOM      8  C   LIG d   1      -1.159  76.015 117.444  0.00  0.00     0.119 C 
BRANCH   8   9
ATOM      9  C   LIG d   1      -1.518  74.677 116.768  0.00  0.00     0.028 C 
ATOM     10  C   LIG d   1      -0.974  74.581 115.333  0.00  0.00     0.006 C 
ENDBRANCH   8   9
BRANCH   8  11
ATOM     11  C   LIG d   1      -0.289  75.641 118.648  0.00  0.00     0.028 C 
ATOM     12  C   LIG d   1      -0.828  74.425 119.418  0.00  0.00     0.006 C 
ENDBRANCH   8  11
ENDBRANCH   7   8
ENDBRANCH   1   7
BRANCH   6  13
ATOM     13  N   LIG d   1      -1.512  79.415 117.103  0.00  0.00    -0.311 N 
ATOM     14  C   LIG d   1      -0.239  79.584 117.458  0.00  0.00     0.210 C 
ATOM     15  C   LIG d   1       0.009  80.726 118.449  0.00  0.00     0.109 C 
ATOM     16  O   LIG d   1       0.711  78.917 117.023  0.00  0.00    -0.276 OA
ATOM     17  H   LIG d   1      -2.214  80.021 117.480  0.00  0.00     0.149 HD
ENDBRANCH   6  13
BRANCH   5  18
ATOM     18  N   LIG d   1      -1.488  79.644 114.057  0.00  0.00     0.381 N 
ATOM     19  H   LIG d   1      -1.882  80.475 113.664  0.00  0.00    -0.090 HD
ATOM     20  H   LIG d   1      -1.184  79.053 113.303  0.00  0.00    -0.090 HD
ATOM     21  H   LIG d   1      -0.714  79.878 114.638  0.00  0.00    -0.090 HD
ENDBRANCH   5  18
BRANCH   3  22
ATOM     22  C   LIG d   1      -4.918  76.303 113.926  0.00  0.00     0.382 C 
ATOM     23  O   LIG d   1      -5.668  76.970 113.173  0.00  0.00    -0.241 OA
ATOM     24  O   LIG d   1      -5.098  75.076 114.041  0.00  0.00    -0.241 OA
ENDBRANCH   3  22
TORSDOF 7
ENDMDL
MODEL 6
REMARK VINA RESULT:      -4.5      2.561      3.836
REMARK  7 active torsions:
REMARK  status: ('A' for Active; 'I' for Inactive)
REMARK    1  A    between atoms: C_2  and  C_3 
REMARK    2  A    between atoms: C_3  and  O_6 
REMARK    3  A    between atoms: C_3  and  C_4 
REMARK    4  A    between atoms: C_7  and  O_6 
REMARK    5  A    between atoms: C_9  and  C_10 
REMARK    6  A    between atoms: N_15  and  C_14 
REMARK    7  A    between atoms: N_20  and  C_19 
REMARK       I    between atoms: C_22  and  N_20 
ROOT
ATOM      1  C   LIG d   1      -2.365  78.716 116.036  0.00  0.00     0.161 C 
ATOM      2  C   LIG d   1      -3.453  77.884 115.723  0.00  0.00     0.016 C 
ATOM      3  C   LIG d   1      -3.308  76.575 115.208  0.00  0.00     0.038 C 
ATOM      4  C   LIG d   1      -2.056  75.950 115.114  0.00  0.00     0.028 C 
ATOM      5  C   LIG d   1      -0.900  76.931 114.943  0.00  0.00    -0.047 C 
ATOM      6  C   LIG d   1      -0.992  78.011 116.044  0.00  0.00     0.091 C 
ENDROOT
BRANCH   1   7
ATOM      7  O   LIG d   1      -2.599  79.372 117.298  0.00  0.00    -0.368 OA
BRANCH   7   8
ATOM      8  C   LIG d   1      -3.363  78.621 118.274  0.00  0.00     0.119 C 
BRANCH   8   9
ATOM      9  C   LIG d   1      -4.444  79.563 118.840  0.00  0.00     0.028 C 
ATOM     10  C   LIG d   1      -5.866  79.124 118.453  0.00  0.00     0.006 C 
ENDBRANCH   8   9
BRANCH   8  11
ATOM     11  C   LIG d   1      -2.498  78.229 119.476  0.00  0.00     0.028 C 
ATOM     12  C   LIG d   1      -1.895  76.821 119.341  0.00  0.00     0.006 C 
ENDBRANCH   8  11
ENDBRANCH   7   8
ENDBRANCH   1   7
BRANCH   6  13
ATOM     13  N   LIG d   1       0.052  79.059 115.899  0.00  0.00    -0.311 N 
ATOM     14  C   LIG d   1       0.804  79.489 116.911  0.00  0.00     0.210 C 
ATOM     15  C   LIG d   1       1.807  80.589 116.549  0.00  0.00     0.109 C 
ATOM     16  O   LIG d   1       0.758  79.041 118.067  0.00  0.00    -0.276 OA
ATOM     17  H   LIG d   1       0.178  79.454 114.988  0.00  0.00     0.149 HD
ENDBRANCH   6  13
BRANCH   5  18
ATOM     18  N   LIG d   1       0.354  76.156 114.997  0.00  0.00     0.381 N 
ATOM     19  H   LIG d   1       0.857  76.266 114.139  0.00  0.00    -0.090 HD
ATOM     20  H   LIG d   1       0.130  75.183 115.108  0.00  0.00    -0.090 HD
ATOM     21  H   LIG d   1       0.913  76.465 115.761  0.00  0.00    -0.090 HD
ENDBRANCH   5  18
BRANCH   3  22
ATOM     22  C   LIG d   1      -4.422  75.892 114.745  0.00  0.00     0.382 C 
ATOM     23  O   LIG d   1      -4.928  76.197 113.638  0.00  0.00    -0.241 OA
ATOM     24  O   LIG d   1      -4.953  75.005 115.439  0.00  0.00    -0.241 OA
ENDBRANCH   3  22
TORSDOF 7
ENDMDL
MODEL 7
REMARK VINA RESULT:      -4.4      2.863      5.403
REMARK  7 active torsions:
REMARK  status: ('A' for Active; 'I' for Inactive)
REMARK    1  A    between atoms: C_2  and  C_3 
REMARK    2  A    between atoms: C_3  and  O_6 
REMARK    3  A    between atoms: C_3  and  C_4 
REMARK    4  A    between atoms: C_7  and  O_6 
REMARK    5  A    between atoms: C_9  and  C_10 
REMARK    6  A    between atoms: N_15  and  C_14 
REMARK    7  A    between atoms: N_20  and  C_19 
REMARK       I    between atoms: C_22  and  N_20 
ROOT
ATOM      1  C   LIG d   1      -1.654  79.483 114.622  0.00  0.00     0.161 C 
ATOM      2  C   LIG d   1      -2.636  78.553 115.002  0.00  0.00     0.016 C 
ATOM      3  C   LIG d   1      -3.278  77.683 114.092  0.00  0.00     0.038 C 
ATOM      4  C   LIG d   1      -2.871  77.579 112.753  0.00  0.00     0.028 C 
ATOM      5  C   LIG d   1      -2.231  78.854 112.214  0.00  0.00    -0.047 C 
ATOM      6  C   LIG d   1      -1.118  79.307 113.186  0.00  0.00     0.091 C 
ENDROOT
BRANCH   1   7
ATOM      7  O   LIG d   1      -0.567  79.461 115.569  0.00  0.00    -0.368 OA
BRANCH   7   8
ATOM      8  C   LIG d   1      -0.805  78.727 116.795  0.00  0.00     0.119 C 
BRANCH   8   9
ATOM      9  C   LIG d   1      -0.738  79.736 117.958  0.00  0.00     0.028 C 
ATOM     10  C   LIG d   1      -2.102  79.937 118.639  0.00  0.00     0.006 C 
ENDBRANCH   8   9
BRANCH   8  11
ATOM     11  C   LIG d   1       0.315  77.719 117.067  0.00  0.00     0.028 C 
ATOM     12  C   LIG d   1      -0.152  76.260 116.940  0.00  0.00     0.006 C 
ENDBRANCH   8  11
ENDBRANCH   7   8
ENDBRANCH   1   7
BRANCH   6  13
ATOM     13  N   LIG d   1      -0.497  80.593 112.776  0.00  0.00    -0.311 N 
ATOM     14  C   LIG d   1      -1.195  81.704 112.546  0.00  0.00     0.210 C 
ATOM     15  C   LIG d   1      -0.361  82.914 112.115  0.00  0.00     0.109 C 
ATOM     16  O   LIG d   1      -2.422  81.810 112.690  0.00  0.00    -0.276 OA
ATOM     17  H   LIG d   1       0.498  80.605 112.666  0.00  0.00     0.149 HD
ENDBRANCH   6  13
BRANCH   5  18
ATOM     18  N   LIG d   1      -1.731  78.561 110.857  0.00  0.00     0.381 N 
ATOM     19  H   LIG d   1      -0.734  78.646 110.838  0.00  0.00    -0.090 HD
ATOM     20  H   LIG d   1      -2.117  79.232 110.217  0.00  0.00    -0.090 HD
ATOM     21  H   LIG d   1      -1.998  77.641 110.586  0.00  0.00    -0.090 HD
ENDBRANCH   5  18
BRANCH   3  22
ATOM     22  C   LIG d   1      -4.368  76.934 114.509  0.00  0.00     0.382 C 
ATOM     23  O   LIG d   1      -4.606  75.823 113.976  0.00  0.00    -0.241 OA
ATOM     24  O   LIG d   1      -5.141  77.374 115.381  0.00  0.00    -0.241 OA
ENDBRANCH   3  22
TORSDOF 7
ENDMDL
MODEL 8
REMARK VINA RESULT:      -4.2      1.918      4.826
REMARK  7 active torsions:
REMARK  status: ('A' for Active; 'I' for Inactive)
REMARK    1  A    between atoms: C_2  and  C_3 
REMARK    2  A    between atoms: C_3  and  O_6 
REMARK    3  A    between atoms: C_3  and  C_4 
REMARK    4  A    between atoms: C_7  and  O_6 
REMARK    5  A    between atoms: C_9  and  C_10 
REMARK    6  A    between atoms: N_15  and  C_14 
REMARK    7  A    between atoms: N_20  and  C_19 
REMARK       I    between atoms: C_22  and  N_20 
ROOT
ATOM      1  C   LIG d   1      -2.208  78.437 114.838  0.00  0.00     0.161 C 
ATOM      2  C   LIG d   1      -3.371  78.889 115.483  0.00  0.00     0.016 C 
ATOM      3  C   LIG d   1      -3.750  78.480 116.782  0.00  0.00     0.038 C 
ATOM      4  C   LIG d   1      -2.907  77.702 117.589  0.00  0.00     0.028 C 
ATOM      5  C   LIG d   1      -1.958  76.812 116.794  0.00  0.00    -0.047 C 
ATOM      6  C   LIG d   1      -1.219  77.676 115.746  0.00  0.00     0.091 C 
ENDROOT
BRANCH   1   7
ATOM      7  O   LIG d   1      -1.546  79.543 114.193  0.00  0.00    -0.368 OA
BRANCH   7   8
ATOM      8  C   LIG d   1      -1.887  79.768 112.803  0.00  0.00     0.119 C 
BRANCH   8   9
ATOM      9  C   LIG d   1      -2.323  78.414 112.209  0.00  0.00     0.028 C 
ATOM     10  C   LIG d   1      -1.625  78.107 110.874  0.00  0.00     0.006 C 
ENDBRANCH   8   9
BRANCH   8  11
ATOM     11  C   LIG d   1      -0.660  80.190 111.990  0.00  0.00     0.028 C 
ATOM     12  C   LIG d   1      -0.361  81.694 112.099  0.00  0.00     0.006 C 
ENDBRANCH   8  11
ENDBRANCH   7   8
ENDBRANCH   1   7
BRANCH   6  13
ATOM     13  N   LIG d   1      -0.333  76.868 114.868  0.00  0.00    -0.311 N 
ATOM     14  C   LIG d   1      -0.653  75.656 114.419  0.00  0.00     0.210 C 
ATOM     15  C   LIG d   1       0.412  74.988 113.544  0.00  0.00     0.109 C 
ATOM     16  O   LIG d   1      -1.732  75.083 114.637  0.00  0.00    -0.276 OA
ATOM     17  H   LIG d   1       0.549  77.270 114.617  0.00  0.00     0.149 HD
ENDBRANCH   6  13
BRANCH   5  18
ATOM     18  N   LIG d   1      -1.046  76.163 117.754  0.00  0.00     0.381 N 
ATOM     19  H   LIG d   1      -0.801  75.250 117.425  0.00  0.00    -0.090 HD
ATOM     20  H   LIG d   1      -1.518  76.064 118.636  0.00  0.00    -0.090 HD
ATOM     21  H   LIG d   1      -0.223  76.713 117.869  0.00  0.00    -0.090 HD
ENDBRANCH   5  18
BRANCH   3  22
ATOM     22  C   LIG d   1      -5.003  78.816 117.270  0.00  0.00     0.382 C 
ATOM     23  O   LIG d   1      -5.558  79.877 116.895  0.00  0.00    -0.241 OA
ATOM     24  O   LIG d   1      -5.566  78.095 118.116  0.00  0.00    -0.241 OA
ENDBRANCH   3  22
TORSDOF 7
ENDMDL
MODEL 9
REMARK VINA RESULT:      -4.1      2.560      4.455
REMARK  7 active torsions:
REMARK  status: ('A' for Active; 'I' for Inactive)
REMARK    1  A    between atoms: C_2  and  C_3 
REMARK    2  A    between atoms: C_3  and  O_6 
REMARK    3  A    between atoms: C_3  and  C_4 
REMARK    4  A    between atoms: C_7  and  O_6 
REMARK    5  A    between atoms: C_9  and  C_10 
REMARK    6  A    between atoms: N_15  and  C_14 
REMARK    7  A    between atoms: N_20  and  C_19 
REMARK       I    between atoms: C_22  and  N_20 
ROOT
ATOM      1  C   LIG d   1      -0.710  78.078 115.799  0.00  0.00     0.161 C 
ATOM      2  C   LIG d   1      -1.130  78.960 114.788  0.00  0.00     0.016 C 
ATOM      3  C   LIG d   1      -2.282  78.745 113.997  0.00  0.00     0.038 C 
ATOM      4  C   LIG d   1      -3.183  77.703 114.267  0.00  0.00     0.028 C 
ATOM      5  C   LIG d   1      -2.535  76.504 114.950  0.00  0.00    -0.047 C 
ATOM      6  C   LIG d   1      -1.741  76.996 116.181  0.00  0.00     0.091 C 
ENDROOT
BRANCH   1   7
ATOM      7  O   LIG d   1      -0.313  78.826 116.965  0.00  0.00    -0.368 OA
BRANCH   7   8
ATOM      8  C   LIG d   1       1.114  78.959 117.181  0.00  0.00     0.119 C 
BRANCH   8   9
ATOM      9  C   LIG d   1       1.442  78.285 118.528  0.00  0.00     0.028 C 
ATOM     10  C   LIG d   1       2.689  77.388 118.446  0.00  0.00     0.006 C 
ENDBRANCH   8   9
BRANCH   8  11
ATOM     11  C   LIG d   1       1.517  80.426 117.353  0.00  0.00     0.028 C 
ATOM     12  C   LIG d   1       2.396  80.941 116.203  0.00  0.00     0.006 C 
ENDBRANCH   8  11
ENDBRANCH   7   8
ENDBRANCH   1   7
BRANCH   6  13
ATOM     13  N   LIG d   1      -1.007  75.895 116.859  0.00  0.00    -0.311 N 
ATOM     14  C   LIG d   1      -1.087  75.657 118.167  0.00  0.00     0.210 C 
ATOM     15  C   LIG d   1      -0.233  74.487 118.665  0.00  0.00     0.109 C 
ATOM     16  O   LIG d   1      -1.808  76.284 118.957  0.00  0.00    -0.276 OA
ATOM     17  H   LIG d   1      -0.422  75.318 116.288  0.00  0.00     0.149 HD
ENDBRANCH   6  13
BRANCH   5  18
ATOM     18  N   LIG d   1      -3.609  75.554 115.296  0.00  0.00     0.381 N 
ATOM     19  H   LIG d   1      -3.399  75.107 116.166  0.00  0.00    -0.090 HD
ATOM     20  H   LIG d   1      -3.661  74.848 114.583  0.00  0.00    -0.090 HD
ATOM     21  H   LIG d   1      -4.480  76.034 115.363  0.00  0.00    -0.090 HD
ENDBRANCH   5  18
BRANCH   3  22
ATOM     22  C   LIG d   1      -2.521  79.554 112.897  0.00  0.00     0.382 C 
ATOM     23  O   LIG d   1      -2.012  79.269 111.786  0.00  0.00    -0.241 OA
ATOM     24  O   LIG d   1      -3.203  80.590 113.012  0.00  0.00    -0.241 OA
ENDBRANCH   3  22
TORSDOF 7
ENDMDL
