MODEL 1
REMARK VINA RESULT:      -4.9      0.000      0.000
REMARK  7 active torsions:
REMARK  status: ('A' for Active; 'I' for Inactive)
REMARK    1  A    between atoms: C_2  and  C_3 
REMARK    2  A    between atoms: C_3  and  O_6 
REMARK    3  A    between atoms: C_3  and  C_4 
REMARK    4  A    between atoms: C_7  and  O_6 
REMARK    5  A    between atoms: C_9  and  C_10 
REMARK    6  A    between atoms: N_15  and  C_14 
REMARK    7  A    between atoms: N_20  and  C_19 
REMARK       I    between atoms: C_22  and  N_20 
ROOT
ATOM      1  C   LIG d   1      -2.811  78.076 116.628  0.00  0.00     0.161 C 
ATOM      2  C   LIG d   1      -3.073  78.926 115.540  0.00  0.00     0.016 C 
ATOM      3  C   LIG d   1      -2.506  78.745 114.258  0.00  0.00     0.038 C 
ATOM      4  C   LIG d   1      -1.752  77.607 113.934  0.00  0.00     0.028 C 
ATOM      5  C   LIG d   1      -1.047  76.986 115.135  0.00  0.00    -0.047 C 
ATOM      6  C   LIG d   1      -2.080  76.767 116.264  0.00  0.00     0.091 C 
ENDROOT
BRANCH   1   7
ATOM      7  O   LIG d   1      -4.038  77.787 117.328  0.00  0.00    -0.368 OA
BRANCH   7   8
ATOM      8  C   LIG d   1      -5.244  77.780 116.525  0.00  0.00     0.119 C 
BRANCH   8   9
ATOM      9  C   LIG d   1      -6.343  78.494 117.334  0.00  0.00     0.028 C 
ATOM     10  C   LIG d   1      -5.969  79.946 117.677  0.00  0.00     0.006 C 
ENDBRANCH   8   9
BRANCH   8  11
ATOM     11  C   LIG d   1      -5.761  76.354 116.309  0.00  0.00     0.028 C 
ATOM     12  C   LIG d   1      -5.562  75.860 114.867  0.00  0.00     0.006 C 
ENDBRANCH   8  11
ENDBRANCH   7   8
ENDBRANCH   1   7
BRANCH   6  13
ATOM     13  N   LIG d   1      -1.457  76.240 117.507  0.00  0.00    -0.311 N 
ATOM     14  C   LIG d   1      -1.703  75.024 117.991  0.00  0.00     0.210 C 
ATOM     15  C   LIG d   1      -0.973  74.687 119.295  0.00  0.00     0.109 C 
ATOM     16  O   LIG d   1      -2.432  74.180 117.447  0.00  0.00    -0.276 OA
ATOM     17  H   LIG d   1      -0.829  76.847 117.995  0.00  0.00     0.149 HD
ENDBRANCH   6  13
BRANCH   5  18
ATOM     18  N   LIG d   1      -0.413  75.734 114.681  0.00  0.00     0.381 N 
ATOM     19  H   LIG d   1      -0.428  75.059 115.419  0.00  0.00    -0.090 HD
ATOM     20  H   LIG d   1       0.546  75.922 114.445  0.00  0.00    -0.090 HD
ATOM     21  H   LIG d   1      -0.894  75.377 113.885  0.00  0.00    -0.090 HD
ENDBRANCH   5  18
BRANCH   3  22
ATOM     22  C   LIG d   1      -2.658  79.730 113.294  0.00  0.00     0.382 C 
ATOM     23  O   LIG d   1      -2.028  79.651 112.212  0.00  0.00    -0.241 OA
ATOM     24  O   LIG d   1      -3.384  80.719 113.511  0.00  0.00    -0.241 OA
ENDBRANCH   3  22
TORSDOF 7
ENDMDL
MODEL 2
REMARK VINA RESULT:      -4.7      1.159      2.127
REMARK  7 active torsions:
REMARK  status: ('A' for Active; 'I' for Inactive)
REMARK    1  A    between atoms: C_2  and  C_3 
REMARK    2  A    between atoms: C_3  and  O_6 
REMARK    3  A    between atoms: C_3  and  C_4 
REMARK    4  A    between atoms: C_7  and  O_6 
REMARK    5  A    between atoms: C_9  and  C_10 
REMARK    6  A    between atoms: N_15  and  C_14 
REMARK    7  A    between atoms: N_20  and  C_19 
REMARK       I    between atoms: C_22  and  N_20 
ROOT
ATOM      1  C   LIG d   1      -3.453  78.602 115.851  0.00  0.00     0.161 C 
ATOM      2  C   LIG d   1      -3.327  79.525 114.800  0.00  0.00     0.016 C 
ATOM      3  C   LIG d   1      -2.419  79.365 113.728  0.00  0.00     0.038 C 
ATOM      4  C   LIG d   1      -1.677  78.187 113.555  0.00  0.00     0.028 C 
ATOM      5  C   LIG d   1      -1.400  77.448 114.860  0.00  0.00    -0.047 C 
ATOM      6  C   LIG d   1      -2.732  77.257 115.620  0.00  0.00     0.091 C 
ENDROOT
BRANCH   1   7
ATOM      7  O   LIG d   1      -4.848  78.379 116.140  0.00  0.00    -0.368 OA
BRANCH   7   8
ATOM      8  C   LIG d   1      -5.276  78.691 117.489  0.00  0.00     0.119 C 
BRANCH   8   9
ATOM      9  C   LIG d   1      -6.631  77.992 117.717  0.00  0.00     0.028 C 
ATOM     10  C   LIG d   1      -6.817  76.762 116.813  0.00  0.00     0.006 C 
ENDBRANCH   8   9
BRANCH   8  11
ATOM     11  C   LIG d   1      -5.559  80.187 117.652  0.00  0.00     0.028 C 
ATOM     12  C   LIG d   1      -7.045  80.489 117.900  0.00  0.00     0.006 C 
ENDBRANCH   8  11
ENDBRANCH   7   8
ENDBRANCH   1   7
BRANCH   6  13
ATOM     13  N   LIG d   1      -2.540  76.617 116.948  0.00  0.00    -0.311 N 
ATOM     14  C   LIG d   1      -2.677  75.309 117.157  0.00  0.00     0.210 C 
ATOM     15  C   LIG d   1      -2.454  74.859 118.605  0.00  0.00     0.109 C 
ATOM     16  O   LIG d   1      -2.930  74.474 116.276  0.00  0.00    -0.276 OA
ATOM     17  H   LIG d   1      -2.302  77.217 117.713  0.00  0.00     0.149 HD
ENDBRANCH   6  13
BRANCH   5  18
ATOM     18  N   LIG d   1      -0.741  76.173 114.519  0.00  0.00     0.381 N 
ATOM     19  H   LIG d   1       0.237  76.325 114.376  0.00  0.00    -0.090 HD
ATOM     20  H   LIG d   1      -1.134  75.823 113.663  0.00  0.00    -0.090 HD
ATOM     21  H   LIG d   1      -0.878  75.512 115.251  0.00  0.00    -0.090 HD
ENDBRANCH   5  18
BRANCH   3  22
ATOM     22  C   LIG d   1      -2.216  80.408 112.837  0.00  0.00     0.382 C 
ATOM     23  O   LIG d   1      -3.053  81.340 112.763  0.00  0.00    -0.241 OA
ATOM     24  O   LIG d   1      -1.231  80.406 112.075  0.00  0.00    -0.241 OA
ENDBRANCH   3  22
TORSDOF 7
ENDMDL
MODEL 3
REMARK VINA RESULT:      -4.3      2.540      4.375
REMARK  7 active torsions:
REMARK  status: ('A' for Active; 'I' for Inactive)
REMARK    1  A    between atoms: C_2  and  C_3 
REMARK    2  A    between atoms: C_3  and  O_6 
REMARK    3  A    between atoms: C_3  and  C_4 
REMARK    4  A    between atoms: C_7  and  O_6 
REMARK    5  A    between atoms: C_9  and  C_10 
REMARK    6  A    between atoms: N_15  and  C_14 
REMARK    7  A    between atoms: N_20  and  C_19 
REMARK       I    between atoms: C_22  and  N_20 
ROOT
ATOM      1  C   LIG d   1      -1.248  76.140 115.367  0.00  0.00     0.161 C 
ATOM      2  C   LIG d   1      -2.513  76.054 114.762  0.00  0.00     0.016 C 
ATOM      3  C   LIG d   1      -3.617  75.402 115.358  0.00  0.00     0.038 C 
ATOM      4  C   LIG d   1      -3.572  74.919 116.674  0.00  0.00     0.028 C 
ATOM      5  C   LIG d   1      -2.168  74.536 117.130  0.00  0.00    -0.047 C 
ATOM      6  C   LIG d   1      -1.210  75.716 116.850  0.00  0.00     0.091 C 
ENDROOT
BRANCH   1   7
ATOM      7  O   LIG d   1      -0.723  77.473 115.213  0.00  0.00    -0.368 OA
BRANCH   7   8
ATOM      8  C   LIG d   1      -1.702  78.533 115.079  0.00  0.00     0.119 C 
BRANCH   8   9
ATOM      9  C   LIG d   1      -1.242  79.445 113.925  0.00  0.00     0.028 C 
ATOM     10  C   LIG d   1      -1.893  79.067 112.584  0.00  0.00     0.006 C 
ENDBRANCH   8   9
BRANCH   8  11
ATOM     11  C   LIG d   1      -1.726  79.430 116.320  0.00  0.00     0.028 C 
ATOM     12  C   LIG d   1      -3.035  79.311 117.116  0.00  0.00     0.006 C 
ENDBRANCH   8  11
ENDBRANCH   7   8
ENDBRANCH   1   7
BRANCH   6  13
ATOM     13  N   LIG d   1       0.201  75.394 117.189  0.00  0.00    -0.311 N 
ATOM     14  C   LIG d   1       0.759  75.691 118.361  0.00  0.00     0.210 C 
ATOM     15  C   LIG d   1       2.231  75.288 118.497  0.00  0.00     0.109 C 
ATOM     16  O   LIG d   1       0.166  76.220 119.313  0.00  0.00    -0.276 OA
ATOM     17  H   LIG d   1       0.746  74.936 116.485  0.00  0.00     0.149 HD
ENDBRANCH   6  13
BRANCH   5  18
ATOM     18  N   LIG d   1      -2.245  74.181 118.560  0.00  0.00     0.381 N 
ATOM     19  H   LIG d   1      -1.951  73.233 118.690  0.00  0.00    -0.090 HD
ATOM     20  H   LIG d   1      -3.200  74.260 118.863  0.00  0.00    -0.090 HD
ATOM     21  H   LIG d   1      -1.667  74.791 119.095  0.00  0.00    -0.090 HD
ENDBRANCH   5  18
BRANCH   3  22
ATOM     22  C   LIG d   1      -4.772  75.192 114.619  0.00  0.00     0.382 C 
ATOM     23  O   LIG d   1      -5.630  74.368 115.017  0.00  0.00    -0.241 OA
ATOM     24  O   LIG d   1      -4.946  75.784 113.537  0.00  0.00    -0.241 OA
ENDBRANCH   3  22
TORSDOF 7
ENDMDL
MODEL 4
REMARK VINA RESULT:      -4.2      2.622      3.975
REMARK  7 active torsions:
REMARK  status: ('A' for Active; 'I' for Inactive)
REMARK    1  A    between atoms: C_2  and  C_3 
REMARK    2  A    between atoms: C_3  and  O_6 
REMARK    3  A    between atoms: C_3  and  C_4 
REMARK    4  A    between atoms: C_7  and  O_6 
REMARK    5  A    between atoms: C_9  and  C_10 
REMARK    6  A    between atoms: N_15  and  C_14 
REMARK    7  A    between atoms: N_20  and  C_19 
REMARK       I    between atoms: C_22  and  N_20 
ROOT
ATOM      1  C   LIG d   1      -3.710  78.420 116.859  0.00  0.00     0.161 C 
ATOM      2  C   LIG d   1      -2.899  79.415 117.429  0.00  0.00     0.016 C 
ATOM      3  C   LIG d   1      -1.562  79.650 117.032  0.00  0.00     0.038 C 
ATOM      4  C   LIG d   1      -0.991  79.002 115.927  0.00  0.00     0.028 C 
ATOM      5  C   LIG d   1      -1.604  77.634 115.644  0.00  0.00    -0.047 C 
ATOM      6  C   LIG d   1      -3.141  77.777 115.577  0.00  0.00     0.091 C 
ENDROOT
BRANCH   1   7
ATOM      7  O   LIG d   1      -5.029  78.946 116.613  0.00  0.00    -0.368 OA
BRANCH   7   8
ATOM      8  C   LIG d   1      -5.810  79.283 117.786  0.00  0.00     0.119 C 
BRANCH   8   9
ATOM      9  C   LIG d   1      -7.059  78.382 117.786  0.00  0.00     0.028 C 
ATOM     10  C   LIG d   1      -6.812  77.037 117.082  0.00  0.00     0.006 C 
ENDBRANCH   8   9
BRANCH   8  11
ATOM     11  C   LIG d   1      -6.344  80.717 117.707  0.00  0.00     0.028 C 
ATOM     12  C   LIG d   1      -6.601  81.334 119.091  0.00  0.00     0.006 C 
ENDBRANCH   8  11
ENDBRANCH   7   8
ENDBRANCH   1   7
BRANCH   6  13
ATOM     13  N   LIG d   1      -3.824  76.471 115.387  0.00  0.00    -0.311 N 
ATOM     14  C   LIG d   1      -4.446  76.125 114.261  0.00  0.00     0.210 C 
ATOM     15  C   LIG d   1      -5.102  74.741 114.283  0.00  0.00     0.109 C 
ATOM     16  O   LIG d   1      -4.488  76.820 113.235  0.00  0.00    -0.276 OA
ATOM     17  H   LIG d   1      -3.812  75.833 116.159  0.00  0.00     0.149 HD
ENDBRANCH   6  13
BRANCH   5  18
ATOM     18  N   LIG d   1      -1.014  77.132 114.389  0.00  0.00     0.381 N 
ATOM     19  H   LIG d   1      -0.957  76.134 114.417  0.00  0.00    -0.090 HD
ATOM     20  H   LIG d   1      -0.083  77.499 114.298  0.00  0.00    -0.090 HD
ATOM     21  H   LIG d   1      -1.569  77.420 113.613  0.00  0.00    -0.090 HD
ENDBRANCH   5  18
BRANCH   3  22
ATOM     22  C   LIG d   1      -0.769  80.515 117.771  0.00  0.00     0.382 C 
ATOM     23  O   LIG d   1      -0.775  80.457 119.024  0.00  0.00    -0.241 OA
ATOM     24  O   LIG d   1      -0.080  81.383 117.201  0.00  0.00    -0.241 OA
ENDBRANCH   3  22
TORSDOF 7
ENDMDL
MODEL 5
REMARK VINA RESULT:      -4.2      3.206      5.694
REMARK  7 active torsions:
REMARK  status: ('A' for Active; 'I' for Inactive)
REMARK    1  A    between atoms: C_2  and  C_3 
REMARK    2  A    between atoms: C_3  and  O_6 
REMARK    3  A    between atoms: C_3  and  C_4 
REMARK    4  A    between atoms: C_7  and  O_6 
REMARK    5  A    between atoms: C_9  and  C_10 
REMARK    6  A    between atoms: N_15  and  C_14 
REMARK    7  A    between atoms: N_20  and  C_19 
REMARK       I    between atoms: C_22  and  N_20 
ROOT
ATOM      1  C   LIG d   1      -1.438  79.010 114.022  0.00  0.00     0.161 C 
ATOM      2  C   LIG d   1      -2.495  78.185 113.602  0.00  0.00     0.016 C 
ATOM      3  C   LIG d   1      -3.322  77.464 114.494  0.00  0.00     0.038 C 
ATOM      4  C   LIG d   1      -3.242  77.638 115.883  0.00  0.00     0.028 C 
ATOM      5  C   LIG d   1      -1.861  78.072 116.361  0.00  0.00    -0.047 C 
ATOM      6  C   LIG d   1      -1.407  79.299 115.537  0.00  0.00     0.091 C 
ENDROOT
BRANCH   1   7
ATOM      7  O   LIG d   1      -1.455  80.243 113.277  0.00  0.00    -0.368 OA
BRANCH   7   8
ATOM      8  C   LIG d   1      -0.292  80.506 112.453  0.00  0.00     0.119 C 
BRANCH   8   9
ATOM      9  C   LIG d   1      -0.385  81.967 111.974  0.00  0.00     0.028 C 
ATOM     10  C   LIG d   1       0.795  82.822 112.466  0.00  0.00     0.006 C 
ENDBRANCH   8   9
BRANCH   8  11
ATOM     11  C   LIG d   1      -0.311  79.659 111.177  0.00  0.00     0.028 C 
ATOM     12  C   LIG d   1       0.977  79.799 110.350  0.00  0.00     0.006 C 
ENDBRANCH   8  11
ENDBRANCH   7   8
ENDBRANCH   1   7
BRANCH   6  13
ATOM     13  N   LIG d   1      -0.030  79.737 115.884  0.00  0.00    -0.311 N 
ATOM     14  C   LIG d   1       0.240  80.614 116.850  0.00  0.00     0.210 C 
ATOM     15  C   LIG d   1       1.725  80.942 117.029  0.00  0.00     0.109 C 
ATOM     16  O   LIG d   1      -0.608  81.126 117.596  0.00  0.00    -0.276 OA
ATOM     17  H   LIG d   1       0.721  79.347 115.348  0.00  0.00     0.149 HD
ENDBRANCH   6  13
BRANCH   5  18
ATOM     18  N   LIG d   1      -1.956  78.350 117.807  0.00  0.00     0.381 N 
ATOM     19  H   LIG d   1      -2.122  77.498 118.305  0.00  0.00    -0.090 HD
ATOM     20  H   LIG d   1      -2.733  78.966 117.969  0.00  0.00    -0.090 HD
ATOM     21  H   LIG d   1      -1.114  78.773 118.129  0.00  0.00    -0.090 HD
ENDBRANCH   5  18
BRANCH   3  22
ATOM     22  C   LIG d   1      -4.214  76.526 113.997  0.00  0.00     0.382 C 
ATOM     23  O   LIG d   1      -4.155  75.335 114.389  0.00  0.00    -0.241 OA
ATOM     24  O   LIG d   1      -5.049  76.845 113.130  0.00  0.00    -0.241 OA
ENDBRANCH   3  22
TORSDOF 7
ENDMDL
MODEL 6
REMARK VINA RESULT:      -4.2      3.221      5.584
REMARK  7 active torsions:
REMARK  status: ('A' for Active; 'I' for Inactive)
REMARK    1  A    between atoms: C_2  and  C_3 
REMARK    2  A    between atoms: C_3  and  O_6 
REMARK    3  A    between atoms: C_3  and  C_4 
REMARK    4  A    between atoms: C_7  and  O_6 
REMARK    5  A    between atoms: C_9  and  C_10 
REMARK    6  A    between atoms: N_15  and  C_14 
REMARK    7  A    between atoms: N_20  and  C_19 
REMARK       I    between atoms: C_22  and  N_20 
ROOT
ATOM      1  C   LIG d   1      -1.718  79.789 114.444  0.00  0.00     0.161 C 
ATOM      2  C   LIG d   1      -2.514  78.652 114.664  0.00  0.00     0.016 C 
ATOM      3  C   LIG d   1      -2.798  77.695 113.663  0.00  0.00     0.038 C 
ATOM      4  C   LIG d   1      -2.177  77.732 112.405  0.00  0.00     0.028 C 
ATOM      5  C   LIG d   1      -1.763  79.135 111.974  0.00  0.00    -0.047 C 
ATOM      6  C   LIG d   1      -0.942  79.786 113.110  0.00  0.00     0.091 C 
ENDROOT
BRANCH   1   7
ATOM      7  O   LIG d   1      -0.812  79.972 115.550  0.00  0.00    -0.368 OA
BRANCH   7   8
ATOM      8  C   LIG d   1      -1.162  79.291 116.780  0.00  0.00     0.119 C 
BRANCH   8   9
ATOM      9  C   LIG d   1      -1.317  80.363 117.876  0.00  0.00     0.028 C 
ATOM     10  C   LIG d   1      -2.687  80.298 118.571  0.00  0.00     0.006 C 
ENDBRANCH   8   9
BRANCH   8  11
ATOM     11  C   LIG d   1      -0.023  78.384 117.258  0.00  0.00     0.028 C 
ATOM     12  C   LIG d   1      -0.457  76.920 117.425  0.00  0.00     0.006 C 
ENDBRANCH   8  11
ENDBRANCH   7   8
ENDBRANCH   1   7
BRANCH   6  13
ATOM     13  N   LIG d   1      -0.568  81.192 112.805  0.00  0.00    -0.311 N 
ATOM     14  C   LIG d   1       0.558  81.532 112.181  0.00  0.00     0.210 C 
ATOM     15  C   LIG d   1       0.758  83.038 111.984  0.00  0.00     0.109 C 
ATOM     16  O   LIG d   1       1.395  80.728 111.743  0.00  0.00    -0.276 OA
ATOM     17  H   LIG d   1      -1.205  81.907 113.098  0.00  0.00     0.149 HD
ENDBRANCH   6  13
BRANCH   5  18
ATOM     18  N   LIG d   1      -1.007  79.009 110.714  0.00  0.00     0.381 N 
ATOM     19  H   LIG d   1      -1.362  78.240 110.182  0.00  0.00    -0.090 HD
ATOM     20  H   LIG d   1      -0.043  78.826 110.929  0.00  0.00    -0.090 HD
ATOM     21  H   LIG d   1      -1.083  79.851 110.186  0.00  0.00    -0.090 HD
ENDBRANCH   5  18
BRANCH   3  22
ATOM     22  C   LIG d   1      -3.743  76.710 113.902  0.00  0.00     0.382 C 
ATOM     23  O   LIG d   1      -3.518  75.819 114.756  0.00  0.00    -0.241 OA
ATOM     24  O   LIG d   1      -4.800  76.675 113.244  0.00  0.00    -0.241 OA
ENDBRANCH   3  22
TORSDOF 7
ENDMDL
MODEL 7
REMARK VINA RESULT:      -4.1      2.791      5.359
REMARK  7 active torsions:
REMARK  status: ('A' for Active; 'I' for Inactive)
REMARK    1  A    between atoms: C_2  and  C_3 
REMARK    2  A    between atoms: C_3  and  O_6 
REMARK    3  A    between atoms: C_3  and  C_4 
REMARK    4  A    between atoms: C_7  and  O_6 
REMARK    5  A    between atoms: C_9  and  C_10 
REMARK    6  A    between atoms: N_15  and  C_14 
REMARK    7  A    between atoms: N_20  and  C_19 
REMARK       I    between atoms: C_22  and  N_20 
ROOT
ATOM      1  C   LIG d   1      -1.653  77.099 115.080  0.00  0.00     0.161 C 
ATOM      2  C   LIG d   1      -0.414  77.097 115.742  0.00  0.00     0.016 C 
ATOM      3  C   LIG d   1      -0.092  76.204 116.789  0.00  0.00     0.038 C 
ATOM      4  C   LIG d   1      -0.938  75.144 117.146  0.00  0.00     0.028 C 
ATOM      5  C   LIG d   1      -2.409  75.417 116.850  0.00  0.00    -0.047 C 
ATOM      6  C   LIG d   1      -2.548  75.878 115.381  0.00  0.00     0.091 C 
ENDROOT
BRANCH   1   7
ATOM      7  O   LIG d   1      -1.449  77.232 113.660  0.00  0.00    -0.368 OA
BRANCH   7   8
ATOM      8  C   LIG d   1      -2.233  78.254 112.997  0.00  0.00     0.119 C 
BRANCH   8   9
ATOM      9  C   LIG d   1      -1.390  78.798 111.827  0.00  0.00     0.028 C 
ATOM     10  C   LIG d   1      -1.512  77.930 110.563  0.00  0.00     0.006 C 
ENDBRANCH   8   9
BRANCH   8  11
ATOM     11  C   LIG d   1      -2.474  79.456 113.915  0.00  0.00     0.028 C 
ATOM     12  C   LIG d   1      -3.090  80.656 113.178  0.00  0.00     0.006 C 
ENDBRANCH   8  11
ENDBRANCH   7   8
ENDBRANCH   1   7
BRANCH   6  13
ATOM     13  N   LIG d   1      -3.945  76.247 115.032  0.00  0.00    -0.311 N 
ATOM     14  C   LIG d   1      -4.825  75.386 114.525  0.00  0.00     0.210 C 
ATOM     15  C   LIG d   1      -6.205  75.978 114.218  0.00  0.00     0.109 C 
ATOM     16  O   LIG d   1      -4.605  74.181 114.330  0.00  0.00    -0.276 OA
ATOM     17  H   LIG d   1      -4.217  77.198 115.187  0.00  0.00     0.149 HD
ENDBRANCH   6  13
BRANCH   5  18
ATOM     18  N   LIG d   1      -3.160  74.181 117.142  0.00  0.00     0.381 N 
ATOM     19  H   LIG d   1      -4.007  74.406 117.624  0.00  0.00    -0.090 HD
ATOM     20  H   LIG d   1      -2.602  73.596 117.739  0.00  0.00    -0.090 HD
ATOM     21  H   LIG d   1      -3.368  73.701 116.294  0.00  0.00    -0.090 HD
ENDBRANCH   5  18
BRANCH   3  22
ATOM     22  C   LIG d   1       1.073  76.391 117.518  0.00  0.00     0.382 C 
ATOM     23  O   LIG d   1       1.039  76.361 118.772  0.00  0.00    -0.241 OA
ATOM     24  O   LIG d   1       2.149  76.633 116.939  0.00  0.00    -0.241 OA
ENDBRANCH   3  22
TORSDOF 7
ENDMDL
MODEL 8
REMARK VINA RESULT:      -4.1      2.378      2.855
REMARK  7 active torsions:
REMARK  status: ('A' for Active; 'I' for Inactive)
REMARK    1  A    between atoms: C_2  and  C_3 
REMARK    2  A    between atoms: C_3  and  O_6 
REMARK    3  A    between atoms: C_3  and  C_4 
REMARK    4  A    between atoms: C_7  and  O_6 
REMARK    5  A    between atoms: C_9  and  C_10 
REMARK    6  A    between atoms: N_15  and  C_14 
REMARK    7  A    between atoms: N_20  and  C_19 
REMARK       I    between atoms: C_22  and  N_20 
ROOT
ATOM      1  C   LIG d   1      -0.465  78.013 116.881  0.00  0.00     0.161 C 
ATOM      2  C   LIG d   1      -1.343  78.700 116.027  0.00  0.00     0.016 C 
ATOM      3  C   LIG d   1      -1.977  78.098 114.916  0.00  0.00     0.038 C 
ATOM      4  C   LIG d   1      -1.893  76.719 114.671  0.00  0.00     0.028 C 
ATOM      5  C   LIG d   1      -0.615  76.085 115.211  0.00  0.00    -0.047 C 
ATOM      6  C   LIG d   1      -0.447  76.482 116.696  0.00  0.00     0.091 C 
ENDROOT
BRANCH   1   7
ATOM      7  O   LIG d   1      -0.755  78.349 118.253  0.00  0.00    -0.368 OA
BRANCH   7   8
ATOM      8  C   LIG d   1      -2.140  78.649 118.555  0.00  0.00     0.119 C 
BRANCH   8   9
ATOM      9  C   LIG d   1      -2.153  79.868 119.498  0.00  0.00     0.028 C 
ATOM     10  C   LIG d   1      -1.705  81.160 118.794  0.00  0.00     0.006 C 
ENDBRANCH   8   9
BRANCH   8  11
ATOM     11  C   LIG d   1      -2.796  77.515 119.349  0.00  0.00     0.028 C 
ATOM     12  C   LIG d   1      -3.691  76.620 118.479  0.00  0.00     0.006 C 
ENDBRANCH   8  11
ENDBRANCH   7   8
ENDBRANCH   1   7
BRANCH   6  13
ATOM     13  N   LIG d   1       0.822  75.972 117.278  0.00  0.00    -0.311 N 
ATOM     14  C   LIG d   1       0.876  75.236 118.387  0.00  0.00     0.210 C 
ATOM     15  C   LIG d   1       2.287  74.832 118.826  0.00  0.00     0.109 C 
ATOM     16  O   LIG d   1      -0.112  74.853 119.030  0.00  0.00    -0.276 OA
ATOM     17  H   LIG d   1       1.670  76.210 116.802  0.00  0.00     0.149 HD
ENDBRANCH   6  13
BRANCH   5  18
ATOM     18  N   LIG d   1      -0.721  74.628 115.010  0.00  0.00     0.381 N 
ATOM     19  H   LIG d   1      -0.684  74.417 114.033  0.00  0.00    -0.090 HD
ATOM     20  H   LIG d   1      -1.606  74.314 115.367  0.00  0.00    -0.090 HD
ATOM     21  H   LIG d   1       0.021  74.163 115.485  0.00  0.00    -0.090 HD
ENDBRANCH   5  18
BRANCH   3  22
ATOM     22  C   LIG d   1      -2.674  78.885 114.012  0.00  0.00     0.382 C 
ATOM     23  O   LIG d   1      -3.389  78.348 113.132  0.00  0.00    -0.241 OA
ATOM     24  O   LIG d   1      -2.562  80.126 114.037  0.00  0.00    -0.241 OA
ENDBRANCH   3  22
TORSDOF 7
ENDMDL
MODEL 9
REMARK VINA RESULT:      -4.0      1.731      5.132
REMARK  7 active torsions:
REMARK  status: ('A' for Active; 'I' for Inactive)
REMARK    1  A    between atoms: C_2  and  C_3 
REMARK    2  A    between atoms: C_3  and  O_6 
REMARK    3  A    between atoms: C_3  and  C_4 
REMARK    4  A    between atoms: C_7  and  O_6 
REMARK    5  A    between atoms: C_9  and  C_10 
REMARK    6  A    between atoms: N_15  and  C_14 
REMARK    7  A    between atoms: N_20  and  C_19 
REMARK       I    between atoms: C_22  and  N_20 
ROOT
ATOM      1  C   LIG d   1      -2.311  76.658 115.618  0.00  0.00     0.161 C 
ATOM      2  C   LIG d   1      -2.390  75.838 116.755  0.00  0.00     0.016 C 
ATOM      3  C   LIG d   1      -1.523  75.962 117.866  0.00  0.00     0.038 C 
ATOM      4  C   LIG d   1      -0.610  77.020 117.979  0.00  0.00     0.028 C 
ATOM      5  C   LIG d   1      -0.150  77.570 116.633  0.00  0.00    -0.047 C 
ATOM      6  C   LIG d   1      -1.393  77.889 115.771  0.00  0.00     0.091 C 
ENDROOT
BRANCH   1   7
ATOM      7  O   LIG d   1      -3.634  77.066 115.217  0.00  0.00    -0.368 OA
BRANCH   7   8
ATOM      8  C   LIG d   1      -4.735  76.432 115.913  0.00  0.00     0.119 C 
BRANCH   8   9
ATOM      9  C   LIG d   1      -5.573  75.677 114.863  0.00  0.00     0.028 C 
ATOM     10  C   LIG d   1      -5.223  74.181 114.797  0.00  0.00     0.006 C 
ENDBRANCH   8   9
BRANCH   8  11
ATOM     11  C   LIG d   1      -5.683  77.471 116.518  0.00  0.00     0.028 C 
ATOM     12  C   LIG d   1      -4.940  78.641 117.182  0.00  0.00     0.006 C 
ENDBRANCH   8  11
ENDBRANCH   7   8
ENDBRANCH   1   7
BRANCH   6  13
ATOM     13  N   LIG d   1      -1.032  78.354 114.406  0.00  0.00    -0.311 N 
ATOM     14  C   LIG d   1      -1.637  79.370 113.794  0.00  0.00     0.210 C 
ATOM     15  C   LIG d   1      -1.124  79.672 112.382  0.00  0.00     0.109 C 
ATOM     16  O   LIG d   1      -2.527  80.072 114.298  0.00  0.00    -0.276 OA
ATOM     17  H   LIG d   1      -0.299  77.861 113.936  0.00  0.00     0.149 HD
ENDBRANCH   6  13
BRANCH   5  18
ATOM     18  N   LIG d   1       0.689  78.754 116.898  0.00  0.00     0.381 N 
ATOM     19  H   LIG d   1       0.160  79.439 117.401  0.00  0.00    -0.090 HD
ATOM     20  H   LIG d   1       0.971  79.155 116.022  0.00  0.00    -0.090 HD
ATOM     21  H   LIG d   1       1.492  78.491 117.426  0.00  0.00    -0.090 HD
ENDBRANCH   5  18
BRANCH   3  22
ATOM     22  C   LIG d   1      -1.539  74.996 118.861  0.00  0.00     0.382 C 
ATOM     23  O   LIG d   1      -0.564  74.218 118.994  0.00  0.00    -0.241 OA
ATOM     24  O   LIG d   1      -2.534  74.864 119.598  0.00  0.00    -0.241 OA
ENDBRANCH   3  22
TORSDOF 7
ENDMDL
