MODEL 1
REMARK VINA RESULT:      -5.4      0.000      0.000
REMARK  7 active torsions:
REMARK  status: ('A' for Active; 'I' for Inactive)
REMARK    1  A    between atoms: C_2  and  C_3 
REMARK    2  A    between atoms: C_3  and  O_6 
REMARK    3  A    between atoms: C_3  and  C_4 
REMARK    4  A    between atoms: C_7  and  O_6 
REMARK    5  A    between atoms: C_9  and  C_10 
REMARK    6  A    between atoms: N_15  and  C_14 
REMARK    7  A    between atoms: N_20  and  C_19 
REMARK       I    between atoms: C_22  and  N_20 
ROOT
ATOM      1  C   LIG d   1      -2.423  78.551 115.205  0.00  0.00     0.161 C 
ATOM      2  C   LIG d   1      -2.732  79.762 114.563  0.00  0.00     0.016 C 
ATOM      3  C   LIG d   1      -2.597  79.960 113.169  0.00  0.00     0.038 C 
ATOM      4  C   LIG d   1      -2.286  78.906 112.297  0.00  0.00     0.028 C 
ATOM      5  C   LIG d   1      -1.476  77.795 112.955  0.00  0.00    -0.047 C 
ATOM      6  C   LIG d   1      -2.188  77.357 114.256  0.00  0.00     0.091 C 
ENDROOT
BRANCH   1   7
ATOM      7  O   LIG d   1      -3.448  78.233 116.166  0.00  0.00    -0.368 OA
BRANCH   7   8
ATOM      8  C   LIG d   1      -3.174  78.607 117.539  0.00  0.00     0.119 C 
BRANCH   8   9
ATOM      9  C   LIG d   1      -2.820  77.320 118.308  0.00  0.00     0.028 C 
ATOM     10  C   LIG d   1      -3.902  76.236 118.167  0.00  0.00     0.006 C 
ENDBRANCH   8   9
BRANCH   8  11
ATOM     11  C   LIG d   1      -4.425  79.160 118.227  0.00  0.00     0.028 C 
ATOM     12  C   LIG d   1      -5.267  80.055 117.303  0.00  0.00     0.006 C 
ENDBRANCH   8  11
ENDBRANCH   7   8
ENDBRANCH   1   7
BRANCH   6  13
ATOM     13  N   LIG d   1      -1.419  76.331 115.006  0.00  0.00    -0.311 N 
ATOM     14  C   LIG d   1      -1.899  75.124 115.300  0.00  0.00     0.210 C 
ATOM     15  C   LIG d   1      -0.948  74.226 116.098  0.00  0.00     0.109 C 
ATOM     16  O   LIG d   1      -3.010  74.700 114.947  0.00  0.00    -0.276 OA
ATOM     17  H   LIG d   1      -0.496  76.580 115.303  0.00  0.00     0.149 HD
ENDBRANCH   6  13
BRANCH   5  18
ATOM     18  N   LIG d   1      -1.341  76.701 111.974  0.00  0.00     0.381 N 
ATOM     19  H   LIG d   1      -1.217  77.082 111.058  0.00  0.00    -0.090 HD
ATOM     20  H   LIG d   1      -2.185  76.156 111.977  0.00  0.00    -0.090 HD
ATOM     21  H   LIG d   1      -0.564  76.125 112.211  0.00  0.00    -0.090 HD
ENDBRANCH   5  18
BRANCH   3  22
ATOM     22  C   LIG d   1      -2.736  81.234 112.640  0.00  0.00     0.382 C 
ATOM     23  O   LIG d   1      -3.861  81.789 112.629  0.00  0.00    -0.241 OA
ATOM     24  O   LIG d   1      -1.759  81.818 112.133  0.00  0.00    -0.241 OA
ENDBRANCH   3  22
TORSDOF 7
ENDMDL
MODEL 2
REMARK VINA RESULT:      -5.1      2.537      5.190
REMARK  7 active torsions:
REMARK  status: ('A' for Active; 'I' for Inactive)
REMARK    1  A    between atoms: C_2  and  C_3 
REMARK    2  A    between atoms: C_3  and  O_6 
REMARK    3  A    between atoms: C_3  and  C_4 
REMARK    4  A    between atoms: C_7  and  O_6 
REMARK    5  A    between atoms: C_9  and  C_10 
REMARK    6  A    between atoms: N_15  and  C_14 
REMARK    7  A    between atoms: N_20  and  C_19 
REMARK       I    between atoms: C_22  and  N_20 
ROOT
ATOM      1  C   LIG d   1      -1.789  79.586 114.213  0.00  0.00     0.161 C 
ATOM      2  C   LIG d   1      -2.257  78.336 114.652  0.00  0.00     0.016 C 
ATOM      3  C   LIG d   1      -2.404  77.217 113.802  0.00  0.00     0.038 C 
ATOM      4  C   LIG d   1      -1.946  77.228 112.476  0.00  0.00     0.028 C 
ATOM      5  C   LIG d   1      -1.932  78.619 111.851  0.00  0.00    -0.047 C 
ATOM      6  C   LIG d   1      -1.180  79.585 112.795  0.00  0.00     0.091 C 
ENDROOT
BRANCH   1   7
ATOM      7  O   LIG d   1      -0.844  80.116 115.163  0.00  0.00    -0.368 OA
BRANCH   7   8
ATOM      8  C   LIG d   1      -0.654  79.341 116.373  0.00  0.00     0.119 C 
BRANCH   8   9
ATOM      9  C   LIG d   1      -1.110  80.214 117.558  0.00  0.00     0.028 C 
ATOM     10  C   LIG d   1      -2.531  79.864 118.032  0.00  0.00     0.006 C 
ENDBRANCH   8   9
BRANCH   8  11
ATOM     11  C   LIG d   1       0.829  79.057 116.626  0.00  0.00     0.028 C 
ATOM     12  C   LIG d   1       1.757  80.051 115.909  0.00  0.00     0.006 C 
ENDBRANCH   8  11
ENDBRANCH   7   8
ENDBRANCH   1   7
BRANCH   6  13
ATOM     13  N   LIG d   1      -1.193  80.986 112.299  0.00  0.00    -0.311 N 
ATOM     14  C   LIG d   1      -0.200  81.523 111.592  0.00  0.00     0.210 C 
ATOM     15  C   LIG d   1      -0.406  82.989 111.198  0.00  0.00     0.109 C 
ATOM     16  O   LIG d   1       0.817  80.915 111.227  0.00  0.00    -0.276 OA
ATOM     17  H   LIG d   1      -1.994  81.542 112.524  0.00  0.00     0.149 HD
ENDBRANCH   6  13
BRANCH   5  18
ATOM     18  N   LIG d   1      -1.306  78.505 110.521  0.00  0.00     0.381 N 
ATOM     19  H   LIG d   1      -0.737  79.308 110.344  0.00  0.00    -0.090 HD
ATOM     20  H   LIG d   1      -2.028  78.470 109.823  0.00  0.00    -0.090 HD
ATOM     21  H   LIG d   1      -0.750  77.679 110.476  0.00  0.00    -0.090 HD
ENDBRANCH   5  18
BRANCH   3  22
ATOM     22  C   LIG d   1      -3.052  76.082 114.265  0.00  0.00     0.382 C 
ATOM     23  O   LIG d   1      -2.409  75.206 114.894  0.00  0.00    -0.241 OA
ATOM     24  O   LIG d   1      -4.260  75.901 114.024  0.00  0.00    -0.241 OA
ENDBRANCH   3  22
TORSDOF 7
ENDMDL
MODEL 3
REMARK VINA RESULT:      -4.6      2.625      3.897
REMARK  7 active torsions:
REMARK  status: ('A' for Active; 'I' for Inactive)
REMARK    1  A    between atoms: C_2  and  C_3 
REMARK    2  A    between atoms: C_3  and  O_6 
REMARK    3  A    between atoms: C_3  and  C_4 
REMARK    4  A    between atoms: C_7  and  O_6 
REMARK    5  A    between atoms: C_9  and  C_10 
REMARK    6  A    between atoms: N_15  and  C_14 
REMARK    7  A    between atoms: N_20  and  C_19 
REMARK       I    between atoms: C_22  and  N_20 
ROOT
ATOM      1  C   LIG d   1      -3.493  76.945 114.518  0.00  0.00     0.161 C 
ATOM      2  C   LIG d   1      -3.112  77.144 113.181  0.00  0.00     0.016 C 
ATOM      3  C   LIG d   1      -2.196  78.142 112.773  0.00  0.00     0.038 C 
ATOM      4  C   LIG d   1      -1.480  78.914 113.700  0.00  0.00     0.028 C 
ATOM      5  C   LIG d   1      -2.206  79.092 115.029  0.00  0.00    -0.047 C 
ATOM      6  C   LIG d   1      -2.639  77.705 115.554  0.00  0.00     0.091 C 
ENDROOT
BRANCH   1   7
ATOM      7  O   LIG d   1      -3.508  75.535 114.817  0.00  0.00    -0.368 OA
BRANCH   7   8
ATOM      8  C   LIG d   1      -4.816  74.925 114.949  0.00  0.00     0.119 C 
BRANCH   8   9
ATOM      9  C   LIG d   1      -5.859  76.060 114.941  0.00  0.00     0.028 C 
ATOM     10  C   LIG d   1      -6.720  76.056 113.667  0.00  0.00     0.006 C 
ENDBRANCH   8   9
BRANCH   8  11
ATOM     11  C   LIG d   1      -4.975  74.237 116.307  0.00  0.00     0.028 C 
ATOM     12  C   LIG d   1      -6.437  74.180 116.778  0.00  0.00     0.006 C 
ENDBRANCH   8  11
ENDBRANCH   7   8
ENDBRANCH   1   7
BRANCH   6  13
ATOM     13  N   LIG d   1      -3.430  77.795 116.809  0.00  0.00    -0.311 N 
ATOM     14  C   LIG d   1      -3.160  77.079 117.899  0.00  0.00     0.210 C 
ATOM     15  C   LIG d   1      -4.112  77.310 119.077  0.00  0.00     0.109 C 
ATOM     16  O   LIG d   1      -2.203  76.298 118.013  0.00  0.00    -0.276 OA
ATOM     17  H   LIG d   1      -4.206  78.428 116.815  0.00  0.00     0.149 HD
ENDBRANCH   6  13
BRANCH   5  18
ATOM     18  N   LIG d   1      -1.290  79.798 115.946  0.00  0.00     0.381 N 
ATOM     19  H   LIG d   1      -0.748  80.466 115.435  0.00  0.00    -0.090 HD
ATOM     20  H   LIG d   1      -0.662  79.129 116.356  0.00  0.00    -0.090 HD
ATOM     21  H   LIG d   1      -1.810  80.257 116.660  0.00  0.00    -0.090 HD
ENDBRANCH   5  18
BRANCH   3  22
ATOM     22  C   LIG d   1      -2.018  78.401 111.423  0.00  0.00     0.382 C 
ATOM     23  O   LIG d   1      -2.442  77.587 110.567  0.00  0.00    -0.241 OA
ATOM     24  O   LIG d   1      -1.401  79.417 111.050  0.00  0.00    -0.241 OA
ENDBRANCH   3  22
TORSDOF 7
ENDMDL
MODEL 4
REMARK VINA RESULT:      -4.2      2.628      5.098
REMARK  7 active torsions:
REMARK  status: ('A' for Active; 'I' for Inactive)
REMARK    1  A    between atoms: C_2  and  C_3 
REMARK    2  A    between atoms: C_3  and  O_6 
REMARK    3  A    between atoms: C_3  and  C_4 
REMARK    4  A    between atoms: C_7  and  O_6 
REMARK    5  A    between atoms: C_9  and  C_10 
REMARK    6  A    between atoms: N_15  and  C_14 
REMARK    7  A    between atoms: N_20  and  C_19 
REMARK       I    between atoms: C_22  and  N_20 
ROOT
ATOM      1  C   LIG d   1      -2.900  78.616 115.553  0.00  0.00     0.161 C 
ATOM      2  C   LIG d   1      -1.600  78.976 115.943  0.00  0.00     0.016 C 
ATOM      3  C   LIG d   1      -0.650  78.052 116.435  0.00  0.00     0.038 C 
ATOM      4  C   LIG d   1      -0.889  76.670 116.429  0.00  0.00     0.028 C 
ATOM      5  C   LIG d   1      -2.368  76.310 116.518  0.00  0.00    -0.047 C 
ATOM      6  C   LIG d   1      -3.141  77.096 115.434  0.00  0.00     0.091 C 
ENDROOT
BRANCH   1   7
ATOM      7  O   LIG d   1      -3.240  79.275 114.317  0.00  0.00    -0.368 OA
BRANCH   7   8
ATOM      8  C   LIG d   1      -2.282  79.141 113.239  0.00  0.00     0.119 C 
BRANCH   8   9
ATOM      9  C   LIG d   1      -2.113  80.531 112.595  0.00  0.00     0.028 C 
ATOM     10  C   LIG d   1      -0.709  80.735 112.001  0.00  0.00     0.006 C 
ENDBRANCH   8   9
BRANCH   8  11
ATOM     11  C   LIG d   1      -2.821  78.240 112.123  0.00  0.00     0.028 C 
ATOM     12  C   LIG d   1      -1.788  77.211 111.637  0.00  0.00     0.006 C 
ENDBRANCH   8  11
ENDBRANCH   7   8
ENDBRANCH   1   7
BRANCH   6  13
ATOM     13  N   LIG d   1      -4.608  76.867 115.506  0.00  0.00    -0.311 N 
ATOM     14  C   LIG d   1      -5.234  75.905 114.830  0.00  0.00     0.210 C 
ATOM     15  C   LIG d   1      -6.752  75.855 115.031  0.00  0.00     0.109 C 
ATOM     16  O   LIG d   1      -4.672  75.068 114.108  0.00  0.00    -0.276 OA
ATOM     17  H   LIG d   1      -5.138  77.481 116.093  0.00  0.00     0.149 HD
ENDBRANCH   6  13
BRANCH   5  18
ATOM     18  N   LIG d   1      -2.482  74.848 116.362  0.00  0.00     0.381 N 
ATOM     19  H   LIG d   1      -1.596  74.466 116.096  0.00  0.00    -0.090 HD
ATOM     20  H   LIG d   1      -3.143  74.648 115.633  0.00  0.00    -0.090 HD
ATOM     21  H   LIG d   1      -2.785  74.436 117.217  0.00  0.00    -0.090 HD
ENDBRANCH   5  18
BRANCH   3  22
ATOM     22  C   LIG d   1       0.540  78.512 116.978  0.00  0.00     0.382 C 
ATOM     23  O   LIG d   1       1.120  79.501 116.469  0.00  0.00    -0.241 OA
ATOM     24  O   LIG d   1       1.063  77.924 117.944  0.00  0.00    -0.241 OA
ENDBRANCH   3  22
TORSDOF 7
ENDMDL
MODEL 5
REMARK VINA RESULT:      -4.2      3.289      4.706
REMARK  7 active torsions:
REMARK  status: ('A' for Active; 'I' for Inactive)
REMARK    1  A    between atoms: C_2  and  C_3 
REMARK    2  A    between atoms: C_3  and  O_6 
REMARK    3  A    between atoms: C_3  and  C_4 
REMARK    4  A    between atoms: C_7  and  O_6 
REMARK    5  A    between atoms: C_9  and  C_10 
REMARK    6  A    between atoms: N_15  and  C_14 
REMARK    7  A    between atoms: N_20  and  C_19 
REMARK       I    between atoms: C_22  and  N_20 
ROOT
ATOM      1  C   LIG d   1      -2.506  77.542 116.564  0.00  0.00     0.161 C 
ATOM      2  C   LIG d   1      -3.592  76.671 116.375  0.00  0.00     0.016 C 
ATOM      3  C   LIG d   1      -3.470  75.393 115.783  0.00  0.00     0.038 C 
ATOM      4  C   LIG d   1      -2.220  74.835 115.475  0.00  0.00     0.028 C 
ATOM      5  C   LIG d   1      -1.146  75.877 115.183  0.00  0.00    -0.047 C 
ATOM      6  C   LIG d   1      -1.119  76.906 116.336  0.00  0.00     0.091 C 
ENDROOT
BRANCH   1   7
ATOM      7  O   LIG d   1      -2.577  78.134 117.877  0.00  0.00    -0.368 OA
BRANCH   7   8
ATOM      8  C   LIG d   1      -2.732  79.573 117.920  0.00  0.00     0.119 C 
BRANCH   8   9
ATOM      9  C   LIG d   1      -1.760  80.112 118.987  0.00  0.00     0.028 C 
ATOM     10  C   LIG d   1      -0.960  81.328 118.492  0.00  0.00     0.006 C 
ENDBRANCH   8   9
BRANCH   8  11
ATOM     11  C   LIG d   1      -4.129  79.969 118.406  0.00  0.00     0.028 C 
ATOM     12  C   LIG d   1      -5.170  79.991 117.276  0.00  0.00     0.006 C 
ENDBRANCH   8  11
ENDBRANCH   7   8
ENDBRANCH   1   7
BRANCH   6  13
ATOM     13  N   LIG d   1      -0.153  78.009 116.090  0.00  0.00    -0.311 N 
ATOM     14  C   LIG d   1       0.800  78.356 116.953  0.00  0.00     0.210 C 
ATOM     15  C   LIG d   1       1.675  79.533 116.511  0.00  0.00     0.109 C 
ATOM     16  O   LIG d   1       1.024  77.780 118.028  0.00  0.00    -0.276 OA
ATOM     17  H   LIG d   1      -0.243  78.509 115.227  0.00  0.00     0.149 HD
ENDBRANCH   6  13
BRANCH   5  18
ATOM     18  N   LIG d   1       0.134  75.163 115.015  0.00  0.00     0.381 N 
ATOM     19  H   LIG d   1       0.342  74.642 115.843  0.00  0.00    -0.090 HD
ATOM     20  H   LIG d   1       0.866  75.837 114.874  0.00  0.00    -0.090 HD
ATOM     21  H   LIG d   1       0.082  74.550 114.232  0.00  0.00    -0.090 HD
ENDBRANCH   5  18
BRANCH   3  22
ATOM     22  C   LIG d   1      -4.610  74.675 115.456  0.00  0.00     0.382 C 
ATOM     23  O   LIG d   1      -5.339  74.208 116.364  0.00  0.00    -0.241 OA
ATOM     24  O   LIG d   1      -4.896  74.451 114.265  0.00  0.00    -0.241 OA
ENDBRANCH   3  22
TORSDOF 7
ENDMDL
MODEL 6
REMARK VINA RESULT:      -4.2      2.315      4.077
REMARK  7 active torsions:
REMARK  status: ('A' for Active; 'I' for Inactive)
REMARK    1  A    between atoms: C_2  and  C_3 
REMARK    2  A    between atoms: C_3  and  O_6 
REMARK    3  A    between atoms: C_3  and  C_4 
REMARK    4  A    between atoms: C_7  and  O_6 
REMARK    5  A    between atoms: C_9  and  C_10 
REMARK    6  A    between atoms: N_15  and  C_14 
REMARK    7  A    between atoms: N_20  and  C_19 
REMARK       I    between atoms: C_22  and  N_20 
ROOT
ATOM      1  C   LIG d   1      -3.423  76.974 115.003  0.00  0.00     0.161 C 
ATOM      2  C   LIG d   1      -3.101  77.095 113.641  0.00  0.00     0.016 C 
ATOM      3  C   LIG d   1      -2.236  78.091 113.132  0.00  0.00     0.038 C 
ATOM      4  C   LIG d   1      -1.510  78.945 113.975  0.00  0.00     0.028 C 
ATOM      5  C   LIG d   1      -2.189  79.189 115.319  0.00  0.00    -0.047 C 
ATOM      6  C   LIG d   1      -2.554  77.826 115.952  0.00  0.00     0.091 C 
ENDROOT
BRANCH   1   7
ATOM      7  O   LIG d   1      -3.379  75.587 115.394  0.00  0.00    -0.368 OA
BRANCH   7   8
ATOM      8  C   LIG d   1      -2.260  75.195 116.227  0.00  0.00     0.119 C 
BRANCH   8   9
ATOM      9  C   LIG d   1      -1.382  74.235 115.401  0.00  0.00     0.028 C 
ATOM     10  C   LIG d   1      -0.232  74.962 114.684  0.00  0.00     0.006 C 
ENDBRANCH   8   9
BRANCH   8  11
ATOM     11  C   LIG d   1      -2.725  74.380 117.437  0.00  0.00     0.028 C 
ATOM     12  C   LIG d   1      -1.740  74.448 118.616  0.00  0.00     0.006 C 
ENDBRANCH   8  11
ENDBRANCH   7   8
ENDBRANCH   1   7
BRANCH   6  13
ATOM     13  N   LIG d   1      -3.297  77.976 117.230  0.00  0.00    -0.311 N 
ATOM     14  C   LIG d   1      -2.704  78.034 118.421  0.00  0.00     0.210 C 
ATOM     15  C   LIG d   1      -3.656  78.170 119.612  0.00  0.00     0.109 C 
ATOM     16  O   LIG d   1      -1.477  78.019 118.600  0.00  0.00    -0.276 OA
ATOM     17  H   LIG d   1      -4.296  78.028 117.174  0.00  0.00     0.149 HD
ENDBRANCH   6  13
BRANCH   5  18
ATOM     18  N   LIG d   1      -1.262  79.981 116.149  0.00  0.00     0.381 N 
ATOM     19  H   LIG d   1      -0.855  80.712 115.599  0.00  0.00    -0.090 HD
ATOM     20  H   LIG d   1      -0.523  79.382 116.473  0.00  0.00    -0.090 HD
ATOM     21  H   LIG d   1      -1.748  80.372 116.926  0.00  0.00    -0.090 HD
ENDBRANCH   5  18
BRANCH   3  22
ATOM     22  C   LIG d   1      -2.121  78.265 111.761  0.00  0.00     0.382 C 
ATOM     23  O   LIG d   1      -2.489  77.355 110.980  0.00  0.00    -0.241 OA
ATOM     24  O   LIG d   1      -1.613  79.303 111.297  0.00  0.00    -0.241 OA
ENDBRANCH   3  22
TORSDOF 7
ENDMDL
MODEL 7
REMARK VINA RESULT:      -4.2      2.888      4.559
REMARK  7 active torsions:
REMARK  status: ('A' for Active; 'I' for Inactive)
REMARK    1  A    between atoms: C_2  and  C_3 
REMARK    2  A    between atoms: C_3  and  O_6 
REMARK    3  A    between atoms: C_3  and  C_4 
REMARK    4  A    between atoms: C_7  and  O_6 
REMARK    5  A    between atoms: C_9  and  C_10 
REMARK    6  A    between atoms: N_15  and  C_14 
REMARK    7  A    between atoms: N_20  and  C_19 
REMARK       I    between atoms: C_22  and  N_20 
ROOT
ATOM      1  C   LIG d   1      -2.068  78.303 116.745  0.00  0.00     0.161 C 
ATOM      2  C   LIG d   1      -2.881  77.430 116.004  0.00  0.00     0.016 C 
ATOM      3  C   LIG d   1      -2.895  77.391 114.590  0.00  0.00     0.038 C 
ATOM      4  C   LIG d   1      -1.980  78.123 113.820  0.00  0.00     0.028 C 
ATOM      5  C   LIG d   1      -1.486  79.391 114.507  0.00  0.00    -0.047 C 
ATOM      6  C   LIG d   1      -0.983  79.030 115.924  0.00  0.00     0.091 C 
ENDROOT
BRANCH   1   7
ATOM      7  O   LIG d   1      -1.470  77.595 117.849  0.00  0.00    -0.368 OA
BRANCH   7   8
ATOM      8  C   LIG d   1      -2.135  76.374 118.258  0.00  0.00     0.119 C 
BRANCH   8   9
ATOM      9  C   LIG d   1      -2.811  76.647 119.615  0.00  0.00     0.028 C 
ATOM     10  C   LIG d   1      -4.279  77.076 119.464  0.00  0.00     0.006 C 
ENDBRANCH   8   9
BRANCH   8  11
ATOM     11  C   LIG d   1      -1.126  75.253 118.525  0.00  0.00     0.028 C 
ATOM     12  C   LIG d   1      -0.019  75.670 119.506  0.00  0.00     0.006 C 
ENDBRANCH   8  11
ENDBRANCH   7   8
ENDBRANCH   1   7
BRANCH   6  13
ATOM     13  N   LIG d   1      -0.560  80.227 116.697  0.00  0.00    -0.311 N 
ATOM     14  C   LIG d   1       0.709  80.618 116.806  0.00  0.00     0.210 C 
ATOM     15  C   LIG d   1       0.928  81.867 117.666  0.00  0.00     0.109 C 
ATOM     16  O   LIG d   1       1.669  80.069 116.245  0.00  0.00    -0.276 OA
ATOM     17  H   LIG d   1      -1.278  80.749 117.159  0.00  0.00     0.149 HD
ENDBRANCH   6  13
BRANCH   5  18
ATOM     18  N   LIG d   1      -0.438  79.981 113.654  0.00  0.00     0.381 N 
ATOM     19  H   LIG d   1      -0.625  79.772 112.694  0.00  0.00    -0.090 HD
ATOM     20  H   LIG d   1       0.448  79.575 113.899  0.00  0.00    -0.090 HD
ATOM     21  H   LIG d   1      -0.406  80.968 113.787  0.00  0.00    -0.090 HD
ENDBRANCH   5  18
BRANCH   3  22
ATOM     22  C   LIG d   1      -3.860  76.643 113.933  0.00  0.00     0.382 C 
ATOM     23  O   LIG d   1      -4.535  77.161 113.011  0.00  0.00    -0.241 OA
ATOM     24  O   LIG d   1      -4.095  75.470 114.280  0.00  0.00    -0.241 OA
ENDBRANCH   3  22
TORSDOF 7
ENDMDL
MODEL 8
REMARK VINA RESULT:      -4.1      2.655      5.442
REMARK  7 active torsions:
REMARK  status: ('A' for Active; 'I' for Inactive)
REMARK    1  A    between atoms: C_2  and  C_3 
REMARK    2  A    between atoms: C_3  and  O_6 
REMARK    3  A    between atoms: C_3  and  C_4 
REMARK    4  A    between atoms: C_7  and  O_6 
REMARK    5  A    between atoms: C_9  and  C_10 
REMARK    6  A    between atoms: N_15  and  C_14 
REMARK    7  A    between atoms: N_20  and  C_19 
REMARK       I    between atoms: C_22  and  N_20 
ROOT
ATOM      1  C   LIG d   1      -2.249  76.977 114.505  0.00  0.00     0.161 C 
ATOM      2  C   LIG d   1      -3.560  76.534 114.262  0.00  0.00     0.016 C 
ATOM      3  C   LIG d   1      -4.629  76.734 115.165  0.00  0.00     0.038 C 
ATOM      4  C   LIG d   1      -4.492  77.530 116.312  0.00  0.00     0.028 C 
ATOM      5  C   LIG d   1      -3.066  77.574 116.851  0.00  0.00    -0.047 C 
ATOM      6  C   LIG d   1      -2.105  77.944 115.699  0.00  0.00     0.091 C 
ENDROOT
BRANCH   1   7
ATOM      7  O   LIG d   1      -1.705  77.572 113.310  0.00  0.00    -0.368 OA
BRANCH   7   8
ATOM      8  C   LIG d   1      -2.623  78.366 112.519  0.00  0.00     0.119 C 
BRANCH   8   9
ATOM      9  C   LIG d   1      -2.376  78.021 111.037  0.00  0.00     0.028 C 
ATOM     10  C   LIG d   1      -1.382  76.860 110.864  0.00  0.00     0.006 C 
ENDBRANCH   8   9
BRANCH   8  11
ATOM     11  C   LIG d   1      -2.317  79.862 112.643  0.00  0.00     0.028 C 
ATOM     12  C   LIG d   1      -0.814  80.171 112.557  0.00  0.00     0.006 C 
ENDBRANCH   8  11
ENDBRANCH   7   8
ENDBRANCH   1   7
BRANCH   6  13
ATOM     13  N   LIG d   1      -0.680  77.927 116.122  0.00  0.00    -0.311 N 
ATOM     14  C   LIG d   1       0.048  79.030 116.289  0.00  0.00     0.210 C 
ATOM     15  C   LIG d   1       1.501  78.787 116.709  0.00  0.00     0.109 C 
ATOM     16  O   LIG d   1      -0.380  80.186 116.161  0.00  0.00    -0.276 OA
ATOM     17  H   LIG d   1      -0.261  77.031 116.278  0.00  0.00     0.149 HD
ENDBRANCH   6  13
BRANCH   5  18
ATOM     18  N   LIG d   1      -3.040  78.545 117.961  0.00  0.00     0.381 N 
ATOM     19  H   LIG d   1      -3.964  78.887 118.135  0.00  0.00    -0.090 HD
ATOM     20  H   LIG d   1      -2.461  79.323 117.698  0.00  0.00    -0.090 HD
ATOM     21  H   LIG d   1      -2.677  78.114 118.783  0.00  0.00    -0.090 HD
ENDBRANCH   5  18
BRANCH   3  22
ATOM     22  C   LIG d   1      -5.843  76.101 114.944  0.00  0.00     0.382 C 
ATOM     23  O   LIG d   1      -6.358  75.399 115.847  0.00  0.00    -0.241 OA
ATOM     24  O   LIG d   1      -6.408  76.186 113.837  0.00  0.00    -0.241 OA
ENDBRANCH   3  22
TORSDOF 7
ENDMDL
MODEL 9
REMARK VINA RESULT:      -4.1      1.829      2.797
REMARK  7 active torsions:
REMARK  status: ('A' for Active; 'I' for Inactive)
REMARK    1  A    between atoms: C_2  and  C_3 
REMARK    2  A    between atoms: C_3  and  O_6 
REMARK    3  A    between atoms: C_3  and  C_4 
REMARK    4  A    between atoms: C_7  and  O_6 
REMARK    5  A    between atoms: C_9  and  C_10 
REMARK    6  A    between atoms: N_15  and  C_14 
REMARK    7  A    between atoms: N_20  and  C_19 
REMARK       I    between atoms: C_22  and  N_20 
ROOT
ATOM      1  C   LIG d   1      -2.803  78.554 116.863  0.00  0.00     0.161 C 
ATOM      2  C   LIG d   1      -2.911  79.360 115.717  0.00  0.00     0.016 C 
ATOM      3  C   LIG d   1      -2.545  78.924 114.423  0.00  0.00     0.038 C 
ATOM      4  C   LIG d   1      -2.186  77.593 114.162  0.00  0.00     0.028 C 
ATOM      5  C   LIG d   1      -1.579  76.883 115.367  0.00  0.00    -0.047 C 
ATOM      6  C   LIG d   1      -2.518  77.064 116.582  0.00  0.00     0.091 C 
ENDROOT
BRANCH   1   7
ATOM      7  O   LIG d   1      -3.988  78.694 117.672  0.00  0.00    -0.368 OA
BRANCH   7   8
ATOM      8  C   LIG d   1      -5.232  78.878 116.953  0.00  0.00     0.119 C 
BRANCH   8   9
ATOM      9  C   LIG d   1      -5.981  80.051 117.616  0.00  0.00     0.028 C 
ATOM     10  C   LIG d   1      -5.172  80.693 118.756  0.00  0.00     0.006 C 
ENDBRANCH   8   9
BRANCH   8  11
ATOM     11  C   LIG d   1      -6.154  77.666 117.114  0.00  0.00     0.028 C 
ATOM     12  C   LIG d   1      -6.085  76.702 115.919  0.00  0.00     0.006 C 
ENDBRANCH   8  11
ENDBRANCH   7   8
ENDBRANCH   1   7
BRANCH   6  13
ATOM     13  N   LIG d   1      -1.959  76.471 117.824  0.00  0.00    -0.311 N 
ATOM     14  C   LIG d   1      -2.228  75.231 118.230  0.00  0.00     0.210 C 
ATOM     15  C   LIG d   1      -1.564  74.824 119.549  0.00  0.00     0.109 C 
ATOM     16  O   LIG d   1      -2.928  74.419 117.607  0.00  0.00    -0.276 OA
ATOM     17  H   LIG d   1      -1.356  77.050 118.375  0.00  0.00     0.149 HD
ENDBRANCH   6  13
BRANCH   5  18
ATOM     18  N   LIG d   1      -1.380  75.469 114.997  0.00  0.00     0.381 N 
ATOM     19  H   LIG d   1      -1.176  75.400 114.020  0.00  0.00    -0.090 HD
ATOM     20  H   LIG d   1      -2.228  74.962 115.178  0.00  0.00    -0.090 HD
ATOM     21  H   LIG d   1      -0.632  75.079 115.528  0.00  0.00    -0.090 HD
ENDBRANCH   5  18
BRANCH   3  22
ATOM     22  C   LIG d   1      -2.498  79.836 113.379  0.00  0.00     0.382 C 
ATOM     23  O   LIG d   1      -1.538  79.815 112.571  0.00  0.00    -0.241 OA
ATOM     24  O   LIG d   1      -3.381  80.707 113.260  0.00  0.00    -0.241 OA
ENDBRANCH   3  22
TORSDOF 7
ENDMDL
