MODEL 1
REMARK VINA RESULT:      -5.5      0.000      0.000
REMARK  7 active torsions:
REMARK  status: ('A' for Active; 'I' for Inactive)
REMARK    1  A    between atoms: C_2  and  C_3 
REMARK    2  A    between atoms: C_3  and  O_6 
REMARK    3  A    between atoms: C_3  and  C_4 
REMARK    4  A    between atoms: C_7  and  O_6 
REMARK    5  A    between atoms: C_9  and  C_10 
REMARK    6  A    between atoms: N_15  and  C_14 
REMARK    7  A    between atoms: N_20  and  C_19 
REMARK       I    between atoms: C_22  and  N_20 
ROOT
ATOM      1  C   LIG d   1      -2.756  80.055 114.774  0.00  0.00     0.161 C 
ATOM      2  C   LIG d   1      -2.270  81.181 114.089  0.00  0.00     0.016 C 
ATOM      3  C   LIG d   1      -1.584  81.105 112.854  0.00  0.00     0.038 C 
ATOM      4  C   LIG d   1      -1.470  79.902 112.143  0.00  0.00     0.028 C 
ATOM      5  C   LIG d   1      -1.502  78.665 113.034  0.00  0.00    -0.047 C 
ATOM      6  C   LIG d   1      -2.738  78.745 113.959  0.00  0.00     0.091 C 
ENDROOT
BRANCH   1   7
ATOM      7  O   LIG d   1      -4.083  80.319 115.269  0.00  0.00    -0.368 OA
BRANCH   7   8
ATOM      8  C   LIG d   1      -4.179  80.700 116.663  0.00  0.00     0.119 C 
BRANCH   8   9
ATOM      9  C   LIG d   1      -5.354  79.915 117.278  0.00  0.00     0.028 C 
ATOM     10  C   LIG d   1      -4.961  78.479 117.666  0.00  0.00     0.006 C 
ENDBRANCH   8   9
BRANCH   8  11
ATOM     11  C   LIG d   1      -4.557  82.177 116.813  0.00  0.00     0.028 C 
ATOM     12  C   LIG d   1      -4.109  82.773 118.157  0.00  0.00     0.006 C 
ENDBRANCH   8  11
ENDBRANCH   7   8
ENDBRANCH   1   7
BRANCH   6  13
ATOM     13  N   LIG d   1      -2.799  77.615 114.922  0.00  0.00    -0.311 N 
ATOM     14  C   LIG d   1      -3.467  76.486 114.687  0.00  0.00     0.210 C 
ATOM     15  C   LIG d   1      -3.417  75.458 115.821  0.00  0.00     0.109 C 
ATOM     16  O   LIG d   1      -4.069  76.227 113.635  0.00  0.00    -0.276 OA
ATOM     17  H   LIG d   1      -2.313  77.728 115.790  0.00  0.00     0.149 HD
ENDBRANCH   6  13
BRANCH   5  18
ATOM     18  N   LIG d   1      -1.513  77.481 112.154  0.00  0.00     0.381 N 
ATOM     19  H   LIG d   1      -0.616  77.368 111.727  0.00  0.00    -0.090 HD
ATOM     20  H   LIG d   1      -2.193  77.623 111.428  0.00  0.00    -0.090 HD
ATOM     21  H   LIG d   1      -1.744  76.667 112.680  0.00  0.00    -0.090 HD
ENDBRANCH   5  18
BRANCH   3  22
ATOM     22  C   LIG d   1      -0.969  82.236 112.339  0.00  0.00     0.382 C 
ATOM     23  O   LIG d   1      -1.453  82.810 111.334  0.00  0.00    -0.241 OA
ATOM     24  O   LIG d   1       0.088  82.664 112.841  0.00  0.00    -0.241 OA
ENDBRANCH   3  22
TORSDOF 7
ENDMDL
MODEL 2
REMARK VINA RESULT:      -5.4      2.266      5.067
REMARK  7 active torsions:
REMARK  status: ('A' for Active; 'I' for Inactive)
REMARK    1  A    between atoms: C_2  and  C_3 
REMARK    2  A    between atoms: C_3  and  O_6 
REMARK    3  A    between atoms: C_3  and  C_4 
REMARK    4  A    between atoms: C_7  and  O_6 
REMARK    5  A    between atoms: C_9  and  C_10 
REMARK    6  A    between atoms: N_15  and  C_14 
REMARK    7  A    between atoms: N_20  and  C_19 
REMARK       I    between atoms: C_22  and  N_20 
ROOT
ATOM      1  C   LIG d   1      -2.934  81.055 112.907  0.00  0.00     0.161 C 
ATOM      2  C   LIG d   1      -3.278  79.722 113.186  0.00  0.00     0.016 C 
ATOM      3  C   LIG d   1      -2.439  78.623 112.890  0.00  0.00     0.038 C 
ATOM      4  C   LIG d   1      -1.124  78.797 112.431  0.00  0.00     0.028 C 
ATOM      5  C   LIG d   1      -0.918  80.097 111.662  0.00  0.00    -0.047 C 
ATOM      6  C   LIG d   1      -1.459  81.272 112.509  0.00  0.00     0.091 C 
ENDROOT
BRANCH   1   7
ATOM      7  O   LIG d   1      -3.279  81.893 114.028  0.00  0.00    -0.368 OA
BRANCH   7   8
ATOM      8  C   LIG d   1      -3.315  81.243 115.322  0.00  0.00     0.119 C 
BRANCH   8   9
ATOM      9  C   LIG d   1      -4.404  81.941 116.160  0.00  0.00     0.028 C 
ATOM     10  C   LIG d   1      -3.915  82.303 117.573  0.00  0.00     0.006 C 
ENDBRANCH   8   9
BRANCH   8  11
ATOM     11  C   LIG d   1      -2.009  81.462 116.092  0.00  0.00     0.028 C 
ATOM     12  C   LIG d   1      -1.116  80.211 116.119  0.00  0.00     0.006 C 
ENDBRANCH   8  11
ENDBRANCH   7   8
ENDBRANCH   1   7
BRANCH   6  13
ATOM     13  N   LIG d   1      -1.373  82.573 111.794  0.00  0.00    -0.311 N 
ATOM     14  C   LIG d   1      -0.314  83.378 111.863  0.00  0.00     0.210 C 
ATOM     15  C   LIG d   1      -0.440  84.680 111.066  0.00  0.00     0.109 C 
ATOM     16  O   LIG d   1       0.730  83.123 112.482  0.00  0.00    -0.276 OA
ATOM     17  H   LIG d   1      -2.163  82.843 111.243  0.00  0.00     0.149 HD
ENDBRANCH   6  13
BRANCH   5  18
ATOM     18  N   LIG d   1       0.521  80.215 111.363  0.00  0.00     0.381 N 
ATOM     19  H   LIG d   1       1.042  79.602 111.958  0.00  0.00    -0.090 HD
ATOM     20  H   LIG d   1       0.816  81.158 111.547  0.00  0.00    -0.090 HD
ATOM     21  H   LIG d   1       0.691  79.986 110.408  0.00  0.00    -0.090 HD
ENDBRANCH   5  18
BRANCH   3  22
ATOM     22  C   LIG d   1      -2.927  77.332 113.017  0.00  0.00     0.382 C 
ATOM     23  O   LIG d   1      -2.178  76.416 113.435  0.00  0.00    -0.241 OA
ATOM     24  O   LIG d   1      -4.094  77.061 112.675  0.00  0.00    -0.241 OA
ENDBRANCH   3  22
TORSDOF 7
ENDMDL
MODEL 3
REMARK VINA RESULT:      -5.2      2.524      3.522
REMARK  7 active torsions:
REMARK  status: ('A' for Active; 'I' for Inactive)
REMARK    1  A    between atoms: C_2  and  C_3 
REMARK    2  A    between atoms: C_3  and  O_6 
REMARK    3  A    between atoms: C_3  and  C_4 
REMARK    4  A    between atoms: C_7  and  O_6 
REMARK    5  A    between atoms: C_9  and  C_10 
REMARK    6  A    between atoms: N_15  and  C_14 
REMARK    7  A    between atoms: N_20  and  C_19 
REMARK       I    between atoms: C_22  and  N_20 
ROOT
ATOM      1  C   LIG d   1       0.002  80.900 113.309  0.00  0.00     0.161 C 
ATOM      2  C   LIG d   1       0.971  81.902 113.134  0.00  0.00     0.016 C 
ATOM      3  C   LIG d   1       1.458  82.300 111.868  0.00  0.00     0.038 C 
ATOM      4  C   LIG d   1       0.896  81.824 110.674  0.00  0.00     0.028 C 
ATOM      5  C   LIG d   1       0.267  80.442 110.809  0.00  0.00    -0.047 C 
ATOM      6  C   LIG d   1      -0.703  80.448 112.013  0.00  0.00     0.091 C 
ENDROOT
BRANCH   1   7
ATOM      7  O   LIG d   1      -0.969  81.324 114.286  0.00  0.00    -0.368 OA
BRANCH   7   8
ATOM      8  C   LIG d   1      -0.872  80.705 115.592  0.00  0.00     0.119 C 
BRANCH   8   9
ATOM      9  C   LIG d   1      -2.308  80.442 116.087  0.00  0.00     0.028 C 
ATOM     10  C   LIG d   1      -2.596  78.944 116.282  0.00  0.00     0.006 C 
ENDBRANCH   8   9
BRANCH   8  11
ATOM     11  C   LIG d   1      -0.258  81.662 116.618  0.00  0.00     0.028 C 
ATOM     12  C   LIG d   1      -1.287  82.191 117.630  0.00  0.00     0.006 C 
ENDBRANCH   8  11
ENDBRANCH   7   8
ENDBRANCH   1   7
BRANCH   6  13
ATOM     13  N   LIG d   1      -1.299  79.110 112.268  0.00  0.00    -0.311 N 
ATOM     14  C   LIG d   1      -2.584  78.924 112.564  0.00  0.00     0.210 C 
ATOM     15  C   LIG d   1      -2.987  77.467 112.809  0.00  0.00     0.109 C 
ATOM     16  O   LIG d   1      -3.435  79.824 112.614  0.00  0.00    -0.276 OA
ATOM     17  H   LIG d   1      -0.685  78.321 112.217  0.00  0.00     0.149 HD
ENDBRANCH   6  13
BRANCH   5  18
ATOM     18  N   LIG d   1      -0.400  80.128 109.531  0.00  0.00     0.381 N 
ATOM     19  H   LIG d   1      -0.718  80.973 109.099  0.00  0.00    -0.090 HD
ATOM     20  H   LIG d   1      -1.200  79.548 109.716  0.00  0.00    -0.090 HD
ATOM     21  H   LIG d   1       0.231  79.654 108.925  0.00  0.00    -0.090 HD
ENDBRANCH   5  18
BRANCH   3  22
ATOM     22  C   LIG d   1       2.547  83.154 111.788  0.00  0.00     0.382 C 
ATOM     23  O   LIG d   1       3.235  83.197 110.740  0.00  0.00    -0.241 OA
ATOM     24  O   LIG d   1       2.877  83.850 112.768  0.00  0.00    -0.241 OA
ENDBRANCH   3  22
TORSDOF 7
ENDMDL
MODEL 4
REMARK VINA RESULT:      -4.9      2.224      5.113
REMARK  7 active torsions:
REMARK  status: ('A' for Active; 'I' for Inactive)
REMARK    1  A    between atoms: C_2  and  C_3 
REMARK    2  A    between atoms: C_3  and  O_6 
REMARK    3  A    between atoms: C_3  and  C_4 
REMARK    4  A    between atoms: C_7  and  O_6 
REMARK    5  A    between atoms: C_9  and  C_10 
REMARK    6  A    between atoms: N_15  and  C_14 
REMARK    7  A    between atoms: N_20  and  C_19 
REMARK       I    between atoms: C_22  and  N_20 
ROOT
ATOM      1  C   LIG d   1      -1.928  79.541 113.907  0.00  0.00     0.161 C 
ATOM      2  C   LIG d   1      -2.513  78.360 114.393  0.00  0.00     0.016 C 
ATOM      3  C   LIG d   1      -2.719  77.210 113.597  0.00  0.00     0.038 C 
ATOM      4  C   LIG d   1      -2.213  77.110 112.293  0.00  0.00     0.028 C 
ATOM      5  C   LIG d   1      -2.061  78.458 111.597  0.00  0.00    -0.047 C 
ATOM      6  C   LIG d   1      -1.268  79.412 112.518  0.00  0.00     0.091 C 
ENDROOT
BRANCH   1   7
ATOM      7  O   LIG d   1      -0.979  80.047 114.867  0.00  0.00    -0.368 OA
BRANCH   7   8
ATOM      8  C   LIG d   1      -1.348  81.275 115.542  0.00  0.00     0.119 C 
BRANCH   8   9
ATOM      9  C   LIG d   1      -0.158  81.692 116.427  0.00  0.00     0.028 C 
ATOM     10  C   LIG d   1      -0.605  82.411 117.711  0.00  0.00     0.006 C 
ENDBRANCH   8   9
BRANCH   8  11
ATOM     11  C   LIG d   1      -2.514  81.050 116.509  0.00  0.00     0.028 C 
ATOM     12  C   LIG d   1      -3.812  81.729 116.046  0.00  0.00     0.006 C 
ENDBRANCH   8  11
ENDBRANCH   7   8
ENDBRANCH   1   7
BRANCH   6  13
ATOM     13  N   LIG d   1      -1.147  80.780 111.949  0.00  0.00    -0.311 N 
ATOM     14  C   LIG d   1       0.004  81.298 111.523  0.00  0.00     0.210 C 
ATOM     15  C   LIG d   1      -0.090  82.731 110.991  0.00  0.00     0.109 C 
ATOM     16  O   LIG d   1       1.087  80.695 111.507  0.00  0.00    -0.276 OA
ATOM     17  H   LIG d   1      -1.984  81.327 111.896  0.00  0.00     0.149 HD
ENDBRANCH   6  13
BRANCH   5  18
ATOM     18  N   LIG d   1      -1.397  78.219 110.302  0.00  0.00     0.381 N 
ATOM     19  H   LIG d   1      -1.847  78.753 109.586  0.00  0.00    -0.090 HD
ATOM     20  H   LIG d   1      -1.480  77.245 110.068  0.00  0.00    -0.090 HD
ATOM     21  H   LIG d   1      -0.435  78.473 110.360  0.00  0.00    -0.090 HD
ENDBRANCH   5  18
BRANCH   3  22
ATOM     22  C   LIG d   1      -3.475  76.158 114.093  0.00  0.00     0.382 C 
ATOM     23  O   LIG d   1      -4.648  75.981 113.683  0.00  0.00    -0.241 OA
ATOM     24  O   LIG d   1      -3.014  75.411 114.977  0.00  0.00    -0.241 OA
ENDBRANCH   3  22
TORSDOF 7
ENDMDL
MODEL 5
REMARK VINA RESULT:      -4.9      2.541      4.206
REMARK  7 active torsions:
REMARK  status: ('A' for Active; 'I' for Inactive)
REMARK    1  A    between atoms: C_2  and  C_3 
REMARK    2  A    between atoms: C_3  and  O_6 
REMARK    3  A    between atoms: C_3  and  C_4 
REMARK    4  A    between atoms: C_7  and  O_6 
REMARK    5  A    between atoms: C_9  and  C_10 
REMARK    6  A    between atoms: N_15  and  C_14 
REMARK    7  A    between atoms: N_20  and  C_19 
REMARK       I    between atoms: C_22  and  N_20 
ROOT
ATOM      1  C   LIG d   1      -2.704  80.558 114.157  0.00  0.00     0.161 C 
ATOM      2  C   LIG d   1      -2.397  81.274 112.988  0.00  0.00     0.016 C 
ATOM      3  C   LIG d   1      -1.136  81.865 112.746  0.00  0.00     0.038 C 
ATOM      4  C   LIG d   1      -0.041  81.651 113.596  0.00  0.00     0.028 C 
ATOM      5  C   LIG d   1      -0.442  81.357 115.038  0.00  0.00    -0.047 C 
ATOM      6  C   LIG d   1      -1.489  80.219 115.045  0.00  0.00     0.091 C 
ENDROOT
BRANCH   1   7
ATOM      7  O   LIG d   1      -3.428  79.358 113.819  0.00  0.00    -0.368 OA
BRANCH   7   8
ATOM      8  C   LIG d   1      -2.627  78.229 113.392  0.00  0.00     0.119 C 
BRANCH   8   9
ATOM      9  C   LIG d   1      -3.127  77.809 111.996  0.00  0.00     0.028 C 
ATOM     10  C   LIG d   1      -2.007  77.826 110.942  0.00  0.00     0.006 C 
ENDBRANCH   8   9
BRANCH   8  11
ATOM     11  C   LIG d   1      -2.858  77.010 114.289  0.00  0.00     0.028 C 
ATOM     12  C   LIG d   1      -1.579  76.190 114.521  0.00  0.00     0.006 C 
ENDBRANCH   8  11
ENDBRANCH   7   8
ENDBRANCH   1   7
BRANCH   6  13
ATOM     13  N   LIG d   1      -1.998  79.926 116.411  0.00  0.00    -0.311 N 
ATOM     14  C   LIG d   1      -1.438  79.034 117.226  0.00  0.00     0.210 C 
ATOM     15  C   LIG d   1      -2.132  78.872 118.582  0.00  0.00     0.109 C 
ATOM     16  O   LIG d   1      -0.413  78.385 116.967  0.00  0.00    -0.276 OA
ATOM     17  H   LIG d   1      -2.808  80.431 116.714  0.00  0.00     0.149 HD
ENDBRANCH   6  13
BRANCH   5  18
ATOM     18  N   LIG d   1       0.786  81.018 115.782  0.00  0.00     0.381 N 
ATOM     19  H   LIG d   1       1.252  80.254 115.335  0.00  0.00    -0.090 HD
ATOM     20  H   LIG d   1       0.534  80.734 116.712  0.00  0.00    -0.090 HD
ATOM     21  H   LIG d   1       1.390  81.809 115.821  0.00  0.00    -0.090 HD
ENDBRANCH   5  18
BRANCH   3  22
ATOM     22  C   LIG d   1      -0.972  82.715 111.662  0.00  0.00     0.382 C 
ATOM     23  O   LIG d   1      -0.476  82.281 110.595  0.00  0.00    -0.241 OA
ATOM     24  O   LIG d   1      -1.272  83.920 111.753  0.00  0.00    -0.241 OA
ENDBRANCH   3  22
TORSDOF 7
ENDMDL
MODEL 6
REMARK VINA RESULT:      -4.6      1.824      2.494
REMARK  7 active torsions:
REMARK  status: ('A' for Active; 'I' for Inactive)
REMARK    1  A    between atoms: C_2  and  C_3 
REMARK    2  A    between atoms: C_3  and  O_6 
REMARK    3  A    between atoms: C_3  and  C_4 
REMARK    4  A    between atoms: C_7  and  O_6 
REMARK    5  A    between atoms: C_9  and  C_10 
REMARK    6  A    between atoms: N_15  and  C_14 
REMARK    7  A    between atoms: N_20  and  C_19 
REMARK       I    between atoms: C_22  and  N_20 
ROOT
ATOM      1  C   LIG d   1      -1.201  80.472 114.148  0.00  0.00     0.161 C 
ATOM      2  C   LIG d   1      -1.060  81.774 113.640  0.00  0.00     0.016 C 
ATOM      3  C   LIG d   1      -0.863  82.057 112.268  0.00  0.00     0.038 C 
ATOM      4  C   LIG d   1      -0.944  81.058 111.286  0.00  0.00     0.028 C 
ATOM      5  C   LIG d   1      -0.580  79.670 111.803  0.00  0.00    -0.047 C 
ATOM      6  C   LIG d   1      -1.403  79.378 113.079  0.00  0.00     0.091 C 
ENDROOT
BRANCH   1   7
ATOM      7  O   LIG d   1      -2.273  80.437 115.110  0.00  0.00    -0.368 OA
BRANCH   7   8
ATOM      8  C   LIG d   1      -2.215  81.426 116.167  0.00  0.00     0.119 C 
BRANCH   8   9
ATOM      9  C   LIG d   1      -1.068  81.025 117.114  0.00  0.00     0.028 C 
ATOM     10  C   LIG d   1      -0.114  82.195 117.409  0.00  0.00     0.006 C 
ENDBRANCH   8   9
BRANCH   8  11
ATOM     11  C   LIG d   1      -3.481  81.397 117.028  0.00  0.00     0.028 C 
ATOM     12  C   LIG d   1      -4.617  82.255 116.447  0.00  0.00     0.006 C 
ENDBRANCH   8  11
ENDBRANCH   7   8
ENDBRANCH   1   7
BRANCH   6  13
ATOM     13  N   LIG d   1      -1.047  78.074 113.697  0.00  0.00    -0.311 N 
ATOM     14  C   LIG d   1      -1.697  76.940 113.441  0.00  0.00     0.210 C 
ATOM     15  C   LIG d   1      -1.180  75.714 114.200  0.00  0.00     0.109 C 
ATOM     16  O   LIG d   1      -2.631  76.827 112.634  0.00  0.00    -0.276 OA
ATOM     17  H   LIG d   1      -0.280  78.069 114.341  0.00  0.00     0.149 HD
ENDBRANCH   6  13
BRANCH   5  18
ATOM     18  N   LIG d   1      -0.840  78.708 110.715  0.00  0.00     0.381 N 
ATOM     19  H   LIG d   1      -1.618  79.017 110.168  0.00  0.00    -0.090 HD
ATOM     20  H   LIG d   1      -1.072  77.817 111.118  0.00  0.00    -0.090 HD
ATOM     21  H   LIG d   1      -0.033  78.620 110.138  0.00  0.00    -0.090 HD
ENDBRANCH   5  18
BRANCH   3  22
ATOM     22  C   LIG d   1      -0.541  83.346 111.872  0.00  0.00     0.382 C 
ATOM     23  O   LIG d   1       0.612  83.796 112.078  0.00  0.00    -0.241 OA
ATOM     24  O   LIG d   1      -1.402  84.080 111.351  0.00  0.00    -0.241 OA
ENDBRANCH   3  22
TORSDOF 7
ENDMDL
MODEL 7
REMARK VINA RESULT:      -4.6      3.983      6.672
REMARK  7 active torsions:
REMARK  status: ('A' for Active; 'I' for Inactive)
REMARK    1  A    between atoms: C_2  and  C_3 
REMARK    2  A    between atoms: C_3  and  O_6 
REMARK    3  A    between atoms: C_3  and  C_4 
REMARK    4  A    between atoms: C_7  and  O_6 
REMARK    5  A    between atoms: C_9  and  C_10 
REMARK    6  A    between atoms: N_15  and  C_14 
REMARK    7  A    between atoms: N_20  and  C_19 
REMARK       I    between atoms: C_22  and  N_20 
ROOT
ATOM      1  C   LIG d   1       0.677  81.693 114.063  0.00  0.00     0.161 C 
ATOM      2  C   LIG d   1      -0.464  80.953 114.417  0.00  0.00     0.016 C 
ATOM      3  C   LIG d   1      -1.577  80.783 113.563  0.00  0.00     0.038 C 
ATOM      4  C   LIG d   1      -1.562  81.218 112.229  0.00  0.00     0.028 C 
ATOM      5  C   LIG d   1      -0.636  82.406 111.990  0.00  0.00    -0.047 C 
ATOM      6  C   LIG d   1       0.758  82.081 112.572  0.00  0.00     0.091 C 
ENDROOT
BRANCH   1   7
ATOM      7  O   LIG d   1       1.864  80.980 114.461  0.00  0.00    -0.368 OA
BRANCH   7   8
ATOM      8  C   LIG d   1       2.197  81.032 115.870  0.00  0.00     0.119 C 
BRANCH   8   9
ATOM      9  C   LIG d   1       2.592  82.485 116.200  0.00  0.00     0.028 C 
ATOM     10  C   LIG d   1       1.902  83.007 117.471  0.00  0.00     0.006 C 
ENDBRANCH   8   9
BRANCH   8  11
ATOM     11  C   LIG d   1       3.440  80.193 116.181  0.00  0.00     0.028 C 
ATOM     12  C   LIG d   1       3.283  79.344 117.452  0.00  0.00     0.006 C 
ENDBRANCH   8  11
ENDBRANCH   7   8
ENDBRANCH   1   7
BRANCH   6  13
ATOM     13  N   LIG d   1       1.702  83.223 112.456  0.00  0.00    -0.311 N 
ATOM     14  C   LIG d   1       2.539  83.382 111.432  0.00  0.00     0.210 C 
ATOM     15  C   LIG d   1       3.440  84.618 111.518  0.00  0.00     0.109 C 
ATOM     16  O   LIG d   1       2.599  82.633 110.445  0.00  0.00    -0.276 OA
ATOM     17  H   LIG d   1       1.698  83.896 113.198  0.00  0.00     0.149 HD
ENDBRANCH   6  13
BRANCH   5  18
ATOM     18  N   LIG d   1      -0.611  82.667 110.539  0.00  0.00     0.381 N 
ATOM     19  H   LIG d   1       0.046  83.393 110.336  0.00  0.00    -0.090 HD
ATOM     20  H   LIG d   1      -1.522  82.975 110.248  0.00  0.00    -0.090 HD
ATOM     21  H   LIG d   1      -0.361  81.837 110.048  0.00  0.00    -0.090 HD
ENDBRANCH   5  18
BRANCH   3  22
ATOM     22  C   LIG d   1      -2.739  80.206 114.054  0.00  0.00     0.382 C 
ATOM     23  O   LIG d   1      -3.589  79.736 113.260  0.00  0.00    -0.241 OA
ATOM     24  O   LIG d   1      -2.967  80.189 115.278  0.00  0.00    -0.241 OA
ENDBRANCH   3  22
TORSDOF 7
ENDMDL
MODEL 8
REMARK VINA RESULT:      -4.5      3.235      4.275
REMARK  7 active torsions:
REMARK  status: ('A' for Active; 'I' for Inactive)
REMARK    1  A    between atoms: C_2  and  C_3 
REMARK    2  A    between atoms: C_3  and  O_6 
REMARK    3  A    between atoms: C_3  and  C_4 
REMARK    4  A    between atoms: C_7  and  O_6 
REMARK    5  A    between atoms: C_9  and  C_10 
REMARK    6  A    between atoms: N_15  and  C_14 
REMARK    7  A    between atoms: N_20  and  C_19 
REMARK       I    between atoms: C_22  and  N_20 
ROOT
ATOM      1  C   LIG d   1       0.579  80.940 114.355  0.00  0.00     0.161 C 
ATOM      2  C   LIG d   1       1.545  81.242 113.380  0.00  0.00     0.016 C 
ATOM      3  C   LIG d   1       1.370  80.973 112.003  0.00  0.00     0.038 C 
ATOM      4  C   LIG d   1       0.148  80.520 111.485  0.00  0.00     0.028 C 
ATOM      5  C   LIG d   1      -0.680  79.727 112.491  0.00  0.00    -0.047 C 
ATOM      6  C   LIG d   1      -0.804  80.547 113.796  0.00  0.00     0.091 C 
ENDROOT
BRANCH   1   7
ATOM      7  O   LIG d   1       0.453  82.042 115.276  0.00  0.00    -0.368 OA
BRANCH   7   8
ATOM      8  C   LIG d   1       0.885  81.789 116.635  0.00  0.00     0.119 C 
BRANCH   8   9
ATOM      9  C   LIG d   1      -0.212  82.325 117.576  0.00  0.00     0.028 C 
ATOM     10  C   LIG d   1      -1.021  81.197 118.237  0.00  0.00     0.006 C 
ENDBRANCH   8   9
BRANCH   8  11
ATOM     11  C   LIG d   1       2.142  82.592 116.979  0.00  0.00     0.028 C 
ATOM     12  C   LIG d   1       3.440  81.823 116.684  0.00  0.00     0.006 C 
ENDBRANCH   8  11
ENDBRANCH   7   8
ENDBRANCH   1   7
BRANCH   6  13
ATOM     13  N   LIG d   1      -1.528  79.808 114.863  0.00  0.00    -0.311 N 
ATOM     14  C   LIG d   1      -2.844  79.891 115.048  0.00  0.00     0.210 C 
ATOM     15  C   LIG d   1      -3.386  79.063 116.218  0.00  0.00     0.109 C 
ATOM     16  O   LIG d   1      -3.619  80.546 114.335  0.00  0.00    -0.276 OA
ATOM     17  H   LIG d   1      -0.980  79.229 115.468  0.00  0.00     0.149 HD
ENDBRANCH   6  13
BRANCH   5  18
ATOM     18  N   LIG d   1      -1.983  79.435 111.865  0.00  0.00     0.381 N 
ATOM     19  H   LIG d   1      -2.485  78.772 112.421  0.00  0.00    -0.090 HD
ATOM     20  H   LIG d   1      -1.825  79.031 110.959  0.00  0.00    -0.090 HD
ATOM     21  H   LIG d   1      -2.513  80.274 111.775  0.00  0.00    -0.090 HD
ENDBRANCH   5  18
BRANCH   3  22
ATOM     22  C   LIG d   1       2.440  81.121 111.133  0.00  0.00     0.382 C 
ATOM     23  O   LIG d   1       2.424  80.549 110.017  0.00  0.00    -0.241 OA
ATOM     24  O   LIG d   1       3.440  81.784 111.469  0.00  0.00    -0.241 OA
ENDBRANCH   3  22
TORSDOF 7
ENDMDL
MODEL 9
REMARK VINA RESULT:      -4.4      2.622      4.877
REMARK  7 active torsions:
REMARK  status: ('A' for Active; 'I' for Inactive)
REMARK    1  A    between atoms: C_2  and  C_3 
REMARK    2  A    between atoms: C_3  and  O_6 
REMARK    3  A    between atoms: C_3  and  C_4 
REMARK    4  A    between atoms: C_7  and  O_6 
REMARK    5  A    between atoms: C_9  and  C_10 
REMARK    6  A    between atoms: N_15  and  C_14 
REMARK    7  A    between atoms: N_20  and  C_19 
REMARK       I    between atoms: C_22  and  N_20 
ROOT
ATOM      1  C   LIG d   1      -2.865  78.783 114.421  0.00  0.00     0.161 C 
ATOM      2  C   LIG d   1      -2.731  78.160 113.169  0.00  0.00     0.016 C 
ATOM      3  C   LIG d   1      -1.884  78.644 112.146  0.00  0.00     0.038 C 
ATOM      4  C   LIG d   1      -0.993  79.705 112.361  0.00  0.00     0.028 C 
ATOM      5  C   LIG d   1      -1.458  80.677 113.440  0.00  0.00    -0.047 C 
ATOM      6  C   LIG d   1      -1.818  79.878 114.713  0.00  0.00     0.091 C 
ENDROOT
BRANCH   1   7
ATOM      7  O   LIG d   1      -2.856  77.790 115.465  0.00  0.00    -0.368 OA
BRANCH   7   8
ATOM      8  C   LIG d   1      -2.719  76.414 115.034  0.00  0.00     0.119 C 
BRANCH   8   9
ATOM      9  C   LIG d   1      -3.860  75.608 115.685  0.00  0.00     0.028 C 
ATOM     10  C   LIG d   1      -5.007  75.316 114.702  0.00  0.00     0.006 C 
ENDBRANCH   8   9
BRANCH   8  11
ATOM     11  C   LIG d   1      -1.426  75.789 115.567  0.00  0.00     0.028 C 
ATOM     12  C   LIG d   1      -0.454  75.384 114.448  0.00  0.00     0.006 C 
ENDBRANCH   8  11
ENDBRANCH   7   8
ENDBRANCH   1   7
BRANCH   6  13
ATOM     13  N   LIG d   1      -2.363  80.745 115.791  0.00  0.00    -0.311 N 
ATOM     14  C   LIG d   1      -1.607  81.304 116.735  0.00  0.00     0.210 C 
ATOM     15  C   LIG d   1      -2.372  82.144 117.762  0.00  0.00     0.109 C 
ATOM     16  O   LIG d   1      -0.372  81.209 116.800  0.00  0.00    -0.276 OA
ATOM     17  H   LIG d   1      -3.352  80.900 115.795  0.00  0.00     0.149 HD
ENDBRANCH   6  13
BRANCH   5  18
ATOM     18  N   LIG d   1      -0.374  81.654 113.658  0.00  0.00     0.381 N 
ATOM     19  H   LIG d   1       0.507  81.237 113.434  0.00  0.00    -0.090 HD
ATOM     20  H   LIG d   1      -0.362  81.916 114.628  0.00  0.00    -0.090 HD
ATOM     21  H   LIG d   1      -0.522  82.460 113.091  0.00  0.00    -0.090 HD
ENDBRANCH   5  18
BRANCH   3  22
ATOM     22  C   LIG d   1      -1.952  78.088 110.877  0.00  0.00     0.382 C 
ATOM     23  O   LIG d   1      -2.698  77.102 110.664  0.00  0.00    -0.241 OA
ATOM     24  O   LIG d   1      -1.242  78.531 109.954  0.00  0.00    -0.241 OA
ENDBRANCH   3  22
TORSDOF 7
ENDMDL
