MODEL 1
REMARK VINA RESULT:      -5.4      0.000      0.000
REMARK  7 active torsions:
REMARK  status: ('A' for Active; 'I' for Inactive)
REMARK    1  A    between atoms: C_2  and  C_3 
REMARK    2  A    between atoms: C_3  and  O_6 
REMARK    3  A    between atoms: C_3  and  C_4 
REMARK    4  A    between atoms: C_7  and  O_6 
REMARK    5  A    between atoms: C_9  and  C_10 
REMARK    6  A    between atoms: N_15  and  C_14 
REMARK    7  A    between atoms: N_20  and  C_19 
REMARK       I    between atoms: C_22  and  N_20 
ROOT
ATOM      1  C   LIG d   1       0.002  80.758 111.419  0.00  0.00     0.161 C 
ATOM      2  C   LIG d   1      -0.950  79.746 111.214  0.00  0.00     0.016 C 
ATOM      3  C   LIG d   1      -1.773  79.231 112.242  0.00  0.00     0.038 C 
ATOM      4  C   LIG d   1      -1.804  79.804 113.522  0.00  0.00     0.028 C 
ATOM      5  C   LIG d   1      -0.501  80.494 113.910  0.00  0.00    -0.047 C 
ATOM      6  C   LIG d   1      -0.096  81.472 112.783  0.00  0.00     0.091 C 
ENDROOT
BRANCH   1   7
ATOM      7  O   LIG d   1      -0.066  81.718 110.345  0.00  0.00    -0.368 OA
BRANCH   7   8
ATOM      8  C   LIG d   1       1.058  81.733 109.431  0.00  0.00     0.119 C 
BRANCH   8   9
ATOM      9  C   LIG d   1       2.068  80.678 109.922  0.00  0.00     0.028 C 
ATOM     10  C   LIG d   1       3.440  81.288 110.253  0.00  0.00     0.006 C 
ENDBRANCH   8   9
BRANCH   8  11
ATOM     11  C   LIG d   1       1.806  83.068 109.491  0.00  0.00     0.028 C 
ATOM     12  C   LIG d   1       0.861  84.276 109.593  0.00  0.00     0.006 C 
ENDBRANCH   8  11
ENDBRANCH   7   8
ENDBRANCH   1   7
BRANCH   6  13
ATOM     13  N   LIG d   1       1.212  82.126 113.044  0.00  0.00    -0.311 N 
ATOM     14  C   LIG d   1       1.362  83.445 113.159  0.00  0.00     0.210 C 
ATOM     15  C   LIG d   1       2.800  83.913 113.407  0.00  0.00     0.109 C 
ATOM     16  O   LIG d   1       0.437  84.269 113.111  0.00  0.00    -0.276 OA
ATOM     17  H   LIG d   1       2.012  81.530 113.127  0.00  0.00     0.149 HD
ENDBRANCH   6  13
BRANCH   5  18
ATOM     18  N   LIG d   1      -0.719  81.163 115.206  0.00  0.00     0.381 N 
ATOM     19  H   LIG d   1      -1.459  81.831 115.122  0.00  0.00    -0.090 HD
ATOM     20  H   LIG d   1       0.120  81.652 115.464  0.00  0.00    -0.090 HD
ATOM     21  H   LIG d   1      -0.948  80.490 115.904  0.00  0.00    -0.090 HD
ENDBRANCH   5  18
BRANCH   3  22
ATOM     22  C   LIG d   1      -2.547  78.106 112.005  0.00  0.00     0.382 C 
ATOM     23  O   LIG d   1      -2.579  77.177 112.848  0.00  0.00    -0.241 OA
ATOM     24  O   LIG d   1      -3.178  77.987 110.938  0.00  0.00    -0.241 OA
ENDBRANCH   3  22
TORSDOF 7
ENDMDL
MODEL 2
REMARK VINA RESULT:      -5.1      2.500      4.546
REMARK  7 active torsions:
REMARK  status: ('A' for Active; 'I' for Inactive)
REMARK    1  A    between atoms: C_2  and  C_3 
REMARK    2  A    between atoms: C_3  and  O_6 
REMARK    3  A    between atoms: C_3  and  C_4 
REMARK    4  A    between atoms: C_7  and  O_6 
REMARK    5  A    between atoms: C_9  and  C_10 
REMARK    6  A    between atoms: N_15  and  C_14 
REMARK    7  A    between atoms: N_20  and  C_19 
REMARK       I    between atoms: C_22  and  N_20 
ROOT
ATOM      1  C   LIG d   1       0.645  82.005 112.830  0.00  0.00     0.161 C 
ATOM      2  C   LIG d   1      -0.650  81.893 113.361  0.00  0.00     0.016 C 
ATOM      3  C   LIG d   1      -1.650  81.060 112.807  0.00  0.00     0.038 C 
ATOM      4  C   LIG d   1      -1.373  80.162 111.765  0.00  0.00     0.028 C 
ATOM      5  C   LIG d   1      -0.219  80.607 110.873  0.00  0.00    -0.047 C 
ATOM      6  C   LIG d   1       0.999  80.949 111.761  0.00  0.00     0.091 C 
ENDROOT
BRANCH   1   7
ATOM      7  O   LIG d   1       1.615  81.982 113.896  0.00  0.00    -0.368 OA
BRANCH   7   8
ATOM      8  C   LIG d   1       1.097  82.195 115.233  0.00  0.00     0.119 C 
BRANCH   8   9
ATOM      9  C   LIG d   1       1.577  83.582 115.700  0.00  0.00     0.028 C 
ATOM     10  C   LIG d   1       0.923  84.015 117.023  0.00  0.00     0.006 C 
ENDBRANCH   8   9
BRANCH   8  11
ATOM     11  C   LIG d   1       1.700  81.200 116.229  0.00  0.00     0.028 C 
ATOM     12  C   LIG d   1       1.041  79.813 116.159  0.00  0.00     0.006 C 
ENDBRANCH   8  11
ENDBRANCH   7   8
ENDBRANCH   1   7
BRANCH   6  13
ATOM     13  N   LIG d   1       2.145  81.473 110.974  0.00  0.00    -0.311 N 
ATOM     14  C   LIG d   1       2.058  82.529 110.166  0.00  0.00     0.210 C 
ATOM     15  C   LIG d   1       3.354  82.890 109.432  0.00  0.00     0.109 C 
ATOM     16  O   LIG d   1       1.040  83.219 110.012  0.00  0.00    -0.276 OA
ATOM     17  H   LIG d   1       3.019  80.992 111.063  0.00  0.00     0.149 HD
ENDBRANCH   6  13
BRANCH   5  18
ATOM     18  N   LIG d   1       0.051  79.516 109.917  0.00  0.00     0.381 N 
ATOM     19  H   LIG d   1       0.827  79.760 109.335  0.00  0.00    -0.090 HD
ATOM     20  H   LIG d   1      -0.755  79.391 109.331  0.00  0.00    -0.090 HD
ATOM     21  H   LIG d   1       0.247  78.672 110.409  0.00  0.00    -0.090 HD
ENDBRANCH   5  18
BRANCH   3  22
ATOM     22  C   LIG d   1      -2.954  81.151 113.269  0.00  0.00     0.382 C 
ATOM     23  O   LIG d   1      -3.287  80.559 114.324  0.00  0.00    -0.241 OA
ATOM     24  O   LIG d   1      -3.812  81.780 112.622  0.00  0.00    -0.241 OA
ENDBRANCH   3  22
TORSDOF 7
ENDMDL
MODEL 3
REMARK VINA RESULT:      -5.1      3.450      7.188
REMARK  7 active torsions:
REMARK  status: ('A' for Active; 'I' for Inactive)
REMARK    1  A    between atoms: C_2  and  C_3 
REMARK    2  A    between atoms: C_3  and  O_6 
REMARK    3  A    between atoms: C_3  and  C_4 
REMARK    4  A    between atoms: C_7  and  O_6 
REMARK    5  A    between atoms: C_9  and  C_10 
REMARK    6  A    between atoms: N_15  and  C_14 
REMARK    7  A    between atoms: N_20  and  C_19 
REMARK       I    between atoms: C_22  and  N_20 
ROOT
ATOM      1  C   LIG d   1      -2.515  80.487 114.749  0.00  0.00     0.161 C 
ATOM      2  C   LIG d   1      -2.101  81.687 114.146  0.00  0.00     0.016 C 
ATOM      3  C   LIG d   1      -1.516  81.751 112.861  0.00  0.00     0.038 C 
ATOM      4  C   LIG d   1      -1.442  80.628 112.023  0.00  0.00     0.028 C 
ATOM      5  C   LIG d   1      -1.386  79.308 112.783  0.00  0.00    -0.047 C 
ATOM      6  C   LIG d   1      -2.545  79.267 113.805  0.00  0.00     0.091 C 
ENDROOT
BRANCH   1   7
ATOM      7  O   LIG d   1      -3.802  80.671 115.371  0.00  0.00    -0.368 OA
BRANCH   7   8
ATOM      8  C   LIG d   1      -3.815  80.676 116.819  0.00  0.00     0.119 C 
BRANCH   8   9
ATOM      9  C   LIG d   1      -4.951  79.741 117.276  0.00  0.00     0.028 C 
ATOM     10  C   LIG d   1      -6.146  80.512 117.861  0.00  0.00     0.006 C 
ENDBRANCH   8   9
BRANCH   8  11
ATOM     11  C   LIG d   1      -4.182  82.058 117.368  0.00  0.00     0.028 C 
ATOM     12  C   LIG d   1      -3.021  82.729 118.119  0.00  0.00     0.006 C 
ENDBRANCH   8  11
ENDBRANCH   7   8
ENDBRANCH   1   7
BRANCH   6  13
ATOM     13  N   LIG d   1      -2.513  78.044 114.649  0.00  0.00    -0.311 N 
ATOM     14  C   LIG d   1      -3.420  77.072 114.566  0.00  0.00     0.210 C 
ATOM     15  C   LIG d   1      -3.213  75.910 115.542  0.00  0.00     0.109 C 
ATOM     16  O   LIG d   1      -4.358  77.047 113.755  0.00  0.00    -0.276 OA
ATOM     17  H   LIG d   1      -1.768  77.968 115.314  0.00  0.00     0.149 HD
ENDBRANCH   6  13
BRANCH   5  18
ATOM     18  N   LIG d   1      -1.451  78.219 111.790  0.00  0.00     0.381 N 
ATOM     19  H   LIG d   1      -0.531  78.003 111.463  0.00  0.00    -0.090 HD
ATOM     20  H   LIG d   1      -2.001  78.526 111.007  0.00  0.00    -0.090 HD
ATOM     21  H   LIG d   1      -1.865  77.410 112.198  0.00  0.00    -0.090 HD
ENDBRANCH   5  18
BRANCH   3  22
ATOM     22  C   LIG d   1      -0.959  82.941 112.418  0.00  0.00     0.382 C 
ATOM     23  O   LIG d   1      -1.357  83.459 111.346  0.00  0.00    -0.241 OA
ATOM     24  O   LIG d   1      -0.034  83.481 113.053  0.00  0.00    -0.241 OA
ENDBRANCH   3  22
TORSDOF 7
ENDMDL
MODEL 4
REMARK VINA RESULT:      -5.0      1.296      2.009
REMARK  7 active torsions:
REMARK  status: ('A' for Active; 'I' for Inactive)
REMARK    1  A    between atoms: C_2  and  C_3 
REMARK    2  A    between atoms: C_3  and  O_6 
REMARK    3  A    between atoms: C_3  and  C_4 
REMARK    4  A    between atoms: C_7  and  O_6 
REMARK    5  A    between atoms: C_9  and  C_10 
REMARK    6  A    between atoms: N_15  and  C_14 
REMARK    7  A    between atoms: N_20  and  C_19 
REMARK       I    between atoms: C_22  and  N_20 
ROOT
ATOM      1  C   LIG d   1      -0.393  81.073 111.799  0.00  0.00     0.161 C 
ATOM      2  C   LIG d   1      -1.040  79.862 111.503  0.00  0.00     0.016 C 
ATOM      3  C   LIG d   1      -2.195  79.410 112.182  0.00  0.00     0.038 C 
ATOM      4  C   LIG d   1      -2.874  80.217 113.107  0.00  0.00     0.028 C 
ATOM      5  C   LIG d   1      -1.973  81.233 113.801  0.00  0.00    -0.047 C 
ATOM      6  C   LIG d   1      -1.184  82.018 112.728  0.00  0.00     0.091 C 
ENDROOT
BRANCH   1   7
ATOM      7  O   LIG d   1      -0.043  81.751 110.576  0.00  0.00    -0.368 OA
BRANCH   7   8
ATOM      8  C   LIG d   1       1.374  81.864 110.294  0.00  0.00     0.119 C 
BRANCH   8   9
ATOM      9  C   LIG d   1       1.575  83.124 109.430  0.00  0.00     0.028 C 
ATOM     10  C   LIG d   1       1.236  84.417 110.191  0.00  0.00     0.006 C 
ENDBRANCH   8   9
BRANCH   8  11
ATOM     11  C   LIG d   1       1.864  80.698 109.430  0.00  0.00     0.028 C 
ATOM     12  C   LIG d   1       3.271  80.217 109.821  0.00  0.00     0.006 C 
ENDBRANCH   8  11
ENDBRANCH   7   8
ENDBRANCH   1   7
BRANCH   6  13
ATOM     13  N   LIG d   1      -0.216  82.975 113.325  0.00  0.00    -0.311 N 
ATOM     14  C   LIG d   1       0.870  82.597 113.998  0.00  0.00     0.210 C 
ATOM     15  C   LIG d   1       1.723  83.745 114.547  0.00  0.00     0.109 C 
ATOM     16  O   LIG d   1       1.224  81.420 114.164  0.00  0.00    -0.276 OA
ATOM     17  H   LIG d   1      -0.410  83.951 113.210  0.00  0.00     0.149 HD
ENDBRANCH   6  13
BRANCH   5  18
ATOM     18  N   LIG d   1      -2.833  82.096 114.633  0.00  0.00     0.381 N 
ATOM     19  H   LIG d   1      -2.888  83.009 114.229  0.00  0.00    -0.090 HD
ATOM     20  H   LIG d   1      -2.423  82.179 115.546  0.00  0.00    -0.090 HD
ATOM     21  H   LIG d   1      -3.745  81.701 114.704  0.00  0.00    -0.090 HD
ENDBRANCH   5  18
BRANCH   3  22
ATOM     22  C   LIG d   1      -2.659  78.121 111.966  0.00  0.00     0.382 C 
ATOM     23  O   LIG d   1      -1.894  77.142 112.139  0.00  0.00    -0.241 OA
ATOM     24  O   LIG d   1      -3.820  77.928 111.557  0.00  0.00    -0.241 OA
ENDBRANCH   3  22
TORSDOF 7
ENDMDL
MODEL 5
REMARK VINA RESULT:      -5.0      2.729      4.842
REMARK  7 active torsions:
REMARK  status: ('A' for Active; 'I' for Inactive)
REMARK    1  A    between atoms: C_2  and  C_3 
REMARK    2  A    between atoms: C_3  and  O_6 
REMARK    3  A    between atoms: C_3  and  C_4 
REMARK    4  A    between atoms: C_7  and  O_6 
REMARK    5  A    between atoms: C_9  and  C_10 
REMARK    6  A    between atoms: N_15  and  C_14 
REMARK    7  A    between atoms: N_20  and  C_19 
REMARK       I    between atoms: C_22  and  N_20 
ROOT
ATOM      1  C   LIG d   1      -2.181  80.432 114.242  0.00  0.00     0.161 C 
ATOM      2  C   LIG d   1      -2.716  79.201 114.656  0.00  0.00     0.016 C 
ATOM      3  C   LIG d   1      -2.784  78.062 113.821  0.00  0.00     0.038 C 
ATOM      4  C   LIG d   1      -2.181  78.034 112.555  0.00  0.00     0.028 C 
ATOM      5  C   LIG d   1      -2.075  79.408 111.904  0.00  0.00    -0.047 C 
ATOM      6  C   LIG d   1      -1.418  80.388 112.902  0.00  0.00     0.091 C 
ENDROOT
BRANCH   1   7
ATOM      7  O   LIG d   1      -1.341  80.974 115.280  0.00  0.00    -0.368 OA
BRANCH   7   8
ATOM      8  C   LIG d   1      -1.808  82.193 115.908  0.00  0.00     0.119 C 
BRANCH   8   9
ATOM      9  C   LIG d   1      -0.568  82.969 116.394  0.00  0.00     0.028 C 
ATOM     10  C   LIG d   1       0.472  83.171 115.279  0.00  0.00     0.006 C 
ENDBRANCH   8   9
BRANCH   8  11
ATOM     11  C   LIG d   1      -2.620  81.894 117.171  0.00  0.00     0.028 C 
ATOM     12  C   LIG d   1      -4.093  82.315 117.047  0.00  0.00     0.006 C 
ENDBRANCH   8  11
ENDBRANCH   7   8
ENDBRANCH   1   7
BRANCH   6  13
ATOM     13  N   LIG d   1      -1.353  81.776 112.375  0.00  0.00    -0.311 N 
ATOM     14  C   LIG d   1      -0.303  82.262 111.716  0.00  0.00     0.210 C 
ATOM     15  C   LIG d   1      -0.434  83.724 111.277  0.00  0.00     0.109 C 
ATOM     16  O   LIG d   1       0.712  81.611 111.425  0.00  0.00    -0.276 OA
ATOM     17  H   LIG d   1      -2.147  82.364 112.539  0.00  0.00     0.149 HD
ENDBRANCH   6  13
BRANCH   5  18
ATOM     18  N   LIG d   1      -1.305  79.252 110.655  0.00  0.00     0.381 N 
ATOM     19  H   LIG d   1      -1.845  79.583 109.881  0.00  0.00    -0.090 HD
ATOM     20  H   LIG d   1      -1.114  78.276 110.511  0.00  0.00    -0.090 HD
ATOM     21  H   LIG d   1      -0.451  79.760 110.715  0.00  0.00    -0.090 HD
ENDBRANCH   5  18
BRANCH   3  22
ATOM     22  C   LIG d   1      -3.497  76.947 114.236  0.00  0.00     0.382 C 
ATOM     23  O   LIG d   1      -2.928  76.053 114.907  0.00  0.00    -0.241 OA
ATOM     24  O   LIG d   1      -4.691  76.804 113.911  0.00  0.00    -0.241 OA
ENDBRANCH   3  22
TORSDOF 7
ENDMDL
MODEL 6
REMARK VINA RESULT:      -4.9      2.488      6.033
REMARK  7 active torsions:
REMARK  status: ('A' for Active; 'I' for Inactive)
REMARK    1  A    between atoms: C_2  and  C_3 
REMARK    2  A    between atoms: C_3  and  O_6 
REMARK    3  A    between atoms: C_3  and  C_4 
REMARK    4  A    between atoms: C_7  and  O_6 
REMARK    5  A    between atoms: C_9  and  C_10 
REMARK    6  A    between atoms: N_15  and  C_14 
REMARK    7  A    between atoms: N_20  and  C_19 
REMARK       I    between atoms: C_22  and  N_20 
ROOT
ATOM      1  C   LIG d   1       0.260  81.584 112.883  0.00  0.00     0.161 C 
ATOM      2  C   LIG d   1       1.143  82.541 112.354  0.00  0.00     0.016 C 
ATOM      3  C   LIG d   1       1.445  82.643 110.976  0.00  0.00     0.038 C 
ATOM      4  C   LIG d   1       0.764  81.888 110.010  0.00  0.00     0.028 C 
ATOM      5  C   LIG d   1       0.232  80.561 110.541  0.00  0.00    -0.047 C 
ATOM      6  C   LIG d   1      -0.577  80.826 111.832  0.00  0.00     0.091 C 
ENDROOT
BRANCH   1   7
ATOM      7  O   LIG d   1      -0.602  82.202 113.859  0.00  0.00    -0.368 OA
BRANCH   7   8
ATOM      8  C   LIG d   1      -0.220  82.032 115.246  0.00  0.00     0.119 C 
BRANCH   8   9
ATOM      9  C   LIG d   1      -1.491  81.664 116.035  0.00  0.00     0.028 C 
ATOM     10  C   LIG d   1      -2.779  82.012 115.268  0.00  0.00     0.006 C 
ENDBRANCH   8   9
BRANCH   8  11
ATOM     11  C   LIG d   1       0.268  83.350 115.855  0.00  0.00     0.028 C 
ATOM     12  C   LIG d   1      -0.042  83.463 117.356  0.00  0.00     0.006 C 
ENDBRANCH   8  11
ENDBRANCH   7   8
ENDBRANCH   1   7
BRANCH   6  13
ATOM     13  N   LIG d   1      -1.062  79.571 112.464  0.00  0.00    -0.311 N 
ATOM     14  C   LIG d   1      -2.345  79.333 112.731  0.00  0.00     0.210 C 
ATOM     15  C   LIG d   1      -2.626  77.985 113.403  0.00  0.00     0.109 C 
ATOM     16  O   LIG d   1      -3.280  80.097 112.447  0.00  0.00    -0.276 OA
ATOM     17  H   LIG d   1      -0.374  78.883 112.699  0.00  0.00     0.149 HD
ENDBRANCH   6  13
BRANCH   5  18
ATOM     18  N   LIG d   1      -0.572  79.942 109.471  0.00  0.00     0.381 N 
ATOM     19  H   LIG d   1      -0.777  80.622 108.766  0.00  0.00    -0.090 HD
ATOM     20  H   LIG d   1      -1.440  79.621 109.861  0.00  0.00    -0.090 HD
ATOM     21  H   LIG d   1      -0.076  79.177 109.071  0.00  0.00    -0.090 HD
ENDBRANCH   5  18
BRANCH   3  22
ATOM     22  C   LIG d   1       2.467  83.481 110.558  0.00  0.00     0.382 C 
ATOM     23  O   LIG d   1       2.854  84.417 111.298  0.00  0.00    -0.241 OA
ATOM     24  O   LIG d   1       2.978  83.340 109.430  0.00  0.00    -0.241 OA
ENDBRANCH   3  22
TORSDOF 7
ENDMDL
MODEL 7
REMARK VINA RESULT:      -4.9      2.561      4.771
REMARK  7 active torsions:
REMARK  status: ('A' for Active; 'I' for Inactive)
REMARK    1  A    between atoms: C_2  and  C_3 
REMARK    2  A    between atoms: C_3  and  O_6 
REMARK    3  A    between atoms: C_3  and  C_4 
REMARK    4  A    between atoms: C_7  and  O_6 
REMARK    5  A    between atoms: C_9  and  C_10 
REMARK    6  A    between atoms: N_15  and  C_14 
REMARK    7  A    between atoms: N_20  and  C_19 
REMARK       I    between atoms: C_22  and  N_20 
ROOT
ATOM      1  C   LIG d   1      -2.619  81.152 113.727  0.00  0.00     0.161 C 
ATOM      2  C   LIG d   1      -2.990  79.862 114.144  0.00  0.00     0.016 C 
ATOM      3  C   LIG d   1      -2.493  78.679 113.550  0.00  0.00     0.038 C 
ATOM      4  C   LIG d   1      -1.469  78.705 112.591  0.00  0.00     0.028 C 
ATOM      5  C   LIG d   1      -1.427  79.997 111.784  0.00  0.00    -0.047 C 
ATOM      6  C   LIG d   1      -1.419  81.198 112.758  0.00  0.00     0.091 C 
ENDROOT
BRANCH   1   7
ATOM      7  O   LIG d   1      -2.366  81.983 114.877  0.00  0.00    -0.368 OA
BRANCH   7   8
ATOM      8  C   LIG d   1      -1.816  81.314 116.039  0.00  0.00     0.119 C 
BRANCH   8   9
ATOM      9  C   LIG d   1      -2.505  81.907 117.283  0.00  0.00     0.028 C 
ATOM     10  C   LIG d   1      -3.974  82.281 117.019  0.00  0.00     0.006 C 
ENDBRANCH   8   9
BRANCH   8  11
ATOM     11  C   LIG d   1      -0.327  81.629 116.211  0.00  0.00     0.028 C 
ATOM     12  C   LIG d   1       0.052  83.021 115.682  0.00  0.00     0.006 C 
ENDBRANCH   8  11
ENDBRANCH   7   8
ENDBRANCH   1   7
BRANCH   6  13
ATOM     13  N   LIG d   1      -1.463  82.503 112.049  0.00  0.00    -0.311 N 
ATOM     14  C   LIG d   1      -0.377  83.218 111.761  0.00  0.00     0.210 C 
ATOM     15  C   LIG d   1      -0.647  84.545 111.044  0.00  0.00     0.109 C 
ATOM     16  O   LIG d   1       0.787  82.865 112.002  0.00  0.00    -0.276 OA
ATOM     17  H   LIG d   1      -2.365  82.850 111.788  0.00  0.00     0.149 HD
ENDBRANCH   6  13
BRANCH   5  18
ATOM     18  N   LIG d   1      -0.232  79.945 110.921  0.00  0.00     0.381 N 
ATOM     19  H   LIG d   1       0.252  79.081 111.064  0.00  0.00    -0.090 HD
ATOM     20  H   LIG d   1       0.385  80.698 111.173  0.00  0.00    -0.090 HD
ATOM     21  H   LIG d   1      -0.498  80.030 109.964  0.00  0.00    -0.090 HD
ENDBRANCH   5  18
BRANCH   3  22
ATOM     22  C   LIG d   1      -3.051  77.455 113.886  0.00  0.00     0.382 C 
ATOM     23  O   LIG d   1      -2.348  76.578 114.443  0.00  0.00    -0.241 OA
ATOM     24  O   LIG d   1      -4.236  77.201 113.598  0.00  0.00    -0.241 OA
ENDBRANCH   3  22
TORSDOF 7
ENDMDL
MODEL 8
REMARK VINA RESULT:      -4.8      2.281      4.296
REMARK  7 active torsions:
REMARK  status: ('A' for Active; 'I' for Inactive)
REMARK    1  A    between atoms: C_2  and  C_3 
REMARK    2  A    between atoms: C_3  and  O_6 
REMARK    3  A    between atoms: C_3  and  C_4 
REMARK    4  A    between atoms: C_7  and  O_6 
REMARK    5  A    between atoms: C_9  and  C_10 
REMARK    6  A    between atoms: N_15  and  C_14 
REMARK    7  A    between atoms: N_20  and  C_19 
REMARK       I    between atoms: C_22  and  N_20 
ROOT
ATOM      1  C   LIG d   1      -0.882  81.204 112.995  0.00  0.00     0.161 C 
ATOM      2  C   LIG d   1      -1.880  80.216 112.998  0.00  0.00     0.016 C 
ATOM      3  C   LIG d   1      -2.009  79.237 111.987  0.00  0.00     0.038 C 
ATOM      4  C   LIG d   1      -1.050  79.085 110.975  0.00  0.00     0.028 C 
ATOM      5  C   LIG d   1      -0.306  80.376 110.647  0.00  0.00    -0.047 C 
ATOM      6  C   LIG d   1       0.240  80.986 111.958  0.00  0.00     0.091 C 
ENDROOT
BRANCH   1   7
ATOM      7  O   LIG d   1      -0.323  81.339 114.317  0.00  0.00    -0.368 OA
BRANCH   7   8
ATOM      8  C   LIG d   1      -0.767  82.486 115.083  0.00  0.00     0.119 C 
BRANCH   8   9
ATOM      9  C   LIG d   1       0.490  83.234 115.567  0.00  0.00     0.028 C 
ATOM     10  C   LIG d   1       0.317  83.819 116.979  0.00  0.00     0.006 C 
ENDBRANCH   8   9
BRANCH   8  11
ATOM     11  C   LIG d   1      -1.499  82.055 116.357  0.00  0.00     0.028 C 
ATOM     12  C   LIG d   1      -3.017  81.924 116.156  0.00  0.00     0.006 C 
ENDBRANCH   8  11
ENDBRANCH   7   8
ENDBRANCH   1   7
BRANCH   6  13
ATOM     13  N   LIG d   1       0.910  82.295 111.738  0.00  0.00    -0.311 N 
ATOM     14  C   LIG d   1       2.216  82.421 111.512  0.00  0.00     0.210 C 
ATOM     15  C   LIG d   1       2.705  83.862 111.331  0.00  0.00     0.109 C 
ATOM     16  O   LIG d   1       3.011  81.475 111.412  0.00  0.00    -0.276 OA
ATOM     17  H   LIG d   1       0.334  83.113 111.772  0.00  0.00     0.149 HD
ENDBRANCH   6  13
BRANCH   5  18
ATOM     18  N   LIG d   1       0.755  80.045 109.678  0.00  0.00     0.381 N 
ATOM     19  H   LIG d   1       0.517  79.204 109.189  0.00  0.00    -0.090 HD
ATOM     20  H   LIG d   1       1.614  79.887 110.176  0.00  0.00    -0.090 HD
ATOM     21  H   LIG d   1       0.871  80.793 109.030  0.00  0.00    -0.090 HD
ENDBRANCH   5  18
BRANCH   3  22
ATOM     22  C   LIG d   1      -3.130  78.421 111.959  0.00  0.00     0.382 C 
ATOM     23  O   LIG d   1      -3.802  78.243 113.004  0.00  0.00    -0.241 OA
ATOM     24  O   LIG d   1      -3.453  77.826 110.914  0.00  0.00    -0.241 OA
ENDBRANCH   3  22
TORSDOF 7
ENDMDL
MODEL 9
REMARK VINA RESULT:      -4.7      3.961      6.264
REMARK  7 active torsions:
REMARK  status: ('A' for Active; 'I' for Inactive)
REMARK    1  A    between atoms: C_2  and  C_3 
REMARK    2  A    between atoms: C_3  and  O_6 
REMARK    3  A    between atoms: C_3  and  C_4 
REMARK    4  A    between atoms: C_7  and  O_6 
REMARK    5  A    between atoms: C_9  and  C_10 
REMARK    6  A    between atoms: N_15  and  C_14 
REMARK    7  A    between atoms: N_20  and  C_19 
REMARK       I    between atoms: C_22  and  N_20 
ROOT
ATOM      1  C   LIG d   1      -0.128  80.986 115.545  0.00  0.00     0.161 C 
ATOM      2  C   LIG d   1      -0.989  81.707 114.701  0.00  0.00     0.016 C 
ATOM      3  C   LIG d   1      -1.946  81.095 113.860  0.00  0.00     0.038 C 
ATOM      4  C   LIG d   1      -2.213  79.719 113.919  0.00  0.00     0.028 C 
ATOM      5  C   LIG d   1      -1.022  78.890 114.389  0.00  0.00    -0.047 C 
ATOM      6  C   LIG d   1      -0.481  79.493 115.706  0.00  0.00     0.091 C 
ENDROOT
BRANCH   1   7
ATOM      7  O   LIG d   1      -0.060  81.626 116.835  0.00  0.00    -0.368 OA
BRANCH   7   8
ATOM      8  C   LIG d   1      -0.929  82.770 117.025  0.00  0.00     0.119 C 
BRANCH   8   9
ATOM      9  C   LIG d   1      -0.089  83.885 117.678  0.00  0.00     0.028 C 
ATOM     10  C   LIG d   1      -0.730  84.424 118.968  0.00  0.00     0.006 C 
ENDBRANCH   8   9
BRANCH   8  11
ATOM     11  C   LIG d   1      -2.044  82.463 118.028  0.00  0.00     0.028 C 
ATOM     12  C   LIG d   1      -3.425  82.337 117.365  0.00  0.00     0.006 C 
ENDBRANCH   8  11
ENDBRANCH   7   8
ENDBRANCH   1   7
BRANCH   6  13
ATOM     13  N   LIG d   1       0.737  78.792 116.190  0.00  0.00    -0.311 N 
ATOM     14  C   LIG d   1       0.705  77.772 117.046  0.00  0.00     0.210 C 
ATOM     15  C   LIG d   1       2.076  77.208 117.431  0.00  0.00     0.109 C 
ATOM     16  O   LIG d   1      -0.331  77.261 117.498  0.00  0.00    -0.276 OA
ATOM     17  H   LIG d   1       1.619  79.123 115.850  0.00  0.00     0.149 HD
ENDBRANCH   6  13
BRANCH   5  18
ATOM     18  N   LIG d   1      -1.480  77.496 114.536  0.00  0.00     0.381 N 
ATOM     19  H   LIG d   1      -0.950  76.900 113.932  0.00  0.00    -0.090 HD
ATOM     20  H   LIG d   1      -2.446  77.441 114.266  0.00  0.00    -0.090 HD
ATOM     21  H   LIG d   1      -1.375  77.201 115.482  0.00  0.00    -0.090 HD
ENDBRANCH   5  18
BRANCH   3  22
ATOM     22  C   LIG d   1      -2.621  81.857 112.918  0.00  0.00     0.382 C 
ATOM     23  O   LIG d   1      -3.860  81.723 112.774  0.00  0.00    -0.241 OA
ATOM     24  O   LIG d   1      -1.999  82.644 112.179  0.00  0.00    -0.241 OA
ENDBRANCH   3  22
TORSDOF 7
ENDMDL
