MODEL 1
REMARK VINA RESULT:      -4.7      0.000      0.000
REMARK  7 active torsions:
REMARK  status: ('A' for Active; 'I' for Inactive)
REMARK    1  A    between atoms: C_2  and  C_3 
REMARK    2  A    between atoms: C_3  and  O_6 
REMARK    3  A    between atoms: C_3  and  C_4 
REMARK    4  A    between atoms: C_7  and  O_6 
REMARK    5  A    between atoms: C_9  and  C_10 
REMARK    6  A    between atoms: N_15  and  C_14 
REMARK    7  A    between atoms: N_20  and  C_19 
REMARK       I    between atoms: C_22  and  N_20 
ROOT
ATOM      1  C   LIG d   1      -2.981  77.007 115.237  0.00  0.00     0.161 C 
ATOM      2  C   LIG d   1      -3.106  77.729 114.038  0.00  0.00     0.016 C 
ATOM      3  C   LIG d   1      -2.131  78.642 113.574  0.00  0.00     0.038 C 
ATOM      4  C   LIG d   1      -0.887  78.782 114.206  0.00  0.00     0.028 C 
ATOM      5  C   LIG d   1      -0.922  78.450 115.694  0.00  0.00    -0.047 C 
ATOM      6  C   LIG d   1      -1.581  77.064 115.883  0.00  0.00     0.091 C 
ENDROOT
BRANCH   1   7
ATOM      7  O   LIG d   1      -3.381  75.638 115.027  0.00  0.00    -0.368 OA
BRANCH   7   8
ATOM      8  C   LIG d   1      -4.628  75.237 115.645  0.00  0.00     0.119 C 
BRANCH   8   9
ATOM      9  C   LIG d   1      -4.295  74.180 116.716  0.00  0.00     0.028 C 
ATOM     10  C   LIG d   1      -4.888  74.531 118.091  0.00  0.00     0.006 C 
ENDBRANCH   8   9
BRANCH   8  11
ATOM     11  C   LIG d   1      -5.542  74.525 114.643  0.00  0.00     0.028 C 
ATOM     12  C   LIG d   1      -6.728  75.394 114.196  0.00  0.00     0.006 C 
ENDBRANCH   8  11
ENDBRANCH   7   8
ENDBRANCH   1   7
BRANCH   6  13
ATOM     13  N   LIG d   1      -1.731  76.699 117.315  0.00  0.00    -0.311 N 
ATOM     14  C   LIG d   1      -1.105  75.667 117.878  0.00  0.00     0.210 C 
ATOM     15  C   LIG d   1      -1.415  75.454 119.363  0.00  0.00     0.109 C 
ATOM     16  O   LIG d   1      -0.297  74.927 117.297  0.00  0.00    -0.276 OA
ATOM     17  H   LIG d   1      -2.343  77.265 117.869  0.00  0.00     0.149 HD
ENDBRANCH   6  13
BRANCH   5  18
ATOM     18  N   LIG d   1       0.465  78.504 116.195  0.00  0.00     0.381 N 
ATOM     19  H   LIG d   1       0.542  77.967 117.036  0.00  0.00    -0.090 HD
ATOM     20  H   LIG d   1       0.696  79.458 116.408  0.00  0.00    -0.090 HD
ATOM     21  H   LIG d   1       1.090  78.148 115.506  0.00  0.00    -0.090 HD
ENDBRANCH   5  18
BRANCH   3  22
ATOM     22  C   LIG d   1      -2.414  79.455 112.487  0.00  0.00     0.382 C 
ATOM     23  O   LIG d   1      -1.698  79.399 111.459  0.00  0.00    -0.241 OA
ATOM     24  O   LIG d   1      -3.349  80.277 112.540  0.00  0.00    -0.241 OA
ENDBRANCH   3  22
TORSDOF 7
ENDMDL
MODEL 2
REMARK VINA RESULT:      -4.6      0.529      1.688
REMARK  7 active torsions:
REMARK  status: ('A' for Active; 'I' for Inactive)
REMARK    1  A    between atoms: C_2  and  C_3 
REMARK    2  A    between atoms: C_3  and  O_6 
REMARK    3  A    between atoms: C_3  and  C_4 
REMARK    4  A    between atoms: C_7  and  O_6 
REMARK    5  A    between atoms: C_9  and  C_10 
REMARK    6  A    between atoms: N_15  and  C_14 
REMARK    7  A    between atoms: N_20  and  C_19 
REMARK       I    between atoms: C_22  and  N_20 
ROOT
ATOM      1  C   LIG d   1      -3.062  76.675 115.168  0.00  0.00     0.161 C 
ATOM      2  C   LIG d   1      -3.218  77.377 113.961  0.00  0.00     0.016 C 
ATOM      3  C   LIG d   1      -2.296  78.344 113.497  0.00  0.00     0.038 C 
ATOM      4  C   LIG d   1      -1.070  78.567 114.141  0.00  0.00     0.028 C 
ATOM      5  C   LIG d   1      -1.101  78.247 115.632  0.00  0.00    -0.047 C 
ATOM      6  C   LIG d   1      -1.675  76.825 115.828  0.00  0.00     0.091 C 
ENDROOT
BRANCH   1   7
ATOM      7  O   LIG d   1      -3.373  75.283 114.968  0.00  0.00    -0.368 OA
BRANCH   7   8
ATOM      8  C   LIG d   1      -4.525  74.777 115.687  0.00  0.00     0.119 C 
BRANCH   8   9
ATOM      9  C   LIG d   1      -5.580  74.367 114.641  0.00  0.00     0.028 C 
ATOM     10  C   LIG d   1      -6.652  75.450 114.432  0.00  0.00     0.006 C 
ENDBRANCH   8   9
BRANCH   8  11
ATOM     11  C   LIG d   1      -5.188  75.878 116.521  0.00  0.00     0.028 C 
ATOM     12  C   LIG d   1      -5.298  75.512 118.010  0.00  0.00     0.006 C 
ENDBRANCH   8  11
ENDBRANCH   7   8
ENDBRANCH   1   7
BRANCH   6  13
ATOM     13  N   LIG d   1      -1.818  76.465 117.263  0.00  0.00    -0.311 N 
ATOM     14  C   LIG d   1      -1.389  75.313 117.776  0.00  0.00     0.210 C 
ATOM     15  C   LIG d   1      -1.654  75.134 119.274  0.00  0.00     0.109 C 
ATOM     16  O   LIG d   1      -0.786  74.436 117.139  0.00  0.00    -0.276 OA
ATOM     17  H   LIG d   1      -2.269  77.132 117.858  0.00  0.00     0.149 HD
ENDBRANCH   6  13
BRANCH   5  18
ATOM     18  N   LIG d   1       0.274  78.392 116.147  0.00  0.00     0.381 N 
ATOM     19  H   LIG d   1       0.772  77.533 116.029  0.00  0.00    -0.090 HD
ATOM     20  H   LIG d   1       0.232  78.600 117.129  0.00  0.00    -0.090 HD
ATOM     21  H   LIG d   1       0.743  79.126 115.665  0.00  0.00    -0.090 HD
ENDBRANCH   5  18
BRANCH   3  22
ATOM     22  C   LIG d   1      -2.617  79.128 112.400  0.00  0.00     0.382 C 
ATOM     23  O   LIG d   1      -3.309  80.163 112.549  0.00  0.00    -0.241 OA
ATOM     24  O   LIG d   1      -2.259  78.789 111.255  0.00  0.00    -0.241 OA
ENDBRANCH   3  22
TORSDOF 7
ENDMDL
MODEL 3
REMARK VINA RESULT:      -4.3      2.434      3.184
REMARK  7 active torsions:
REMARK  status: ('A' for Active; 'I' for Inactive)
REMARK    1  A    between atoms: C_2  and  C_3 
REMARK    2  A    between atoms: C_3  and  O_6 
REMARK    3  A    between atoms: C_3  and  C_4 
REMARK    4  A    between atoms: C_7  and  O_6 
REMARK    5  A    between atoms: C_9  and  C_10 
REMARK    6  A    between atoms: N_15  and  C_14 
REMARK    7  A    between atoms: N_20  and  C_19 
REMARK       I    between atoms: C_22  and  N_20 
ROOT
ATOM      1  C   LIG d   1      -2.722  78.388 115.192  0.00  0.00     0.161 C 
ATOM      2  C   LIG d   1      -2.919  79.541 114.414  0.00  0.00     0.016 C 
ATOM      3  C   LIG d   1      -2.418  79.688 113.100  0.00  0.00     0.038 C 
ATOM      4  C   LIG d   1      -1.812  78.625 112.415  0.00  0.00     0.028 C 
ATOM      5  C   LIG d   1      -1.145  77.611 113.338  0.00  0.00    -0.047 C 
ATOM      6  C   LIG d   1      -2.159  77.176 114.421  0.00  0.00     0.091 C 
ENDROOT
BRANCH   1   7
ATOM      7  O   LIG d   1      -3.950  78.032 115.857  0.00  0.00    -0.368 OA
BRANCH   7   8
ATOM      8  C   LIG d   1      -4.074  78.457 117.237  0.00  0.00     0.119 C 
BRANCH   8   9
ATOM      9  C   LIG d   1      -4.589  77.252 118.048  0.00  0.00     0.028 C 
ATOM     10  C   LIG d   1      -3.506  76.657 118.964  0.00  0.00     0.006 C 
ENDBRANCH   8   9
BRANCH   8  11
ATOM     11  C   LIG d   1      -5.148  79.539 117.392  0.00  0.00     0.028 C 
ATOM     12  C   LIG d   1      -5.080  80.255 118.750  0.00  0.00     0.006 C 
ENDBRANCH   8  11
ENDBRANCH   7   8
ENDBRANCH   1   7
BRANCH   6  13
ATOM     13  N   LIG d   1      -1.562  76.248 115.416  0.00  0.00    -0.311 N 
ATOM     14  C   LIG d   1      -2.158  75.129 115.824  0.00  0.00     0.210 C 
ATOM     15  C   LIG d   1      -1.379  74.326 116.870  0.00  0.00     0.109 C 
ATOM     16  O   LIG d   1      -3.244  74.709 115.396  0.00  0.00    -0.276 OA
ATOM     17  H   LIG d   1      -0.668  76.496 115.792  0.00  0.00     0.149 HD
ENDBRANCH   6  13
BRANCH   5  18
ATOM     18  N   LIG d   1      -0.675  76.489 112.502  0.00  0.00     0.381 N 
ATOM     19  H   LIG d   1      -1.460  75.990 112.134  0.00  0.00    -0.090 HD
ATOM     20  H   LIG d   1      -0.141  75.860 113.074  0.00  0.00    -0.090 HD
ATOM     21  H   LIG d   1      -0.111  76.833 111.756  0.00  0.00    -0.090 HD
ENDBRANCH   5  18
BRANCH   3  22
ATOM     22  C   LIG d   1      -2.487  80.923 112.473  0.00  0.00     0.382 C 
ATOM     23  O   LIG d   1      -3.573  81.550 112.440  0.00  0.00    -0.241 OA
ATOM     24  O   LIG d   1      -1.487  81.397 111.901  0.00  0.00    -0.241 OA
ENDBRANCH   3  22
TORSDOF 7
ENDMDL
MODEL 4
REMARK VINA RESULT:      -4.2      2.143      4.822
REMARK  7 active torsions:
REMARK  status: ('A' for Active; 'I' for Inactive)
REMARK    1  A    between atoms: C_2  and  C_3 
REMARK    2  A    between atoms: C_3  and  O_6 
REMARK    3  A    between atoms: C_3  and  C_4 
REMARK    4  A    between atoms: C_7  and  O_6 
REMARK    5  A    between atoms: C_9  and  C_10 
REMARK    6  A    between atoms: N_15  and  C_14 
REMARK    7  A    between atoms: N_20  and  C_19 
REMARK       I    between atoms: C_22  and  N_20 
ROOT
ATOM      1  C   LIG d   1      -2.889  77.175 115.740  0.00  0.00     0.161 C 
ATOM      2  C   LIG d   1      -2.577  77.116 117.108  0.00  0.00     0.016 C 
ATOM      3  C   LIG d   1      -1.461  77.768 117.681  0.00  0.00     0.038 C 
ATOM      4  C   LIG d   1      -0.661  78.654 116.944  0.00  0.00     0.028 C 
ATOM      5  C   LIG d   1      -0.637  78.349 115.450  0.00  0.00    -0.047 C 
ATOM      6  C   LIG d   1      -2.091  78.227 114.940  0.00  0.00     0.091 C 
ENDROOT
BRANCH   1   7
ATOM      7  O   LIG d   1      -4.305  77.385 115.570  0.00  0.00    -0.368 OA
BRANCH   7   8
ATOM      8  C   LIG d   1      -5.167  76.319 116.038  0.00  0.00     0.119 C 
BRANCH   8   9
ATOM      9  C   LIG d   1      -5.868  75.715 114.806  0.00  0.00     0.028 C 
ATOM     10  C   LIG d   1      -5.778  74.180 114.773  0.00  0.00     0.006 C 
ENDBRANCH   8   9
BRANCH   8  11
ATOM     11  C   LIG d   1      -6.295  76.862 116.921  0.00  0.00     0.028 C 
ATOM     12  C   LIG d   1      -6.066  78.319 117.351  0.00  0.00     0.006 C 
ENDBRANCH   8  11
ENDBRANCH   7   8
ENDBRANCH   1   7
BRANCH   6  13
ATOM     13  N   LIG d   1      -2.159  77.846 113.505  0.00  0.00    -0.311 N 
ATOM     14  C   LIG d   1      -2.733  78.603 112.572  0.00  0.00     0.210 C 
ATOM     15  C   LIG d   1      -2.710  78.015 111.158  0.00  0.00     0.109 C 
ATOM     16  O   LIG d   1      -3.230  79.721 112.775  0.00  0.00    -0.276 OA
ATOM     17  H   LIG d   1      -1.752  76.969 113.246  0.00  0.00     0.149 HD
ENDBRANCH   6  13
BRANCH   5  18
ATOM     18  N   LIG d   1       0.120  79.427 114.787  0.00  0.00     0.381 N 
ATOM     19  H   LIG d   1      -0.479  79.925 114.159  0.00  0.00    -0.090 HD
ATOM     20  H   LIG d   1       0.867  79.019 114.253  0.00  0.00    -0.090 HD
ATOM     21  H   LIG d   1       0.491  80.052 115.468  0.00  0.00    -0.090 HD
ENDBRANCH   5  18
BRANCH   3  22
ATOM     22  C   LIG d   1      -1.112  77.505 118.997  0.00  0.00     0.382 C 
ATOM     23  O   LIG d   1      -0.241  78.205 119.567  0.00  0.00    -0.241 OA
ATOM     24  O   LIG d   1      -1.625  76.548 119.608  0.00  0.00    -0.241 OA
ENDBRANCH   3  22
TORSDOF 7
ENDMDL
MODEL 5
REMARK VINA RESULT:      -4.2      2.123      2.600
REMARK  7 active torsions:
REMARK  status: ('A' for Active; 'I' for Inactive)
REMARK    1  A    between atoms: C_2  and  C_3 
REMARK    2  A    between atoms: C_3  and  O_6 
REMARK    3  A    between atoms: C_3  and  C_4 
REMARK    4  A    between atoms: C_7  and  O_6 
REMARK    5  A    between atoms: C_9  and  C_10 
REMARK    6  A    between atoms: N_15  and  C_14 
REMARK    7  A    between atoms: N_20  and  C_19 
REMARK       I    between atoms: C_22  and  N_20 
ROOT
ATOM      1  C   LIG d   1      -2.025  78.156 116.512  0.00  0.00     0.161 C 
ATOM      2  C   LIG d   1      -2.514  78.887 115.417  0.00  0.00     0.016 C 
ATOM      3  C   LIG d   1      -2.191  78.585 114.074  0.00  0.00     0.038 C 
ATOM      4  C   LIG d   1      -1.473  77.431 113.725  0.00  0.00     0.028 C 
ATOM      5  C   LIG d   1      -0.536  76.945 114.825  0.00  0.00    -0.047 C 
ATOM      6  C   LIG d   1      -1.331  76.827 116.145  0.00  0.00     0.091 C 
ENDROOT
BRANCH   1   7
ATOM      7  O   LIG d   1      -3.088  77.921 117.457  0.00  0.00    -0.368 OA
BRANCH   7   8
ATOM      8  C   LIG d   1      -4.436  78.010 116.933  0.00  0.00     0.119 C 
BRANCH   8   9
ATOM      9  C   LIG d   1      -5.284  78.780 117.965  0.00  0.00     0.028 C 
ATOM     10  C   LIG d   1      -5.609  80.211 117.505  0.00  0.00     0.006 C 
ENDBRANCH   8   9
BRANCH   8  11
ATOM     11  C   LIG d   1      -5.085  76.626 116.828  0.00  0.00     0.028 C 
ATOM     12  C   LIG d   1      -4.967  76.019 115.421  0.00  0.00     0.006 C 
ENDBRANCH   8  11
ENDBRANCH   7   8
ENDBRANCH   1   7
BRANCH   6  13
ATOM     13  N   LIG d   1      -0.470  76.438 117.293  0.00  0.00    -0.311 N 
ATOM     14  C   LIG d   1      -0.233  75.173 117.636  0.00  0.00     0.210 C 
ATOM     15  C   LIG d   1       0.666  74.993 118.863  0.00  0.00     0.109 C 
ATOM     16  O   LIG d   1      -0.657  74.182 117.021  0.00  0.00    -0.276 OA
ATOM     17  H   LIG d   1      -0.060  77.179 117.828  0.00  0.00     0.149 HD
ENDBRANCH   6  13
BRANCH   5  18
ATOM     18  N   LIG d   1       0.044  75.663 114.383  0.00  0.00     0.381 N 
ATOM     19  H   LIG d   1       0.064  75.018 115.148  0.00  0.00    -0.090 HD
ATOM     20  H   LIG d   1       0.988  75.821 114.078  0.00  0.00    -0.090 HD
ATOM     21  H   LIG d   1      -0.496  75.285 113.635  0.00  0.00    -0.090 HD
ENDBRANCH   5  18
BRANCH   3  22
ATOM     22  C   LIG d   1      -2.554  79.465 113.065  0.00  0.00     0.382 C 
ATOM     23  O   LIG d   1      -3.190  80.510 113.344  0.00  0.00    -0.241 OA
ATOM     24  O   LIG d   1      -2.291  79.206 111.876  0.00  0.00    -0.241 OA
ENDBRANCH   3  22
TORSDOF 7
ENDMDL
MODEL 6
REMARK VINA RESULT:      -4.2      1.888      2.568
REMARK  7 active torsions:
REMARK  status: ('A' for Active; 'I' for Inactive)
REMARK    1  A    between atoms: C_2  and  C_3 
REMARK    2  A    between atoms: C_3  and  O_6 
REMARK    3  A    between atoms: C_3  and  C_4 
REMARK    4  A    between atoms: C_7  and  O_6 
REMARK    5  A    between atoms: C_9  and  C_10 
REMARK    6  A    between atoms: N_15  and  C_14 
REMARK    7  A    between atoms: N_20  and  C_19 
REMARK       I    between atoms: C_22  and  N_20 
ROOT
ATOM      1  C   LIG d   1      -3.079  77.521 115.887  0.00  0.00     0.161 C 
ATOM      2  C   LIG d   1      -3.278  77.262 114.521  0.00  0.00     0.016 C 
ATOM      3  C   LIG d   1      -2.386  77.688 113.510  0.00  0.00     0.038 C 
ATOM      4  C   LIG d   1      -1.149  78.275 113.813  0.00  0.00     0.028 C 
ATOM      5  C   LIG d   1      -1.137  79.009 115.149  0.00  0.00    -0.047 C 
ATOM      6  C   LIG d   1      -1.679  78.064 116.246  0.00  0.00     0.091 C 
ENDROOT
BRANCH   1   7
ATOM      7  O   LIG d   1      -3.370  76.338 116.657  0.00  0.00    -0.368 OA
BRANCH   7   8
ATOM      8  C   LIG d   1      -3.273  75.078 115.949  0.00  0.00     0.119 C 
BRANCH   8   9
ATOM      9  C   LIG d   1      -4.568  74.290 116.226  0.00  0.00     0.028 C 
ATOM     10  C   LIG d   1      -5.550  74.342 115.043  0.00  0.00     0.006 C 
ENDBRANCH   8   9
BRANCH   8  11
ATOM     11  C   LIG d   1      -2.143  74.209 116.510  0.00  0.00     0.028 C 
ATOM     12  C   LIG d   1      -0.855  74.295 115.675  0.00  0.00     0.006 C 
ENDBRANCH   8  11
ENDBRANCH   7   8
ENDBRANCH   1   7
BRANCH   6  13
ATOM     13  N   LIG d   1      -1.781  78.730 117.570  0.00  0.00    -0.311 N 
ATOM     14  C   LIG d   1      -1.163  78.287 118.663  0.00  0.00     0.210 C 
ATOM     15  C   LIG d   1      -1.417  79.111 119.929  0.00  0.00     0.109 C 
ATOM     16  O   LIG d   1      -0.402  77.308 118.698  0.00  0.00    -0.276 OA
ATOM     17  H   LIG d   1      -2.353  79.550 117.625  0.00  0.00     0.149 HD
ENDBRANCH   6  13
BRANCH   5  18
ATOM     18  N   LIG d   1       0.247  79.453 115.402  0.00  0.00     0.381 N 
ATOM     19  H   LIG d   1       0.444  79.406 116.382  0.00  0.00    -0.090 HD
ATOM     20  H   LIG d   1       0.341  80.409 115.107  0.00  0.00    -0.090 HD
ATOM     21  H   LIG d   1       0.887  78.878 114.899  0.00  0.00    -0.090 HD
ENDBRANCH   5  18
BRANCH   3  22
ATOM     22  C   LIG d   1      -2.748  77.563 112.178  0.00  0.00     0.382 C 
ATOM     23  O   LIG d   1      -3.900  77.895 111.807  0.00  0.00    -0.241 OA
ATOM     24  O   LIG d   1      -1.952  77.081 111.349  0.00  0.00    -0.241 OA
ENDBRANCH   3  22
TORSDOF 7
ENDMDL
MODEL 7
REMARK VINA RESULT:      -4.1      3.686      6.886
REMARK  7 active torsions:
REMARK  status: ('A' for Active; 'I' for Inactive)
REMARK    1  A    between atoms: C_2  and  C_3 
REMARK    2  A    between atoms: C_3  and  O_6 
REMARK    3  A    between atoms: C_3  and  C_4 
REMARK    4  A    between atoms: C_7  and  O_6 
REMARK    5  A    between atoms: C_9  and  C_10 
REMARK    6  A    between atoms: N_15  and  C_14 
REMARK    7  A    between atoms: N_20  and  C_19 
REMARK       I    between atoms: C_22  and  N_20 
ROOT
ATOM      1  C   LIG d   1       0.236  80.156 112.938  0.00  0.00     0.161 C 
ATOM      2  C   LIG d   1      -0.837  79.510 112.303  0.00  0.00     0.016 C 
ATOM      3  C   LIG d   1      -1.787  78.720 112.990  0.00  0.00     0.038 C 
ATOM      4  C   LIG d   1      -1.816  78.647 114.391  0.00  0.00     0.028 C 
ATOM      5  C   LIG d   1      -0.453  78.872 115.037  0.00  0.00    -0.047 C 
ATOM      6  C   LIG d   1       0.157  80.178 114.479  0.00  0.00     0.091 C 
ENDROOT
BRANCH   1   7
ATOM      7  O   LIG d   1       0.373  81.496 112.425  0.00  0.00    -0.368 OA
BRANCH   7   8
ATOM      8  C   LIG d   1       0.698  81.609 111.017  0.00  0.00     0.119 C 
BRANCH   8   9
ATOM      9  C   LIG d   1       2.207  81.331 110.867  0.00  0.00     0.028 C 
ATOM     10  C   LIG d   1       3.039  82.624 110.816  0.00  0.00     0.006 C 
ENDBRANCH   8   9
BRANCH   8  11
ATOM     11  C   LIG d   1       0.497  83.040 110.512  0.00  0.00     0.028 C 
ATOM     12  C   LIG d   1      -0.726  83.728 111.141  0.00  0.00     0.006 C 
ENDBRANCH   8  11
ENDBRANCH   7   8
ENDBRANCH   1   7
BRANCH   6  13
ATOM     13  N   LIG d   1       1.527  80.430 114.997  0.00  0.00    -0.311 N 
ATOM     14  C   LIG d   1       1.778  81.149 116.089  0.00  0.00     0.210 C 
ATOM     15  C   LIG d   1       3.262  81.302 116.436  0.00  0.00     0.109 C 
ATOM     16  O   LIG d   1       0.910  81.647 116.822  0.00  0.00    -0.276 OA
ATOM     17  H   LIG d   1       2.289  80.036 114.480  0.00  0.00     0.149 HD
ENDBRANCH   6  13
BRANCH   5  18
ATOM     18  N   LIG d   1      -0.653  78.905 116.498  0.00  0.00     0.381 N 
ATOM     19  H   LIG d   1      -1.593  78.640 116.718  0.00  0.00    -0.090 HD
ATOM     20  H   LIG d   1      -0.506  79.844 116.825  0.00  0.00    -0.090 HD
ATOM     21  H   LIG d   1      -0.013  78.286 116.944  0.00  0.00    -0.090 HD
ENDBRANCH   5  18
BRANCH   3  22
ATOM     22  C   LIG d   1      -2.699  77.962 112.272  0.00  0.00     0.382 C 
ATOM     23  O   LIG d   1      -2.740  78.050 111.021  0.00  0.00    -0.241 OA
ATOM     24  O   LIG d   1      -3.510  77.223 112.862  0.00  0.00    -0.241 OA
ENDBRANCH   3  22
TORSDOF 7
ENDMDL
MODEL 8
REMARK VINA RESULT:      -4.1      2.998      6.177
REMARK  7 active torsions:
REMARK  status: ('A' for Active; 'I' for Inactive)
REMARK    1  A    between atoms: C_2  and  C_3 
REMARK    2  A    between atoms: C_3  and  O_6 
REMARK    3  A    between atoms: C_3  and  C_4 
REMARK    4  A    between atoms: C_7  and  O_6 
REMARK    5  A    between atoms: C_9  and  C_10 
REMARK    6  A    between atoms: N_15  and  C_14 
REMARK    7  A    between atoms: N_20  and  C_19 
REMARK       I    between atoms: C_22  and  N_20 
ROOT
ATOM      1  C   LIG d   1      -1.128  79.436 114.353  0.00  0.00     0.161 C 
ATOM      2  C   LIG d   1      -1.984  78.422 114.816  0.00  0.00     0.016 C 
ATOM      3  C   LIG d   1      -2.673  77.534 113.959  0.00  0.00     0.038 C 
ATOM      4  C   LIG d   1      -2.434  77.502 112.577  0.00  0.00     0.028 C 
ATOM      5  C   LIG d   1      -1.962  78.838 112.013  0.00  0.00    -0.047 C 
ATOM      6  C   LIG d   1      -0.769  79.345 112.855  0.00  0.00     0.091 C 
ENDROOT
BRANCH   1   7
ATOM      7  O   LIG d   1       0.069  79.469 115.154  0.00  0.00    -0.368 OA
BRANCH   7   8
ATOM      8  C   LIG d   1      -0.123  79.417 116.589  0.00  0.00     0.119 C 
BRANCH   8   9
ATOM      9  C   LIG d   1       0.586  80.644 117.195  0.00  0.00     0.028 C 
ATOM     10  C   LIG d   1      -0.281  81.366 118.241  0.00  0.00     0.006 C 
ENDBRANCH   8   9
BRANCH   8  11
ATOM     11  C   LIG d   1       0.578  78.201 117.202  0.00  0.00     0.028 C 
ATOM     12  C   LIG d   1      -0.379  77.303 118.002  0.00  0.00     0.006 C 
ENDBRANCH   8  11
ENDBRANCH   7   8
ENDBRANCH   1   7
BRANCH   6  13
ATOM     13  N   LIG d   1      -0.300  80.687 112.423  0.00  0.00    -0.311 N 
ATOM     14  C   LIG d   1       0.676  80.872 111.535  0.00  0.00     0.210 C 
ATOM     15  C   LIG d   1       1.017  82.337 111.245  0.00  0.00     0.109 C 
ATOM     16  O   LIG d   1       1.268  79.962 110.936  0.00  0.00    -0.276 OA
ATOM     17  H   LIG d   1      -0.748  81.482 112.835  0.00  0.00     0.149 HD
ENDBRANCH   6  13
BRANCH   5  18
ATOM     18  N   LIG d   1      -1.619  78.626 110.594  0.00  0.00     0.381 N 
ATOM     19  H   LIG d   1      -1.424  79.505 110.158  0.00  0.00    -0.090 HD
ATOM     20  H   LIG d   1      -2.407  78.211 110.128  0.00  0.00    -0.090 HD
ATOM     21  H   LIG d   1      -0.826  78.027 110.520  0.00  0.00    -0.090 HD
ENDBRANCH   5  18
BRANCH   3  22
ATOM     22  C   LIG d   1      -3.643  76.691 114.479  0.00  0.00     0.382 C 
ATOM     23  O   LIG d   1      -4.614  76.338 113.768  0.00  0.00    -0.241 OA
ATOM     24  O   LIG d   1      -3.582  76.314 115.665  0.00  0.00    -0.241 OA
ENDBRANCH   3  22
TORSDOF 7
ENDMDL
MODEL 9
REMARK VINA RESULT:      -4.0      2.971      5.356
REMARK  7 active torsions:
REMARK  status: ('A' for Active; 'I' for Inactive)
REMARK    1  A    between atoms: C_2  and  C_3 
REMARK    2  A    between atoms: C_3  and  O_6 
REMARK    3  A    between atoms: C_3  and  C_4 
REMARK    4  A    between atoms: C_7  and  O_6 
REMARK    5  A    between atoms: C_9  and  C_10 
REMARK    6  A    between atoms: N_15  and  C_14 
REMARK    7  A    between atoms: N_20  and  C_19 
REMARK       I    between atoms: C_22  and  N_20 
ROOT
ATOM      1  C   LIG d   1       0.066  78.226 116.402  0.00  0.00     0.161 C 
ATOM      2  C   LIG d   1      -1.027  78.538 115.576  0.00  0.00     0.016 C 
ATOM      3  C   LIG d   1      -1.802  77.562 114.909  0.00  0.00     0.038 C 
ATOM      4  C   LIG d   1      -1.629  76.190 115.144  0.00  0.00     0.028 C 
ATOM      5  C   LIG d   1      -0.213  75.824 115.576  0.00  0.00    -0.047 C 
ATOM      6  C   LIG d   1       0.201  76.731 116.758  0.00  0.00     0.091 C 
ENDROOT
BRANCH   1   7
ATOM      7  O   LIG d   1       0.017  79.024 117.601  0.00  0.00    -0.368 OA
BRANCH   7   8
ATOM      8  C   LIG d   1       0.231  80.447 117.429  0.00  0.00     0.119 C 
BRANCH   8   9
ATOM      9  C   LIG d   1       1.726  80.723 117.682  0.00  0.00     0.028 C 
ATOM     10  C   LIG d   1       2.327  79.779 118.736  0.00  0.00     0.006 C 
ENDBRANCH   8   9
BRANCH   8  11
ATOM     11  C   LIG d   1      -0.517  81.255 118.493  0.00  0.00     0.028 C 
ATOM     12  C   LIG d   1      -0.066  82.723 118.552  0.00  0.00     0.006 C 
ENDBRANCH   8  11
ENDBRANCH   7   8
ENDBRANCH   1   7
BRANCH   6  13
ATOM     13  N   LIG d   1       1.604  76.496 117.188  0.00  0.00    -0.311 N 
ATOM     14  C   LIG d   1       1.938  75.676 118.183  0.00  0.00     0.210 C 
ATOM     15  C   LIG d   1       3.439  75.594 118.477  0.00  0.00     0.109 C 
ATOM     16  O   LIG d   1       1.137  74.985 118.830  0.00  0.00    -0.276 OA
ATOM     17  H   LIG d   1       2.321  76.993 116.697  0.00  0.00     0.149 HD
ENDBRANCH   6  13
BRANCH   5  18
ATOM     18  N   LIG d   1      -0.209  74.389 115.920  0.00  0.00     0.381 N 
ATOM     19  H   LIG d   1       0.180  73.861 115.164  0.00  0.00    -0.090 HD
ATOM     20  H   LIG d   1      -1.156  74.086 116.062  0.00  0.00    -0.090 HD
ATOM     21  H   LIG d   1       0.324  74.238 116.748  0.00  0.00    -0.090 HD
ENDBRANCH   5  18
BRANCH   3  22
ATOM     22  C   LIG d   1      -2.738  77.956 113.964  0.00  0.00     0.382 C 
ATOM     23  O   LIG d   1      -3.367  77.091 113.307  0.00  0.00    -0.241 OA
ATOM     24  O   LIG d   1      -2.930  79.164 113.730  0.00  0.00    -0.241 OA
ENDBRANCH   3  22
TORSDOF 7
ENDMDL
