MODEL 1
REMARK VINA RESULT:      -5.3      0.000      0.000
REMARK  7 active torsions:
REMARK  status: ('A' for Active; 'I' for Inactive)
REMARK    1  A    between atoms: C_2  and  C_3 
REMARK    2  A    between atoms: C_3  and  O_6 
REMARK    3  A    between atoms: C_3  and  C_4 
REMARK    4  A    between atoms: C_7  and  O_6 
REMARK    5  A    between atoms: C_9  and  C_10 
REMARK    6  A    between atoms: N_15  and  C_14 
REMARK    7  A    between atoms: N_20  and  C_19 
REMARK       I    between atoms: C_22  and  N_20 
ROOT
ATOM      1  C   LIG d   1      -0.644  82.197 112.219  0.00  0.00     0.161 C 
ATOM      2  C   LIG d   1      -1.614  81.307 112.708  0.00  0.00     0.016 C 
ATOM      3  C   LIG d   1      -1.615  79.922 112.420  0.00  0.00     0.038 C 
ATOM      4  C   LIG d   1      -0.553  79.305 111.743  0.00  0.00     0.028 C 
ATOM      5  C   LIG d   1       0.190  80.244 110.799  0.00  0.00    -0.047 C 
ATOM      6  C   LIG d   1       0.584  81.524 111.571  0.00  0.00     0.091 C 
ENDROOT
BRANCH   1   7
ATOM      7  O   LIG d   1      -0.228  83.092 113.270  0.00  0.00    -0.368 OA
BRANCH   7   8
ATOM      8  C   LIG d   1       0.312  82.469 114.461  0.00  0.00     0.119 C 
BRANCH   8   9
ATOM      9  C   LIG d   1      -0.452  83.041 115.670  0.00  0.00     0.028 C 
ATOM     10  C   LIG d   1      -1.306  81.978 116.382  0.00  0.00     0.006 C 
ENDBRANCH   8   9
BRANCH   8  11
ATOM     11  C   LIG d   1       1.775  82.864 114.682  0.00  0.00     0.028 C 
ATOM     12  C   LIG d   1       2.163  84.151 113.938  0.00  0.00     0.006 C 
ENDBRANCH   8  11
ENDBRANCH   7   8
ENDBRANCH   1   7
BRANCH   6  13
ATOM     13  N   LIG d   1       1.241  82.532 110.699  0.00  0.00    -0.311 N 
ATOM     14  C   LIG d   1       2.563  82.665 110.600  0.00  0.00     0.210 C 
ATOM     15  C   LIG d   1       3.032  83.780 109.660  0.00  0.00     0.109 C 
ATOM     16  O   LIG d   1       3.391  81.945 111.178  0.00  0.00    -0.276 OA
ATOM     17  H   LIG d   1       0.644  83.137 110.171  0.00  0.00     0.149 HD
ENDBRANCH   6  13
BRANCH   5  18
ATOM     18  N   LIG d   1       1.353  79.510 110.265  0.00  0.00     0.381 N 
ATOM     19  H   LIG d   1       1.442  79.683 109.284  0.00  0.00    -0.090 HD
ATOM     20  H   LIG d   1       1.206  78.525 110.399  0.00  0.00    -0.090 HD
ATOM     21  H   LIG d   1       2.183  79.796 110.737  0.00  0.00    -0.090 HD
ENDBRANCH   5  18
BRANCH   3  22
ATOM     22  C   LIG d   1      -2.708  79.147 112.778  0.00  0.00     0.382 C 
ATOM     23  O   LIG d   1      -3.102  78.230 112.017  0.00  0.00    -0.241 OA
ATOM     24  O   LIG d   1      -3.333  79.382 113.829  0.00  0.00    -0.241 OA
ENDBRANCH   3  22
TORSDOF 7
ENDMDL
MODEL 2
REMARK VINA RESULT:      -5.3      4.285      7.256
REMARK  7 active torsions:
REMARK  status: ('A' for Active; 'I' for Inactive)
REMARK    1  A    between atoms: C_2  and  C_3 
REMARK    2  A    between atoms: C_3  and  O_6 
REMARK    3  A    between atoms: C_3  and  C_4 
REMARK    4  A    between atoms: C_7  and  O_6 
REMARK    5  A    between atoms: C_9  and  C_10 
REMARK    6  A    between atoms: N_15  and  C_14 
REMARK    7  A    between atoms: N_20  and  C_19 
REMARK       I    between atoms: C_22  and  N_20 
ROOT
ATOM      1  C   LIG d   1      -2.630  77.482 114.622  0.00  0.00     0.161 C 
ATOM      2  C   LIG d   1      -3.066  78.632 113.943  0.00  0.00     0.016 C 
ATOM      3  C   LIG d   1      -2.318  79.830 113.880  0.00  0.00     0.038 C 
ATOM      4  C   LIG d   1      -1.005  79.910 114.369  0.00  0.00     0.028 C 
ATOM      5  C   LIG d   1      -0.720  78.933 115.505  0.00  0.00    -0.047 C 
ATOM      6  C   LIG d   1      -1.152  77.515 115.066  0.00  0.00     0.091 C 
ENDROOT
BRANCH   1   7
ATOM      7  O   LIG d   1      -2.885  76.313 113.818  0.00  0.00    -0.368 OA
BRANCH   7   8
ATOM      8  C   LIG d   1      -3.957  75.450 114.272  0.00  0.00     0.119 C 
BRANCH   8   9
ATOM      9  C   LIG d   1      -5.189  75.742 113.393  0.00  0.00     0.028 C 
ATOM     10  C   LIG d   1      -6.491  75.802 114.209  0.00  0.00     0.006 C 
ENDBRANCH   8   9
BRANCH   8  11
ATOM     11  C   LIG d   1      -4.386  75.798 115.700  0.00  0.00     0.028 C 
ATOM     12  C   LIG d   1      -4.019  74.704 116.715  0.00  0.00     0.006 C 
ENDBRANCH   8  11
ENDBRANCH   7   8
ENDBRANCH   1   7
BRANCH   6  13
ATOM     13  N   LIG d   1      -0.986  76.512 116.150  0.00  0.00    -0.311 N 
ATOM     14  C   LIG d   1      -0.346  75.355 115.986  0.00  0.00     0.210 C 
ATOM     15  C   LIG d   1      -0.307  74.457 117.226  0.00  0.00     0.109 C 
ATOM     16  O   LIG d   1       0.220  75.002 114.941  0.00  0.00    -0.276 OA
ATOM     17  H   LIG d   1      -1.388  76.731 117.040  0.00  0.00     0.149 HD
ENDBRANCH   6  13
BRANCH   5  18
ATOM     18  N   LIG d   1       0.717  79.027 115.824  0.00  0.00     0.381 N 
ATOM     19  H   LIG d   1       0.934  78.423 116.591  0.00  0.00    -0.090 HD
ATOM     20  H   LIG d   1       0.928  79.971 116.096  0.00  0.00    -0.090 HD
ATOM     21  H   LIG d   1       1.260  78.773 115.028  0.00  0.00    -0.090 HD
ENDBRANCH   5  18
BRANCH   3  22
ATOM     22  C   LIG d   1      -2.898  80.976 113.359  0.00  0.00     0.382 C 
ATOM     23  O   LIG d   1      -2.907  82.036 114.031  0.00  0.00    -0.241 OA
ATOM     24  O   LIG d   1      -3.452  80.953 112.244  0.00  0.00    -0.241 OA
ENDBRANCH   3  22
TORSDOF 7
ENDMDL
MODEL 3
REMARK VINA RESULT:      -5.2      1.611      4.938
REMARK  7 active torsions:
REMARK  status: ('A' for Active; 'I' for Inactive)
REMARK    1  A    between atoms: C_2  and  C_3 
REMARK    2  A    between atoms: C_3  and  O_6 
REMARK    3  A    between atoms: C_3  and  C_4 
REMARK    4  A    between atoms: C_7  and  O_6 
REMARK    5  A    between atoms: C_9  and  C_10 
REMARK    6  A    between atoms: N_15  and  C_14 
REMARK    7  A    between atoms: N_20  and  C_19 
REMARK       I    between atoms: C_22  and  N_20 
ROOT
ATOM      1  C   LIG d   1       0.016  82.380 112.863  0.00  0.00     0.161 C 
ATOM      2  C   LIG d   1       1.016  83.148 112.242  0.00  0.00     0.016 C 
ATOM      3  C   LIG d   1       1.664  82.761 111.047  0.00  0.00     0.038 C 
ATOM      4  C   LIG d   1       1.247  81.646 110.305  0.00  0.00     0.028 C 
ATOM      5  C   LIG d   1       0.582  80.567 111.154  0.00  0.00    -0.047 C 
ATOM      6  C   LIG d   1      -0.530  81.216 112.009  0.00  0.00     0.091 C 
ENDROOT
BRANCH   1   7
ATOM      7  O   LIG d   1      -1.062  83.236 113.290  0.00  0.00    -0.368 OA
BRANCH   7   8
ATOM      8  C   LIG d   1      -1.148  83.490 114.714  0.00  0.00     0.119 C 
BRANCH   8   9
ATOM      9  C   LIG d   1      -0.097  82.601 115.407  0.00  0.00     0.028 C 
ATOM     10  C   LIG d   1       0.953  83.422 116.173  0.00  0.00     0.006 C 
ENDBRANCH   8   9
BRANCH   8  11
ATOM     11  C   LIG d   1      -2.498  83.040 115.281  0.00  0.00     0.028 C 
ATOM     12  C   LIG d   1      -2.361  81.930 116.334  0.00  0.00     0.006 C 
ENDBRANCH   8  11
ENDBRANCH   7   8
ENDBRANCH   1   7
BRANCH   6  13
ATOM     13  N   LIG d   1      -1.175  80.246 112.931  0.00  0.00    -0.311 N 
ATOM     14  C   LIG d   1      -2.495  80.106 113.042  0.00  0.00     0.210 C 
ATOM     15  C   LIG d   1      -2.951  79.062 114.066  0.00  0.00     0.109 C 
ATOM     16  O   LIG d   1      -3.331  80.724 112.366  0.00  0.00    -0.276 OA
ATOM     17  H   LIG d   1      -0.570  79.681 113.495  0.00  0.00     0.149 HD
ENDBRANCH   6  13
BRANCH   5  18
ATOM     18  N   LIG d   1       0.075  79.529 110.237  0.00  0.00     0.381 N 
ATOM     19  H   LIG d   1      -0.018  79.906 109.315  0.00  0.00    -0.090 HD
ATOM     20  H   LIG d   1      -0.833  79.234 110.551  0.00  0.00    -0.090 HD
ATOM     21  H   LIG d   1       0.698  78.751 110.224  0.00  0.00    -0.090 HD
ENDBRANCH   5  18
BRANCH   3  22
ATOM     22  C   LIG d   1       2.769  83.471 110.603  0.00  0.00     0.382 C 
ATOM     23  O   LIG d   1       3.186  83.315 109.431  0.00  0.00    -0.241 OA
ATOM     24  O   LIG d   1       3.381  84.234 111.375  0.00  0.00    -0.241 OA
ENDBRANCH   3  22
TORSDOF 7
ENDMDL
MODEL 4
REMARK VINA RESULT:      -5.2      4.251      7.187
REMARK  7 active torsions:
REMARK  status: ('A' for Active; 'I' for Inactive)
REMARK    1  A    between atoms: C_2  and  C_3 
REMARK    2  A    between atoms: C_3  and  O_6 
REMARK    3  A    between atoms: C_3  and  C_4 
REMARK    4  A    between atoms: C_7  and  O_6 
REMARK    5  A    between atoms: C_9  and  C_10 
REMARK    6  A    between atoms: N_15  and  C_14 
REMARK    7  A    between atoms: N_20  and  C_19 
REMARK       I    between atoms: C_22  and  N_20 
ROOT
ATOM      1  C   LIG d   1      -2.587  77.966 114.726  0.00  0.00     0.161 C 
ATOM      2  C   LIG d   1      -2.910  79.112 113.981  0.00  0.00     0.016 C 
ATOM      3  C   LIG d   1      -2.045  80.222 113.846  0.00  0.00     0.038 C 
ATOM      4  C   LIG d   1      -0.726  80.197 114.325  0.00  0.00     0.028 C 
ATOM      5  C   LIG d   1      -0.533  79.264 115.516  0.00  0.00    -0.047 C 
ATOM      6  C   LIG d   1      -1.110  77.874 115.163  0.00  0.00     0.091 C 
ENDROOT
BRANCH   1   7
ATOM      7  O   LIG d   1      -2.967  76.784 113.994  0.00  0.00    -0.368 OA
BRANCH   7   8
ATOM      8  C   LIG d   1      -4.132  76.077 114.485  0.00  0.00     0.119 C 
BRANCH   8   9
ATOM      9  C   LIG d   1      -3.662  74.694 114.975  0.00  0.00     0.028 C 
ATOM     10  C   LIG d   1      -3.929  74.481 116.475  0.00  0.00     0.006 C 
ENDBRANCH   8   9
BRANCH   8  11
ATOM     11  C   LIG d   1      -5.127  75.791 113.357  0.00  0.00     0.028 C 
ATOM     12  C   LIG d   1      -6.580  75.708 113.850  0.00  0.00     0.006 C 
ENDBRANCH   8  11
ENDBRANCH   7   8
ENDBRANCH   1   7
BRANCH   6  13
ATOM     13  N   LIG d   1      -1.037  76.924 116.304  0.00  0.00    -0.311 N 
ATOM     14  C   LIG d   1      -0.368  75.774 116.258  0.00  0.00     0.210 C 
ATOM     15  C   LIG d   1      -0.439  74.933 117.537  0.00  0.00     0.109 C 
ATOM     16  O   LIG d   1       0.303  75.384 115.291  0.00  0.00    -0.276 OA
ATOM     17  H   LIG d   1      -1.528  77.177 117.140  0.00  0.00     0.149 HD
ENDBRANCH   6  13
BRANCH   5  18
ATOM     18  N   LIG d   1       0.909  79.230 115.824  0.00  0.00     0.381 N 
ATOM     19  H   LIG d   1       1.125  79.923 116.513  0.00  0.00    -0.090 HD
ATOM     20  H   LIG d   1       1.426  79.443 114.989  0.00  0.00    -0.090 HD
ATOM     21  H   LIG d   1       1.165  78.327 116.160  0.00  0.00    -0.090 HD
ENDBRANCH   5  18
BRANCH   3  22
ATOM     22  C   LIG d   1      -2.510  81.389 113.259  0.00  0.00     0.382 C 
ATOM     23  O   LIG d   1      -2.159  81.687 112.092  0.00  0.00    -0.241 OA
ATOM     24  O   LIG d   1      -3.241  82.169 113.898  0.00  0.00    -0.241 OA
ENDBRANCH   3  22
TORSDOF 7
ENDMDL
MODEL 5
REMARK VINA RESULT:      -4.9      1.947      2.428
REMARK  7 active torsions:
REMARK  status: ('A' for Active; 'I' for Inactive)
REMARK    1  A    between atoms: C_2  and  C_3 
REMARK    2  A    between atoms: C_3  and  O_6 
REMARK    3  A    between atoms: C_3  and  C_4 
REMARK    4  A    between atoms: C_7  and  O_6 
REMARK    5  A    between atoms: C_9  and  C_10 
REMARK    6  A    between atoms: N_15  and  C_14 
REMARK    7  A    between atoms: N_20  and  C_19 
REMARK       I    between atoms: C_22  and  N_20 
ROOT
ATOM      1  C   LIG d   1      -2.331  80.997 113.400  0.00  0.00     0.161 C 
ATOM      2  C   LIG d   1      -2.764  79.796 113.988  0.00  0.00     0.016 C 
ATOM      3  C   LIG d   1      -2.289  78.523 113.598  0.00  0.00     0.038 C 
ATOM      4  C   LIG d   1      -1.230  78.374 112.690  0.00  0.00     0.028 C 
ATOM      5  C   LIG d   1      -1.111  79.529 111.702  0.00  0.00    -0.047 C 
ATOM      6  C   LIG d   1      -1.096  80.861 112.486  0.00  0.00     0.091 C 
ENDROOT
BRANCH   1   7
ATOM      7  O   LIG d   1      -2.092  81.983 114.424  0.00  0.00    -0.368 OA
BRANCH   7   8
ATOM      8  C   LIG d   1      -1.680  81.474 115.716  0.00  0.00     0.119 C 
BRANCH   8   9
ATOM      9  C   LIG d   1      -2.724  81.938 116.750  0.00  0.00     0.028 C 
ATOM     10  C   LIG d   1      -2.353  81.525 118.184  0.00  0.00     0.006 C 
ENDBRANCH   8   9
BRANCH   8  11
ATOM     11  C   LIG d   1      -0.357  82.100 116.166  0.00  0.00     0.028 C 
ATOM     12  C   LIG d   1      -0.066  83.440 115.473  0.00  0.00     0.006 C 
ENDBRANCH   8  11
ENDBRANCH   7   8
ENDBRANCH   1   7
BRANCH   6  13
ATOM     13  N   LIG d   1      -1.066  82.046 111.590  0.00  0.00    -0.311 N 
ATOM     14  C   LIG d   1      -0.059  82.917 111.559  0.00  0.00     0.210 C 
ATOM     15  C   LIG d   1      -0.238  84.079 110.577  0.00  0.00     0.109 C 
ATOM     16  O   LIG d   1       0.981  82.819 112.228  0.00  0.00    -0.276 OA
ATOM     17  H   LIG d   1      -1.856  82.184 110.991  0.00  0.00     0.149 HD
ENDBRANCH   6  13
BRANCH   5  18
ATOM     18  N   LIG d   1       0.113  79.312 110.908  0.00  0.00     0.381 N 
ATOM     19  H   LIG d   1       0.263  80.090 110.297  0.00  0.00    -0.090 HD
ATOM     20  H   LIG d   1      -0.006  78.487 110.345  0.00  0.00    -0.090 HD
ATOM     21  H   LIG d   1       0.897  79.199 111.513  0.00  0.00    -0.090 HD
ENDBRANCH   5  18
BRANCH   3  22
ATOM     22  C   LIG d   1      -2.903  77.381 114.088  0.00  0.00     0.382 C 
ATOM     23  O   LIG d   1      -2.279  76.292 114.106  0.00  0.00    -0.241 OA
ATOM     24  O   LIG d   1      -4.088  77.415 114.470  0.00  0.00    -0.241 OA
ENDBRANCH   3  22
TORSDOF 7
ENDMDL
MODEL 6
REMARK VINA RESULT:      -4.8      2.416      5.260
REMARK  7 active torsions:
REMARK  status: ('A' for Active; 'I' for Inactive)
REMARK    1  A    between atoms: C_2  and  C_3 
REMARK    2  A    between atoms: C_3  and  O_6 
REMARK    3  A    between atoms: C_3  and  C_4 
REMARK    4  A    between atoms: C_7  and  O_6 
REMARK    5  A    between atoms: C_9  and  C_10 
REMARK    6  A    between atoms: N_15  and  C_14 
REMARK    7  A    between atoms: N_20  and  C_19 
REMARK       I    between atoms: C_22  and  N_20 
ROOT
ATOM      1  C   LIG d   1      -0.007  80.645 114.650  0.00  0.00     0.161 C 
ATOM      2  C   LIG d   1       0.147  81.972 114.214  0.00  0.00     0.016 C 
ATOM      3  C   LIG d   1      -0.106  82.390 112.887  0.00  0.00     0.038 C 
ATOM      4  C   LIG d   1      -0.680  81.532 111.937  0.00  0.00     0.028 C 
ATOM      5  C   LIG d   1      -0.380  80.059 112.191  0.00  0.00    -0.047 C 
ATOM      6  C   LIG d   1      -0.738  79.719 113.655  0.00  0.00     0.091 C 
ENDROOT
BRANCH   1   7
ATOM      7  O   LIG d   1      -0.667  80.625 115.931  0.00  0.00    -0.368 OA
BRANCH   7   8
ATOM      8  C   LIG d   1      -2.114  80.563 115.902  0.00  0.00     0.119 C 
BRANCH   8   9
ATOM      9  C   LIG d   1      -2.647  81.859 116.542  0.00  0.00     0.028 C 
ATOM     10  C   LIG d   1      -3.133  82.874 115.495  0.00  0.00     0.006 C 
ENDBRANCH   8   9
BRANCH   8  11
ATOM     11  C   LIG d   1      -2.641  79.428 116.785  0.00  0.00     0.028 C 
ATOM     12  C   LIG d   1      -3.974  78.851 116.283  0.00  0.00     0.006 C 
ENDBRANCH   8  11
ENDBRANCH   7   8
ENDBRANCH   1   7
BRANCH   6  13
ATOM     13  N   LIG d   1      -0.396  78.317 114.012  0.00  0.00    -0.311 N 
ATOM     14  C   LIG d   1      -1.258  77.306 113.918  0.00  0.00     0.210 C 
ATOM     15  C   LIG d   1      -0.708  75.945 114.355  0.00  0.00     0.109 C 
ATOM     16  O   LIG d   1      -2.416  77.402 113.485  0.00  0.00    -0.276 OA
ATOM     17  H   LIG d   1       0.532  78.144 114.343  0.00  0.00     0.149 HD
ENDBRANCH   6  13
BRANCH   5  18
ATOM     18  N   LIG d   1      -1.150  79.272 111.209  0.00  0.00     0.381 N 
ATOM     19  H   LIG d   1      -2.033  79.012 111.601  0.00  0.00    -0.090 HD
ATOM     20  H   LIG d   1      -0.641  78.432 110.995  0.00  0.00    -0.090 HD
ATOM     21  H   LIG d   1      -1.290  79.805 110.379  0.00  0.00    -0.090 HD
ENDBRANCH   5  18
BRANCH   3  22
ATOM     22  C   LIG d   1       0.253  83.669 112.489  0.00  0.00     0.382 C 
ATOM     23  O   LIG d   1      -0.584  84.404 111.912  0.00  0.00    -0.241 OA
ATOM     24  O   LIG d   1       1.416  84.080 112.661  0.00  0.00    -0.241 OA
ENDBRANCH   3  22
TORSDOF 7
ENDMDL
MODEL 7
REMARK VINA RESULT:      -4.8      1.218      2.089
REMARK  7 active torsions:
REMARK  status: ('A' for Active; 'I' for Inactive)
REMARK    1  A    between atoms: C_2  and  C_3 
REMARK    2  A    between atoms: C_3  and  O_6 
REMARK    3  A    between atoms: C_3  and  C_4 
REMARK    4  A    between atoms: C_7  and  O_6 
REMARK    5  A    between atoms: C_9  and  C_10 
REMARK    6  A    between atoms: N_15  and  C_14 
REMARK    7  A    between atoms: N_20  and  C_19 
REMARK       I    between atoms: C_22  and  N_20 
ROOT
ATOM      1  C   LIG d   1      -0.363  81.366 113.656  0.00  0.00     0.161 C 
ATOM      2  C   LIG d   1      -1.383  80.495 114.073  0.00  0.00     0.016 C 
ATOM      3  C   LIG d   1      -1.775  79.350 113.342  0.00  0.00     0.038 C 
ATOM      4  C   LIG d   1      -1.066  78.911 112.214  0.00  0.00     0.028 C 
ATOM      5  C   LIG d   1      -0.349  80.036 111.475  0.00  0.00    -0.047 C 
ATOM      6  C   LIG d   1       0.496  80.843 112.486  0.00  0.00     0.091 C 
ENDROOT
BRANCH   1   7
ATOM      7  O   LIG d   1       0.475  81.710 114.778  0.00  0.00    -0.368 OA
BRANCH   7   8
ATOM      8  C   LIG d   1      -0.081  82.660 115.720  0.00  0.00     0.119 C 
BRANCH   8   9
ATOM      9  C   LIG d   1       0.823  83.908 115.706  0.00  0.00     0.028 C 
ATOM     10  C   LIG d   1       2.176  83.646 115.024  0.00  0.00     0.006 C 
ENDBRANCH   8   9
BRANCH   8  11
ATOM     11  C   LIG d   1      -0.013  82.127 117.154  0.00  0.00     0.028 C 
ATOM     12  C   LIG d   1      -1.370  81.618 117.666  0.00  0.00     0.006 C 
ENDBRANCH   8  11
ENDBRANCH   7   8
ENDBRANCH   1   7
BRANCH   6  13
ATOM     13  N   LIG d   1       1.164  82.014 111.860  0.00  0.00    -0.311 N 
ATOM     14  C   LIG d   1       2.412  81.984 111.395  0.00  0.00     0.210 C 
ATOM     15  C   LIG d   1       2.915  83.306 110.806  0.00  0.00     0.109 C 
ATOM     16  O   LIG d   1       3.139  80.979 111.384  0.00  0.00    -0.276 OA
ATOM     17  H   LIG d   1       0.636  82.862 111.799  0.00  0.00     0.149 HD
ENDBRANCH   6  13
BRANCH   5  18
ATOM     18  N   LIG d   1       0.460  79.421 110.405  0.00  0.00     0.381 N 
ATOM     19  H   LIG d   1      -0.097  79.307 109.582  0.00  0.00    -0.090 HD
ATOM     20  H   LIG d   1       0.763  78.513 110.709  0.00  0.00    -0.090 HD
ATOM     21  H   LIG d   1       1.250  79.994 110.204  0.00  0.00    -0.090 HD
ENDBRANCH   5  18
BRANCH   3  22
ATOM     22  C   LIG d   1      -2.913  78.652 113.717  0.00  0.00     0.382 C 
ATOM     23  O   LIG d   1      -3.333  77.709 113.004  0.00  0.00    -0.241 OA
ATOM     24  O   LIG d   1      -3.550  78.983 114.735  0.00  0.00    -0.241 OA
ENDBRANCH   3  22
TORSDOF 7
ENDMDL
MODEL 8
REMARK VINA RESULT:      -4.7      4.558      7.339
REMARK  7 active torsions:
REMARK  status: ('A' for Active; 'I' for Inactive)
REMARK    1  A    between atoms: C_2  and  C_3 
REMARK    2  A    between atoms: C_3  and  O_6 
REMARK    3  A    between atoms: C_3  and  C_4 
REMARK    4  A    between atoms: C_7  and  O_6 
REMARK    5  A    between atoms: C_9  and  C_10 
REMARK    6  A    between atoms: N_15  and  C_14 
REMARK    7  A    between atoms: N_20  and  C_19 
REMARK       I    between atoms: C_22  and  N_20 
ROOT
ATOM      1  C   LIG d   1      -3.105  78.160 115.625  0.00  0.00     0.161 C 
ATOM      2  C   LIG d   1      -3.213  79.194 114.680  0.00  0.00     0.016 C 
ATOM      3  C   LIG d   1      -2.414  79.270 113.516  0.00  0.00     0.038 C 
ATOM      4  C   LIG d   1      -1.552  78.229 113.139  0.00  0.00     0.028 C 
ATOM      5  C   LIG d   1      -1.043  77.407 114.318  0.00  0.00    -0.047 C 
ATOM      6  C   LIG d   1      -2.249  76.958 115.175  0.00  0.00     0.091 C 
ENDROOT
BRANCH   1   7
ATOM      7  O   LIG d   1      -4.420  77.719 116.018  0.00  0.00    -0.368 OA
BRANCH   7   8
ATOM      8  C   LIG d   1      -4.987  78.365 117.185  0.00  0.00     0.119 C 
BRANCH   8   9
ATOM      9  C   LIG d   1      -4.563  77.545 118.419  0.00  0.00     0.028 C 
ATOM     10  C   LIG d   1      -3.890  78.412 119.496  0.00  0.00     0.006 C 
ENDBRANCH   8   9
BRANCH   8  11
ATOM     11  C   LIG d   1      -6.517  78.306 117.166  0.00  0.00     0.028 C 
ATOM     12  C   LIG d   1      -7.057  77.065 116.438  0.00  0.00     0.006 C 
ENDBRANCH   8  11
ENDBRANCH   7   8
ENDBRANCH   1   7
BRANCH   6  13
ATOM     13  N   LIG d   1      -1.833  76.220 116.396  0.00  0.00    -0.311 N 
ATOM     14  C   LIG d   1      -2.081  74.925 116.589  0.00  0.00     0.210 C 
ATOM     15  C   LIG d   1      -1.584  74.365 117.926  0.00  0.00     0.109 C 
ATOM     16  O   LIG d   1      -2.636  74.181 115.767  0.00  0.00    -0.276 OA
ATOM     17  H   LIG d   1      -1.349  76.740 117.101  0.00  0.00     0.149 HD
ENDBRANCH   6  13
BRANCH   5  18
ATOM     18  N   LIG d   1      -0.268  76.276 113.773  0.00  0.00     0.381 N 
ATOM     19  H   LIG d   1      -0.773  75.852 113.020  0.00  0.00    -0.090 HD
ATOM     20  H   LIG d   1      -0.143  75.590 114.495  0.00  0.00    -0.090 HD
ATOM     21  H   LIG d   1       0.618  76.595 113.449  0.00  0.00    -0.090 HD
ENDBRANCH   5  18
BRANCH   3  22
ATOM     22  C   LIG d   1      -2.444  80.415 112.735  0.00  0.00     0.382 C 
ATOM     23  O   LIG d   1      -1.503  80.657 111.941  0.00  0.00    -0.241 OA
ATOM     24  O   LIG d   1      -3.377  81.232 112.847  0.00  0.00    -0.241 OA
ENDBRANCH   3  22
TORSDOF 7
ENDMDL
MODEL 9
REMARK VINA RESULT:      -4.7      5.031      7.600
REMARK  7 active torsions:
REMARK  status: ('A' for Active; 'I' for Inactive)
REMARK    1  A    between atoms: C_2  and  C_3 
REMARK    2  A    between atoms: C_3  and  O_6 
REMARK    3  A    between atoms: C_3  and  C_4 
REMARK    4  A    between atoms: C_7  and  O_6 
REMARK    5  A    between atoms: C_9  and  C_10 
REMARK    6  A    between atoms: N_15  and  C_14 
REMARK    7  A    between atoms: N_20  and  C_19 
REMARK       I    between atoms: C_22  and  N_20 
ROOT
ATOM      1  C   LIG d   1      -3.486  78.397 115.938  0.00  0.00     0.161 C 
ATOM      2  C   LIG d   1      -2.925  77.261 115.331  0.00  0.00     0.016 C 
ATOM      3  C   LIG d   1      -3.358  75.942 115.600  0.00  0.00     0.038 C 
ATOM      4  C   LIG d   1      -4.490  75.679 116.385  0.00  0.00     0.028 C 
ATOM      5  C   LIG d   1      -4.776  76.762 117.419  0.00  0.00    -0.047 C 
ATOM      6  C   LIG d   1      -4.795  78.137 116.713  0.00  0.00     0.091 C 
ENDROOT
BRANCH   1   7
ATOM      7  O   LIG d   1      -3.683  79.430 114.952  0.00  0.00    -0.368 OA
BRANCH   7   8
ATOM      8  C   LIG d   1      -2.483  80.051 114.431  0.00  0.00     0.119 C 
BRANCH   8   9
ATOM      9  C   LIG d   1      -2.472  81.515 114.913  0.00  0.00     0.028 C 
ATOM     10  C   LIG d   1      -2.112  81.638 116.404  0.00  0.00     0.006 C 
ENDBRANCH   8   9
BRANCH   8  11
ATOM     11  C   LIG d   1      -2.516  80.129 112.901  0.00  0.00     0.028 C 
ATOM     12  C   LIG d   1      -1.525  79.162 112.234  0.00  0.00     0.006 C 
ENDBRANCH   8  11
ENDBRANCH   7   8
ENDBRANCH   1   7
BRANCH   6  13
ATOM     13  N   LIG d   1      -4.984  79.262 117.666  0.00  0.00    -0.311 N 
ATOM     14  C   LIG d   1      -6.068  80.036 117.680  0.00  0.00     0.210 C 
ATOM     15  C   LIG d   1      -6.052  81.151 118.731  0.00  0.00     0.109 C 
ATOM     16  O   LIG d   1      -7.054  79.886 116.944  0.00  0.00    -0.276 OA
ATOM     17  H   LIG d   1      -4.246  79.435 118.319  0.00  0.00     0.149 HD
ENDBRANCH   6  13
BRANCH   5  18
ATOM     18  N   LIG d   1      -6.056  76.430 118.072  0.00  0.00     0.381 N 
ATOM     19  H   LIG d   1      -5.903  76.245 119.043  0.00  0.00    -0.090 HD
ATOM     20  H   LIG d   1      -6.430  75.599 117.648  0.00  0.00    -0.090 HD
ATOM     21  H   LIG d   1      -6.698  77.184 117.966  0.00  0.00    -0.090 HD
ENDBRANCH   5  18
BRANCH   3  22
ATOM     22  C   LIG d   1      -2.630  74.867 115.111  0.00  0.00     0.382 C 
ATOM     23  O   LIG d   1      -2.712  74.554 113.899  0.00  0.00    -0.241 OA
ATOM     24  O   LIG d   1      -1.928  74.180 115.877  0.00  0.00    -0.241 OA
ENDBRANCH   3  22
TORSDOF 7
ENDMDL
