MODEL 1
REMARK VINA RESULT:      -5.2      0.000      0.000
REMARK  7 active torsions:
REMARK  status: ('A' for Active; 'I' for Inactive)
REMARK    1  A    between atoms: C_2  and  C_3 
REMARK    2  A    between atoms: C_3  and  O_6 
REMARK    3  A    between atoms: C_3  and  C_4 
REMARK    4  A    between atoms: C_7  and  O_6 
REMARK    5  A    between atoms: C_9  and  C_10 
REMARK    6  A    between atoms: N_15  and  C_14 
REMARK    7  A    between atoms: N_20  and  C_19 
REMARK       I    between atoms: C_22  and  N_20 
ROOT
ATOM      1  C   LIG d   1      -2.978  78.600 115.392  0.00  0.00     0.161 C 
ATOM      2  C   LIG d   1      -3.262  79.797 114.714  0.00  0.00     0.016 C 
ATOM      3  C   LIG d   1      -2.942  80.015 113.354  0.00  0.00     0.038 C 
ATOM      4  C   LIG d   1      -2.448  78.989 112.534  0.00  0.00     0.028 C 
ATOM      5  C   LIG d   1      -1.677  77.920 113.301  0.00  0.00    -0.047 C 
ATOM      6  C   LIG d   1      -2.540  77.431 114.485  0.00  0.00     0.091 C 
ENDROOT
BRANCH   1   7
ATOM      7  O   LIG d   1      -4.109  78.214 116.197  0.00  0.00    -0.368 OA
BRANCH   7   8
ATOM      8  C   LIG d   1      -4.161  78.771 117.534  0.00  0.00     0.119 C 
BRANCH   8   9
ATOM      9  C   LIG d   1      -4.165  77.592 118.526  0.00  0.00     0.028 C 
ATOM     10  C   LIG d   1      -5.111  76.461 118.090  0.00  0.00     0.006 C 
ENDBRANCH   8   9
BRANCH   8  11
ATOM     11  C   LIG d   1      -5.478  79.512 117.779  0.00  0.00     0.028 C 
ATOM     12  C   LIG d   1      -5.337  81.037 117.651  0.00  0.00     0.006 C 
ENDBRANCH   8  11
ENDBRANCH   7   8
ENDBRANCH   1   7
BRANCH   6  13
ATOM     13  N   LIG d   1      -1.827  76.443 115.337  0.00  0.00    -0.311 N 
ATOM     14  C   LIG d   1      -2.362  75.286 115.722  0.00  0.00     0.210 C 
ATOM     15  C   LIG d   1      -1.463  74.424 116.614  0.00  0.00     0.109 C 
ATOM     16  O   LIG d   1      -3.482  74.876 115.383  0.00  0.00    -0.276 OA
ATOM     17  H   LIG d   1      -0.900  76.681 115.632  0.00  0.00     0.149 HD
ENDBRANCH   6  13
BRANCH   5  18
ATOM     18  N   LIG d   1      -1.339  76.845 112.348  0.00  0.00     0.381 N 
ATOM     19  H   LIG d   1      -2.036  76.128 112.386  0.00  0.00    -0.090 HD
ATOM     20  H   LIG d   1      -0.457  76.443 112.612  0.00  0.00    -0.090 HD
ATOM     21  H   LIG d   1      -1.281  77.214 111.425  0.00  0.00    -0.090 HD
ENDBRANCH   5  18
BRANCH   3  22
ATOM     22  C   LIG d   1      -3.078  81.284 112.811  0.00  0.00     0.382 C 
ATOM     23  O   LIG d   1      -4.118  81.950 113.028  0.00  0.00    -0.241 OA
ATOM     24  O   LIG d   1      -2.192  81.753 112.072  0.00  0.00    -0.241 OA
ENDBRANCH   3  22
TORSDOF 7
ENDMDL
MODEL 2
REMARK VINA RESULT:      -4.8      2.806      5.283
REMARK  7 active torsions:
REMARK  status: ('A' for Active; 'I' for Inactive)
REMARK    1  A    between atoms: C_2  and  C_3 
REMARK    2  A    between atoms: C_3  and  O_6 
REMARK    3  A    between atoms: C_3  and  C_4 
REMARK    4  A    between atoms: C_7  and  O_6 
REMARK    5  A    between atoms: C_9  and  C_10 
REMARK    6  A    between atoms: N_15  and  C_14 
REMARK    7  A    between atoms: N_20  and  C_19 
REMARK       I    between atoms: C_22  and  N_20 
ROOT
ATOM      1  C   LIG d   1      -2.346  79.723 114.474  0.00  0.00     0.161 C 
ATOM      2  C   LIG d   1      -2.889  78.507 114.923  0.00  0.00     0.016 C 
ATOM      3  C   LIG d   1      -3.061  77.378 114.089  0.00  0.00     0.038 C 
ATOM      4  C   LIG d   1      -2.560  77.339 112.780  0.00  0.00     0.028 C 
ATOM      5  C   LIG d   1      -2.458  78.714 112.129  0.00  0.00    -0.047 C 
ATOM      6  C   LIG d   1      -1.691  79.663 113.078  0.00  0.00     0.091 C 
ENDROOT
BRANCH   1   7
ATOM      7  O   LIG d   1      -1.409  80.227 115.446  0.00  0.00    -0.368 OA
BRANCH   7   8
ATOM      8  C   LIG d   1      -1.320  79.488 116.689  0.00  0.00     0.119 C 
BRANCH   8   9
ATOM      9  C   LIG d   1      -1.573  80.483 117.839  0.00  0.00     0.028 C 
ATOM     10  C   LIG d   1      -0.360  81.390 118.107  0.00  0.00     0.006 C 
ENDBRANCH   8   9
BRANCH   8  11
ATOM     11  C   LIG d   1       0.097  78.954 116.920  0.00  0.00     0.028 C 
ATOM     12  C   LIG d   1       0.178  77.422 116.825  0.00  0.00     0.006 C 
ENDBRANCH   8  11
ENDBRANCH   7   8
ENDBRANCH   1   7
BRANCH   6  13
ATOM     13  N   LIG d   1      -1.620  81.052 112.555  0.00  0.00    -0.311 N 
ATOM     14  C   LIG d   1      -0.561  81.540 111.911  0.00  0.00     0.210 C 
ATOM     15  C   LIG d   1      -0.687  83.002 111.474  0.00  0.00     0.109 C 
ATOM     16  O   LIG d   1       0.458  80.890 111.632  0.00  0.00    -0.276 OA
ATOM     17  H   LIG d   1      -2.416  81.639 112.710  0.00  0.00     0.149 HD
ENDBRANCH   6  13
BRANCH   5  18
ATOM     18  N   LIG d   1      -1.794  78.542 110.823  0.00  0.00     0.381 N 
ATOM     19  H   LIG d   1      -1.040  79.193 110.738  0.00  0.00    -0.090 HD
ATOM     20  H   LIG d   1      -2.458  78.731 110.093  0.00  0.00    -0.090 HD
ATOM     21  H   LIG d   1      -1.450  77.611 110.736  0.00  0.00    -0.090 HD
ENDBRANCH   5  18
BRANCH   3  22
ATOM     22  C   LIG d   1      -3.778  76.285 114.553  0.00  0.00     0.382 C 
ATOM     23  O   LIG d   1      -4.983  76.145 114.234  0.00  0.00    -0.241 OA
ATOM     24  O   LIG d   1      -3.247  75.461 115.322  0.00  0.00    -0.241 OA
ENDBRANCH   3  22
TORSDOF 7
ENDMDL
MODEL 3
REMARK VINA RESULT:      -4.7      2.368      3.186
REMARK  7 active torsions:
REMARK  status: ('A' for Active; 'I' for Inactive)
REMARK    1  A    between atoms: C_2  and  C_3 
REMARK    2  A    between atoms: C_3  and  O_6 
REMARK    3  A    between atoms: C_3  and  C_4 
REMARK    4  A    between atoms: C_7  and  O_6 
REMARK    5  A    between atoms: C_9  and  C_10 
REMARK    6  A    between atoms: N_15  and  C_14 
REMARK    7  A    between atoms: N_20  and  C_19 
REMARK       I    between atoms: C_22  and  N_20 
ROOT
ATOM      1  C   LIG d   1      -3.109  76.794 115.413  0.00  0.00     0.161 C 
ATOM      2  C   LIG d   1      -3.314  77.607 114.286  0.00  0.00     0.016 C 
ATOM      3  C   LIG d   1      -2.375  78.563 113.835  0.00  0.00     0.038 C 
ATOM      4  C   LIG d   1      -1.094  78.666 114.396  0.00  0.00     0.028 C 
ATOM      5  C   LIG d   1      -1.032  78.217 115.852  0.00  0.00    -0.047 C 
ATOM      6  C   LIG d   1      -1.670  76.814 115.972  0.00  0.00     0.091 C 
ENDROOT
BRANCH   1   7
ATOM      7  O   LIG d   1      -3.513  75.442 115.120  0.00  0.00    -0.368 OA
BRANCH   7   8
ATOM      8  C   LIG d   1      -4.601  74.915 115.920  0.00  0.00     0.119 C 
BRANCH   8   9
ATOM      9  C   LIG d   1      -5.664  74.364 114.949  0.00  0.00     0.028 C 
ATOM     10  C   LIG d   1      -6.783  75.381 114.666  0.00  0.00     0.006 C 
ENDBRANCH   8   9
BRANCH   8  11
ATOM     11  C   LIG d   1      -5.305  76.026 116.704  0.00  0.00     0.028 C 
ATOM     12  C   LIG d   1      -5.190  75.845 118.226  0.00  0.00     0.006 C 
ENDBRANCH   8  11
ENDBRANCH   7   8
ENDBRANCH   1   7
BRANCH   6  13
ATOM     13  N   LIG d   1      -1.727  76.335 117.377  0.00  0.00    -0.311 N 
ATOM     14  C   LIG d   1      -1.309  75.129 117.759  0.00  0.00     0.210 C 
ATOM     15  C   LIG d   1      -1.475  74.829 119.252  0.00  0.00     0.109 C 
ATOM     16  O   LIG d   1      -0.785  74.292 117.008  0.00  0.00    -0.276 OA
ATOM     17  H   LIG d   1      -2.109  76.962 118.058  0.00  0.00     0.149 HD
ENDBRANCH   6  13
BRANCH   5  18
ATOM     18  N   LIG d   1       0.383  78.245 116.268  0.00  0.00     0.381 N 
ATOM     19  H   LIG d   1       0.929  77.680 115.649  0.00  0.00    -0.090 HD
ATOM     20  H   LIG d   1       0.457  77.862 117.194  0.00  0.00    -0.090 HD
ATOM     21  H   LIG d   1       0.721  79.182 116.261  0.00  0.00    -0.090 HD
ENDBRANCH   5  18
BRANCH   3  22
ATOM     22  C   LIG d   1      -2.730  79.457 112.837  0.00  0.00     0.382 C 
ATOM     23  O   LIG d   1      -2.053  79.522 111.783  0.00  0.00    -0.241 OA
ATOM     24  O   LIG d   1      -3.694  80.231 112.995  0.00  0.00    -0.241 OA
ENDBRANCH   3  22
TORSDOF 7
ENDMDL
MODEL 4
REMARK VINA RESULT:      -4.6      2.695      5.726
REMARK  7 active torsions:
REMARK  status: ('A' for Active; 'I' for Inactive)
REMARK    1  A    between atoms: C_2  and  C_3 
REMARK    2  A    between atoms: C_3  and  O_6 
REMARK    3  A    between atoms: C_3  and  C_4 
REMARK    4  A    between atoms: C_7  and  O_6 
REMARK    5  A    between atoms: C_9  and  C_10 
REMARK    6  A    between atoms: N_15  and  C_14 
REMARK    7  A    between atoms: N_20  and  C_19 
REMARK       I    between atoms: C_22  and  N_20 
ROOT
ATOM      1  C   LIG d   1      -1.615  75.041 115.667  0.00  0.00     0.161 C 
ATOM      2  C   LIG d   1      -1.196  74.643 116.947  0.00  0.00     0.016 C 
ATOM      3  C   LIG d   1      -0.489  75.489 117.833  0.00  0.00     0.038 C 
ATOM      4  C   LIG d   1      -0.284  76.848 117.554  0.00  0.00     0.028 C 
ATOM      5  C   LIG d   1      -0.245  77.162 116.062  0.00  0.00    -0.047 C 
ATOM      6  C   LIG d   1      -1.498  76.555 115.389  0.00  0.00     0.091 C 
ENDROOT
BRANCH   1   7
ATOM      7  O   LIG d   1      -2.965  74.592 115.433  0.00  0.00    -0.368 OA
BRANCH   7   8
ATOM      8  C   LIG d   1      -4.018  75.472 115.896  0.00  0.00     0.119 C 
BRANCH   8   9
ATOM      9  C   LIG d   1      -4.478  74.959 117.274  0.00  0.00     0.028 C 
ATOM     10  C   LIG d   1      -4.361  76.032 118.369  0.00  0.00     0.006 C 
ENDBRANCH   8   9
BRANCH   8  11
ATOM     11  C   LIG d   1      -5.255  75.382 114.997  0.00  0.00     0.028 C 
ATOM     12  C   LIG d   1      -6.258  74.317 115.468  0.00  0.00     0.006 C 
ENDBRANCH   8  11
ENDBRANCH   7   8
ENDBRANCH   1   7
BRANCH   6  13
ATOM     13  N   LIG d   1      -1.497  76.743 113.915  0.00  0.00    -0.311 N 
ATOM     14  C   LIG d   1      -2.355  77.536 113.277  0.00  0.00     0.210 C 
ATOM     15  C   LIG d   1      -2.194  77.571 111.754  0.00  0.00     0.109 C 
ATOM     16  O   LIG d   1      -3.214  78.239 113.830  0.00  0.00    -0.276 OA
ATOM     17  H   LIG d   1      -0.812  76.234 113.391  0.00  0.00     0.149 HD
ENDBRANCH   6  13
BRANCH   5  18
ATOM     18  N   LIG d   1      -0.164  78.627 115.916  0.00  0.00     0.381 N 
ATOM     19  H   LIG d   1      -0.499  78.897 115.013  0.00  0.00    -0.090 HD
ATOM     20  H   LIG d   1       0.797  78.909 115.993  0.00  0.00    -0.090 HD
ATOM     21  H   LIG d   1      -0.705  79.071 116.626  0.00  0.00    -0.090 HD
ENDBRANCH   5  18
BRANCH   3  22
ATOM     22  C   LIG d   1       0.056  74.965 118.995  0.00  0.00     0.382 C 
ATOM     23  O   LIG d   1       1.236  75.245 119.316  0.00  0.00    -0.241 OA
ATOM     24  O   LIG d   1      -0.602  74.181 119.704  0.00  0.00    -0.241 OA
ENDBRANCH   3  22
TORSDOF 7
ENDMDL
MODEL 5
REMARK VINA RESULT:      -4.6      2.811      3.716
REMARK  7 active torsions:
REMARK  status: ('A' for Active; 'I' for Inactive)
REMARK    1  A    between atoms: C_2  and  C_3 
REMARK    2  A    between atoms: C_3  and  O_6 
REMARK    3  A    between atoms: C_3  and  C_4 
REMARK    4  A    between atoms: C_7  and  O_6 
REMARK    5  A    between atoms: C_9  and  C_10 
REMARK    6  A    between atoms: N_15  and  C_14 
REMARK    7  A    between atoms: N_20  and  C_19 
REMARK       I    between atoms: C_22  and  N_20 
ROOT
ATOM      1  C   LIG d   1      -3.086  77.016 115.085  0.00  0.00     0.161 C 
ATOM      2  C   LIG d   1      -3.173  77.090 113.685  0.00  0.00     0.016 C 
ATOM      3  C   LIG d   1      -2.355  77.933 112.898  0.00  0.00     0.038 C 
ATOM      4  C   LIG d   1      -1.285  78.653 113.450  0.00  0.00     0.028 C 
ATOM      5  C   LIG d   1      -1.482  78.998 114.922  0.00  0.00    -0.047 C 
ATOM      6  C   LIG d   1      -1.850  77.711 115.694  0.00  0.00     0.091 C 
ENDROOT
BRANCH   1   7
ATOM      7  O   LIG d   1      -3.145  75.639 115.506  0.00  0.00    -0.368 OA
BRANCH   7   8
ATOM      8  C   LIG d   1      -4.317  75.255 116.268  0.00  0.00     0.119 C 
BRANCH   8   9
ATOM      9  C   LIG d   1      -3.847  74.324 117.402  0.00  0.00     0.028 C 
ATOM     10  C   LIG d   1      -2.316  74.180 117.447  0.00  0.00     0.006 C 
ENDBRANCH   8   9
BRANCH   8  11
ATOM     11  C   LIG d   1      -5.278  74.412 115.424  0.00  0.00     0.028 C 
ATOM     12  C   LIG d   1      -6.374  75.254 114.752  0.00  0.00     0.006 C 
ENDBRANCH   8  11
ENDBRANCH   7   8
ENDBRANCH   1   7
BRANCH   6  13
ATOM     13  N   LIG d   1      -2.143  77.974 117.128  0.00  0.00    -0.311 N 
ATOM     14  C   LIG d   1      -1.253  77.793 118.102  0.00  0.00     0.210 C 
ATOM     15  C   LIG d   1      -1.767  78.104 119.512  0.00  0.00     0.109 C 
ATOM     16  O   LIG d   1      -0.078  77.435 117.930  0.00  0.00    -0.276 OA
ATOM     17  H   LIG d   1      -3.063  78.296 117.353  0.00  0.00     0.149 HD
ENDBRANCH   6  13
BRANCH   5  18
ATOM     18  N   LIG d   1      -0.236  79.625 115.404  0.00  0.00     0.381 N 
ATOM     19  H   LIG d   1       0.112  80.259 114.713  0.00  0.00    -0.090 HD
ATOM     20  H   LIG d   1       0.452  78.908 115.550  0.00  0.00    -0.090 HD
ATOM     21  H   LIG d   1      -0.407  80.111 116.256  0.00  0.00    -0.090 HD
ENDBRANCH   5  18
BRANCH   3  22
ATOM     22  C   LIG d   1      -2.630  78.093 111.549  0.00  0.00     0.382 C 
ATOM     23  O   LIG d   1      -3.614  77.507 111.036  0.00  0.00    -0.241 OA
ATOM     24  O   LIG d   1      -1.882  78.781 110.828  0.00  0.00    -0.241 OA
ENDBRANCH   3  22
TORSDOF 7
ENDMDL
MODEL 6
REMARK VINA RESULT:      -4.4      1.364      2.197
REMARK  7 active torsions:
REMARK  status: ('A' for Active; 'I' for Inactive)
REMARK    1  A    between atoms: C_2  and  C_3 
REMARK    2  A    between atoms: C_3  and  O_6 
REMARK    3  A    between atoms: C_3  and  C_4 
REMARK    4  A    between atoms: C_7  and  O_6 
REMARK    5  A    between atoms: C_9  and  C_10 
REMARK    6  A    between atoms: N_15  and  C_14 
REMARK    7  A    between atoms: N_20  and  C_19 
REMARK       I    between atoms: C_22  and  N_20 
ROOT
ATOM      1  C   LIG d   1      -2.397  78.924 116.517  0.00  0.00     0.161 C 
ATOM      2  C   LIG d   1      -2.817  79.776 115.482  0.00  0.00     0.016 C 
ATOM      3  C   LIG d   1      -2.601  79.501 114.112  0.00  0.00     0.038 C 
ATOM      4  C   LIG d   1      -2.079  78.275 113.675  0.00  0.00     0.028 C 
ATOM      5  C   LIG d   1      -1.179  77.598 114.703  0.00  0.00    -0.047 C 
ATOM      6  C   LIG d   1      -1.926  77.529 116.055  0.00  0.00     0.091 C 
ENDROOT
BRANCH   1   7
ATOM      7  O   LIG d   1      -3.442  78.799 117.502  0.00  0.00    -0.368 OA
BRANCH   7   8
ATOM      8  C   LIG d   1      -4.800  78.853 117.000  0.00  0.00     0.119 C 
BRANCH   8   9
ATOM      9  C   LIG d   1      -5.621  79.715 117.978  0.00  0.00     0.028 C 
ATOM     10  C   LIG d   1      -5.546  81.214 117.644  0.00  0.00     0.006 C 
ENDBRANCH   8   9
BRANCH   8  11
ATOM     11  C   LIG d   1      -5.459  77.470 117.027  0.00  0.00     0.028 C 
ATOM     12  C   LIG d   1      -4.880  76.555 118.117  0.00  0.00     0.006 C 
ENDBRANCH   8  11
ENDBRANCH   7   8
ENDBRANCH   1   7
BRANCH   6  13
ATOM     13  N   LIG d   1      -1.084  76.957 117.139  0.00  0.00    -0.311 N 
ATOM     14  C   LIG d   1      -1.090  75.666 117.467  0.00  0.00     0.210 C 
ATOM     15  C   LIG d   1      -0.162  75.290 118.627  0.00  0.00     0.109 C 
ATOM     16  O   LIG d   1      -1.750  74.791 116.887  0.00  0.00    -0.276 OA
ATOM     17  H   LIG d   1      -0.494  77.591 117.641  0.00  0.00     0.149 HD
ENDBRANCH   6  13
BRANCH   5  18
ATOM     18  N   LIG d   1      -0.817  76.270 114.174  0.00  0.00     0.381 N 
ATOM     19  H   LIG d   1      -1.041  76.221 113.200  0.00  0.00    -0.090 HD
ATOM     20  H   LIG d   1      -1.355  75.570 114.656  0.00  0.00    -0.090 HD
ATOM     21  H   LIG d   1       0.155  76.103 114.308  0.00  0.00    -0.090 HD
ENDBRANCH   5  18
BRANCH   3  22
ATOM     22  C   LIG d   1      -2.871  80.477 113.165  0.00  0.00     0.382 C 
ATOM     23  O   LIG d   1      -3.777  81.319 113.373  0.00  0.00    -0.241 OA
ATOM     24  O   LIG d   1      -2.249  80.499 112.085  0.00  0.00    -0.241 OA
ENDBRANCH   3  22
TORSDOF 7
ENDMDL
MODEL 7
REMARK VINA RESULT:      -4.3      2.641      5.133
REMARK  7 active torsions:
REMARK  status: ('A' for Active; 'I' for Inactive)
REMARK    1  A    between atoms: C_2  and  C_3 
REMARK    2  A    between atoms: C_3  and  O_6 
REMARK    3  A    between atoms: C_3  and  C_4 
REMARK    4  A    between atoms: C_7  and  O_6 
REMARK    5  A    between atoms: C_9  and  C_10 
REMARK    6  A    between atoms: N_15  and  C_14 
REMARK    7  A    between atoms: N_20  and  C_19 
REMARK       I    between atoms: C_22  and  N_20 
ROOT
ATOM      1  C   LIG d   1      -3.082  78.239 115.874  0.00  0.00     0.161 C 
ATOM      2  C   LIG d   1      -1.771  78.584 116.241  0.00  0.00     0.016 C 
ATOM      3  C   LIG d   1      -0.847  77.663 116.787  0.00  0.00     0.038 C 
ATOM      4  C   LIG d   1      -1.126  76.290 116.863  0.00  0.00     0.028 C 
ATOM      5  C   LIG d   1      -2.615  75.980 116.974  0.00  0.00    -0.047 C 
ATOM      6  C   LIG d   1      -3.368  76.722 115.847  0.00  0.00     0.091 C 
ENDROOT
BRANCH   1   7
ATOM      7  O   LIG d   1      -3.406  78.833 114.602  0.00  0.00    -0.368 OA
BRANCH   7   8
ATOM      8  C   LIG d   1      -2.447  78.620 113.536  0.00  0.00     0.119 C 
BRANCH   8   9
ATOM      9  C   LIG d   1      -2.072  80.003 112.969  0.00  0.00     0.028 C 
ATOM     10  C   LIG d   1      -3.235  81.006 113.050  0.00  0.00     0.006 C 
ENDBRANCH   8   9
BRANCH   8  11
ATOM     11  C   LIG d   1      -3.075  77.858 112.366  0.00  0.00     0.028 C 
ATOM     12  C   LIG d   1      -2.261  77.984 111.068  0.00  0.00     0.006 C 
ENDBRANCH   8  11
ENDBRANCH   7   8
ENDBRANCH   1   7
BRANCH   6  13
ATOM     13  N   LIG d   1      -4.840  76.541 115.933  0.00  0.00    -0.311 N 
ATOM     14  C   LIG d   1      -5.496  75.563 115.311  0.00  0.00     0.210 C 
ATOM     15  C   LIG d   1      -7.014  75.569 115.517  0.00  0.00     0.109 C 
ATOM     16  O   LIG d   1      -4.961  74.672 114.634  0.00  0.00    -0.276 OA
ATOM     17  H   LIG d   1      -5.350  77.201 116.487  0.00  0.00     0.149 HD
ENDBRANCH   6  13
BRANCH   5  18
ATOM     18  N   LIG d   1      -2.771  74.515 116.906  0.00  0.00     0.381 N 
ATOM     19  H   LIG d   1      -1.938  74.102 116.536  0.00  0.00    -0.090 HD
ATOM     20  H   LIG d   1      -3.532  74.297 116.287  0.00  0.00    -0.090 HD
ATOM     21  H   LIG d   1      -2.957  74.149 117.814  0.00  0.00    -0.090 HD
ENDBRANCH   5  18
BRANCH   3  22
ATOM     22  C   LIG d   1       0.357  78.120 117.301  0.00  0.00     0.382 C 
ATOM     23  O   LIG d   1       0.680  79.324 117.164  0.00  0.00    -0.241 OA
ATOM     24  O   LIG d   1       1.144  77.333 117.860  0.00  0.00    -0.241 OA
ENDBRANCH   3  22
TORSDOF 7
ENDMDL
MODEL 8
REMARK VINA RESULT:      -4.3      2.412      5.950
REMARK  7 active torsions:
REMARK  status: ('A' for Active; 'I' for Inactive)
REMARK    1  A    between atoms: C_2  and  C_3 
REMARK    2  A    between atoms: C_3  and  O_6 
REMARK    3  A    between atoms: C_3  and  C_4 
REMARK    4  A    between atoms: C_7  and  O_6 
REMARK    5  A    between atoms: C_9  and  C_10 
REMARK    6  A    between atoms: N_15  and  C_14 
REMARK    7  A    between atoms: N_20  and  C_19 
REMARK       I    between atoms: C_22  and  N_20 
ROOT
ATOM      1  C   LIG d   1      -2.933  78.214 115.830  0.00  0.00     0.161 C 
ATOM      2  C   LIG d   1      -2.077  77.148 115.506  0.00  0.00     0.016 C 
ATOM      3  C   LIG d   1      -2.185  75.861 116.080  0.00  0.00     0.038 C 
ATOM      4  C   LIG d   1      -3.258  75.508 116.912  0.00  0.00     0.028 C 
ATOM      5  C   LIG d   1      -3.858  76.692 117.662  0.00  0.00    -0.047 C 
ATOM      6  C   LIG d   1      -4.177  77.817 116.651  0.00  0.00     0.091 C 
ENDROOT
BRANCH   1   7
ATOM      7  O   LIG d   1      -3.325  78.908 114.630  0.00  0.00    -0.368 OA
BRANCH   7   8
ATOM      8  C   LIG d   1      -2.505  78.671 113.459  0.00  0.00     0.119 C 
BRANCH   8   9
ATOM      9  C   LIG d   1      -2.171  80.043 112.842  0.00  0.00     0.028 C 
ATOM     10  C   LIG d   1      -3.264  81.090 113.113  0.00  0.00     0.006 C 
ENDBRANCH   8   9
BRANCH   8  11
ATOM     11  C   LIG d   1      -3.284  77.918 112.376  0.00  0.00     0.028 C 
ATOM     12  C   LIG d   1      -2.439  77.632 111.125  0.00  0.00     0.006 C 
ENDBRANCH   8  11
ENDBRANCH   7   8
ENDBRANCH   1   7
BRANCH   6  13
ATOM     13  N   LIG d   1      -4.690  79.045 117.313  0.00  0.00    -0.311 N 
ATOM     14  C   LIG d   1      -5.984  79.276 117.528  0.00  0.00     0.210 C 
ATOM     15  C   LIG d   1      -6.298  80.613 118.207  0.00  0.00     0.109 C 
ATOM     16  O   LIG d   1      -6.899  78.486 117.250  0.00  0.00    -0.276 OA
ATOM     17  H   LIG d   1      -4.014  79.725 117.599  0.00  0.00     0.149 HD
ENDBRANCH   6  13
BRANCH   5  18
ATOM     18  N   LIG d   1      -5.051  76.205 118.382  0.00  0.00     0.381 N 
ATOM     19  H   LIG d   1      -5.458  76.953 118.907  0.00  0.00    -0.090 HD
ATOM     20  H   LIG d   1      -4.771  75.485 119.024  0.00  0.00    -0.090 HD
ATOM     21  H   LIG d   1      -5.716  75.844 117.734  0.00  0.00    -0.090 HD
ENDBRANCH   5  18
BRANCH   3  22
ATOM     22  C   LIG d   1      -1.189  74.922 115.856  0.00  0.00     0.382 C 
ATOM     23  O   LIG d   1      -0.705  74.785 114.706  0.00  0.00    -0.241 OA
ATOM     24  O   LIG d   1      -0.801  74.180 116.778  0.00  0.00    -0.241 OA
ENDBRANCH   3  22
TORSDOF 7
ENDMDL
MODEL 9
REMARK VINA RESULT:      -4.3      3.304      4.564
REMARK  7 active torsions:
REMARK  status: ('A' for Active; 'I' for Inactive)
REMARK    1  A    between atoms: C_2  and  C_3 
REMARK    2  A    between atoms: C_3  and  O_6 
REMARK    3  A    between atoms: C_3  and  C_4 
REMARK    4  A    between atoms: C_7  and  O_6 
REMARK    5  A    between atoms: C_9  and  C_10 
REMARK    6  A    between atoms: N_15  and  C_14 
REMARK    7  A    between atoms: N_20  and  C_19 
REMARK       I    between atoms: C_22  and  N_20 
ROOT
ATOM      1  C   LIG d   1      -0.789  78.347 115.498  0.00  0.00     0.161 C 
ATOM      2  C   LIG d   1      -2.026  78.029 114.915  0.00  0.00     0.016 C 
ATOM      3  C   LIG d   1      -2.665  76.778 115.077  0.00  0.00     0.038 C 
ATOM      4  C   LIG d   1      -2.177  75.807 115.964  0.00  0.00     0.028 C 
ATOM      5  C   LIG d   1      -0.670  75.888 116.183  0.00  0.00    -0.047 C 
ATOM      6  C   LIG d   1      -0.296  77.340 116.558  0.00  0.00     0.091 C 
ENDROOT
BRANCH   1   7
ATOM      7  O   LIG d   1      -0.838  79.676 116.054  0.00  0.00    -0.368 OA
BRANCH   7   8
ATOM      8  C   LIG d   1      -1.275  79.775 117.432  0.00  0.00     0.119 C 
BRANCH   8   9
ATOM      9  C   LIG d   1      -2.763  80.174 117.418  0.00  0.00     0.028 C 
ATOM     10  C   LIG d   1      -3.661  79.115 118.079  0.00  0.00     0.006 C 
ENDBRANCH   8   9
BRANCH   8  11
ATOM     11  C   LIG d   1      -0.557  80.913 118.164  0.00  0.00     0.028 C 
ATOM     12  C   LIG d   1       0.728  81.364 117.450  0.00  0.00     0.006 C 
ENDBRANCH   8  11
ENDBRANCH   7   8
ENDBRANCH   1   7
BRANCH   6  13
ATOM     13  N   LIG d   1       1.171  77.527 116.708  0.00  0.00    -0.311 N 
ATOM     14  C   LIG d   1       1.766  77.754 117.878  0.00  0.00     0.210 C 
ATOM     15  C   LIG d   1       3.285  77.937 117.806  0.00  0.00     0.109 C 
ATOM     16  O   LIG d   1       1.183  77.790 118.972  0.00  0.00    -0.276 OA
ATOM     17  H   LIG d   1       1.724  77.482 115.874  0.00  0.00     0.149 HD
ENDBRANCH   6  13
BRANCH   5  18
ATOM     18  N   LIG d   1      -0.318  74.911 117.230  0.00  0.00     0.381 N 
ATOM     19  H   LIG d   1       0.277  74.204 116.848  0.00  0.00    -0.090 HD
ATOM     20  H   LIG d   1      -1.159  74.471 117.560  0.00  0.00    -0.090 HD
ATOM     21  H   LIG d   1       0.142  75.371 117.985  0.00  0.00    -0.090 HD
ENDBRANCH   5  18
BRANCH   3  22
ATOM     22  C   LIG d   1      -3.784  76.474 114.317  0.00  0.00     0.382 C 
ATOM     23  O   LIG d   1      -4.529  75.522 114.652  0.00  0.00    -0.241 OA
ATOM     24  O   LIG d   1      -4.032  77.110 113.275  0.00  0.00    -0.241 OA
ENDBRANCH   3  22
TORSDOF 7
ENDMDL
