MODEL 1
REMARK VINA RESULT:      -5.1      0.000      0.000
REMARK  7 active torsions:
REMARK  status: ('A' for Active; 'I' for Inactive)
REMARK    1  A    between atoms: C_2  and  C_3 
REMARK    2  A    between atoms: C_3  and  O_6 
REMARK    3  A    between atoms: C_3  and  C_4 
REMARK    4  A    between atoms: C_7  and  O_6 
REMARK    5  A    between atoms: C_9  and  C_10 
REMARK    6  A    between atoms: N_15  and  C_14 
REMARK    7  A    between atoms: N_20  and  C_19 
REMARK       I    between atoms: C_22  and  N_20 
ROOT
ATOM      1  C   LIG d   1       0.410  81.889 112.991  0.00  0.00     0.161 C 
ATOM      2  C   LIG d   1       1.328  82.815 112.468  0.00  0.00     0.016 C 
ATOM      3  C   LIG d   1       1.690  82.865 111.102  0.00  0.00     0.038 C 
ATOM      4  C   LIG d   1       1.039  82.086 110.134  0.00  0.00     0.028 C 
ATOM      5  C   LIG d   1       0.466  80.785 110.687  0.00  0.00    -0.047 C 
ATOM      6  C   LIG d   1      -0.393  81.105 111.932  0.00  0.00     0.091 C 
ENDROOT
BRANCH   1   7
ATOM      7  O   LIG d   1      -0.484  82.552 113.907  0.00  0.00    -0.368 OA
BRANCH   7   8
ATOM      8  C   LIG d   1      -0.376  82.161 115.298  0.00  0.00     0.119 C 
BRANCH   8   9
ATOM      9  C   LIG d   1      -1.784  81.756 115.775  0.00  0.00     0.028 C 
ATOM     10  C   LIG d   1      -2.898  82.479 114.999  0.00  0.00     0.006 C 
ENDBRANCH   8   9
BRANCH   8  11
ATOM     11  C   LIG d   1       0.025  83.347 116.181  0.00  0.00     0.028 C 
ATOM     12  C   LIG d   1       0.044  84.680 115.416  0.00  0.00     0.006 C 
ENDBRANCH   8  11
ENDBRANCH   7   8
ENDBRANCH   1   7
BRANCH   6  13
ATOM     13  N   LIG d   1      -0.923  79.880 112.585  0.00  0.00    -0.311 N 
ATOM     14  C   LIG d   1      -2.218  79.573 112.626  0.00  0.00     0.210 C 
ATOM     15  C   LIG d   1      -2.551  78.274 113.366  0.00  0.00     0.109 C 
ATOM     16  O   LIG d   1      -3.120  80.236 112.091  0.00  0.00    -0.276 OA
ATOM     17  H   LIG d   1      -0.257  79.269 113.017  0.00  0.00     0.149 HD
ENDBRANCH   6  13
BRANCH   5  18
ATOM     18  N   LIG d   1      -0.301  80.140 109.605  0.00  0.00     0.381 N 
ATOM     19  H   LIG d   1      -0.965  79.501 109.996  0.00  0.00    -0.090 HD
ATOM     20  H   LIG d   1       0.332  79.620 109.023  0.00  0.00    -0.090 HD
ATOM     21  H   LIG d   1      -0.773  80.830 109.063  0.00  0.00    -0.090 HD
ENDBRANCH   5  18
BRANCH   3  22
ATOM     22  C   LIG d   1       2.741  83.674 110.699  0.00  0.00     0.382 C 
ATOM     23  O   LIG d   1       3.022  83.775 109.480  0.00  0.00    -0.241 OA
ATOM     24  O   LIG d   1       3.440  84.268 111.541  0.00  0.00    -0.241 OA
ENDBRANCH   3  22
TORSDOF 7
ENDMDL
MODEL 2
REMARK VINA RESULT:      -5.0      2.379      5.867
REMARK  7 active torsions:
REMARK  status: ('A' for Active; 'I' for Inactive)
REMARK    1  A    between atoms: C_2  and  C_3 
REMARK    2  A    between atoms: C_3  and  O_6 
REMARK    3  A    between atoms: C_3  and  C_4 
REMARK    4  A    between atoms: C_7  and  O_6 
REMARK    5  A    between atoms: C_9  and  C_10 
REMARK    6  A    between atoms: N_15  and  C_14 
REMARK    7  A    between atoms: N_20  and  C_19 
REMARK       I    between atoms: C_22  and  N_20 
ROOT
ATOM      1  C   LIG d   1      -0.443  81.296 111.772  0.00  0.00     0.161 C 
ATOM      2  C   LIG d   1      -1.035  80.023 111.710  0.00  0.00     0.016 C 
ATOM      3  C   LIG d   1      -1.917  79.527 112.698  0.00  0.00     0.038 C 
ATOM      4  C   LIG d   1      -2.389  80.335 113.744  0.00  0.00     0.028 C 
ATOM      5  C   LIG d   1      -1.427  81.456 114.124  0.00  0.00    -0.047 C 
ATOM      6  C   LIG d   1      -1.032  82.232 112.847  0.00  0.00     0.091 C 
ENDROOT
BRANCH   1   7
ATOM      7  O   LIG d   1      -0.499  81.924 110.475  0.00  0.00    -0.368 OA
BRANCH   7   8
ATOM      8  C   LIG d   1       0.763  82.063 109.779  0.00  0.00     0.119 C 
BRANCH   8   9
ATOM      9  C   LIG d   1       1.829  81.311 110.599  0.00  0.00     0.028 C 
ATOM     10  C   LIG d   1       3.141  82.104 110.725  0.00  0.00     0.006 C 
ENDBRANCH   8   9
BRANCH   8  11
ATOM     11  C   LIG d   1       1.227  83.522 109.753  0.00  0.00     0.028 C 
ATOM     12  C   LIG d   1       0.058  84.520 109.780  0.00  0.00     0.006 C 
ENDBRANCH   8  11
ENDBRANCH   7   8
ENDBRANCH   1   7
BRANCH   6  13
ATOM     13  N   LIG d   1      -0.028  83.294 113.118  0.00  0.00    -0.311 N 
ATOM     14  C   LIG d   1       1.137  83.065 113.723  0.00  0.00     0.210 C 
ATOM     15  C   LIG d   1       2.017  84.303 113.922  0.00  0.00     0.109 C 
ATOM     16  O   LIG d   1       1.538  81.949 114.085  0.00  0.00    -0.276 OA
ATOM     17  H   LIG d   1      -0.259  84.224 112.829  0.00  0.00     0.149 HD
ENDBRANCH   6  13
BRANCH   5  18
ATOM     18  N   LIG d   1      -2.102  82.300 115.128  0.00  0.00     0.381 N 
ATOM     19  H   LIG d   1      -2.981  82.615 114.770  0.00  0.00    -0.090 HD
ATOM     20  H   LIG d   1      -1.530  83.105 115.313  0.00  0.00    -0.090 HD
ATOM     21  H   LIG d   1      -2.243  81.783 115.969  0.00  0.00    -0.090 HD
ENDBRANCH   5  18
BRANCH   3  22
ATOM     22  C   LIG d   1      -2.306  78.197 112.666  0.00  0.00     0.382 C 
ATOM     23  O   LIG d   1      -1.590  77.321 113.209  0.00  0.00    -0.241 OA
ATOM     24  O   LIG d   1      -3.341  77.855 112.063  0.00  0.00    -0.241 OA
ENDBRANCH   3  22
TORSDOF 7
ENDMDL
MODEL 3
REMARK VINA RESULT:      -4.8      2.142      5.408
REMARK  7 active torsions:
REMARK  status: ('A' for Active; 'I' for Inactive)
REMARK    1  A    between atoms: C_2  and  C_3 
REMARK    2  A    between atoms: C_3  and  O_6 
REMARK    3  A    between atoms: C_3  and  C_4 
REMARK    4  A    between atoms: C_7  and  O_6 
REMARK    5  A    between atoms: C_9  and  C_10 
REMARK    6  A    between atoms: N_15  and  C_14 
REMARK    7  A    between atoms: N_20  and  C_19 
REMARK       I    between atoms: C_22  and  N_20 
ROOT
ATOM      1  C   LIG d   1      -2.039  80.903 114.298  0.00  0.00     0.161 C 
ATOM      2  C   LIG d   1      -2.575  79.692 114.766  0.00  0.00     0.016 C 
ATOM      3  C   LIG d   1      -2.586  78.500 114.005  0.00  0.00     0.038 C 
ATOM      4  C   LIG d   1      -1.921  78.401 112.774  0.00  0.00     0.028 C 
ATOM      5  C   LIG d   1      -1.804  79.733 112.039  0.00  0.00    -0.047 C 
ATOM      6  C   LIG d   1      -1.210  80.786 113.002  0.00  0.00     0.091 C 
ENDROOT
BRANCH   1   7
ATOM      7  O   LIG d   1      -1.258  81.526 115.338  0.00  0.00    -0.368 OA
BRANCH   7   8
ATOM      8  C   LIG d   1      -1.768  82.781 115.853  0.00  0.00     0.119 C 
BRANCH   8   9
ATOM      9  C   LIG d   1      -0.717  83.866 115.550  0.00  0.00     0.028 C 
ATOM     10  C   LIG d   1       0.016  84.342 116.816  0.00  0.00     0.006 C 
ENDBRANCH   8   9
BRANCH   8  11
ATOM     11  C   LIG d   1      -1.889  82.748 117.379  0.00  0.00     0.028 C 
ATOM     12  C   LIG d   1      -3.316  82.432 117.857  0.00  0.00     0.006 C 
ENDBRANCH   8  11
ENDBRANCH   7   8
ENDBRANCH   1   7
BRANCH   6  13
ATOM     13  N   LIG d   1      -1.140  82.138 112.389  0.00  0.00    -0.311 N 
ATOM     14  C   LIG d   1      -0.053  82.614 111.784  0.00  0.00     0.210 C 
ATOM     15  C   LIG d   1      -0.188  84.039 111.238  0.00  0.00     0.109 C 
ATOM     16  O   LIG d   1       0.999  81.978 111.619  0.00  0.00    -0.276 OA
ATOM     17  H   LIG d   1      -1.960  82.710 112.450  0.00  0.00     0.149 HD
ENDBRANCH   6  13
BRANCH   5  18
ATOM     18  N   LIG d   1      -0.971  79.510 110.842  0.00  0.00     0.381 N 
ATOM     19  H   LIG d   1      -1.354  78.762 110.298  0.00  0.00    -0.090 HD
ATOM     20  H   LIG d   1      -0.046  79.247 111.133  0.00  0.00    -0.090 HD
ATOM     21  H   LIG d   1      -0.932  80.341 110.295  0.00  0.00    -0.090 HD
ENDBRANCH   5  18
BRANCH   3  22
ATOM     22  C   LIG d   1      -3.302  77.403 114.457  0.00  0.00     0.382 C 
ATOM     23  O   LIG d   1      -4.090  76.806 113.684  0.00  0.00    -0.241 OA
ATOM     24  O   LIG d   1      -3.203  77.028 115.641  0.00  0.00    -0.241 OA
ENDBRANCH   3  22
TORSDOF 7
ENDMDL
MODEL 4
REMARK VINA RESULT:      -4.8      2.496      3.442
REMARK  7 active torsions:
REMARK  status: ('A' for Active; 'I' for Inactive)
REMARK    1  A    between atoms: C_2  and  C_3 
REMARK    2  A    between atoms: C_3  and  O_6 
REMARK    3  A    between atoms: C_3  and  C_4 
REMARK    4  A    between atoms: C_7  and  O_6 
REMARK    5  A    between atoms: C_9  and  C_10 
REMARK    6  A    between atoms: N_15  and  C_14 
REMARK    7  A    between atoms: N_20  and  C_19 
REMARK       I    between atoms: C_22  and  N_20 
ROOT
ATOM      1  C   LIG d   1      -2.164  81.172 114.787  0.00  0.00     0.161 C 
ATOM      2  C   LIG d   1      -1.740  82.405 114.264  0.00  0.00     0.016 C 
ATOM      3  C   LIG d   1      -1.169  82.550 112.979  0.00  0.00     0.038 C 
ATOM      4  C   LIG d   1      -1.121  81.487 112.064  0.00  0.00     0.028 C 
ATOM      5  C   LIG d   1      -1.074  80.116 112.731  0.00  0.00    -0.047 C 
ATOM      6  C   LIG d   1      -2.222  80.020 113.762  0.00  0.00     0.091 C 
ENDROOT
BRANCH   1   7
ATOM      7  O   LIG d   1      -3.441  81.329 115.437  0.00  0.00    -0.368 OA
BRANCH   7   8
ATOM      8  C   LIG d   1      -3.448  81.165 116.876  0.00  0.00     0.119 C 
BRANCH   8   9
ATOM      9  C   LIG d   1      -4.809  80.557 117.266  0.00  0.00     0.028 C 
ATOM     10  C   LIG d   1      -4.914  79.067 116.897  0.00  0.00     0.006 C 
ENDBRANCH   8   9
BRANCH   8  11
ATOM     11  C   LIG d   1      -3.389  82.517 117.592  0.00  0.00     0.028 C 
ATOM     12  C   LIG d   1      -2.007  82.811 118.198  0.00  0.00     0.006 C 
ENDBRANCH   8  11
ENDBRANCH   7   8
ENDBRANCH   1   7
BRANCH   6  13
ATOM     13  N   LIG d   1      -2.197  78.742 114.520  0.00  0.00    -0.311 N 
ATOM     14  C   LIG d   1      -2.845  77.646 114.131  0.00  0.00     0.210 C 
ATOM     15  C   LIG d   1      -2.703  76.443 115.068  0.00  0.00     0.109 C 
ATOM     16  O   LIG d   1      -3.499  77.546 113.081  0.00  0.00    -0.276 OA
ATOM     17  H   LIG d   1      -1.665  78.725 115.368  0.00  0.00     0.149 HD
ENDBRANCH   6  13
BRANCH   5  18
ATOM     18  N   LIG d   1      -1.166  79.100 111.666  0.00  0.00     0.381 N 
ATOM     19  H   LIG d   1      -2.078  78.687 111.670  0.00  0.00    -0.090 HD
ATOM     20  H   LIG d   1      -0.492  78.377 111.848  0.00  0.00    -0.090 HD
ATOM     21  H   LIG d   1      -0.987  79.517 110.780  0.00  0.00    -0.090 HD
ENDBRANCH   5  18
BRANCH   3  22
ATOM     22  C   LIG d   1      -0.602  83.761 112.611  0.00  0.00     0.382 C 
ATOM     23  O   LIG d   1       0.216  84.327 113.376  0.00  0.00    -0.241 OA
ATOM     24  O   LIG d   1      -0.931  84.316 111.546  0.00  0.00    -0.241 OA
ENDBRANCH   3  22
TORSDOF 7
ENDMDL
MODEL 5
REMARK VINA RESULT:      -4.7      4.619      7.890
REMARK  7 active torsions:
REMARK  status: ('A' for Active; 'I' for Inactive)
REMARK    1  A    between atoms: C_2  and  C_3 
REMARK    2  A    between atoms: C_3  and  O_6 
REMARK    3  A    between atoms: C_3  and  C_4 
REMARK    4  A    between atoms: C_7  and  O_6 
REMARK    5  A    between atoms: C_9  and  C_10 
REMARK    6  A    between atoms: N_15  and  C_14 
REMARK    7  A    between atoms: N_20  and  C_19 
REMARK       I    between atoms: C_22  and  N_20 
ROOT
ATOM      1  C   LIG d   1      -1.693  76.406 115.053  0.00  0.00     0.161 C 
ATOM      2  C   LIG d   1      -1.555  75.673 116.243  0.00  0.00     0.016 C 
ATOM      3  C   LIG d   1      -0.929  76.183 117.404  0.00  0.00     0.038 C 
ATOM      4  C   LIG d   1      -0.531  77.525 117.502  0.00  0.00     0.028 C 
ATOM      5  C   LIG d   1      -0.194  78.157 116.156  0.00  0.00    -0.047 C 
ATOM      6  C   LIG d   1      -1.365  77.909 115.178  0.00  0.00     0.091 C 
ENDROOT
BRANCH   1   7
ATOM      7  O   LIG d   1      -3.020  76.226 114.520  0.00  0.00    -0.368 OA
BRANCH   7   8
ATOM      8  C   LIG d   1      -4.074  76.017 115.491  0.00  0.00     0.119 C 
BRANCH   8   9
ATOM      9  C   LIG d   1      -5.002  74.917 114.938  0.00  0.00     0.028 C 
ATOM     10  C   LIG d   1      -5.767  74.181 116.051  0.00  0.00     0.006 C 
ENDBRANCH   8   9
BRANCH   8  11
ATOM     11  C   LIG d   1      -4.958  77.260 115.630  0.00  0.00     0.028 C 
ATOM     12  C   LIG d   1      -4.681  78.047 116.921  0.00  0.00     0.006 C 
ENDBRANCH   8  11
ENDBRANCH   7   8
ENDBRANCH   1   7
BRANCH   6  13
ATOM     13  N   LIG d   1      -1.081  78.422 113.812  0.00  0.00    -0.311 N 
ATOM     14  C   LIG d   1      -1.930  79.184 113.124  0.00  0.00     0.210 C 
ATOM     15  C   LIG d   1      -1.449  79.587 111.727  0.00  0.00     0.109 C 
ATOM     16  O   LIG d   1      -3.021  79.590 113.551  0.00  0.00    -0.276 OA
ATOM     17  H   LIG d   1      -0.204  78.166 113.402  0.00  0.00     0.149 HD
ENDBRANCH   6  13
BRANCH   5  18
ATOM     18  N   LIG d   1       0.070  79.589 116.390  0.00  0.00     0.381 N 
ATOM     19  H   LIG d   1      -0.669  79.985 116.936  0.00  0.00    -0.090 HD
ATOM     20  H   LIG d   1       0.097  80.064 115.505  0.00  0.00    -0.090 HD
ATOM     21  H   LIG d   1       0.940  79.703 116.863  0.00  0.00    -0.090 HD
ENDBRANCH   5  18
BRANCH   3  22
ATOM     22  C   LIG d   1      -0.660  75.336 118.468  0.00  0.00     0.382 C 
ATOM     23  O   LIG d   1      -1.604  74.824 119.116  0.00  0.00    -0.241 OA
ATOM     24  O   LIG d   1       0.515  75.113 118.816  0.00  0.00    -0.241 OA
ENDBRANCH   3  22
TORSDOF 7
ENDMDL
MODEL 6
REMARK VINA RESULT:      -4.7      2.373      3.384
REMARK  7 active torsions:
REMARK  status: ('A' for Active; 'I' for Inactive)
REMARK    1  A    between atoms: C_2  and  C_3 
REMARK    2  A    between atoms: C_3  and  O_6 
REMARK    3  A    between atoms: C_3  and  C_4 
REMARK    4  A    between atoms: C_7  and  O_6 
REMARK    5  A    between atoms: C_9  and  C_10 
REMARK    6  A    between atoms: N_15  and  C_14 
REMARK    7  A    between atoms: N_20  and  C_19 
REMARK       I    between atoms: C_22  and  N_20 
ROOT
ATOM      1  C   LIG d   1      -0.592  81.067 114.793  0.00  0.00     0.161 C 
ATOM      2  C   LIG d   1      -0.489  82.387 114.323  0.00  0.00     0.016 C 
ATOM      3  C   LIG d   1      -0.658  82.746 112.966  0.00  0.00     0.038 C 
ATOM      4  C   LIG d   1      -1.092  81.822 112.004  0.00  0.00     0.028 C 
ATOM      5  C   LIG d   1      -0.719  80.381 112.335  0.00  0.00    -0.047 C 
ATOM      6  C   LIG d   1      -1.176  80.063 113.777  0.00  0.00     0.091 C 
ENDROOT
BRANCH   1   7
ATOM      7  O   LIG d   1      -1.354  81.042 116.016  0.00  0.00    -0.368 OA
BRANCH   7   8
ATOM      8  C   LIG d   1      -2.758  80.709 115.886  0.00  0.00     0.119 C 
BRANCH   8   9
ATOM      9  C   LIG d   1      -3.570  81.948 116.309  0.00  0.00     0.028 C 
ATOM     10  C   LIG d   1      -3.159  82.473 117.695  0.00  0.00     0.006 C 
ENDBRANCH   8   9
BRANCH   8  11
ATOM     11  C   LIG d   1      -3.162  79.605 116.868  0.00  0.00     0.028 C 
ATOM     12  C   LIG d   1      -4.293  78.714 116.330  0.00  0.00     0.006 C 
ENDBRANCH   8  11
ENDBRANCH   7   8
ENDBRANCH   1   7
BRANCH   6  13
ATOM     13  N   LIG d   1      -0.774  78.700 114.211  0.00  0.00    -0.311 N 
ATOM     14  C   LIG d   1      -1.524  77.617 114.015  0.00  0.00     0.210 C 
ATOM     15  C   LIG d   1      -0.932  76.313 114.558  0.00  0.00     0.109 C 
ATOM     16  O   LIG d   1      -2.609  77.608 113.413  0.00  0.00    -0.276 OA
ATOM     17  H   LIG d   1       0.107  78.611 114.679  0.00  0.00     0.149 HD
ENDBRANCH   6  13
BRANCH   5  18
ATOM     18  N   LIG d   1      -1.351  79.513 111.323  0.00  0.00     0.381 N 
ATOM     19  H   LIG d   1      -1.228  78.553 111.577  0.00  0.00    -0.090 HD
ATOM     20  H   LIG d   1      -0.902  79.666 110.438  0.00  0.00    -0.090 HD
ATOM     21  H   LIG d   1      -2.322  79.724 111.252  0.00  0.00    -0.090 HD
ENDBRANCH   5  18
BRANCH   3  22
ATOM     22  C   LIG d   1      -0.351  84.033 112.552  0.00  0.00     0.382 C 
ATOM     23  O   LIG d   1       0.628  84.637 113.054  0.00  0.00    -0.241 OA
ATOM     24  O   LIG d   1      -1.067  84.615 111.715  0.00  0.00    -0.241 OA
ENDBRANCH   3  22
TORSDOF 7
ENDMDL
MODEL 7
REMARK VINA RESULT:      -4.6      3.609      6.360
REMARK  7 active torsions:
REMARK  status: ('A' for Active; 'I' for Inactive)
REMARK    1  A    between atoms: C_2  and  C_3 
REMARK    2  A    between atoms: C_3  and  O_6 
REMARK    3  A    between atoms: C_3  and  C_4 
REMARK    4  A    between atoms: C_7  and  O_6 
REMARK    5  A    between atoms: C_9  and  C_10 
REMARK    6  A    between atoms: N_15  and  C_14 
REMARK    7  A    between atoms: N_20  and  C_19 
REMARK       I    between atoms: C_22  and  N_20 
ROOT
ATOM      1  C   LIG d   1      -2.330  78.716 114.969  0.00  0.00     0.161 C 
ATOM      2  C   LIG d   1      -2.632  79.560 113.888  0.00  0.00     0.016 C 
ATOM      3  C   LIG d   1      -1.839  80.673 113.525  0.00  0.00     0.038 C 
ATOM      4  C   LIG d   1      -0.600  80.930 114.131  0.00  0.00     0.028 C 
ATOM      5  C   LIG d   1      -0.503  80.402 115.558  0.00  0.00    -0.047 C 
ATOM      6  C   LIG d   1      -0.924  78.915 115.572  0.00  0.00     0.091 C 
ENDROOT
BRANCH   1   7
ATOM      7  O   LIG d   1      -2.520  77.340 114.582  0.00  0.00    -0.368 OA
BRANCH   7   8
ATOM      8  C   LIG d   1      -3.545  76.611 115.302  0.00  0.00     0.119 C 
BRANCH   8   9
ATOM      9  C   LIG d   1      -2.941  75.257 115.722  0.00  0.00     0.028 C 
ATOM     10  C   LIG d   1      -1.463  75.124 115.320  0.00  0.00     0.006 C 
ENDBRANCH   8   9
BRANCH   8  11
ATOM     11  C   LIG d   1      -4.725  76.264 114.391  0.00  0.00     0.028 C 
ATOM     12  C   LIG d   1      -5.216  74.819 114.576  0.00  0.00     0.006 C 
ENDBRANCH   8  11
ENDBRANCH   7   8
ENDBRANCH   1   7
BRANCH   6  13
ATOM     13  N   LIG d   1      -0.938  78.343 116.944  0.00  0.00    -0.311 N 
ATOM     14  C   LIG d   1       0.073  77.644 117.457  0.00  0.00     0.210 C 
ATOM     15  C   LIG d   1      -0.155  77.128 118.881  0.00  0.00     0.109 C 
ATOM     16  O   LIG d   1       1.150  77.431 116.881  0.00  0.00    -0.276 OA
ATOM     17  H   LIG d   1      -1.761  78.495 117.493  0.00  0.00     0.149 HD
ENDBRANCH   6  13
BRANCH   5  18
ATOM     18  N   LIG d   1       0.882  80.615 116.019  0.00  0.00     0.381 N 
ATOM     19  H   LIG d   1       0.971  80.324 116.972  0.00  0.00    -0.090 HD
ATOM     20  H   LIG d   1       1.095  81.595 115.967  0.00  0.00    -0.090 HD
ATOM     21  H   LIG d   1       1.515  80.099 115.447  0.00  0.00    -0.090 HD
ENDBRANCH   5  18
BRANCH   3  22
ATOM     22  C   LIG d   1      -2.304  81.567 112.572  0.00  0.00     0.382 C 
ATOM     23  O   LIG d   1      -3.435  81.401 112.056  0.00  0.00    -0.241 OA
ATOM     24  O   LIG d   1      -1.588  82.512 112.189  0.00  0.00    -0.241 OA
ENDBRANCH   3  22
TORSDOF 7
ENDMDL
MODEL 8
REMARK VINA RESULT:      -4.3      4.204      7.330
REMARK  7 active torsions:
REMARK  status: ('A' for Active; 'I' for Inactive)
REMARK    1  A    between atoms: C_2  and  C_3 
REMARK    2  A    between atoms: C_3  and  O_6 
REMARK    3  A    between atoms: C_3  and  C_4 
REMARK    4  A    between atoms: C_7  and  O_6 
REMARK    5  A    between atoms: C_9  and  C_10 
REMARK    6  A    between atoms: N_15  and  C_14 
REMARK    7  A    between atoms: N_20  and  C_19 
REMARK       I    between atoms: C_22  and  N_20 
ROOT
ATOM      1  C   LIG d   1      -1.113  77.876 115.167  0.00  0.00     0.161 C 
ATOM      2  C   LIG d   1      -2.441  77.652 114.767  0.00  0.00     0.016 C 
ATOM      3  C   LIG d   1      -3.163  76.480 115.090  0.00  0.00     0.038 C 
ATOM      4  C   LIG d   1      -2.653  75.512 115.968  0.00  0.00     0.028 C 
ATOM      5  C   LIG d   1      -1.129  75.456 115.987  0.00  0.00    -0.047 C 
ATOM      6  C   LIG d   1      -0.578  76.882 116.218  0.00  0.00     0.091 C 
ENDROOT
BRANCH   1   7
ATOM      7  O   LIG d   1      -0.967  79.231 115.638  0.00  0.00    -0.368 OA
BRANCH   7   8
ATOM      8  C   LIG d   1      -1.653  80.250 114.870  0.00  0.00     0.119 C 
BRANCH   8   9
ATOM      9  C   LIG d   1      -0.686  80.730 113.770  0.00  0.00     0.028 C 
ATOM     10  C   LIG d   1      -1.163  80.345 112.360  0.00  0.00     0.006 C 
ENDBRANCH   8   9
BRANCH   8  11
ATOM     11  C   LIG d   1      -1.944  81.489 115.722  0.00  0.00     0.028 C 
ATOM     12  C   LIG d   1      -2.815  82.523 114.992  0.00  0.00     0.006 C 
ENDBRANCH   8  11
ENDBRANCH   7   8
ENDBRANCH   1   7
BRANCH   6  13
ATOM     13  N   LIG d   1       0.907  76.931 116.167  0.00  0.00    -0.311 N 
ATOM     14  C   LIG d   1       1.662  77.340 117.185  0.00  0.00     0.210 C 
ATOM     15  C   LIG d   1       3.170  77.331 116.916  0.00  0.00     0.109 C 
ATOM     16  O   LIG d   1       1.228  77.678 118.297  0.00  0.00    -0.276 OA
ATOM     17  H   LIG d   1       1.344  76.644 115.314  0.00  0.00     0.149 HD
ENDBRANCH   6  13
BRANCH   5  18
ATOM     18  N   LIG d   1      -0.731  74.505 117.042  0.00  0.00     0.381 N 
ATOM     19  H   LIG d   1      -1.266  74.675 117.871  0.00  0.00    -0.090 HD
ATOM     20  H   LIG d   1       0.240  74.647 117.259  0.00  0.00    -0.090 HD
ATOM     21  H   LIG d   1      -0.877  73.570 116.731  0.00  0.00    -0.090 HD
ENDBRANCH   5  18
BRANCH   3  22
ATOM     22  C   LIG d   1      -4.396  76.248 114.499  0.00  0.00     0.382 C 
ATOM     23  O   LIG d   1      -5.318  75.713 115.161  0.00  0.00    -0.241 OA
ATOM     24  O   LIG d   1      -4.585  76.527 113.300  0.00  0.00    -0.241 OA
ENDBRANCH   3  22
TORSDOF 7
ENDMDL
MODEL 9
REMARK VINA RESULT:      -4.2      2.497      5.644
REMARK  7 active torsions:
REMARK  status: ('A' for Active; 'I' for Inactive)
REMARK    1  A    between atoms: C_2  and  C_3 
REMARK    2  A    between atoms: C_3  and  O_6 
REMARK    3  A    between atoms: C_3  and  C_4 
REMARK    4  A    between atoms: C_7  and  O_6 
REMARK    5  A    between atoms: C_9  and  C_10 
REMARK    6  A    between atoms: N_15  and  C_14 
REMARK    7  A    between atoms: N_20  and  C_19 
REMARK       I    between atoms: C_22  and  N_20 
ROOT
ATOM      1  C   LIG d   1      -1.873  80.559 114.504  0.00  0.00     0.161 C 
ATOM      2  C   LIG d   1      -2.549  79.367 114.815  0.00  0.00     0.016 C 
ATOM      3  C   LIG d   1      -2.680  78.288 113.911  0.00  0.00     0.038 C 
ATOM      4  C   LIG d   1      -2.011  78.268 112.678  0.00  0.00     0.028 C 
ATOM      5  C   LIG d   1      -1.733  79.658 112.117  0.00  0.00    -0.047 C 
ATOM      6  C   LIG d   1      -1.041  80.510 113.205  0.00  0.00     0.091 C 
ENDROOT
BRANCH   1   7
ATOM      7  O   LIG d   1      -1.044  80.955 115.615  0.00  0.00    -0.368 OA
BRANCH   7   8
ATOM      8  C   LIG d   1      -0.979  80.026 116.724  0.00  0.00     0.119 C 
BRANCH   8   9
ATOM      9  C   LIG d   1      -1.320  80.810 118.006  0.00  0.00     0.028 C 
ATOM     10  C   LIG d   1      -2.835  80.907 118.249  0.00  0.00     0.006 C 
ENDBRANCH   8   9
BRANCH   8  11
ATOM     11  C   LIG d   1       0.447  79.507 116.934  0.00  0.00     0.028 C 
ATOM     12  C   LIG d   1       0.579  78.613 118.177  0.00  0.00     0.006 C 
ENDBRANCH   8  11
ENDBRANCH   7   8
ENDBRANCH   1   7
BRANCH   6  13
ATOM     13  N   LIG d   1      -0.810  81.911 112.766  0.00  0.00    -0.311 N 
ATOM     14  C   LIG d   1       0.330  82.330 112.220  0.00  0.00     0.210 C 
ATOM     15  C   LIG d   1       0.365  83.818 111.858  0.00  0.00     0.109 C 
ATOM     16  O   LIG d   1       1.303  81.603 111.971  0.00  0.00    -0.276 OA
ATOM     17  H   LIG d   1      -1.560  82.561 112.903  0.00  0.00     0.149 HD
ENDBRANCH   6  13
BRANCH   5  18
ATOM     18  N   LIG d   1      -0.912  79.493 110.903  0.00  0.00     0.381 N 
ATOM     19  H   LIG d   1      -0.437  80.349 110.696  0.00  0.00    -0.090 HD
ATOM     20  H   LIG d   1      -1.515  79.273 110.130  0.00  0.00    -0.090 HD
ATOM     21  H   LIG d   1      -0.250  78.761 111.036  0.00  0.00    -0.090 HD
ENDBRANCH   5  18
BRANCH   3  22
ATOM     22  C   LIG d   1      -3.522  77.231 114.220  0.00  0.00     0.382 C 
ATOM     23  O   LIG d   1      -4.253  76.730 113.332  0.00  0.00    -0.241 OA
ATOM     24  O   LIG d   1      -3.593  76.800 115.387  0.00  0.00    -0.241 OA
ENDBRANCH   3  22
TORSDOF 7
ENDMDL
