MODEL 1
REMARK VINA RESULT:      -4.8      0.000      0.000
REMARK  7 active torsions:
REMARK  status: ('A' for Active; 'I' for Inactive)
REMARK    1  A    between atoms: C_2  and  C_3 
REMARK    2  A    between atoms: C_3  and  O_6 
REMARK    3  A    between atoms: C_3  and  C_4 
REMARK    4  A    between atoms: C_7  and  O_6 
REMARK    5  A    between atoms: C_9  and  C_10 
REMARK    6  A    between atoms: N_15  and  C_14 
REMARK    7  A    between atoms: N_20  and  C_19 
REMARK       I    between atoms: C_22  and  N_20 
ROOT
ATOM      1  C   LIG d   1      -0.821  80.847 112.048  0.00  0.00     0.161 C 
ATOM      2  C   LIG d   1      -1.566  79.709 111.696  0.00  0.00     0.016 C 
ATOM      3  C   LIG d   1      -2.492  79.086 112.564  0.00  0.00     0.038 C 
ATOM      4  C   LIG d   1      -2.848  79.651 113.797  0.00  0.00     0.028 C 
ATOM      5  C   LIG d   1      -1.752  80.520 114.405  0.00  0.00    -0.047 C 
ATOM      6  C   LIG d   1      -1.277  81.542 113.347  0.00  0.00     0.091 C 
ENDROOT
BRANCH   1   7
ATOM      7  O   LIG d   1      -0.814  81.784 110.953  0.00  0.00    -0.368 OA
BRANCH   7   8
ATOM      8  C   LIG d   1       0.443  81.929 110.246  0.00  0.00     0.119 C 
BRANCH   8   9
ATOM      9  C   LIG d   1       1.480  81.038 110.957  0.00  0.00     0.028 C 
ATOM     10  C   LIG d   1       2.670  81.845 111.503  0.00  0.00     0.006 C 
ENDBRANCH   8   9
BRANCH   8  11
ATOM     11  C   LIG d   1       0.986  83.356 110.363  0.00  0.00     0.028 C 
ATOM     12  C   LIG d   1      -0.121  84.421 110.322  0.00  0.00     0.006 C 
ENDBRANCH   8  11
ENDBRANCH   7   8
ENDBRANCH   1   7
BRANCH   6  13
ATOM     13  N   LIG d   1      -0.147  82.376 113.832  0.00  0.00    -0.311 N 
ATOM     14  C   LIG d   1      -0.206  83.703 113.935  0.00  0.00     0.210 C 
ATOM     15  C   LIG d   1       1.078  84.370 114.438  0.00  0.00     0.109 C 
ATOM     16  O   LIG d   1      -1.211  84.387 113.689  0.00  0.00    -0.276 OA
ATOM     17  H   LIG d   1       0.697  81.900 114.084  0.00  0.00     0.149 HD
ENDBRANCH   6  13
BRANCH   5  18
ATOM     18  N   LIG d   1      -2.306  81.154 115.616  0.00  0.00     0.381 N 
ATOM     19  H   LIG d   1      -2.360  80.483 116.355  0.00  0.00    -0.090 HD
ATOM     20  H   LIG d   1      -3.235  81.480 115.416  0.00  0.00    -0.090 HD
ATOM     21  H   LIG d   1      -1.731  81.919 115.893  0.00  0.00    -0.090 HD
ENDBRANCH   5  18
BRANCH   3  22
ATOM     22  C   LIG d   1      -3.042  77.861 112.217  0.00  0.00     0.382 C 
ATOM     23  O   LIG d   1      -3.058  77.499 111.016  0.00  0.00    -0.241 OA
ATOM     24  O   LIG d   1      -3.562  77.134 113.084  0.00  0.00    -0.241 OA
ENDBRANCH   3  22
TORSDOF 7
ENDMDL
MODEL 2
REMARK VINA RESULT:      -4.7      3.496      7.098
REMARK  7 active torsions:
REMARK  status: ('A' for Active; 'I' for Inactive)
REMARK    1  A    between atoms: C_2  and  C_3 
REMARK    2  A    between atoms: C_3  and  O_6 
REMARK    3  A    between atoms: C_3  and  C_4 
REMARK    4  A    between atoms: C_7  and  O_6 
REMARK    5  A    between atoms: C_9  and  C_10 
REMARK    6  A    between atoms: N_15  and  C_14 
REMARK    7  A    between atoms: N_20  and  C_19 
REMARK       I    between atoms: C_22  and  N_20 
ROOT
ATOM      1  C   LIG d   1      -2.242  78.971 115.199  0.00  0.00     0.161 C 
ATOM      2  C   LIG d   1      -2.446  80.307 114.814  0.00  0.00     0.016 C 
ATOM      3  C   LIG d   1      -2.644  80.709 113.473  0.00  0.00     0.038 C 
ATOM      4  C   LIG d   1      -2.804  79.778 112.436  0.00  0.00     0.028 C 
ATOM      5  C   LIG d   1      -2.104  78.449 112.702  0.00  0.00    -0.047 C 
ATOM      6  C   LIG d   1      -2.524  77.930 114.096  0.00  0.00     0.091 C 
ENDROOT
BRANCH   1   7
ATOM      7  O   LIG d   1      -3.022  78.677 116.376  0.00  0.00    -0.368 OA
BRANCH   7   8
ATOM      8  C   LIG d   1      -4.410  79.089 116.339  0.00  0.00     0.119 C 
BRANCH   8   9
ATOM      9  C   LIG d   1      -4.677  79.932 117.602  0.00  0.00     0.028 C 
ATOM     10  C   LIG d   1      -5.427  81.237 117.288  0.00  0.00     0.006 C 
ENDBRANCH   8   9
BRANCH   8  11
ATOM     11  C   LIG d   1      -5.351  77.885 116.450  0.00  0.00     0.028 C 
ATOM     12  C   LIG d   1      -4.841  76.818 117.430  0.00  0.00     0.006 C 
ENDBRANCH   8  11
ENDBRANCH   7   8
ENDBRANCH   1   7
BRANCH   6  13
ATOM     13  N   LIG d   1      -1.820  76.676 114.470  0.00  0.00    -0.311 N 
ATOM     14  C   LIG d   1      -2.443  75.516 114.666  0.00  0.00     0.210 C 
ATOM     15  C   LIG d   1      -1.531  74.351 115.065  0.00  0.00     0.109 C 
ATOM     16  O   LIG d   1      -3.660  75.332 114.516  0.00  0.00    -0.276 OA
ATOM     17  H   LIG d   1      -0.826  76.727 114.582  0.00  0.00     0.149 HD
ENDBRANCH   6  13
BRANCH   5  18
ATOM     18  N   LIG d   1      -2.466  77.528 111.608  0.00  0.00     0.381 N 
ATOM     19  H   LIG d   1      -2.245  77.946 110.726  0.00  0.00    -0.090 HD
ATOM     20  H   LIG d   1      -3.457  77.361 111.638  0.00  0.00    -0.090 HD
ATOM     21  H   LIG d   1      -1.974  76.668 111.709  0.00  0.00    -0.090 HD
ENDBRANCH   5  18
BRANCH   3  22
ATOM     22  C   LIG d   1      -2.644  82.058 113.153  0.00  0.00     0.382 C 
ATOM     23  O   LIG d   1      -3.534  82.812 113.617  0.00  0.00    -0.241 OA
ATOM     24  O   LIG d   1      -1.793  82.522 112.372  0.00  0.00    -0.241 OA
ENDBRANCH   3  22
TORSDOF 7
ENDMDL
MODEL 3
REMARK VINA RESULT:      -4.6      3.017      6.828
REMARK  7 active torsions:
REMARK  status: ('A' for Active; 'I' for Inactive)
REMARK    1  A    between atoms: C_2  and  C_3 
REMARK    2  A    between atoms: C_3  and  O_6 
REMARK    3  A    between atoms: C_3  and  C_4 
REMARK    4  A    between atoms: C_7  and  O_6 
REMARK    5  A    between atoms: C_9  and  C_10 
REMARK    6  A    between atoms: N_15  and  C_14 
REMARK    7  A    between atoms: N_20  and  C_19 
REMARK       I    between atoms: C_22  and  N_20 
ROOT
ATOM      1  C   LIG d   1      -2.931  79.733 114.888  0.00  0.00     0.161 C 
ATOM      2  C   LIG d   1      -2.576  80.958 114.298  0.00  0.00     0.016 C 
ATOM      3  C   LIG d   1      -2.201  81.087 112.941  0.00  0.00     0.038 C 
ATOM      4  C   LIG d   1      -2.301  80.018 112.039  0.00  0.00     0.028 C 
ATOM      5  C   LIG d   1      -2.171  78.651 112.702  0.00  0.00    -0.047 C 
ATOM      6  C   LIG d   1      -3.154  78.576 113.893  0.00  0.00     0.091 C 
ENDROOT
BRANCH   1   7
ATOM      7  O   LIG d   1      -4.096  79.910 115.719  0.00  0.00    -0.368 OA
BRANCH   7   8
ATOM      8  C   LIG d   1      -3.860  79.947 117.148  0.00  0.00     0.119 C 
BRANCH   8   9
ATOM      9  C   LIG d   1      -4.981  79.134 117.823  0.00  0.00     0.028 C 
ATOM     10  C   LIG d   1      -5.798  78.309 116.814  0.00  0.00     0.006 C 
ENDBRANCH   8   9
BRANCH   8  11
ATOM     11  C   LIG d   1      -4.002  81.369 117.699  0.00  0.00     0.028 C 
ATOM     12  C   LIG d   1      -2.648  82.062 117.915  0.00  0.00     0.006 C 
ENDBRANCH   8  11
ENDBRANCH   7   8
ENDBRANCH   1   7
BRANCH   6  13
ATOM     13  N   LIG d   1      -3.031  77.302 114.649  0.00  0.00    -0.311 N 
ATOM     14  C   LIG d   1      -3.794  76.236 114.417  0.00  0.00     0.210 C 
ATOM     15  C   LIG d   1      -3.517  75.032 115.324  0.00  0.00     0.109 C 
ATOM     16  O   LIG d   1      -4.654  76.161 113.526  0.00  0.00    -0.276 OA
ATOM     17  H   LIG d   1      -2.337  77.265 115.370  0.00  0.00     0.149 HD
ENDBRANCH   6  13
BRANCH   5  18
ATOM     18  N   LIG d   1      -2.432  77.629 111.671  0.00  0.00     0.381 N 
ATOM     19  H   LIG d   1      -3.203  77.912 111.101  0.00  0.00    -0.090 HD
ATOM     20  H   LIG d   1      -2.675  76.765 112.124  0.00  0.00    -0.090 HD
ATOM     21  H   LIG d   1      -1.621  77.500 111.106  0.00  0.00    -0.090 HD
ENDBRANCH   5  18
BRANCH   3  22
ATOM     22  C   LIG d   1      -1.681  82.289 112.484  0.00  0.00     0.382 C 
ATOM     23  O   LIG d   1      -1.755  83.317 113.199  0.00  0.00    -0.241 OA
ATOM     24  O   LIG d   1      -1.177  82.367 111.347  0.00  0.00    -0.241 OA
ENDBRANCH   3  22
TORSDOF 7
ENDMDL
MODEL 4
REMARK VINA RESULT:      -4.6      2.535      5.882
REMARK  7 active torsions:
REMARK  status: ('A' for Active; 'I' for Inactive)
REMARK    1  A    between atoms: C_2  and  C_3 
REMARK    2  A    between atoms: C_3  and  O_6 
REMARK    3  A    between atoms: C_3  and  C_4 
REMARK    4  A    between atoms: C_7  and  O_6 
REMARK    5  A    between atoms: C_9  and  C_10 
REMARK    6  A    between atoms: N_15  and  C_14 
REMARK    7  A    between atoms: N_20  and  C_19 
REMARK       I    between atoms: C_22  and  N_20 
ROOT
ATOM      1  C   LIG d   1       0.008  81.956 112.998  0.00  0.00     0.161 C 
ATOM      2  C   LIG d   1       0.840  82.897 112.369  0.00  0.00     0.016 C 
ATOM      3  C   LIG d   1       1.197  82.829 111.003  0.00  0.00     0.038 C 
ATOM      4  C   LIG d   1       0.619  81.894 110.131  0.00  0.00     0.028 C 
ATOM      5  C   LIG d   1       0.165  80.616 110.828  0.00  0.00    -0.047 C 
ATOM      6  C   LIG d   1      -0.721  80.993 112.038  0.00  0.00     0.091 C 
ENDROOT
BRANCH   1   7
ATOM      7  O   LIG d   1      -0.942  82.634 113.845  0.00  0.00    -0.368 OA
BRANCH   7   8
ATOM      8  C   LIG d   1      -0.800  82.410 115.269  0.00  0.00     0.119 C 
BRANCH   8   9
ATOM      9  C   LIG d   1      -2.205  82.133 115.837  0.00  0.00     0.028 C 
ATOM     10  C   LIG d   1      -3.290  82.988 115.161  0.00  0.00     0.006 C 
ENDBRANCH   8   9
BRANCH   8  11
ATOM     11  C   LIG d   1      -0.314  83.674 115.985  0.00  0.00     0.028 C 
ATOM     12  C   LIG d   1      -0.317  83.530 117.515  0.00  0.00     0.006 C 
ENDBRANCH   8  11
ENDBRANCH   7   8
ENDBRANCH   1   7
BRANCH   6  13
ATOM     13  N   LIG d   1      -1.139  79.804 112.826  0.00  0.00    -0.311 N 
ATOM     14  C   LIG d   1      -2.406  79.544 113.143  0.00  0.00     0.210 C 
ATOM     15  C   LIG d   1      -2.617  78.277 113.978  0.00  0.00     0.109 C 
ATOM     16  O   LIG d   1      -3.379  80.224 112.784  0.00  0.00    -0.276 OA
ATOM     17  H   LIG d   1      -0.417  79.182 113.131  0.00  0.00     0.149 HD
ENDBRANCH   6  13
BRANCH   5  18
ATOM     18  N   LIG d   1      -0.541  79.791 109.830  0.00  0.00     0.381 N 
ATOM     19  H   LIG d   1       0.007  78.983 109.611  0.00  0.00    -0.090 HD
ATOM     20  H   LIG d   1      -0.661  80.328 108.990  0.00  0.00    -0.090 HD
ATOM     21  H   LIG d   1      -1.429  79.512 110.185  0.00  0.00    -0.090 HD
ENDBRANCH   5  18
BRANCH   3  22
ATOM     22  C   LIG d   1       2.172  83.680 110.504  0.00  0.00     0.382 C 
ATOM     23  O   LIG d   1       3.329  83.658 110.988  0.00  0.00    -0.241 OA
ATOM     24  O   LIG d   1       1.897  84.499 109.607  0.00  0.00    -0.241 OA
ENDBRANCH   3  22
TORSDOF 7
ENDMDL
MODEL 5
REMARK VINA RESULT:      -4.6      2.495      4.444
REMARK  7 active torsions:
REMARK  status: ('A' for Active; 'I' for Inactive)
REMARK    1  A    between atoms: C_2  and  C_3 
REMARK    2  A    between atoms: C_3  and  O_6 
REMARK    3  A    between atoms: C_3  and  C_4 
REMARK    4  A    between atoms: C_7  and  O_6 
REMARK    5  A    between atoms: C_9  and  C_10 
REMARK    6  A    between atoms: N_15  and  C_14 
REMARK    7  A    between atoms: N_20  and  C_19 
REMARK       I    between atoms: C_22  and  N_20 
ROOT
ATOM      1  C   LIG d   1      -2.140  80.011 113.882  0.00  0.00     0.161 C 
ATOM      2  C   LIG d   1      -2.763  78.870 114.414  0.00  0.00     0.016 C 
ATOM      3  C   LIG d   1      -3.047  77.712 113.653  0.00  0.00     0.038 C 
ATOM      4  C   LIG d   1      -2.587  77.559 112.337  0.00  0.00     0.028 C 
ATOM      5  C   LIG d   1      -2.397  78.883 111.604  0.00  0.00    -0.047 C 
ATOM      6  C   LIG d   1      -1.532  79.820 112.477  0.00  0.00     0.091 C 
ENDROOT
BRANCH   1   7
ATOM      7  O   LIG d   1      -1.140  80.494 114.801  0.00  0.00    -0.368 OA
BRANCH   7   8
ATOM      8  C   LIG d   1      -1.588  81.463 115.780  0.00  0.00     0.119 C 
BRANCH   8   9
ATOM      9  C   LIG d   1      -1.931  82.761 115.024  0.00  0.00     0.028 C 
ATOM     10  C   LIG d   1      -3.375  83.225 115.280  0.00  0.00     0.006 C 
ENDBRANCH   8   9
BRANCH   8  11
ATOM     11  C   LIG d   1      -0.461  81.842 116.745  0.00  0.00     0.028 C 
ATOM     12  C   LIG d   1      -0.968  82.579 117.994  0.00  0.00     0.006 C 
ENDBRANCH   8  11
ENDBRANCH   7   8
ENDBRANCH   1   7
BRANCH   6  13
ATOM     13  N   LIG d   1      -1.367  81.167 111.872  0.00  0.00    -0.311 N 
ATOM     14  C   LIG d   1      -0.195  81.647 111.460  0.00  0.00     0.210 C 
ATOM     15  C   LIG d   1      -0.244  83.066 110.884  0.00  0.00     0.109 C 
ATOM     16  O   LIG d   1       0.875  81.021 111.486  0.00  0.00    -0.276 OA
ATOM     17  H   LIG d   1      -2.189  81.731 111.783  0.00  0.00     0.149 HD
ENDBRANCH   6  13
BRANCH   5  18
ATOM     18  N   LIG d   1      -1.785  78.584 110.295  0.00  0.00     0.381 N 
ATOM     19  H   LIG d   1      -1.540  77.615 110.250  0.00  0.00    -0.090 HD
ATOM     20  H   LIG d   1      -0.945  79.127 110.198  0.00  0.00    -0.090 HD
ATOM     21  H   LIG d   1      -2.421  78.808 109.562  0.00  0.00    -0.090 HD
ENDBRANCH   5  18
BRANCH   3  22
ATOM     22  C   LIG d   1      -3.834  76.708 114.197  0.00  0.00     0.382 C 
ATOM     23  O   LIG d   1      -4.725  76.164 113.501  0.00  0.00    -0.241 OA
ATOM     24  O   LIG d   1      -3.693  76.371 115.388  0.00  0.00    -0.241 OA
ENDBRANCH   3  22
TORSDOF 7
ENDMDL
MODEL 6
REMARK VINA RESULT:      -4.1      2.615      4.760
REMARK  7 active torsions:
REMARK  status: ('A' for Active; 'I' for Inactive)
REMARK    1  A    between atoms: C_2  and  C_3 
REMARK    2  A    between atoms: C_3  and  O_6 
REMARK    3  A    between atoms: C_3  and  C_4 
REMARK    4  A    between atoms: C_7  and  O_6 
REMARK    5  A    between atoms: C_9  and  C_10 
REMARK    6  A    between atoms: N_15  and  C_14 
REMARK    7  A    between atoms: N_20  and  C_19 
REMARK       I    between atoms: C_22  and  N_20 
ROOT
ATOM      1  C   LIG d   1      -2.002  80.042 114.858  0.00  0.00     0.161 C 
ATOM      2  C   LIG d   1      -2.486  78.899 114.199  0.00  0.00     0.016 C 
ATOM      3  C   LIG d   1      -2.508  78.763 112.792  0.00  0.00     0.038 C 
ATOM      4  C   LIG d   1      -1.905  79.706 111.947  0.00  0.00     0.028 C 
ATOM      5  C   LIG d   1      -1.855  81.109 112.541  0.00  0.00    -0.047 C 
ATOM      6  C   LIG d   1      -1.237  81.033 113.956  0.00  0.00     0.091 C 
ENDROOT
BRANCH   1   7
ATOM      7  O   LIG d   1      -1.183  79.650 115.978  0.00  0.00    -0.368 OA
BRANCH   7   8
ATOM      8  C   LIG d   1      -1.746  79.887 117.292  0.00  0.00     0.119 C 
BRANCH   8   9
ATOM      9  C   LIG d   1      -1.987  78.512 117.946  0.00  0.00     0.028 C 
ATOM     10  C   LIG d   1      -1.069  77.420 117.374  0.00  0.00     0.006 C 
ENDBRANCH   8   9
BRANCH   8  11
ATOM     11  C   LIG d   1      -3.128  80.539 117.197  0.00  0.00     0.028 C 
ATOM     12  C   LIG d   1      -3.265  81.778 118.097  0.00  0.00     0.006 C 
ENDBRANCH   8  11
ENDBRANCH   7   8
ENDBRANCH   1   7
BRANCH   6  13
ATOM     13  N   LIG d   1      -1.229  82.351 114.642  0.00  0.00    -0.311 N 
ATOM     14  C   LIG d   1      -2.307  83.124 114.758  0.00  0.00     0.210 C 
ATOM     15  C   LIG d   1      -2.076  84.453 115.485  0.00  0.00     0.109 C 
ATOM     16  O   LIG d   1      -3.441  82.822 114.356  0.00  0.00    -0.276 OA
ATOM     17  H   LIG d   1      -0.357  82.660 115.026  0.00  0.00     0.149 HD
ENDBRANCH   6  13
BRANCH   5  18
ATOM     18  N   LIG d   1      -1.080  81.958 111.617  0.00  0.00     0.381 N 
ATOM     19  H   LIG d   1      -1.316  82.919 111.762  0.00  0.00    -0.090 HD
ATOM     20  H   LIG d   1      -1.321  81.713 110.672  0.00  0.00    -0.090 HD
ATOM     21  H   LIG d   1      -0.105  81.821 111.765  0.00  0.00    -0.090 HD
ENDBRANCH   5  18
BRANCH   3  22
ATOM     22  C   LIG d   1      -3.176  77.693 112.216  0.00  0.00     0.382 C 
ATOM     23  O   LIG d   1      -3.834  76.904 112.935  0.00  0.00    -0.241 OA
ATOM     24  O   LIG d   1      -3.091  77.481 110.991  0.00  0.00    -0.241 OA
ENDBRANCH   3  22
TORSDOF 7
ENDMDL
MODEL 7
REMARK VINA RESULT:      -4.0      2.441      4.424
REMARK  7 active torsions:
REMARK  status: ('A' for Active; 'I' for Inactive)
REMARK    1  A    between atoms: C_2  and  C_3 
REMARK    2  A    between atoms: C_3  and  O_6 
REMARK    3  A    between atoms: C_3  and  C_4 
REMARK    4  A    between atoms: C_7  and  O_6 
REMARK    5  A    between atoms: C_9  and  C_10 
REMARK    6  A    between atoms: N_15  and  C_14 
REMARK    7  A    between atoms: N_20  and  C_19 
REMARK       I    between atoms: C_22  and  N_20 
ROOT
ATOM      1  C   LIG d   1      -2.381  80.135 113.962  0.00  0.00     0.161 C 
ATOM      2  C   LIG d   1      -2.969  78.951 114.439  0.00  0.00     0.016 C 
ATOM      3  C   LIG d   1      -3.084  77.773 113.666  0.00  0.00     0.038 C 
ATOM      4  C   LIG d   1      -2.479  77.651 112.406  0.00  0.00     0.028 C 
ATOM      5  C   LIG d   1      -2.313  78.983 111.682  0.00  0.00    -0.047 C 
ATOM      6  C   LIG d   1      -1.617  79.986 112.630  0.00  0.00     0.091 C 
ENDROOT
BRANCH   1   7
ATOM      7  O   LIG d   1      -1.521  80.695 114.974  0.00  0.00    -0.368 OA
BRANCH   7   8
ATOM      8  C   LIG d   1      -0.735  79.748 115.738  0.00  0.00     0.119 C 
BRANCH   8   9
ATOM      9  C   LIG d   1      -1.322  79.704 117.163  0.00  0.00     0.028 C 
ATOM     10  C   LIG d   1      -1.318  78.284 117.754  0.00  0.00     0.006 C 
ENDBRANCH   8   9
BRANCH   8  11
ATOM     11  C   LIG d   1       0.708  80.231 115.909  0.00  0.00     0.028 C 
ATOM     12  C   LIG d   1       1.329  80.730 114.594  0.00  0.00     0.006 C 
ENDBRANCH   8  11
ENDBRANCH   7   8
ENDBRANCH   1   7
BRANCH   6  13
ATOM     13  N   LIG d   1      -1.492  81.340 112.030  0.00  0.00    -0.311 N 
ATOM     14  C   LIG d   1      -0.391  81.770 111.415  0.00  0.00     0.210 C 
ATOM     15  C   LIG d   1      -0.466  83.206 110.885  0.00  0.00     0.109 C 
ATOM     16  O   LIG d   1       0.628  81.089 111.231  0.00  0.00    -0.276 OA
ATOM     17  H   LIG d   1      -2.283  81.948 112.106  0.00  0.00     0.149 HD
ENDBRANCH   6  13
BRANCH   5  18
ATOM     18  N   LIG d   1      -1.548  78.727 110.448  0.00  0.00     0.381 N 
ATOM     19  H   LIG d   1      -0.814  78.072 110.633  0.00  0.00    -0.090 HD
ATOM     20  H   LIG d   1      -1.131  79.588 110.139  0.00  0.00    -0.090 HD
ATOM     21  H   LIG d   1      -2.151  78.369 109.740  0.00  0.00    -0.090 HD
ENDBRANCH   5  18
BRANCH   3  22
ATOM     22  C   LIG d   1      -3.845  76.714 114.136  0.00  0.00     0.382 C 
ATOM     23  O   LIG d   1      -4.780  76.255 113.437  0.00  0.00    -0.241 OA
ATOM     24  O   LIG d   1      -3.637  76.241 115.270  0.00  0.00    -0.241 OA
ENDBRANCH   3  22
TORSDOF 7
ENDMDL
MODEL 8
REMARK VINA RESULT:      -4.0      2.626      5.011
REMARK  7 active torsions:
REMARK  status: ('A' for Active; 'I' for Inactive)
REMARK    1  A    between atoms: C_2  and  C_3 
REMARK    2  A    between atoms: C_3  and  O_6 
REMARK    3  A    between atoms: C_3  and  C_4 
REMARK    4  A    between atoms: C_7  and  O_6 
REMARK    5  A    between atoms: C_9  and  C_10 
REMARK    6  A    between atoms: N_15  and  C_14 
REMARK    7  A    between atoms: N_20  and  C_19 
REMARK       I    between atoms: C_22  and  N_20 
ROOT
ATOM      1  C   LIG d   1      -2.081  80.106 114.864  0.00  0.00     0.161 C 
ATOM      2  C   LIG d   1      -2.553  78.954 114.213  0.00  0.00     0.016 C 
ATOM      3  C   LIG d   1      -2.527  78.787 112.810  0.00  0.00     0.038 C 
ATOM      4  C   LIG d   1      -1.884  79.705 111.966  0.00  0.00     0.028 C 
ATOM      5  C   LIG d   1      -1.842  81.121 112.531  0.00  0.00    -0.047 C 
ATOM      6  C   LIG d   1      -1.275  81.070 113.969  0.00  0.00     0.091 C 
ENDROOT
BRANCH   1   7
ATOM      7  O   LIG d   1      -1.307  79.732 116.021  0.00  0.00    -0.368 OA
BRANCH   7   8
ATOM      8  C   LIG d   1      -2.054  79.507 117.242  0.00  0.00     0.119 C 
BRANCH   8   9
ATOM      9  C   LIG d   1      -2.494  80.884 117.775  0.00  0.00     0.028 C 
ATOM     10  C   LIG d   1      -1.302  81.764 118.185  0.00  0.00     0.006 C 
ENDBRANCH   8   9
BRANCH   8  11
ATOM     11  C   LIG d   1      -1.164  78.914 118.338  0.00  0.00     0.028 C 
ATOM     12  C   LIG d   1      -1.402  77.411 118.551  0.00  0.00     0.006 C 
ENDBRANCH   8  11
ENDBRANCH   7   8
ENDBRANCH   1   7
BRANCH   6  13
ATOM     13  N   LIG d   1      -1.278  82.403 114.626  0.00  0.00    -0.311 N 
ATOM     14  C   LIG d   1      -2.372  83.150 114.765  0.00  0.00     0.210 C 
ATOM     15  C   LIG d   1      -2.151  84.499 115.455  0.00  0.00     0.109 C 
ATOM     16  O   LIG d   1      -3.511  82.809 114.411  0.00  0.00    -0.276 OA
ATOM     17  H   LIG d   1      -0.402  82.744 114.971  0.00  0.00     0.149 HD
ENDBRANCH   6  13
BRANCH   5  18
ATOM     18  N   LIG d   1      -1.026  81.942 111.617  0.00  0.00     0.381 N 
ATOM     19  H   LIG d   1      -0.999  81.516 110.712  0.00  0.00    -0.090 HD
ATOM     20  H   LIG d   1      -0.087  81.989 111.972  0.00  0.00    -0.090 HD
ATOM     21  H   LIG d   1      -1.409  82.859 111.548  0.00  0.00    -0.090 HD
ENDBRANCH   5  18
BRANCH   3  22
ATOM     22  C   LIG d   1      -3.184  77.711 112.233  0.00  0.00     0.382 C 
ATOM     23  O   LIG d   1      -3.865  76.937 112.947  0.00  0.00    -0.241 OA
ATOM     24  O   LIG d   1      -3.068  77.479 111.015  0.00  0.00    -0.241 OA
ENDBRANCH   3  22
TORSDOF 7
ENDMDL
MODEL 9
REMARK VINA RESULT:      -3.9      2.722      6.098
REMARK  7 active torsions:
REMARK  status: ('A' for Active; 'I' for Inactive)
REMARK    1  A    between atoms: C_2  and  C_3 
REMARK    2  A    between atoms: C_3  and  O_6 
REMARK    3  A    between atoms: C_3  and  C_4 
REMARK    4  A    between atoms: C_7  and  O_6 
REMARK    5  A    between atoms: C_9  and  C_10 
REMARK    6  A    between atoms: N_15  and  C_14 
REMARK    7  A    between atoms: N_20  and  C_19 
REMARK       I    between atoms: C_22  and  N_20 
ROOT
ATOM      1  C   LIG d   1       0.242  80.952 114.500  0.00  0.00     0.161 C 
ATOM      2  C   LIG d   1       1.165  81.999 114.338  0.00  0.00     0.016 C 
ATOM      3  C   LIG d   1       1.413  82.634 113.100  0.00  0.00     0.038 C 
ATOM      4  C   LIG d   1       0.640  82.364 111.961  0.00  0.00     0.028 C 
ATOM      5  C   LIG d   1       0.042  80.961 111.952  0.00  0.00    -0.047 C 
ATOM      6  C   LIG d   1      -0.690  80.720 113.292  0.00  0.00     0.091 C 
ENDROOT
BRANCH   1   7
ATOM      7  O   LIG d   1      -0.532  81.163 115.697  0.00  0.00    -0.368 OA
BRANCH   7   8
ATOM      8  C   LIG d   1      -1.778  81.883 115.532  0.00  0.00     0.119 C 
BRANCH   8   9
ATOM      9  C   LIG d   1      -1.675  83.182 116.354  0.00  0.00     0.028 C 
ATOM     10  C   LIG d   1      -0.636  83.080 117.484  0.00  0.00     0.006 C 
ENDBRANCH   8   9
BRANCH   8  11
ATOM     11  C   LIG d   1      -2.953  81.111 116.139  0.00  0.00     0.028 C 
ATOM     12  C   LIG d   1      -4.100  82.029 116.589  0.00  0.00     0.006 C 
ENDBRANCH   8  11
ENDBRANCH   7   8
ENDBRANCH   1   7
BRANCH   6  13
ATOM     13  N   LIG d   1      -1.232  79.340 113.401  0.00  0.00    -0.311 N 
ATOM     14  C   LIG d   1      -2.498  79.026 113.128  0.00  0.00     0.210 C 
ATOM     15  C   LIG d   1      -2.854  77.549 113.325  0.00  0.00     0.109 C 
ATOM     16  O   LIG d   1      -3.350  79.824 112.712  0.00  0.00    -0.276 OA
ATOM     17  H   LIG d   1      -0.601  78.624 113.702  0.00  0.00     0.149 HD
ENDBRANCH   6  13
BRANCH   5  18
ATOM     18  N   LIG d   1      -0.849  80.864 110.781  0.00  0.00     0.381 N 
ATOM     19  H   LIG d   1      -0.590  81.549 110.100  0.00  0.00    -0.090 HD
ATOM     20  H   LIG d   1      -1.792  81.051 111.073  0.00  0.00    -0.090 HD
ATOM     21  H   LIG d   1      -0.791  79.952 110.384  0.00  0.00    -0.090 HD
ENDBRANCH   5  18
BRANCH   3  22
ATOM     22  C   LIG d   1       2.471  83.522 112.982  0.00  0.00     0.382 C 
ATOM     23  O   LIG d   1       3.112  83.872 114.003  0.00  0.00    -0.241 OA
ATOM     24  O   LIG d   1       2.765  84.012 111.876  0.00  0.00    -0.241 OA
ENDBRANCH   3  22
TORSDOF 7
ENDMDL
