MODEL 1
REMARK VINA RESULT:      -5.3      0.000      0.000
REMARK  7 active torsions:
REMARK  status: ('A' for Active; 'I' for Inactive)
REMARK    1  A    between atoms: C_2  and  C_3 
REMARK    2  A    between atoms: C_3  and  O_6 
REMARK    3  A    between atoms: C_3  and  C_4 
REMARK    4  A    between atoms: C_7  and  O_6 
REMARK    5  A    between atoms: C_9  and  C_10 
REMARK    6  A    between atoms: N_15  and  C_14 
REMARK    7  A    between atoms: N_20  and  C_19 
REMARK       I    between atoms: C_22  and  N_20 
ROOT
ATOM      1  C   LIG d   1      -0.269  82.973 111.945  0.00  0.00     0.161 C 
ATOM      2  C   LIG d   1      -1.433  82.476 112.555  0.00  0.00     0.016 C 
ATOM      3  C   LIG d   1      -1.909  81.158 112.365  0.00  0.00     0.038 C 
ATOM      4  C   LIG d   1      -1.166  80.195 111.666  0.00  0.00     0.028 C 
ATOM      5  C   LIG d   1      -0.237  80.792 110.614  0.00  0.00    -0.047 C 
ATOM      6  C   LIG d   1       0.614  81.904 111.269  0.00  0.00     0.091 C 
ENDROOT
BRANCH   1   7
ATOM      7  O   LIG d   1       0.501  83.727 112.902  0.00  0.00    -0.368 OA
BRANCH   7   8
ATOM      8  C   LIG d   1       0.396  83.299 114.283  0.00  0.00     0.119 C 
BRANCH   8   9
ATOM      9  C   LIG d   1       0.598  84.543 115.169  0.00  0.00     0.028 C 
ATOM     10  C   LIG d   1       0.800  84.181 116.651  0.00  0.00     0.006 C 
ENDBRANCH   8   9
BRANCH   8  11
ATOM     11  C   LIG d   1       1.532  82.344 114.658  0.00  0.00     0.028 C 
ATOM     12  C   LIG d   1       1.034  80.932 115.006  0.00  0.00     0.006 C 
ENDBRANCH   8  11
ENDBRANCH   7   8
ENDBRANCH   1   7
BRANCH   6  13
ATOM     13  N   LIG d   1       1.490  82.598 110.289  0.00  0.00    -0.311 N 
ATOM     14  C   LIG d   1       2.715  83.033 110.580  0.00  0.00     0.210 C 
ATOM     15  C   LIG d   1       3.440  83.740 109.431  0.00  0.00     0.109 C 
ATOM     16  O   LIG d   1       3.281  82.873 111.672  0.00  0.00    -0.276 OA
ATOM     17  H   LIG d   1       1.121  82.743 109.369  0.00  0.00     0.149 HD
ENDBRANCH   6  13
BRANCH   5  18
ATOM     18  N   LIG d   1       0.575  79.692 110.060  0.00  0.00     0.381 N 
ATOM     19  H   LIG d   1       1.318  80.066 109.505  0.00  0.00    -0.090 HD
ATOM     20  H   LIG d   1      -0.007  79.125 109.468  0.00  0.00    -0.090 HD
ATOM     21  H   LIG d   1       0.949  79.139 110.799  0.00  0.00    -0.090 HD
ENDBRANCH   5  18
BRANCH   3  22
ATOM     22  C   LIG d   1      -3.161  80.804 112.844  0.00  0.00     0.382 C 
ATOM     23  O   LIG d   1      -4.060  81.672 112.950  0.00  0.00    -0.241 OA
ATOM     24  O   LIG d   1      -3.389  79.636 113.212  0.00  0.00    -0.241 OA
ENDBRANCH   3  22
TORSDOF 7
ENDMDL
MODEL 2
REMARK VINA RESULT:      -5.3      1.921      2.605
REMARK  7 active torsions:
REMARK  status: ('A' for Active; 'I' for Inactive)
REMARK    1  A    between atoms: C_2  and  C_3 
REMARK    2  A    between atoms: C_3  and  O_6 
REMARK    3  A    between atoms: C_3  and  C_4 
REMARK    4  A    between atoms: C_7  and  O_6 
REMARK    5  A    between atoms: C_9  and  C_10 
REMARK    6  A    between atoms: N_15  and  C_14 
REMARK    7  A    between atoms: N_20  and  C_19 
REMARK       I    between atoms: C_22  and  N_20 
ROOT
ATOM      1  C   LIG d   1      -2.352  81.624 112.391  0.00  0.00     0.161 C 
ATOM      2  C   LIG d   1      -2.932  80.437 112.868  0.00  0.00     0.016 C 
ATOM      3  C   LIG d   1      -2.428  79.150 112.569  0.00  0.00     0.038 C 
ATOM      4  C   LIG d   1      -1.213  78.969 111.893  0.00  0.00     0.028 C 
ATOM      5  C   LIG d   1      -0.860  80.123 110.961  0.00  0.00    -0.047 C 
ATOM      6  C   LIG d   1      -0.962  81.451 111.745  0.00  0.00     0.091 C 
ENDROOT
BRANCH   1   7
ATOM      7  O   LIG d   1      -2.294  82.599 113.452  0.00  0.00    -0.368 OA
BRANCH   7   8
ATOM      8  C   LIG d   1      -1.378  82.307 114.536  0.00  0.00     0.119 C 
BRANCH   8   9
ATOM      9  C   LIG d   1      -2.190  82.329 115.846  0.00  0.00     0.028 C 
ATOM     10  C   LIG d   1      -1.310  82.601 117.077  0.00  0.00     0.006 C 
ENDBRANCH   8   9
BRANCH   8  11
ATOM     11  C   LIG d   1      -0.328  83.410 114.691  0.00  0.00     0.028 C 
ATOM     12  C   LIG d   1      -0.675  84.680 113.898  0.00  0.00     0.006 C 
ENDBRANCH   8  11
ENDBRANCH   7   8
ENDBRANCH   1   7
BRANCH   6  13
ATOM     13  N   LIG d   1      -0.714  82.638 110.885  0.00  0.00    -0.311 N 
ATOM     14  C   LIG d   1       0.482  83.206 110.748  0.00  0.00     0.210 C 
ATOM     15  C   LIG d   1       0.514  84.432 109.829  0.00  0.00     0.109 C 
ATOM     16  O   LIG d   1       1.527  82.793 111.274  0.00  0.00    -0.276 OA
ATOM     17  H   LIG d   1      -1.500  83.019 110.397  0.00  0.00     0.149 HD
ENDBRANCH   6  13
BRANCH   5  18
ATOM     18  N   LIG d   1       0.492  79.868 110.428  0.00  0.00     0.381 N 
ATOM     19  H   LIG d   1       1.162  79.912 111.170  0.00  0.00    -0.090 HD
ATOM     20  H   LIG d   1       0.717  80.582 109.758  0.00  0.00    -0.090 HD
ATOM     21  H   LIG d   1       0.525  78.972 109.994  0.00  0.00    -0.090 HD
ENDBRANCH   5  18
BRANCH   3  22
ATOM     22  C   LIG d   1      -3.164  78.027 112.913  0.00  0.00     0.382 C 
ATOM     23  O   LIG d   1      -2.986  77.478 114.027  0.00  0.00    -0.241 OA
ATOM     24  O   LIG d   1      -3.973  77.530 112.107  0.00  0.00    -0.241 OA
ENDBRANCH   3  22
TORSDOF 7
ENDMDL
MODEL 3
REMARK VINA RESULT:      -5.3      2.447      4.432
REMARK  7 active torsions:
REMARK  status: ('A' for Active; 'I' for Inactive)
REMARK    1  A    between atoms: C_2  and  C_3 
REMARK    2  A    between atoms: C_3  and  O_6 
REMARK    3  A    between atoms: C_3  and  C_4 
REMARK    4  A    between atoms: C_7  and  O_6 
REMARK    5  A    between atoms: C_9  and  C_10 
REMARK    6  A    between atoms: N_15  and  C_14 
REMARK    7  A    between atoms: N_20  and  C_19 
REMARK       I    between atoms: C_22  and  N_20 
ROOT
ATOM      1  C   LIG d   1      -0.603  80.765 111.664  0.00  0.00     0.161 C 
ATOM      2  C   LIG d   1      -1.368  79.588 111.632  0.00  0.00     0.016 C 
ATOM      3  C   LIG d   1      -2.196  79.169 112.699  0.00  0.00     0.038 C 
ATOM      4  C   LIG d   1      -2.432  79.982 113.817  0.00  0.00     0.028 C 
ATOM      5  C   LIG d   1      -1.289  80.945 114.118  0.00  0.00    -0.047 C 
ATOM      6  C   LIG d   1      -0.934  81.720 112.830  0.00  0.00     0.091 C 
ENDROOT
BRANCH   1   7
ATOM      7  O   LIG d   1      -0.715  81.456 110.403  0.00  0.00    -0.368 OA
BRANCH   7   8
ATOM      8  C   LIG d   1       0.466  81.446 109.564  0.00  0.00     0.119 C 
BRANCH   8   9
ATOM      9  C   LIG d   1       1.532  80.590 110.275  0.00  0.00     0.028 C 
ATOM     10  C   LIG d   1       1.974  79.383 109.430  0.00  0.00     0.006 C 
ENDBRANCH   8   9
BRANCH   8  11
ATOM     11  C   LIG d   1       1.080  82.845 109.449  0.00  0.00     0.028 C 
ATOM     12  C   LIG d   1       2.524  82.907 109.972  0.00  0.00     0.006 C 
ENDBRANCH   8  11
ENDBRANCH   7   8
ENDBRANCH   1   7
BRANCH   6  13
ATOM     13  N   LIG d   1       0.232  82.624 113.015  0.00  0.00    -0.311 N 
ATOM     14  C   LIG d   1       0.184  83.936 112.791  0.00  0.00     0.210 C 
ATOM     15  C   LIG d   1       1.503  84.680 113.025  0.00  0.00     0.109 C 
ATOM     16  O   LIG d   1      -0.833  84.560 112.453  0.00  0.00    -0.276 OA
ATOM     17  H   LIG d   1       1.089  82.206 113.318  0.00  0.00     0.149 HD
ENDBRANCH   6  13
BRANCH   5  18
ATOM     18  N   LIG d   1      -1.725  81.823 115.220  0.00  0.00     0.381 N 
ATOM     19  H   LIG d   1      -0.943  82.339 115.572  0.00  0.00    -0.090 HD
ATOM     20  H   LIG d   1      -2.088  81.255 115.965  0.00  0.00    -0.090 HD
ATOM     21  H   LIG d   1      -2.429  82.451 114.898  0.00  0.00    -0.090 HD
ENDBRANCH   5  18
BRANCH   3  22
ATOM     22  C   LIG d   1      -2.766  77.905 112.670  0.00  0.00     0.382 C 
ATOM     23  O   LIG d   1      -2.184  76.942 113.226  0.00  0.00    -0.241 OA
ATOM     24  O   LIG d   1      -3.833  77.707 112.059  0.00  0.00    -0.241 OA
ENDBRANCH   3  22
TORSDOF 7
ENDMDL
MODEL 4
REMARK VINA RESULT:      -5.1      1.718      4.842
REMARK  7 active torsions:
REMARK  status: ('A' for Active; 'I' for Inactive)
REMARK    1  A    between atoms: C_2  and  C_3 
REMARK    2  A    between atoms: C_3  and  O_6 
REMARK    3  A    between atoms: C_3  and  C_4 
REMARK    4  A    between atoms: C_7  and  O_6 
REMARK    5  A    between atoms: C_9  and  C_10 
REMARK    6  A    between atoms: N_15  and  C_14 
REMARK    7  A    between atoms: N_20  and  C_19 
REMARK       I    between atoms: C_22  and  N_20 
ROOT
ATOM      1  C   LIG d   1       0.383  80.936 113.284  0.00  0.00     0.161 C 
ATOM      2  C   LIG d   1       1.362  81.886 112.949  0.00  0.00     0.016 C 
ATOM      3  C   LIG d   1       1.661  82.259 111.618  0.00  0.00     0.038 C 
ATOM      4  C   LIG d   1       0.892  81.814 110.533  0.00  0.00     0.028 C 
ATOM      5  C   LIG d   1       0.222  80.466 110.778  0.00  0.00    -0.047 C 
ATOM      6  C   LIG d   1      -0.542  80.522 112.120  0.00  0.00     0.091 C 
ENDROOT
BRANCH   1   7
ATOM      7  O   LIG d   1      -0.397  81.410 114.400  0.00  0.00    -0.368 OA
BRANCH   7   8
ATOM      8  C   LIG d   1      -0.022  82.703 114.936  0.00  0.00     0.119 C 
BRANCH   8   9
ATOM      9  C   LIG d   1       0.180  82.534 116.454  0.00  0.00     0.028 C 
ATOM     10  C   LIG d   1       0.399  83.878 117.170  0.00  0.00     0.006 C 
ENDBRANCH   8   9
BRANCH   8  11
ATOM     11  C   LIG d   1      -1.159  83.719 114.788  0.00  0.00     0.028 C 
ATOM     12  C   LIG d   1      -0.970  84.654 113.584  0.00  0.00     0.006 C 
ENDBRANCH   8  11
ENDBRANCH   7   8
ENDBRANCH   1   7
BRANCH   6  13
ATOM     13  N   LIG d   1      -1.157  79.217 112.477  0.00  0.00    -0.311 N 
ATOM     14  C   LIG d   1      -2.433  79.082 112.836  0.00  0.00     0.210 C 
ATOM     15  C   LIG d   1      -2.859  77.652 113.183  0.00  0.00     0.109 C 
ATOM     16  O   LIG d   1      -3.260  80.006 112.870  0.00  0.00    -0.276 OA
ATOM     17  H   LIG d   1      -0.566  78.410 112.447  0.00  0.00     0.149 HD
ENDBRANCH   6  13
BRANCH   5  18
ATOM     18  N   LIG d   1      -0.655  80.189 109.625  0.00  0.00     0.381 N 
ATOM     19  H   LIG d   1      -1.419  79.610 109.912  0.00  0.00    -0.090 HD
ATOM     20  H   LIG d   1      -0.129  79.692 108.927  0.00  0.00    -0.090 HD
ATOM     21  H   LIG d   1      -1.000  81.043 109.245  0.00  0.00    -0.090 HD
ENDBRANCH   5  18
BRANCH   3  22
ATOM     22  C   LIG d   1       2.767  83.055 111.360  0.00  0.00     0.382 C 
ATOM     23  O   LIG d   1       3.402  83.573 112.309  0.00  0.00    -0.241 OA
ATOM     24  O   LIG d   1       3.110  83.298 110.187  0.00  0.00    -0.241 OA
ENDBRANCH   3  22
TORSDOF 7
ENDMDL
MODEL 5
REMARK VINA RESULT:      -4.9      2.926      5.208
REMARK  7 active torsions:
REMARK  status: ('A' for Active; 'I' for Inactive)
REMARK    1  A    between atoms: C_2  and  C_3 
REMARK    2  A    between atoms: C_3  and  O_6 
REMARK    3  A    between atoms: C_3  and  C_4 
REMARK    4  A    between atoms: C_7  and  O_6 
REMARK    5  A    between atoms: C_9  and  C_10 
REMARK    6  A    between atoms: N_15  and  C_14 
REMARK    7  A    between atoms: N_20  and  C_19 
REMARK       I    between atoms: C_22  and  N_20 
ROOT
ATOM      1  C   LIG d   1      -1.920  80.517 114.385  0.00  0.00     0.161 C 
ATOM      2  C   LIG d   1      -1.878  81.901 114.150  0.00  0.00     0.016 C 
ATOM      3  C   LIG d   1      -1.406  82.472 112.946  0.00  0.00     0.038 C 
ATOM      4  C   LIG d   1      -1.082  81.686 111.830  0.00  0.00     0.028 C 
ATOM      5  C   LIG d   1      -0.631  80.275 112.192  0.00  0.00    -0.047 C 
ATOM      6  C   LIG d   1      -1.676  79.641 113.138  0.00  0.00     0.091 C 
ENDROOT
BRANCH   1   7
ATOM      7  O   LIG d   1      -3.171  80.165 115.008  0.00  0.00    -0.368 OA
BRANCH   7   8
ATOM      8  C   LIG d   1      -3.103  79.775 116.401  0.00  0.00     0.119 C 
BRANCH   8   9
ATOM      9  C   LIG d   1      -3.712  80.921 117.233  0.00  0.00     0.028 C 
ATOM     10  C   LIG d   1      -2.638  81.832 117.852  0.00  0.00     0.006 C 
ENDBRANCH   8   9
BRANCH   8  11
ATOM     11  C   LIG d   1      -1.651  79.657 116.876  0.00  0.00     0.028 C 
ATOM     12  C   LIG d   1      -1.267  78.221 117.266  0.00  0.00     0.006 C 
ENDBRANCH   8  11
ENDBRANCH   7   8
ENDBRANCH   1   7
BRANCH   6  13
ATOM     13  N   LIG d   1      -1.269  78.292 113.609  0.00  0.00    -0.311 N 
ATOM     14  C   LIG d   1      -2.068  77.227 113.560  0.00  0.00     0.210 C 
ATOM     15  C   LIG d   1      -1.459  75.936 114.116  0.00  0.00     0.109 C 
ATOM     16  O   LIG d   1      -3.212  77.222 113.080  0.00  0.00    -0.276 OA
ATOM     17  H   LIG d   1      -0.346  78.198 113.985  0.00  0.00     0.149 HD
ENDBRANCH   6  13
BRANCH   5  18
ATOM     18  N   LIG d   1      -0.459  79.525 110.934  0.00  0.00     0.381 N 
ATOM     19  H   LIG d   1      -1.352  79.360 110.514  0.00  0.00    -0.090 HD
ATOM     20  H   LIG d   1      -0.039  78.636 111.141  0.00  0.00    -0.090 HD
ATOM     21  H   LIG d   1       0.122  80.038 110.308  0.00  0.00    -0.090 HD
ENDBRANCH   5  18
BRANCH   3  22
ATOM     22  C   LIG d   1      -1.215  83.843 112.863  0.00  0.00     0.382 C 
ATOM     23  O   LIG d   1      -0.547  84.327 111.918  0.00  0.00    -0.241 OA
ATOM     24  O   LIG d   1      -1.664  84.597 113.746  0.00  0.00    -0.241 OA
ENDBRANCH   3  22
TORSDOF 7
ENDMDL
MODEL 6
REMARK VINA RESULT:      -4.8      3.005      5.071
REMARK  7 active torsions:
REMARK  status: ('A' for Active; 'I' for Inactive)
REMARK    1  A    between atoms: C_2  and  C_3 
REMARK    2  A    between atoms: C_3  and  O_6 
REMARK    3  A    between atoms: C_3  and  C_4 
REMARK    4  A    between atoms: C_7  and  O_6 
REMARK    5  A    between atoms: C_9  and  C_10 
REMARK    6  A    between atoms: N_15  and  C_14 
REMARK    7  A    between atoms: N_20  and  C_19 
REMARK       I    between atoms: C_22  and  N_20 
ROOT
ATOM      1  C   LIG d   1      -0.683  80.563 114.530  0.00  0.00     0.161 C 
ATOM      2  C   LIG d   1      -0.709  81.811 113.886  0.00  0.00     0.016 C 
ATOM      3  C   LIG d   1      -1.239  82.007 112.589  0.00  0.00     0.038 C 
ATOM      4  C   LIG d   1      -1.920  80.989 111.906  0.00  0.00     0.028 C 
ATOM      5  C   LIG d   1      -1.473  79.587 112.305  0.00  0.00    -0.047 C 
ATOM      6  C   LIG d   1      -1.522  79.464 113.845  0.00  0.00     0.091 C 
ENDROOT
BRANCH   1   7
ATOM      7  O   LIG d   1      -1.085  80.715 115.906  0.00  0.00    -0.368 OA
BRANCH   7   8
ATOM      8  C   LIG d   1      -1.831  81.916 116.223  0.00  0.00     0.119 C 
BRANCH   8   9
ATOM      9  C   LIG d   1      -1.208  82.526 117.494  0.00  0.00     0.028 C 
ATOM     10  C   LIG d   1      -0.155  83.600 117.175  0.00  0.00     0.006 C 
ENDBRANCH   8   9
BRANCH   8  11
ATOM     11  C   LIG d   1      -3.279  81.590 116.598  0.00  0.00     0.028 C 
ATOM     12  C   LIG d   1      -3.489  80.105 116.931  0.00  0.00     0.006 C 
ENDBRANCH   8  11
ENDBRANCH   7   8
ENDBRANCH   1   7
BRANCH   6  13
ATOM     13  N   LIG d   1      -1.020  78.150 114.325  0.00  0.00    -0.311 N 
ATOM     14  C   LIG d   1      -1.817  77.125 114.622  0.00  0.00     0.210 C 
ATOM     15  C   LIG d   1      -1.096  75.868 115.119  0.00  0.00     0.109 C 
ATOM     16  O   LIG d   1      -3.050  77.126 114.490  0.00  0.00    -0.276 OA
ATOM     17  H   LIG d   1      -0.030  78.051 114.431  0.00  0.00     0.149 HD
ENDBRANCH   6  13
BRANCH   5  18
ATOM     18  N   LIG d   1      -2.358  78.625 111.620  0.00  0.00     0.381 N 
ATOM     19  H   LIG d   1      -2.777  78.013 112.291  0.00  0.00    -0.090 HD
ATOM     20  H   LIG d   1      -1.807  78.071 110.988  0.00  0.00    -0.090 HD
ATOM     21  H   LIG d   1      -3.066  79.112 111.116  0.00  0.00    -0.090 HD
ENDBRANCH   5  18
BRANCH   3  22
ATOM     22  C   LIG d   1      -1.053  83.222 111.948  0.00  0.00     0.382 C 
ATOM     23  O   LIG d   1      -0.667  84.222 112.599  0.00  0.00    -0.241 OA
ATOM     24  O   LIG d   1      -1.310  83.341 110.735  0.00  0.00    -0.241 OA
ENDBRANCH   3  22
TORSDOF 7
ENDMDL
MODEL 7
REMARK VINA RESULT:      -4.8      2.072      2.458
REMARK  7 active torsions:
REMARK  status: ('A' for Active; 'I' for Inactive)
REMARK    1  A    between atoms: C_2  and  C_3 
REMARK    2  A    between atoms: C_3  and  O_6 
REMARK    3  A    between atoms: C_3  and  C_4 
REMARK    4  A    between atoms: C_7  and  O_6 
REMARK    5  A    between atoms: C_9  and  C_10 
REMARK    6  A    between atoms: N_15  and  C_14 
REMARK    7  A    between atoms: N_20  and  C_19 
REMARK       I    between atoms: C_22  and  N_20 
ROOT
ATOM      1  C   LIG d   1      -1.747  82.167 113.733  0.00  0.00     0.161 C 
ATOM      2  C   LIG d   1      -2.133  81.194 114.669  0.00  0.00     0.016 C 
ATOM      3  C   LIG d   1      -2.138  79.807 114.394  0.00  0.00     0.038 C 
ATOM      4  C   LIG d   1      -1.610  79.286 113.203  0.00  0.00     0.028 C 
ATOM      5  C   LIG d   1      -1.678  80.261 112.033  0.00  0.00    -0.047 C 
ATOM      6  C   LIG d   1      -1.062  81.610 112.467  0.00  0.00     0.091 C 
ENDROOT
BRANCH   1   7
ATOM      7  O   LIG d   1      -0.904  83.149 114.367  0.00  0.00    -0.368 OA
BRANCH   7   8
ATOM      8  C   LIG d   1       0.040  82.643 115.343  0.00  0.00     0.119 C 
BRANCH   8   9
ATOM      9  C   LIG d   1       0.083  83.648 116.510  0.00  0.00     0.028 C 
ATOM     10  C   LIG d   1      -0.794  83.209 117.695  0.00  0.00     0.006 C 
ENDBRANCH   8   9
BRANCH   8  11
ATOM     11  C   LIG d   1       1.464  82.618 114.778  0.00  0.00     0.028 C 
ATOM     12  C   LIG d   1       1.972  81.193 114.508  0.00  0.00     0.006 C 
ENDBRANCH   8  11
ENDBRANCH   7   8
ENDBRANCH   1   7
BRANCH   6  13
ATOM     13  N   LIG d   1      -1.165  82.647 111.407  0.00  0.00    -0.311 N 
ATOM     14  C   LIG d   1      -0.124  83.354 110.970  0.00  0.00     0.210 C 
ATOM     15  C   LIG d   1      -0.452  84.386 109.887  0.00  0.00     0.109 C 
ATOM     16  O   LIG d   1       1.046  83.202 111.354  0.00  0.00    -0.276 OA
ATOM     17  H   LIG d   1      -2.072  82.814 111.018  0.00  0.00     0.149 HD
ENDBRANCH   6  13
BRANCH   5  18
ATOM     18  N   LIG d   1      -0.971  79.642 110.896  0.00  0.00     0.381 N 
ATOM     19  H   LIG d   1      -1.529  79.715 110.069  0.00  0.00    -0.090 HD
ATOM     20  H   LIG d   1      -0.827  78.667 111.094  0.00  0.00    -0.090 HD
ATOM     21  H   LIG d   1      -0.093  80.092 110.754  0.00  0.00    -0.090 HD
ENDBRANCH   5  18
BRANCH   3  22
ATOM     22  C   LIG d   1      -2.713  78.929 115.299  0.00  0.00     0.382 C 
ATOM     23  O   LIG d   1      -3.609  79.331 116.080  0.00  0.00    -0.241 OA
ATOM     24  O   LIG d   1      -2.317  77.750 115.375  0.00  0.00    -0.241 OA
ENDBRANCH   3  22
TORSDOF 7
ENDMDL
MODEL 8
REMARK VINA RESULT:      -4.6      1.664      2.284
REMARK  7 active torsions:
REMARK  status: ('A' for Active; 'I' for Inactive)
REMARK    1  A    between atoms: C_2  and  C_3 
REMARK    2  A    between atoms: C_3  and  O_6 
REMARK    3  A    between atoms: C_3  and  C_4 
REMARK    4  A    between atoms: C_7  and  O_6 
REMARK    5  A    between atoms: C_9  and  C_10 
REMARK    6  A    between atoms: N_15  and  C_14 
REMARK    7  A    between atoms: N_20  and  C_19 
REMARK       I    between atoms: C_22  and  N_20 
ROOT
ATOM      1  C   LIG d   1       0.162  81.263 113.334  0.00  0.00     0.161 C 
ATOM      2  C   LIG d   1      -0.798  80.258 113.536  0.00  0.00     0.016 C 
ATOM      3  C   LIG d   1      -1.450  79.581 112.480  0.00  0.00     0.038 C 
ATOM      4  C   LIG d   1      -1.073  79.759 111.141  0.00  0.00     0.028 C 
ATOM      5  C   LIG d   1      -0.462  81.128 110.860  0.00  0.00    -0.047 C 
ATOM      6  C   LIG d   1       0.667  81.392 111.881  0.00  0.00     0.091 C 
ENDROOT
BRANCH   1   7
ATOM      7  O   LIG d   1       1.271  81.068 114.234  0.00  0.00    -0.368 OA
BRANCH   7   8
ATOM      8  C   LIG d   1       1.515  82.133 115.186  0.00  0.00     0.119 C 
BRANCH   8   9
ATOM      9  C   LIG d   1       1.430  81.520 116.597  0.00  0.00     0.028 C 
ATOM     10  C   LIG d   1       1.436  79.983 116.572  0.00  0.00     0.006 C 
ENDBRANCH   8   9
BRANCH   8  11
ATOM     11  C   LIG d   1       0.408  83.190 115.134  0.00  0.00     0.028 C 
ATOM     12  C   LIG d   1      -0.216  83.466 116.512  0.00  0.00     0.006 C 
ENDBRANCH   8  11
ENDBRANCH   7   8
ENDBRANCH   1   7
BRANCH   6  13
ATOM     13  N   LIG d   1       1.262  82.746 111.731  0.00  0.00    -0.311 N 
ATOM     14  C   LIG d   1       2.573  82.965 111.641  0.00  0.00     0.210 C 
ATOM     15  C   LIG d   1       2.975  84.437 111.511  0.00  0.00     0.109 C 
ATOM     16  O   LIG d   1       3.439  82.077 111.624  0.00  0.00    -0.276 OA
ATOM     17  H   LIG d   1       0.630  83.522 111.704  0.00  0.00     0.149 HD
ENDBRANCH   6  13
BRANCH   5  18
ATOM     18  N   LIG d   1       0.010  81.127 109.463  0.00  0.00     0.381 N 
ATOM     19  H   LIG d   1       0.792  80.510 109.370  0.00  0.00    -0.090 HD
ATOM     20  H   LIG d   1       0.310  82.055 109.220  0.00  0.00    -0.090 HD
ATOM     21  H   LIG d   1      -0.724  80.838 108.854  0.00  0.00    -0.090 HD
ENDBRANCH   5  18
BRANCH   3  22
ATOM     22  C   LIG d   1      -2.520  78.744 112.757  0.00  0.00     0.382 C 
ATOM     23  O   LIG d   1      -2.958  77.971 111.871  0.00  0.00    -0.241 OA
ATOM     24  O   LIG d   1      -3.081  78.783 113.869  0.00  0.00    -0.241 OA
ENDBRANCH   3  22
TORSDOF 7
ENDMDL
MODEL 9
REMARK VINA RESULT:      -4.6      4.399      6.641
REMARK  7 active torsions:
REMARK  status: ('A' for Active; 'I' for Inactive)
REMARK    1  A    between atoms: C_2  and  C_3 
REMARK    2  A    between atoms: C_3  and  O_6 
REMARK    3  A    between atoms: C_3  and  C_4 
REMARK    4  A    between atoms: C_7  and  O_6 
REMARK    5  A    between atoms: C_9  and  C_10 
REMARK    6  A    between atoms: N_15  and  C_14 
REMARK    7  A    between atoms: N_20  and  C_19 
REMARK       I    between atoms: C_22  and  N_20 
ROOT
ATOM      1  C   LIG d   1      -2.042  78.499 115.266  0.00  0.00     0.161 C 
ATOM      2  C   LIG d   1      -2.426  79.839 115.443  0.00  0.00     0.016 C 
ATOM      3  C   LIG d   1      -2.499  80.774 114.384  0.00  0.00     0.038 C 
ATOM      4  C   LIG d   1      -2.337  80.391 113.045  0.00  0.00     0.028 C 
ATOM      5  C   LIG d   1      -1.454  79.160 112.868  0.00  0.00    -0.047 C 
ATOM      6  C   LIG d   1      -1.970  78.036 113.796  0.00  0.00     0.091 C 
ENDROOT
BRANCH   1   7
ATOM      7  O   LIG d   1      -2.917  77.637 116.020  0.00  0.00    -0.368 OA
BRANCH   7   8
ATOM      8  C   LIG d   1      -2.342  77.021 117.199  0.00  0.00     0.119 C 
BRANCH   8   9
ATOM      9  C   LIG d   1      -2.662  75.515 117.137  0.00  0.00     0.028 C 
ATOM     10  C   LIG d   1      -1.654  74.667 117.930  0.00  0.00     0.006 C 
ENDBRANCH   8   9
BRANCH   8  11
ATOM     11  C   LIG d   1      -3.017  77.527 118.478  0.00  0.00     0.028 C 
ATOM     12  C   LIG d   1      -2.504  78.908 118.916  0.00  0.00     0.006 C 
ENDBRANCH   8  11
ENDBRANCH   7   8
ENDBRANCH   1   7
BRANCH   6  13
ATOM     13  N   LIG d   1      -1.112  76.824 113.748  0.00  0.00    -0.311 N 
ATOM     14  C   LIG d   1      -1.596  75.584 113.695  0.00  0.00     0.210 C 
ATOM     15  C   LIG d   1      -0.538  74.477 113.673  0.00  0.00     0.109 C 
ATOM     16  O   LIG d   1      -2.801  75.298 113.633  0.00  0.00    -0.276 OA
ATOM     17  H   LIG d   1      -0.121  76.965 113.763  0.00  0.00     0.149 HD
ENDBRANCH   6  13
BRANCH   5  18
ATOM     18  N   LIG d   1      -1.484  78.791 111.441  0.00  0.00     0.381 N 
ATOM     19  H   LIG d   1      -2.260  78.186 111.263  0.00  0.00    -0.090 HD
ATOM     20  H   LIG d   1      -0.640  78.295 111.216  0.00  0.00    -0.090 HD
ATOM     21  H   LIG d   1      -1.556  79.610 110.878  0.00  0.00    -0.090 HD
ENDBRANCH   5  18
BRANCH   3  22
ATOM     22  C   LIG d   1      -2.697  82.117 114.666  0.00  0.00     0.382 C 
ATOM     23  O   LIG d   1      -1.742  82.818 115.080  0.00  0.00    -0.241 OA
ATOM     24  O   LIG d   1      -3.828  82.626 114.555  0.00  0.00    -0.241 OA
ENDBRANCH   3  22
TORSDOF 7
ENDMDL
