MODEL 1
REMARK VINA RESULT:      -5.8      0.000      0.000
REMARK  7 active torsions:
REMARK  status: ('A' for Active; 'I' for Inactive)
REMARK    1  A    between atoms: C_2  and  C_3 
REMARK    2  A    between atoms: C_3  and  O_6 
REMARK    3  A    between atoms: C_3  and  C_4 
REMARK    4  A    between atoms: C_7  and  O_6 
REMARK    5  A    between atoms: C_9  and  C_10 
REMARK    6  A    between atoms: N_15  and  C_14 
REMARK    7  A    between atoms: N_20  and  C_19 
REMARK       I    between atoms: C_22  and  N_20 
ROOT
ATOM      1  C   LIG d   1      -1.735  80.824 114.392  0.00  0.00     0.161 C 
ATOM      2  C   LIG d   1      -1.535  82.183 114.097  0.00  0.00     0.016 C 
ATOM      3  C   LIG d   1      -1.091  82.648 112.837  0.00  0.00     0.038 C 
ATOM      4  C   LIG d   1      -0.961  81.791 111.734  0.00  0.00     0.028 C 
ATOM      5  C   LIG d   1      -0.666  80.346 112.121  0.00  0.00    -0.047 C 
ATOM      6  C   LIG d   1      -1.706  79.885 113.169  0.00  0.00     0.091 C 
ENDROOT
BRANCH   1   7
ATOM      7  O   LIG d   1      -2.968  80.659 115.121  0.00  0.00    -0.368 OA
BRANCH   7   8
ATOM      8  C   LIG d   1      -2.839  80.359 116.532  0.00  0.00     0.119 C 
BRANCH   8   9
ATOM      9  C   LIG d   1      -4.007  79.431 116.917  0.00  0.00     0.028 C 
ATOM     10  C   LIG d   1      -3.609  77.945 116.892  0.00  0.00     0.006 C 
ENDBRANCH   8   9
BRANCH   8  11
ATOM     11  C   LIG d   1      -3.021  81.616 117.388  0.00  0.00     0.028 C 
ATOM     12  C   LIG d   1      -1.755  81.991 118.174  0.00  0.00     0.006 C 
ENDBRANCH   8  11
ENDBRANCH   7   8
ENDBRANCH   1   7
BRANCH   6  13
ATOM     13  N   LIG d   1      -1.439  78.509 113.664  0.00  0.00    -0.311 N 
ATOM     14  C   LIG d   1      -2.269  77.486 113.468  0.00  0.00     0.210 C 
ATOM     15  C   LIG d   1      -1.813  76.157 114.080  0.00  0.00     0.109 C 
ATOM     16  O   LIG d   1      -3.324  77.545 112.819  0.00  0.00    -0.276 OA
ATOM     17  H   LIG d   1      -0.590  78.364 114.175  0.00  0.00     0.149 HD
ENDBRANCH   6  13
BRANCH   5  18
ATOM     18  N   LIG d   1      -0.693  79.539 110.886  0.00  0.00     0.381 N 
ATOM     19  H   LIG d   1      -1.240  80.005 110.190  0.00  0.00    -0.090 HD
ATOM     20  H   LIG d   1      -1.124  78.654 111.086  0.00  0.00    -0.090 HD
ATOM     21  H   LIG d   1       0.234  79.397 110.552  0.00  0.00    -0.090 HD
ENDBRANCH   5  18
BRANCH   3  22
ATOM     22  C   LIG d   1      -0.733  83.978 112.683  0.00  0.00     0.382 C 
ATOM     23  O   LIG d   1      -1.098  84.612 111.663  0.00  0.00    -0.241 OA
ATOM     24  O   LIG d   1      -0.013  84.541 113.529  0.00  0.00    -0.241 OA
ENDBRANCH   3  22
TORSDOF 7
ENDMDL
MODEL 2
REMARK VINA RESULT:      -5.6      0.935      1.628
REMARK  7 active torsions:
REMARK  status: ('A' for Active; 'I' for Inactive)
REMARK    1  A    between atoms: C_2  and  C_3 
REMARK    2  A    between atoms: C_3  and  O_6 
REMARK    3  A    between atoms: C_3  and  C_4 
REMARK    4  A    between atoms: C_7  and  O_6 
REMARK    5  A    between atoms: C_9  and  C_10 
REMARK    6  A    between atoms: N_15  and  C_14 
REMARK    7  A    between atoms: N_20  and  C_19 
REMARK       I    between atoms: C_22  and  N_20 
ROOT
ATOM      1  C   LIG d   1      -1.960  80.294 114.582  0.00  0.00     0.161 C 
ATOM      2  C   LIG d   1      -1.796  81.686 114.489  0.00  0.00     0.016 C 
ATOM      3  C   LIG d   1      -1.331  82.338 113.324  0.00  0.00     0.038 C 
ATOM      4  C   LIG d   1      -1.141  81.652 112.116  0.00  0.00     0.028 C 
ATOM      5  C   LIG d   1      -0.810  80.175 112.304  0.00  0.00    -0.047 C 
ATOM      6  C   LIG d   1      -1.864  79.540 113.239  0.00  0.00     0.091 C 
ENDROOT
BRANCH   1   7
ATOM      7  O   LIG d   1      -3.207  79.991 115.238  0.00  0.00    -0.368 OA
BRANCH   7   8
ATOM      8  C   LIG d   1      -3.109  79.472 116.587  0.00  0.00     0.119 C 
BRANCH   8   9
ATOM      9  C   LIG d   1      -3.282  80.659 117.554  0.00  0.00     0.028 C 
ATOM     10  C   LIG d   1      -4.641  81.360 117.386  0.00  0.00     0.006 C 
ENDBRANCH   8   9
BRANCH   8  11
ATOM     11  C   LIG d   1      -1.709  78.919 116.870  0.00  0.00     0.028 C 
ATOM     12  C   LIG d   1      -1.714  77.413 117.179  0.00  0.00     0.006 C 
ENDBRANCH   8  11
ENDBRANCH   7   8
ENDBRANCH   1   7
BRANCH   6  13
ATOM     13  N   LIG d   1      -1.567  78.116 113.543  0.00  0.00    -0.311 N 
ATOM     14  C   LIG d   1      -2.447  77.131 113.373  0.00  0.00     0.210 C 
ATOM     15  C   LIG d   1      -1.943  75.739 113.767  0.00  0.00     0.109 C 
ATOM     16  O   LIG d   1      -3.586  77.273 112.903  0.00  0.00    -0.276 OA
ATOM     17  H   LIG d   1      -0.655  77.906 113.900  0.00  0.00     0.149 HD
ENDBRANCH   6  13
BRANCH   5  18
ATOM     18  N   LIG d   1      -0.774  79.553 110.967  0.00  0.00     0.381 N 
ATOM     19  H   LIG d   1      -1.689  79.568 110.562  0.00  0.00    -0.090 HD
ATOM     20  H   LIG d   1      -0.487  78.595 111.062  0.00  0.00    -0.090 HD
ATOM     21  H   LIG d   1      -0.135  80.043 110.380  0.00  0.00    -0.090 HD
ENDBRANCH   5  18
BRANCH   3  22
ATOM     22  C   LIG d   1      -1.013  83.687 113.373  0.00  0.00     0.382 C 
ATOM     23  O   LIG d   1      -1.020  84.371 112.321  0.00  0.00    -0.241 OA
ATOM     24  O   LIG d   1      -0.677  84.219 114.448  0.00  0.00    -0.241 OA
ENDBRANCH   3  22
TORSDOF 7
ENDMDL
MODEL 3
REMARK VINA RESULT:      -5.1      2.939      6.633
REMARK  7 active torsions:
REMARK  status: ('A' for Active; 'I' for Inactive)
REMARK    1  A    between atoms: C_2  and  C_3 
REMARK    2  A    between atoms: C_3  and  O_6 
REMARK    3  A    between atoms: C_3  and  C_4 
REMARK    4  A    between atoms: C_7  and  O_6 
REMARK    5  A    between atoms: C_9  and  C_10 
REMARK    6  A    between atoms: N_15  and  C_14 
REMARK    7  A    between atoms: N_20  and  C_19 
REMARK       I    between atoms: C_22  and  N_20 
ROOT
ATOM      1  C   LIG d   1      -0.110  81.411 111.506  0.00  0.00     0.161 C 
ATOM      2  C   LIG d   1      -0.866  80.232 111.621  0.00  0.00     0.016 C 
ATOM      3  C   LIG d   1      -1.809  80.010 112.651  0.00  0.00     0.038 C 
ATOM      4  C   LIG d   1      -2.170  81.019 113.556  0.00  0.00     0.028 C 
ATOM      5  C   LIG d   1      -1.068  82.048 113.788  0.00  0.00    -0.047 C 
ATOM      6  C   LIG d   1      -0.571  82.566 112.419  0.00  0.00     0.091 C 
ENDROOT
BRANCH   1   7
ATOM      7  O   LIG d   1      -0.080  81.840 110.131  0.00  0.00    -0.368 OA
BRANCH   7   8
ATOM      8  C   LIG d   1       1.189  81.700 109.447  0.00  0.00     0.119 C 
BRANCH   8   9
ATOM      9  C   LIG d   1       2.055  80.728 110.272  0.00  0.00     0.028 C 
ATOM     10  C   LIG d   1       2.370  79.430 109.509  0.00  0.00     0.006 C 
ENDBRANCH   8   9
BRANCH   8  11
ATOM     11  C   LIG d   1       1.964  83.021 109.433  0.00  0.00     0.028 C 
ATOM     12  C   LIG d   1       3.436  82.853 109.840  0.00  0.00     0.006 C 
ENDBRANCH   8  11
ENDBRANCH   7   8
ENDBRANCH   1   7
BRANCH   6  13
ATOM     13  N   LIG d   1       0.565  83.515 112.552  0.00  0.00    -0.311 N 
ATOM     14  C   LIG d   1       1.713  83.205 113.153  0.00  0.00     0.210 C 
ATOM     15  C   LIG d   1       2.745  84.336 113.198  0.00  0.00     0.109 C 
ATOM     16  O   LIG d   1       1.985  82.092 113.626  0.00  0.00    -0.276 OA
ATOM     17  H   LIG d   1       0.441  84.432 112.168  0.00  0.00     0.149 HD
ENDBRANCH   6  13
BRANCH   5  18
ATOM     18  N   LIG d   1      -1.626  83.113 114.642  0.00  0.00     0.381 N 
ATOM     19  H   LIG d   1      -1.806  82.754 115.558  0.00  0.00    -0.090 HD
ATOM     20  H   LIG d   1      -2.498  83.422 114.248  0.00  0.00    -0.090 HD
ATOM     21  H   LIG d   1      -0.988  83.876 114.695  0.00  0.00    -0.090 HD
ENDBRANCH   5  18
BRANCH   3  22
ATOM     22  C   LIG d   1      -2.371  78.752 112.808  0.00  0.00     0.382 C 
ATOM     23  O   LIG d   1      -3.395  78.438 112.155  0.00  0.00    -0.241 OA
ATOM     24  O   LIG d   1      -1.894  77.944 113.626  0.00  0.00    -0.241 OA
ENDBRANCH   3  22
TORSDOF 7
ENDMDL
MODEL 4
REMARK VINA RESULT:      -5.0      2.532      3.313
REMARK  7 active torsions:
REMARK  status: ('A' for Active; 'I' for Inactive)
REMARK    1  A    between atoms: C_2  and  C_3 
REMARK    2  A    between atoms: C_3  and  O_6 
REMARK    3  A    between atoms: C_3  and  C_4 
REMARK    4  A    between atoms: C_7  and  O_6 
REMARK    5  A    between atoms: C_9  and  C_10 
REMARK    6  A    between atoms: N_15  and  C_14 
REMARK    7  A    between atoms: N_20  and  C_19 
REMARK       I    between atoms: C_22  and  N_20 
ROOT
ATOM      1  C   LIG d   1      -2.264  79.131 115.989  0.00  0.00     0.161 C 
ATOM      2  C   LIG d   1      -2.531  80.070 114.979  0.00  0.00     0.016 C 
ATOM      3  C   LIG d   1      -2.500  79.760 113.600  0.00  0.00     0.038 C 
ATOM      4  C   LIG d   1      -2.347  78.444 113.140  0.00  0.00     0.028 C 
ATOM      5  C   LIG d   1      -1.573  77.551 114.104  0.00  0.00    -0.047 C 
ATOM      6  C   LIG d   1      -2.204  77.666 115.511  0.00  0.00     0.091 C 
ENDROOT
BRANCH   1   7
ATOM      7  O   LIG d   1      -3.226  79.272 117.054  0.00  0.00    -0.368 OA
BRANCH   7   8
ATOM      8  C   LIG d   1      -2.713  79.770 118.314  0.00  0.00     0.119 C 
BRANCH   8   9
ATOM      9  C   LIG d   1      -3.461  79.033 119.442  0.00  0.00     0.028 C 
ATOM     10  C   LIG d   1      -2.752  77.737 119.867  0.00  0.00     0.006 C 
ENDBRANCH   8   9
BRANCH   8  11
ATOM     11  C   LIG d   1      -3.050  81.252 118.505  0.00  0.00     0.028 C 
ATOM     12  C   LIG d   1      -1.824  82.098 118.884  0.00  0.00     0.006 C 
ENDBRANCH   8  11
ENDBRANCH   7   8
ENDBRANCH   1   7
BRANCH   6  13
ATOM     13  N   LIG d   1      -1.456  76.888 116.533  0.00  0.00    -0.311 N 
ATOM     14  C   LIG d   1      -1.699  75.607 116.802  0.00  0.00     0.210 C 
ATOM     15  C   LIG d   1      -0.826  75.001 117.906  0.00  0.00     0.109 C 
ATOM     16  O   LIG d   1      -2.532  74.905 116.209  0.00  0.00    -0.276 OA
ATOM     17  H   LIG d   1      -0.741  77.372 117.040  0.00  0.00     0.149 HD
ENDBRANCH   6  13
BRANCH   5  18
ATOM     18  N   LIG d   1      -1.607  76.178 113.565  0.00  0.00     0.381 N 
ATOM     19  H   LIG d   1      -2.510  75.775 113.721  0.00  0.00    -0.090 HD
ATOM     20  H   LIG d   1      -0.926  75.621 114.051  0.00  0.00    -0.090 HD
ATOM     21  H   LIG d   1      -1.404  76.189 112.590  0.00  0.00    -0.090 HD
ENDBRANCH   5  18
BRANCH   3  22
ATOM     22  C   LIG d   1      -2.584  80.779 112.664  0.00  0.00     0.382 C 
ATOM     23  O   LIG d   1      -1.653  80.952 111.840  0.00  0.00    -0.241 OA
ATOM     24  O   LIG d   1      -3.557  81.557 112.662  0.00  0.00    -0.241 OA
ENDBRANCH   3  22
TORSDOF 7
ENDMDL
MODEL 5
REMARK VINA RESULT:      -4.9      2.335      5.661
REMARK  7 active torsions:
REMARK  status: ('A' for Active; 'I' for Inactive)
REMARK    1  A    between atoms: C_2  and  C_3 
REMARK    2  A    between atoms: C_3  and  O_6 
REMARK    3  A    between atoms: C_3  and  C_4 
REMARK    4  A    between atoms: C_7  and  O_6 
REMARK    5  A    between atoms: C_9  and  C_10 
REMARK    6  A    between atoms: N_15  and  C_14 
REMARK    7  A    between atoms: N_20  and  C_19 
REMARK       I    between atoms: C_22  and  N_20 
ROOT
ATOM      1  C   LIG d   1      -2.407  78.663 114.978  0.00  0.00     0.161 C 
ATOM      2  C   LIG d   1      -3.073  78.452 116.197  0.00  0.00     0.016 C 
ATOM      3  C   LIG d   1      -3.508  79.502 117.038  0.00  0.00     0.038 C 
ATOM      4  C   LIG d   1      -3.442  80.846 116.641  0.00  0.00     0.028 C 
ATOM      5  C   LIG d   1      -2.322  81.128 115.645  0.00  0.00    -0.047 C 
ATOM      6  C   LIG d   1      -2.425  80.122 114.476  0.00  0.00     0.091 C 
ENDROOT
BRANCH   1   7
ATOM      7  O   LIG d   1      -2.940  77.780 113.972  0.00  0.00    -0.368 OA
BRANCH   7   8
ATOM      8  C   LIG d   1      -3.002  76.376 114.323  0.00  0.00     0.119 C 
BRANCH   8   9
ATOM      9  C   LIG d   1      -1.800  75.678 113.658  0.00  0.00     0.028 C 
ATOM     10  C   LIG d   1      -0.665  75.386 114.655  0.00  0.00     0.006 C 
ENDBRANCH   8   9
BRANCH   8  11
ATOM     11  C   LIG d   1      -4.242  75.705 113.724  0.00  0.00     0.028 C 
ATOM     12  C   LIG d   1      -5.327  75.413 114.773  0.00  0.00     0.006 C 
ENDBRANCH   8  11
ENDBRANCH   7   8
ENDBRANCH   1   7
BRANCH   6  13
ATOM     13  N   LIG d   1      -1.316  80.274 113.498  0.00  0.00    -0.311 N 
ATOM     14  C   LIG d   1      -1.393  81.048 112.417  0.00  0.00     0.210 C 
ATOM     15  C   LIG d   1      -0.144  81.046 111.530  0.00  0.00     0.109 C 
ATOM     16  O   LIG d   1      -2.366  81.760 112.125  0.00  0.00    -0.276 OA
ATOM     17  H   LIG d   1      -0.478  79.756 113.674  0.00  0.00     0.149 HD
ENDBRANCH   6  13
BRANCH   5  18
ATOM     18  N   LIG d   1      -2.455  82.532 115.212  0.00  0.00     0.381 N 
ATOM     19  H   LIG d   1      -1.642  83.048 115.483  0.00  0.00    -0.090 HD
ATOM     20  H   LIG d   1      -3.253  82.939 115.667  0.00  0.00    -0.090 HD
ATOM     21  H   LIG d   1      -2.570  82.575 114.223  0.00  0.00    -0.090 HD
ENDBRANCH   5  18
BRANCH   3  22
ATOM     22  C   LIG d   1      -3.982  79.213 118.309  0.00  0.00     0.382 C 
ATOM     23  O   LIG d   1      -4.779  80.000 118.874  0.00  0.00    -0.241 OA
ATOM     24  O   LIG d   1      -3.587  78.199 118.915  0.00  0.00    -0.241 OA
ENDBRANCH   3  22
TORSDOF 7
ENDMDL
MODEL 6
REMARK VINA RESULT:      -4.9      2.766      5.510
REMARK  7 active torsions:
REMARK  status: ('A' for Active; 'I' for Inactive)
REMARK    1  A    between atoms: C_2  and  C_3 
REMARK    2  A    between atoms: C_3  and  O_6 
REMARK    3  A    between atoms: C_3  and  C_4 
REMARK    4  A    between atoms: C_7  and  O_6 
REMARK    5  A    between atoms: C_9  and  C_10 
REMARK    6  A    between atoms: N_15  and  C_14 
REMARK    7  A    between atoms: N_20  and  C_19 
REMARK       I    between atoms: C_22  and  N_20 
ROOT
ATOM      1  C   LIG d   1      -0.099  81.965 112.721  0.00  0.00     0.161 C 
ATOM      2  C   LIG d   1      -1.132  81.128 113.174  0.00  0.00     0.016 C 
ATOM      3  C   LIG d   1      -1.541  79.958 112.493  0.00  0.00     0.038 C 
ATOM      4  C   LIG d   1      -0.838  79.462 111.384  0.00  0.00     0.028 C 
ATOM      5  C   LIG d   1      -0.106  80.544 110.598  0.00  0.00    -0.047 C 
ATOM      6  C   LIG d   1       0.752  81.381 111.574  0.00  0.00     0.091 C 
ENDROOT
BRANCH   1   7
ATOM      7  O   LIG d   1       0.744  82.344 113.827  0.00  0.00    -0.368 OA
BRANCH   7   8
ATOM      8  C   LIG d   1       0.204  83.343 114.727  0.00  0.00     0.119 C 
BRANCH   8   9
ATOM      9  C   LIG d   1       1.175  84.539 114.728  0.00  0.00     0.028 C 
ATOM     10  C   LIG d   1       2.481  84.235 113.976  0.00  0.00     0.006 C 
ENDBRANCH   8   9
BRANCH   8  11
ATOM     11  C   LIG d   1       0.182  82.836 116.172  0.00  0.00     0.028 C 
ATOM     12  C   LIG d   1       1.094  81.619 116.391  0.00  0.00     0.006 C 
ENDBRANCH   8  11
ENDBRANCH   7   8
ENDBRANCH   1   7
BRANCH   6  13
ATOM     13  N   LIG d   1       1.436  82.514 110.899  0.00  0.00    -0.311 N 
ATOM     14  C   LIG d   1       2.703  82.466 110.489  0.00  0.00     0.210 C 
ATOM     15  C   LIG d   1       3.219  83.751 109.834  0.00  0.00     0.109 C 
ATOM     16  O   LIG d   1       3.437  81.471 110.576  0.00  0.00    -0.276 OA
ATOM     17  H   LIG d   1       0.904  83.350 110.759  0.00  0.00     0.149 HD
ENDBRANCH   6  13
BRANCH   5  18
ATOM     18  N   LIG d   1       0.694  79.872 109.555  0.00  0.00     0.381 N 
ATOM     19  H   LIG d   1       0.090  79.367 108.938  0.00  0.00    -0.090 HD
ATOM     20  H   LIG d   1       1.316  79.217 109.994  0.00  0.00    -0.090 HD
ATOM     21  H   LIG d   1       1.218  80.546 109.041  0.00  0.00    -0.090 HD
ENDBRANCH   5  18
BRANCH   3  22
ATOM     22  C   LIG d   1      -2.688  79.294 112.897  0.00  0.00     0.382 C 
ATOM     23  O   LIG d   1      -3.376  78.663 112.058  0.00  0.00    -0.241 OA
ATOM     24  O   LIG d   1      -3.070  79.354 114.081  0.00  0.00    -0.241 OA
ENDBRANCH   3  22
TORSDOF 7
ENDMDL
MODEL 7
REMARK VINA RESULT:      -4.9      2.350      2.899
REMARK  7 active torsions:
REMARK  status: ('A' for Active; 'I' for Inactive)
REMARK    1  A    between atoms: C_2  and  C_3 
REMARK    2  A    between atoms: C_3  and  O_6 
REMARK    3  A    between atoms: C_3  and  C_4 
REMARK    4  A    between atoms: C_7  and  O_6 
REMARK    5  A    between atoms: C_9  and  C_10 
REMARK    6  A    between atoms: N_15  and  C_14 
REMARK    7  A    between atoms: N_20  and  C_19 
REMARK       I    between atoms: C_22  and  N_20 
ROOT
ATOM      1  C   LIG d   1       0.322  81.449 113.718  0.00  0.00     0.161 C 
ATOM      2  C   LIG d   1       1.171  82.432 113.183  0.00  0.00     0.016 C 
ATOM      3  C   LIG d   1       1.432  82.566 111.800  0.00  0.00     0.038 C 
ATOM      4  C   LIG d   1       0.739  81.816 110.839  0.00  0.00     0.028 C 
ATOM      5  C   LIG d   1       0.248  80.469 111.360  0.00  0.00    -0.047 C 
ATOM      6  C   LIG d   1      -0.530  80.694 112.677  0.00  0.00     0.091 C 
ENDROOT
BRANCH   1   7
ATOM      7  O   LIG d   1      -0.525  82.032 114.729  0.00  0.00    -0.368 OA
BRANCH   7   8
ATOM      8  C   LIG d   1       0.019  82.069 116.072  0.00  0.00     0.119 C 
BRANCH   8   9
ATOM      9  C   LIG d   1       0.733  80.726 116.319  0.00  0.00     0.028 C 
ATOM     10  C   LIG d   1       1.802  80.824 117.421  0.00  0.00     0.006 C 
ENDBRANCH   8   9
BRANCH   8  11
ATOM     11  C   LIG d   1      -1.095  82.135 117.121  0.00  0.00     0.028 C 
ATOM     12  C   LIG d   1      -2.495  81.938 116.519  0.00  0.00     0.006 C 
ENDBRANCH   8  11
ENDBRANCH   7   8
ENDBRANCH   1   7
BRANCH   6  13
ATOM     13  N   LIG d   1      -0.973  79.418 113.298  0.00  0.00    -0.311 N 
ATOM     14  C   LIG d   1      -2.191  78.906 113.131  0.00  0.00     0.210 C 
ATOM     15  C   LIG d   1      -2.447  77.592 113.876  0.00  0.00     0.109 C 
ATOM     16  O   LIG d   1      -3.072  79.397 112.410  0.00  0.00    -0.276 OA
ATOM     17  H   LIG d   1      -0.310  78.937 113.873  0.00  0.00     0.149 HD
ENDBRANCH   6  13
BRANCH   5  18
ATOM     18  N   LIG d   1      -0.574  79.854 110.300  0.00  0.00     0.381 N 
ATOM     19  H   LIG d   1      -0.047  79.144 109.832  0.00  0.00    -0.090 HD
ATOM     20  H   LIG d   1      -0.819  80.559 109.628  0.00  0.00    -0.090 HD
ATOM     21  H   LIG d   1      -1.399  79.460 110.695  0.00  0.00    -0.090 HD
ENDBRANCH   5  18
BRANCH   3  22
ATOM     22  C   LIG d   1       2.426  83.431 111.369  0.00  0.00     0.382 C 
ATOM     23  O   LIG d   1       2.331  83.987 110.249  0.00  0.00    -0.241 OA
ATOM     24  O   LIG d   1       3.439  83.628 112.067  0.00  0.00    -0.241 OA
ENDBRANCH   3  22
TORSDOF 7
ENDMDL
MODEL 8
REMARK VINA RESULT:      -4.7      2.901      6.045
REMARK  7 active torsions:
REMARK  status: ('A' for Active; 'I' for Inactive)
REMARK    1  A    between atoms: C_2  and  C_3 
REMARK    2  A    between atoms: C_3  and  O_6 
REMARK    3  A    between atoms: C_3  and  C_4 
REMARK    4  A    between atoms: C_7  and  O_6 
REMARK    5  A    between atoms: C_9  and  C_10 
REMARK    6  A    between atoms: N_15  and  C_14 
REMARK    7  A    between atoms: N_20  and  C_19 
REMARK       I    between atoms: C_22  and  N_20 
ROOT
ATOM      1  C   LIG d   1      -2.114  79.180 115.315  0.00  0.00     0.161 C 
ATOM      2  C   LIG d   1      -1.909  78.044 114.515  0.00  0.00     0.016 C 
ATOM      3  C   LIG d   1      -1.886  76.726 115.027  0.00  0.00     0.038 C 
ATOM      4  C   LIG d   1      -2.218  76.442 116.359  0.00  0.00     0.028 C 
ATOM      5  C   LIG d   1      -1.936  77.597 117.313  0.00  0.00    -0.047 C 
ATOM      6  C   LIG d   1      -2.589  78.882 116.753  0.00  0.00     0.091 C 
ENDROOT
BRANCH   1   7
ATOM      7  O   LIG d   1      -3.031  80.079 114.661  0.00  0.00    -0.368 OA
BRANCH   7   8
ATOM      8  C   LIG d   1      -2.459  81.302 114.135  0.00  0.00     0.119 C 
BRANCH   8   9
ATOM      9  C   LIG d   1      -2.327  81.132 112.609  0.00  0.00     0.028 C 
ATOM     10  C   LIG d   1      -0.882  80.835 112.174  0.00  0.00     0.006 C 
ENDBRANCH   8   9
BRANCH   8  11
ATOM     11  C   LIG d   1      -1.030  81.512 114.644  0.00  0.00     0.028 C 
ATOM     12  C   LIG d   1      -0.902  82.731 115.572  0.00  0.00     0.006 C 
ENDBRANCH   8  11
ENDBRANCH   7   8
ENDBRANCH   1   7
BRANCH   6  13
ATOM     13  N   LIG d   1      -2.291  80.078 117.582  0.00  0.00    -0.311 N 
ATOM     14  C   LIG d   1      -3.113  80.543 118.521  0.00  0.00     0.210 C 
ATOM     15  C   LIG d   1      -2.622  81.800 119.246  0.00  0.00     0.109 C 
ATOM     16  O   LIG d   1      -4.188  80.016 118.843  0.00  0.00    -0.276 OA
ATOM     17  H   LIG d   1      -1.424  80.549 117.408  0.00  0.00     0.149 HD
ENDBRANCH   6  13
BRANCH   5  18
ATOM     18  N   LIG d   1      -2.456  77.217 118.640  0.00  0.00     0.381 N 
ATOM     19  H   LIG d   1      -2.467  76.220 118.727  0.00  0.00    -0.090 HD
ATOM     20  H   LIG d   1      -3.400  77.552 118.728  0.00  0.00    -0.090 HD
ATOM     21  H   LIG d   1      -1.887  77.613 119.356  0.00  0.00    -0.090 HD
ENDBRANCH   5  18
BRANCH   3  22
ATOM     22  C   LIG d   1      -1.488  75.678 114.210  0.00  0.00     0.382 C 
ATOM     23  O   LIG d   1      -2.082  75.469 113.125  0.00  0.00    -0.241 OA
ATOM     24  O   LIG d   1      -0.571  74.914 114.565  0.00  0.00    -0.241 OA
ENDBRANCH   3  22
TORSDOF 7
ENDMDL
MODEL 9
REMARK VINA RESULT:      -4.7      2.963      4.569
REMARK  7 active torsions:
REMARK  status: ('A' for Active; 'I' for Inactive)
REMARK    1  A    between atoms: C_2  and  C_3 
REMARK    2  A    between atoms: C_3  and  O_6 
REMARK    3  A    between atoms: C_3  and  C_4 
REMARK    4  A    between atoms: C_7  and  O_6 
REMARK    5  A    between atoms: C_9  and  C_10 
REMARK    6  A    between atoms: N_15  and  C_14 
REMARK    7  A    between atoms: N_20  and  C_19 
REMARK       I    between atoms: C_22  and  N_20 
ROOT
ATOM      1  C   LIG d   1       0.301  82.022 114.010  0.00  0.00     0.161 C 
ATOM      2  C   LIG d   1       1.269  81.934 112.996  0.00  0.00     0.016 C 
ATOM      3  C   LIG d   1       1.083  81.197 111.804  0.00  0.00     0.038 C 
ATOM      4  C   LIG d   1      -0.152  80.618 111.475  0.00  0.00     0.028 C 
ATOM      5  C   LIG d   1      -0.994  80.256 112.694  0.00  0.00    -0.047 C 
ATOM      6  C   LIG d   1      -1.094  81.489 113.620  0.00  0.00     0.091 C 
ENDROOT
BRANCH   1   7
ATOM      7  O   LIG d   1       0.205  83.382 114.477  0.00  0.00    -0.368 OA
BRANCH   7   8
ATOM      8  C   LIG d   1       0.750  83.644 115.793  0.00  0.00     0.119 C 
BRANCH   8   9
ATOM      9  C   LIG d   1       2.174  84.201 115.603  0.00  0.00     0.028 C 
ATOM     10  C   LIG d   1       3.253  83.251 116.150  0.00  0.00     0.006 C 
ENDBRANCH   8   9
BRANCH   8  11
ATOM     11  C   LIG d   1       0.924  82.349 116.592  0.00  0.00     0.028 C 
ATOM     12  C   LIG d   1       0.006  82.280 117.823  0.00  0.00     0.006 C 
ENDBRANCH   8  11
ENDBRANCH   7   8
ENDBRANCH   1   7
BRANCH   6  13
ATOM     13  N   LIG d   1      -1.830  81.196 114.877  0.00  0.00    -0.311 N 
ATOM     14  C   LIG d   1      -2.883  81.900 115.291  0.00  0.00     0.210 C 
ATOM     15  C   LIG d   1      -3.483  81.443 116.624  0.00  0.00     0.109 C 
ATOM     16  O   LIG d   1      -3.396  82.839 114.664  0.00  0.00    -0.276 OA
ATOM     17  H   LIG d   1      -1.500  80.431 115.431  0.00  0.00     0.149 HD
ENDBRANCH   6  13
BRANCH   5  18
ATOM     18  N   LIG d   1      -2.307  79.791 112.206  0.00  0.00     0.381 N 
ATOM     19  H   LIG d   1      -2.563  78.947 112.678  0.00  0.00    -0.090 HD
ATOM     20  H   LIG d   1      -2.237  79.595 111.223  0.00  0.00    -0.090 HD
ATOM     21  H   LIG d   1      -2.997  80.492 112.365  0.00  0.00    -0.090 HD
ENDBRANCH   5  18
BRANCH   3  22
ATOM     22  C   LIG d   1       2.152  81.000 110.943  0.00  0.00     0.382 C 
ATOM     23  O   LIG d   1       3.199  81.678 111.078  0.00  0.00    -0.241 OA
ATOM     24  O   LIG d   1       2.067  80.184 110.006  0.00  0.00    -0.241 OA
ENDBRANCH   3  22
TORSDOF 7
ENDMDL
