MODEL 1
REMARK VINA RESULT:      -5.4      0.000      0.000
REMARK  7 active torsions:
REMARK  status: ('A' for Active; 'I' for Inactive)
REMARK    1  A    between atoms: C_2  and  C_3 
REMARK    2  A    between atoms: C_3  and  O_6 
REMARK    3  A    between atoms: C_3  and  C_4 
REMARK    4  A    between atoms: C_7  and  O_6 
REMARK    5  A    between atoms: C_9  and  C_10 
REMARK    6  A    between atoms: N_15  and  C_14 
REMARK    7  A    between atoms: N_20  and  C_19 
REMARK       I    between atoms: C_22  and  N_20 
ROOT
ATOM      1  C   LIG d   1      -2.637  78.354 115.753  0.00  0.00     0.161 C 
ATOM      2  C   LIG d   1      -2.900  79.435 114.895  0.00  0.00     0.016 C 
ATOM      3  C   LIG d   1      -2.391  79.526 113.580  0.00  0.00     0.038 C 
ATOM      4  C   LIG d   1      -1.703  78.463 112.976  0.00  0.00     0.028 C 
ATOM      5  C   LIG d   1      -0.983  77.562 113.974  0.00  0.00    -0.047 C 
ATOM      6  C   LIG d   1      -1.981  77.134 115.073  0.00  0.00     0.091 C 
ENDROOT
BRANCH   1   7
ATOM      7  O   LIG d   1      -3.849  77.960 116.428  0.00  0.00    -0.368 OA
BRANCH   7   8
ATOM      8  C   LIG d   1      -4.069  78.545 117.735  0.00  0.00     0.119 C 
BRANCH   8   9
ATOM      9  C   LIG d   1      -4.263  77.388 118.733  0.00  0.00     0.028 C 
ATOM     10  C   LIG d   1      -2.932  76.893 119.324  0.00  0.00     0.006 C 
ENDBRANCH   8   9
BRANCH   8  11
ATOM     11  C   LIG d   1      -5.377  79.340 117.776  0.00  0.00     0.028 C 
ATOM     12  C   LIG d   1      -5.154  80.859 117.717  0.00  0.00     0.006 C 
ENDBRANCH   8  11
ENDBRANCH   7   8
ENDBRANCH   1   7
BRANCH   6  13
ATOM     13  N   LIG d   1      -1.338  76.319 116.136  0.00  0.00    -0.311 N 
ATOM     14  C   LIG d   1      -1.333  74.987 116.137  0.00  0.00     0.210 C 
ATOM     15  C   LIG d   1      -0.631  74.343 117.337  0.00  0.00     0.109 C 
ATOM     16  O   LIG d   1      -1.815  74.277 115.241  0.00  0.00    -0.276 OA
ATOM     17  H   LIG d   1      -0.896  76.814 116.886  0.00  0.00     0.149 HD
ENDBRANCH   6  13
BRANCH   5  18
ATOM     18  N   LIG d   1      -0.425  76.422 113.223  0.00  0.00     0.381 N 
ATOM     19  H   LIG d   1      -0.150  75.700 113.858  0.00  0.00    -0.090 HD
ATOM     20  H   LIG d   1       0.391  76.730 112.723  0.00  0.00    -0.090 HD
ATOM     21  H   LIG d   1      -1.102  76.071 112.582  0.00  0.00    -0.090 HD
ENDBRANCH   5  18
BRANCH   3  22
ATOM     22  C   LIG d   1      -2.533  80.708 112.868  0.00  0.00     0.382 C 
ATOM     23  O   LIG d   1      -1.529  81.254 112.351  0.00  0.00    -0.241 OA
ATOM     24  O   LIG d   1      -3.647  81.257 112.773  0.00  0.00    -0.241 OA
ENDBRANCH   3  22
TORSDOF 7
ENDMDL
MODEL 2
REMARK VINA RESULT:      -5.3      0.795      1.260
REMARK  7 active torsions:
REMARK  status: ('A' for Active; 'I' for Inactive)
REMARK    1  A    between atoms: C_2  and  C_3 
REMARK    2  A    between atoms: C_3  and  O_6 
REMARK    3  A    between atoms: C_3  and  C_4 
REMARK    4  A    between atoms: C_7  and  O_6 
REMARK    5  A    between atoms: C_9  and  C_10 
REMARK    6  A    between atoms: N_15  and  C_14 
REMARK    7  A    between atoms: N_20  and  C_19 
REMARK       I    between atoms: C_22  and  N_20 
ROOT
ATOM      1  C   LIG d   1      -2.984  78.392 115.647  0.00  0.00     0.161 C 
ATOM      2  C   LIG d   1      -3.061  79.468 114.746  0.00  0.00     0.016 C 
ATOM      3  C   LIG d   1      -2.311  79.537 113.550  0.00  0.00     0.038 C 
ATOM      4  C   LIG d   1      -1.541  78.456 113.094  0.00  0.00     0.028 C 
ATOM      5  C   LIG d   1      -1.039  77.554 114.217  0.00  0.00    -0.047 C 
ATOM      6  C   LIG d   1      -2.234  77.154 115.112  0.00  0.00     0.091 C 
ENDROOT
BRANCH   1   7
ATOM      7  O   LIG d   1      -4.307  78.026 116.084  0.00  0.00    -0.368 OA
BRANCH   7   8
ATOM      8  C   LIG d   1      -4.591  78.225 117.491  0.00  0.00     0.119 C 
BRANCH   8   9
ATOM      9  C   LIG d   1      -5.301  76.957 118.004  0.00  0.00     0.028 C 
ATOM     10  C   LIG d   1      -6.746  76.844 117.490  0.00  0.00     0.006 C 
ENDBRANCH   8   9
BRANCH   8  11
ATOM     11  C   LIG d   1      -5.593  79.364 117.701  0.00  0.00     0.028 C 
ATOM     12  C   LIG d   1      -4.921  80.744 117.775  0.00  0.00     0.006 C 
ENDBRANCH   8  11
ENDBRANCH   7   8
ENDBRANCH   1   7
BRANCH   6  13
ATOM     13  N   LIG d   1      -1.817  76.340 116.283  0.00  0.00    -0.311 N 
ATOM     14  C   LIG d   1      -1.795  75.009 116.281  0.00  0.00     0.210 C 
ATOM     15  C   LIG d   1      -1.352  74.366 117.599  0.00  0.00     0.109 C 
ATOM     16  O   LIG d   1      -2.070  74.299 115.302  0.00  0.00    -0.276 OA
ATOM     17  H   LIG d   1      -1.547  76.836 117.111  0.00  0.00     0.149 HD
ENDBRANCH   6  13
BRANCH   5  18
ATOM     18  N   LIG d   1      -0.370  76.397 113.593  0.00  0.00     0.381 N 
ATOM     19  H   LIG d   1      -1.025  75.649 113.479  0.00  0.00    -0.090 HD
ATOM     20  H   LIG d   1       0.366  76.081 114.200  0.00  0.00    -0.090 HD
ATOM     21  H   LIG d   1       0.007  76.657 112.708  0.00  0.00    -0.090 HD
ENDBRANCH   5  18
BRANCH   3  22
ATOM     22  C   LIG d   1      -2.296  80.712 112.815  0.00  0.00     0.382 C 
ATOM     23  O   LIG d   1      -3.341  81.398 112.707  0.00  0.00    -0.241 OA
ATOM     24  O   LIG d   1      -1.262  81.073 112.221  0.00  0.00    -0.241 OA
ENDBRANCH   3  22
TORSDOF 7
ENDMDL
MODEL 3
REMARK VINA RESULT:      -5.2      1.210      2.048
REMARK  7 active torsions:
REMARK  status: ('A' for Active; 'I' for Inactive)
REMARK    1  A    between atoms: C_2  and  C_3 
REMARK    2  A    between atoms: C_3  and  O_6 
REMARK    3  A    between atoms: C_3  and  C_4 
REMARK    4  A    between atoms: C_7  and  O_6 
REMARK    5  A    between atoms: C_9  and  C_10 
REMARK    6  A    between atoms: N_15  and  C_14 
REMARK    7  A    between atoms: N_20  and  C_19 
REMARK       I    between atoms: C_22  and  N_20 
ROOT
ATOM      1  C   LIG d   1      -2.325  78.232 115.266  0.00  0.00     0.161 C 
ATOM      2  C   LIG d   1      -2.736  79.409 114.618  0.00  0.00     0.016 C 
ATOM      3  C   LIG d   1      -2.478  79.677 113.254  0.00  0.00     0.038 C 
ATOM      4  C   LIG d   1      -1.918  78.713 112.402  0.00  0.00     0.028 C 
ATOM      5  C   LIG d   1      -1.032  77.706 113.126  0.00  0.00    -0.047 C 
ATOM      6  C   LIG d   1      -1.812  77.121 114.326  0.00  0.00     0.091 C 
ENDROOT
BRANCH   1   7
ATOM      7  O   LIG d   1      -3.392  77.733 116.095  0.00  0.00    -0.368 OA
BRANCH   7   8
ATOM      8  C   LIG d   1      -3.235  77.928 117.522  0.00  0.00     0.119 C 
BRANCH   8   9
ATOM      9  C   LIG d   1      -1.891  78.646 117.746  0.00  0.00     0.028 C 
ATOM     10  C   LIG d   1      -2.071  80.071 118.297  0.00  0.00     0.006 C 
ENDBRANCH   8   9
BRANCH   8  11
ATOM     11  C   LIG d   1      -3.107  76.590 118.257  0.00  0.00     0.028 C 
ATOM     12  C   LIG d   1      -1.735  76.406 118.925  0.00  0.00     0.006 C 
ENDBRANCH   8  11
ENDBRANCH   7   8
ENDBRANCH   1   7
BRANCH   6  13
ATOM     13  N   LIG d   1      -0.987  76.189 115.138  0.00  0.00    -0.311 N 
ATOM     14  C   LIG d   1      -1.390  74.969 115.488  0.00  0.00     0.210 C 
ATOM     15  C   LIG d   1      -0.394  74.180 116.344  0.00  0.00     0.109 C 
ATOM     16  O   LIG d   1      -2.464  74.453 115.144  0.00  0.00    -0.276 OA
ATOM     17  H   LIG d   1      -0.088  76.516 115.434  0.00  0.00     0.149 HD
ENDBRANCH   6  13
BRANCH   5  18
ATOM     18  N   LIG d   1      -0.628  76.681 112.145  0.00  0.00     0.381 N 
ATOM     19  H   LIG d   1      -0.269  77.123 111.322  0.00  0.00    -0.090 HD
ATOM     20  H   LIG d   1      -1.435  76.142 111.886  0.00  0.00    -0.090 HD
ATOM     21  H   LIG d   1       0.066  76.085 112.540  0.00  0.00    -0.090 HD
ENDBRANCH   5  18
BRANCH   3  22
ATOM     22  C   LIG d   1      -2.743  80.936 112.738  0.00  0.00     0.382 C 
ATOM     23  O   LIG d   1      -3.930  81.313 112.586  0.00  0.00    -0.241 OA
ATOM     24  O   LIG d   1      -1.812  81.683 112.383  0.00  0.00    -0.241 OA
ENDBRANCH   3  22
TORSDOF 7
ENDMDL
MODEL 4
REMARK VINA RESULT:      -5.0      2.998      5.383
REMARK  7 active torsions:
REMARK  status: ('A' for Active; 'I' for Inactive)
REMARK    1  A    between atoms: C_2  and  C_3 
REMARK    2  A    between atoms: C_3  and  O_6 
REMARK    3  A    between atoms: C_3  and  C_4 
REMARK    4  A    between atoms: C_7  and  O_6 
REMARK    5  A    between atoms: C_9  and  C_10 
REMARK    6  A    between atoms: N_15  and  C_14 
REMARK    7  A    between atoms: N_20  and  C_19 
REMARK       I    between atoms: C_22  and  N_20 
ROOT
ATOM      1  C   LIG d   1      -1.293  79.845 113.060  0.00  0.00     0.161 C 
ATOM      2  C   LIG d   1      -2.406  79.030 112.797  0.00  0.00     0.016 C 
ATOM      3  C   LIG d   1      -2.485  78.152 111.692  0.00  0.00     0.038 C 
ATOM      4  C   LIG d   1      -1.386  77.916 110.853  0.00  0.00     0.028 C 
ATOM      5  C   LIG d   1      -0.415  79.090 110.782  0.00  0.00    -0.047 C 
ATOM      6  C   LIG d   1      -0.040  79.519 112.219  0.00  0.00     0.091 C 
ENDROOT
BRANCH   1   7
ATOM      7  O   LIG d   1      -0.977  79.803 114.465  0.00  0.00    -0.368 OA
BRANCH   7   8
ATOM      8  C   LIG d   1      -1.497  78.669 115.202  0.00  0.00     0.119 C 
BRANCH   8   9
ATOM      9  C   LIG d   1      -2.050  79.199 116.539  0.00  0.00     0.028 C 
ATOM     10  C   LIG d   1      -3.580  79.354 116.521  0.00  0.00     0.006 C 
ENDBRANCH   8   9
BRANCH   8  11
ATOM     11  C   LIG d   1      -0.380  77.692 115.583  0.00  0.00     0.028 C 
ATOM     12  C   LIG d   1      -0.391  76.413 114.732  0.00  0.00     0.006 C 
ENDBRANCH   8  11
ENDBRANCH   7   8
ENDBRANCH   1   7
BRANCH   6  13
ATOM     13  N   LIG d   1       0.840  80.716 112.241  0.00  0.00    -0.311 N 
ATOM     14  C   LIG d   1       0.681  81.759 111.428  0.00  0.00     0.210 C 
ATOM     15  C   LIG d   1       1.711  82.879 111.603  0.00  0.00     0.109 C 
ATOM     16  O   LIG d   1      -0.234  81.876 110.599  0.00  0.00    -0.276 OA
ATOM     17  H   LIG d   1       1.590  80.718 112.904  0.00  0.00     0.149 HD
ENDBRANCH   6  13
BRANCH   5  18
ATOM     18  N   LIG d   1       0.749  78.658 109.985  0.00  0.00     0.381 N 
ATOM     19  H   LIG d   1       1.332  78.059 110.535  0.00  0.00    -0.090 HD
ATOM     20  H   LIG d   1       1.284  79.468 109.726  0.00  0.00    -0.090 HD
ATOM     21  H   LIG d   1       0.444  78.177 109.168  0.00  0.00    -0.090 HD
ENDBRANCH   5  18
BRANCH   3  22
ATOM     22  C   LIG d   1      -3.687  77.528 111.394  0.00  0.00     0.382 C 
ATOM     23  O   LIG d   1      -4.529  77.323 112.301  0.00  0.00    -0.241 OA
ATOM     24  O   LIG d   1      -3.921  77.128 110.238  0.00  0.00    -0.241 OA
ENDBRANCH   3  22
TORSDOF 7
ENDMDL
MODEL 5
REMARK VINA RESULT:      -4.9      2.890      5.246
REMARK  7 active torsions:
REMARK  status: ('A' for Active; 'I' for Inactive)
REMARK    1  A    between atoms: C_2  and  C_3 
REMARK    2  A    between atoms: C_3  and  O_6 
REMARK    3  A    between atoms: C_3  and  C_4 
REMARK    4  A    between atoms: C_7  and  O_6 
REMARK    5  A    between atoms: C_9  and  C_10 
REMARK    6  A    between atoms: N_15  and  C_14 
REMARK    7  A    between atoms: N_20  and  C_19 
REMARK       I    between atoms: C_22  and  N_20 
ROOT
ATOM      1  C   LIG d   1      -1.726  79.526 113.960  0.00  0.00     0.161 C 
ATOM      2  C   LIG d   1      -2.523  78.427 114.322  0.00  0.00     0.016 C 
ATOM      3  C   LIG d   1      -2.928  77.426 113.410  0.00  0.00     0.038 C 
ATOM      4  C   LIG d   1      -2.435  77.375 112.098  0.00  0.00     0.028 C 
ATOM      5  C   LIG d   1      -2.033  78.739 111.549  0.00  0.00    -0.047 C 
ATOM      6  C   LIG d   1      -1.087  79.428 112.559  0.00  0.00     0.091 C 
ENDROOT
BRANCH   1   7
ATOM      7  O   LIG d   1      -0.711  79.744 114.960  0.00  0.00    -0.368 OA
BRANCH   7   8
ATOM      8  C   LIG d   1      -0.806  78.928 116.153  0.00  0.00     0.119 C 
BRANCH   8   9
ATOM      9  C   LIG d   1      -0.819  79.880 117.365  0.00  0.00     0.028 C 
ATOM     10  C   LIG d   1      -2.049  79.670 118.263  0.00  0.00     0.006 C 
ENDBRANCH   8   9
BRANCH   8  11
ATOM     11  C   LIG d   1       0.442  78.058 116.334  0.00  0.00     0.028 C 
ATOM     12  C   LIG d   1       0.247  76.622 115.821  0.00  0.00     0.006 C 
ENDBRANCH   8  11
ENDBRANCH   7   8
ENDBRANCH   1   7
BRANCH   6  13
ATOM     13  N   LIG d   1      -0.713  80.803 112.138  0.00  0.00    -0.311 N 
ATOM     14  C   LIG d   1       0.406  81.088 111.475  0.00  0.00     0.210 C 
ATOM     15  C   LIG d   1       0.609  82.572 111.156  0.00  0.00     0.109 C 
ATOM     16  O   LIG d   1       1.234  80.248 111.092  0.00  0.00    -0.276 OA
ATOM     17  H   LIG d   1      -1.344  81.542 112.381  0.00  0.00     0.149 HD
ENDBRANCH   6  13
BRANCH   5  18
ATOM     18  N   LIG d   1      -1.410  78.523 110.229  0.00  0.00     0.381 N 
ATOM     19  H   LIG d   1      -1.194  77.553 110.112  0.00  0.00    -0.090 HD
ATOM     20  H   LIG d   1      -0.553  79.045 110.185  0.00  0.00    -0.090 HD
ATOM     21  H   LIG d   1      -2.028  78.822 109.507  0.00  0.00    -0.090 HD
ENDBRANCH   5  18
BRANCH   3  22
ATOM     22  C   LIG d   1      -3.868  76.483 113.798  0.00  0.00     0.382 C 
ATOM     23  O   LIG d   1      -3.550  75.575 114.604  0.00  0.00    -0.241 OA
ATOM     24  O   LIG d   1      -5.017  76.502 113.317  0.00  0.00    -0.241 OA
ENDBRANCH   3  22
TORSDOF 7
ENDMDL
MODEL 6
REMARK VINA RESULT:      -4.9      1.355      2.163
REMARK  7 active torsions:
REMARK  status: ('A' for Active; 'I' for Inactive)
REMARK    1  A    between atoms: C_2  and  C_3 
REMARK    2  A    between atoms: C_3  and  O_6 
REMARK    3  A    between atoms: C_3  and  C_4 
REMARK    4  A    between atoms: C_7  and  O_6 
REMARK    5  A    between atoms: C_9  and  C_10 
REMARK    6  A    between atoms: N_15  and  C_14 
REMARK    7  A    between atoms: N_20  and  C_19 
REMARK       I    between atoms: C_22  and  N_20 
ROOT
ATOM      1  C   LIG d   1      -2.259  78.209 116.264  0.00  0.00     0.161 C 
ATOM      2  C   LIG d   1      -2.662  79.088 115.246  0.00  0.00     0.016 C 
ATOM      3  C   LIG d   1      -2.230  78.976 113.904  0.00  0.00     0.038 C 
ATOM      4  C   LIG d   1      -1.479  77.879 113.457  0.00  0.00     0.028 C 
ATOM      5  C   LIG d   1      -0.630  77.239 114.550  0.00  0.00    -0.047 C 
ATOM      6  C   LIG d   1      -1.529  76.941 115.773  0.00  0.00     0.091 C 
ENDROOT
BRANCH   1   7
ATOM      7  O   LIG d   1      -3.393  77.850 117.078  0.00  0.00    -0.368 OA
BRANCH   7   8
ATOM      8  C   LIG d   1      -4.649  77.673 116.377  0.00  0.00     0.119 C 
BRANCH   8   9
ATOM      9  C   LIG d   1      -5.774  78.148 117.317  0.00  0.00     0.028 C 
ATOM     10  C   LIG d   1      -5.559  79.589 117.809  0.00  0.00     0.006 C 
ENDBRANCH   8   9
BRANCH   8  11
ATOM     11  C   LIG d   1      -4.937  76.192 116.115  0.00  0.00     0.028 C 
ATOM     12  C   LIG d   1      -4.934  75.839 114.619  0.00  0.00     0.006 C 
ENDBRANCH   8  11
ENDBRANCH   7   8
ENDBRANCH   1   7
BRANCH   6  13
ATOM     13  N   LIG d   1      -0.761  76.391 116.920  0.00  0.00    -0.311 N 
ATOM     14  C   LIG d   1      -0.612  75.087 117.145  0.00  0.00     0.210 C 
ATOM     15  C   LIG d   1       0.200  74.734 118.395  0.00  0.00     0.109 C 
ATOM     16  O   LIG d   1      -1.049  74.188 116.410  0.00  0.00    -0.276 OA
ATOM     17  H   LIG d   1      -0.346  77.050 117.549  0.00  0.00     0.149 HD
ENDBRANCH   6  13
BRANCH   5  18
ATOM     18  N   LIG d   1      -0.009  76.028 113.981  0.00  0.00     0.381 N 
ATOM     19  H   LIG d   1       0.424  75.495 114.709  0.00  0.00    -0.090 HD
ATOM     20  H   LIG d   1       0.702  76.305 113.327  0.00  0.00    -0.090 HD
ATOM     21  H   LIG d   1      -0.698  75.476 113.520  0.00  0.00    -0.090 HD
ENDBRANCH   5  18
BRANCH   3  22
ATOM     22  C   LIG d   1      -2.516  79.990 113.003  0.00  0.00     0.382 C 
ATOM     23  O   LIG d   1      -3.496  80.747 113.202  0.00  0.00    -0.241 OA
ATOM     24  O   LIG d   1      -1.833  80.129 111.971  0.00  0.00    -0.241 OA
ENDBRANCH   3  22
TORSDOF 7
ENDMDL
MODEL 7
REMARK VINA RESULT:      -4.6      2.724      3.291
REMARK  7 active torsions:
REMARK  status: ('A' for Active; 'I' for Inactive)
REMARK    1  A    between atoms: C_2  and  C_3 
REMARK    2  A    between atoms: C_3  and  O_6 
REMARK    3  A    between atoms: C_3  and  C_4 
REMARK    4  A    between atoms: C_7  and  O_6 
REMARK    5  A    between atoms: C_9  and  C_10 
REMARK    6  A    between atoms: N_15  and  C_14 
REMARK    7  A    between atoms: N_20  and  C_19 
REMARK       I    between atoms: C_22  and  N_20 
ROOT
ATOM      1  C   LIG d   1      -2.733  77.256 114.718  0.00  0.00     0.161 C 
ATOM      2  C   LIG d   1      -2.955  77.188 113.332  0.00  0.00     0.016 C 
ATOM      3  C   LIG d   1      -2.110  77.800 112.378  0.00  0.00     0.038 C 
ATOM      4  C   LIG d   1      -0.894  78.399 112.741  0.00  0.00     0.028 C 
ATOM      5  C   LIG d   1      -0.882  78.930 114.170  0.00  0.00    -0.047 C 
ATOM      6  C   LIG d   1      -1.352  77.810 115.126  0.00  0.00     0.091 C 
ENDROOT
BRANCH   1   7
ATOM      7  O   LIG d   1      -2.949  75.961 115.312  0.00  0.00    -0.368 OA
BRANCH   7   8
ATOM      8  C   LIG d   1      -3.979  75.888 116.327  0.00  0.00     0.119 C 
BRANCH   8   9
ATOM      9  C   LIG d   1      -4.861  74.665 116.006  0.00  0.00     0.028 C 
ATOM     10  C   LIG d   1      -5.437  74.716 114.581  0.00  0.00     0.006 C 
ENDBRANCH   8   9
BRANCH   8  11
ATOM     11  C   LIG d   1      -4.919  77.095 116.255  0.00  0.00     0.028 C 
ATOM     12  C   LIG d   1      -5.968  77.102 117.378  0.00  0.00     0.006 C 
ENDBRANCH   8  11
ENDBRANCH   7   8
ENDBRANCH   1   7
BRANCH   6  13
ATOM     13  N   LIG d   1      -1.451  78.272 116.535  0.00  0.00    -0.311 N 
ATOM     14  C   LIG d   1      -0.479  78.107 117.430  0.00  0.00     0.210 C 
ATOM     15  C   LIG d   1      -0.794  78.639 118.832  0.00  0.00     0.109 C 
ATOM     16  O   LIG d   1       0.627  77.600 117.189  0.00  0.00    -0.276 OA
ATOM     17  H   LIG d   1      -2.302  78.722 116.809  0.00  0.00     0.149 HD
ENDBRANCH   6  13
BRANCH   5  18
ATOM     18  N   LIG d   1       0.485  79.402 114.459  0.00  0.00     0.381 N 
ATOM     19  H   LIG d   1       0.585  79.570 115.440  0.00  0.00    -0.090 HD
ATOM     20  H   LIG d   1       0.640  80.268 113.974  0.00  0.00    -0.090 HD
ATOM     21  H   LIG d   1       1.150  78.722 114.162  0.00  0.00    -0.090 HD
ENDBRANCH   5  18
BRANCH   3  22
ATOM     22  C   LIG d   1      -2.499  77.852 111.049  0.00  0.00     0.382 C 
ATOM     23  O   LIG d   1      -1.781  78.445 110.208  0.00  0.00    -0.241 OA
ATOM     24  O   LIG d   1      -3.580  77.351 110.687  0.00  0.00    -0.241 OA
ENDBRANCH   3  22
TORSDOF 7
ENDMDL
MODEL 8
REMARK VINA RESULT:      -4.5      2.601      5.058
REMARK  7 active torsions:
REMARK  status: ('A' for Active; 'I' for Inactive)
REMARK    1  A    between atoms: C_2  and  C_3 
REMARK    2  A    between atoms: C_3  and  O_6 
REMARK    3  A    between atoms: C_3  and  C_4 
REMARK    4  A    between atoms: C_7  and  O_6 
REMARK    5  A    between atoms: C_9  and  C_10 
REMARK    6  A    between atoms: N_15  and  C_14 
REMARK    7  A    between atoms: N_20  and  C_19 
REMARK       I    between atoms: C_22  and  N_20 
ROOT
ATOM      1  C   LIG d   1      -1.550  75.935 114.924  0.00  0.00     0.161 C 
ATOM      2  C   LIG d   1      -1.195  75.572 116.234  0.00  0.00     0.016 C 
ATOM      3  C   LIG d   1      -0.383  76.372 117.070  0.00  0.00     0.038 C 
ATOM      4  C   LIG d   1       0.008  77.669 116.704  0.00  0.00     0.028 C 
ATOM      5  C   LIG d   1       0.096  77.871 115.195  0.00  0.00    -0.047 C 
ATOM      6  C   LIG d   1      -1.224  77.395 114.547  0.00  0.00     0.091 C 
ENDROOT
BRANCH   1   7
ATOM      7  O   LIG d   1      -2.947  75.659 114.701  0.00  0.00    -0.368 OA
BRANCH   7   8
ATOM      8  C   LIG d   1      -3.808  75.756 115.862  0.00  0.00     0.119 C 
BRANCH   8   9
ATOM      9  C   LIG d   1      -4.913  74.693 115.709  0.00  0.00     0.028 C 
ATOM     10  C   LIG d   1      -6.284  75.313 115.391  0.00  0.00     0.006 C 
ENDBRANCH   8   9
BRANCH   8  11
ATOM     11  C   LIG d   1      -4.542  77.100 115.901  0.00  0.00     0.028 C 
ATOM     12  C   LIG d   1      -3.957  78.068 116.941  0.00  0.00     0.006 C 
ENDBRANCH   8  11
ENDBRANCH   7   8
ENDBRANCH   1   7
BRANCH   6  13
ATOM     13  N   LIG d   1      -1.191  77.480 113.063  0.00  0.00    -0.311 N 
ATOM     14  C   LIG d   1      -2.179  77.997 112.336  0.00  0.00     0.210 C 
ATOM     15  C   LIG d   1      -1.950  77.969 110.821  0.00  0.00     0.109 C 
ATOM     16  O   LIG d   1      -3.209  78.506 112.803  0.00  0.00    -0.276 OA
ATOM     17  H   LIG d   1      -0.377  77.119 112.604  0.00  0.00     0.149 HD
ENDBRANCH   6  13
BRANCH   5  18
ATOM     18  N   LIG d   1       0.378  79.298 114.952  0.00  0.00     0.381 N 
ATOM     19  H   LIG d   1       0.488  79.460 113.971  0.00  0.00    -0.090 HD
ATOM     20  H   LIG d   1       1.238  79.542 115.410  0.00  0.00    -0.090 HD
ATOM     21  H   LIG d   1      -0.366  79.858 115.307  0.00  0.00    -0.090 HD
ENDBRANCH   5  18
BRANCH   3  22
ATOM     22  C   LIG d   1       0.079  75.860 118.273  0.00  0.00     0.382 C 
ATOM     23  O   LIG d   1       0.607  76.623 119.118  0.00  0.00    -0.241 OA
ATOM     24  O   LIG d   1       0.015  74.638 118.505  0.00  0.00    -0.241 OA
ENDBRANCH   3  22
TORSDOF 7
ENDMDL
MODEL 9
REMARK VINA RESULT:      -4.3      2.200      2.717
REMARK  7 active torsions:
REMARK  status: ('A' for Active; 'I' for Inactive)
REMARK    1  A    between atoms: C_2  and  C_3 
REMARK    2  A    between atoms: C_3  and  O_6 
REMARK    3  A    between atoms: C_3  and  C_4 
REMARK    4  A    between atoms: C_7  and  O_6 
REMARK    5  A    between atoms: C_9  and  C_10 
REMARK    6  A    between atoms: N_15  and  C_14 
REMARK    7  A    between atoms: N_20  and  C_19 
REMARK       I    between atoms: C_22  and  N_20 
ROOT
ATOM      1  C   LIG d   1      -2.994  76.802 115.883  0.00  0.00     0.161 C 
ATOM      2  C   LIG d   1      -3.317  77.111 114.551  0.00  0.00     0.016 C 
ATOM      3  C   LIG d   1      -2.368  77.124 113.503  0.00  0.00     0.038 C 
ATOM      4  C   LIG d   1      -1.051  76.678 113.689  0.00  0.00     0.028 C 
ATOM      5  C   LIG d   1      -0.554  76.838 115.122  0.00  0.00    -0.047 C 
ATOM      6  C   LIG d   1      -1.585  76.204 116.084  0.00  0.00     0.091 C 
ENDROOT
BRANCH   1   7
ATOM      7  O   LIG d   1      -3.994  75.924 116.437  0.00  0.00    -0.368 OA
BRANCH   7   8
ATOM      8  C   LIG d   1      -4.891  76.514 117.410  0.00  0.00     0.119 C 
BRANCH   8   9
ATOM      9  C   LIG d   1      -6.264  76.684 116.731  0.00  0.00     0.028 C 
ATOM     10  C   LIG d   1      -6.527  75.609 115.662  0.00  0.00     0.006 C 
ENDBRANCH   8   9
BRANCH   8  11
ATOM     11  C   LIG d   1      -4.448  77.931 117.789  0.00  0.00     0.028 C 
ATOM     12  C   LIG d   1      -5.572  78.967 117.635  0.00  0.00     0.006 C 
ENDBRANCH   8  11
ENDBRANCH   7   8
ENDBRANCH   1   7
BRANCH   6  13
ATOM     13  N   LIG d   1      -1.217  76.391 117.512  0.00  0.00    -0.311 N 
ATOM     14  C   LIG d   1      -0.968  75.381 118.343  0.00  0.00     0.210 C 
ATOM     15  C   LIG d   1      -0.627  75.793 119.779  0.00  0.00     0.109 C 
ATOM     16  O   LIG d   1      -0.966  74.183 118.020  0.00  0.00    -0.276 OA
ATOM     17  H   LIG d   1      -1.165  77.332 117.850  0.00  0.00     0.149 HD
ENDBRANCH   6  13
BRANCH   5  18
ATOM     18  N   LIG d   1       0.777  76.208 115.205  0.00  0.00     0.381 N 
ATOM     19  H   LIG d   1       1.017  75.805 114.322  0.00  0.00    -0.090 HD
ATOM     20  H   LIG d   1       0.747  75.473 115.890  0.00  0.00    -0.090 HD
ATOM     21  H   LIG d   1       1.459  76.886 115.465  0.00  0.00    -0.090 HD
ENDBRANCH   5  18
BRANCH   3  22
ATOM     22  C   LIG d   1      -2.724  77.626 112.260  0.00  0.00     0.382 C 
ATOM     23  O   LIG d   1      -3.925  77.612 111.899  0.00  0.00    -0.241 OA
ATOM     24  O   LIG d   1      -1.853  78.051 111.478  0.00  0.00    -0.241 OA
ENDBRANCH   3  22
TORSDOF 7
ENDMDL
