MODEL 1
REMARK VINA RESULT:      -5.6      0.000      0.000
REMARK  7 active torsions:
REMARK  status: ('A' for Active; 'I' for Inactive)
REMARK    1  A    between atoms: C_2  and  C_3 
REMARK    2  A    between atoms: C_3  and  O_6 
REMARK    3  A    between atoms: C_3  and  C_4 
REMARK    4  A    between atoms: C_7  and  O_6 
REMARK    5  A    between atoms: C_9  and  C_10 
REMARK    6  A    between atoms: N_15  and  C_14 
REMARK    7  A    between atoms: N_20  and  C_19 
REMARK       I    between atoms: C_22  and  N_20 
ROOT
ATOM      1  C   LIG d   1       0.059  80.227 111.395  0.00  0.00     0.161 C 
ATOM      2  C   LIG d   1      -0.716  79.191 110.847  0.00  0.00     0.016 C 
ATOM      3  C   LIG d   1      -1.617  78.409 111.605  0.00  0.00     0.038 C 
ATOM      4  C   LIG d   1      -1.919  78.712 112.941  0.00  0.00     0.028 C 
ATOM      5  C   LIG d   1      -0.788  79.429 113.670  0.00  0.00    -0.047 C 
ATOM      6  C   LIG d   1      -0.338  80.644 112.826  0.00  0.00     0.091 C 
ENDROOT
BRANCH   1   7
ATOM      7  O   LIG d   1       0.039  81.369 110.516  0.00  0.00    -0.368 OA
BRANCH   7   8
ATOM      8  C   LIG d   1       1.177  81.512 109.631  0.00  0.00     0.119 C 
BRANCH   8   9
ATOM      9  C   LIG d   1       2.394  80.880 110.335  0.00  0.00     0.028 C 
ATOM     10  C   LIG d   1       3.146  79.890 109.430  0.00  0.00     0.006 C 
ENDBRANCH   8   9
BRANCH   8  11
ATOM     11  C   LIG d   1       1.545  82.985 109.430  0.00  0.00     0.028 C 
ATOM     12  C   LIG d   1       2.825  83.388 110.181  0.00  0.00     0.006 C 
ENDBRANCH   8  11
ENDBRANCH   7   8
ENDBRANCH   1   7
BRANCH   6  13
ATOM     13  N   LIG d   1       0.822  81.353 113.427  0.00  0.00    -0.311 N 
ATOM     14  C   LIG d   1       0.961  82.677 113.409  0.00  0.00     0.210 C 
ATOM     15  C   LIG d   1       2.241  83.202 114.067  0.00  0.00     0.109 C 
ATOM     16  O   LIG d   1       0.130  83.470 112.941  0.00  0.00    -0.276 OA
ATOM     17  H   LIG d   1       1.529  80.789 113.856  0.00  0.00     0.149 HD
ENDBRANCH   6  13
BRANCH   5  18
ATOM     18  N   LIG d   1      -1.286  79.806 115.006  0.00  0.00     0.381 N 
ATOM     19  H   LIG d   1      -1.402  78.986 115.568  0.00  0.00    -0.090 HD
ATOM     20  H   LIG d   1      -2.183  80.249 114.906  0.00  0.00    -0.090 HD
ATOM     21  H   LIG d   1      -0.646  80.430 115.445  0.00  0.00    -0.090 HD
ENDBRANCH   5  18
BRANCH   3  22
ATOM     22  C   LIG d   1      -2.199  77.286 111.037  0.00  0.00     0.382 C 
ATOM     23  O   LIG d   1      -1.476  76.344 110.631  0.00  0.00    -0.241 OA
ATOM     24  O   LIG d   1      -3.433  77.222 110.885  0.00  0.00    -0.241 OA
ENDBRANCH   3  22
TORSDOF 7
ENDMDL
MODEL 2
REMARK VINA RESULT:      -5.2      4.701      7.604
REMARK  7 active torsions:
REMARK  status: ('A' for Active; 'I' for Inactive)
REMARK    1  A    between atoms: C_2  and  C_3 
REMARK    2  A    between atoms: C_3  and  O_6 
REMARK    3  A    between atoms: C_3  and  C_4 
REMARK    4  A    between atoms: C_7  and  O_6 
REMARK    5  A    between atoms: C_9  and  C_10 
REMARK    6  A    between atoms: N_15  and  C_14 
REMARK    7  A    between atoms: N_20  and  C_19 
REMARK       I    between atoms: C_22  and  N_20 
ROOT
ATOM      1  C   LIG d   1      -3.337  77.231 114.455  0.00  0.00     0.161 C 
ATOM      2  C   LIG d   1      -3.309  77.463 113.070  0.00  0.00     0.016 C 
ATOM      3  C   LIG d   1      -2.205  77.137 112.248  0.00  0.00     0.038 C 
ATOM      4  C   LIG d   1      -1.106  76.415 112.735  0.00  0.00     0.028 C 
ATOM      5  C   LIG d   1      -0.869  76.606 114.230  0.00  0.00    -0.047 C 
ATOM      6  C   LIG d   1      -2.192  76.343 114.985  0.00  0.00     0.091 C 
ENDROOT
BRANCH   1   7
ATOM      7  O   LIG d   1      -4.614  76.681 114.833  0.00  0.00    -0.368 OA
BRANCH   7   8
ATOM      8  C   LIG d   1      -5.076  75.549 114.055  0.00  0.00     0.119 C 
BRANCH   8   9
ATOM      9  C   LIG d   1      -6.464  75.911 113.491  0.00  0.00     0.028 C 
ATOM     10  C   LIG d   1      -6.413  76.283 112.000  0.00  0.00     0.006 C 
ENDBRANCH   8   9
BRANCH   8  11
ATOM     11  C   LIG d   1      -5.305  74.320 114.940  0.00  0.00     0.028 C 
ATOM     12  C   LIG d   1      -6.765  74.183 115.403  0.00  0.00     0.006 C 
ENDBRANCH   8  11
ENDBRANCH   7   8
ENDBRANCH   1   7
BRANCH   6  13
ATOM     13  N   LIG d   1      -2.069  76.590 116.446  0.00  0.00    -0.311 N 
ATOM     14  C   LIG d   1      -1.780  75.636 117.329  0.00  0.00     0.210 C 
ATOM     15  C   LIG d   1      -1.721  76.102 118.787  0.00  0.00     0.109 C 
ATOM     16  O   LIG d   1      -1.534  74.456 117.040  0.00  0.00    -0.276 OA
ATOM     17  H   LIG d   1      -2.222  77.527 116.764  0.00  0.00     0.149 HD
ENDBRANCH   6  13
BRANCH   5  18
ATOM     18  N   LIG d   1       0.217  75.692 114.629  0.00  0.00     0.381 N 
ATOM     19  H   LIG d   1      -0.079  74.743 114.515  0.00  0.00    -0.090 HD
ATOM     20  H   LIG d   1       0.427  75.842 115.601  0.00  0.00    -0.090 HD
ATOM     21  H   LIG d   1       1.028  75.864 114.076  0.00  0.00    -0.090 HD
ENDBRANCH   5  18
BRANCH   3  22
ATOM     22  C   LIG d   1      -2.177  77.572 110.932  0.00  0.00     0.382 C 
ATOM     23  O   LIG d   1      -3.198  77.456 110.212  0.00  0.00    -0.241 OA
ATOM     24  O   LIG d   1      -1.130  78.036 110.442  0.00  0.00    -0.241 OA
ENDBRANCH   3  22
TORSDOF 7
ENDMDL
MODEL 3
REMARK VINA RESULT:      -5.1      4.043      7.032
REMARK  7 active torsions:
REMARK  status: ('A' for Active; 'I' for Inactive)
REMARK    1  A    between atoms: C_2  and  C_3 
REMARK    2  A    between atoms: C_3  and  O_6 
REMARK    3  A    between atoms: C_3  and  C_4 
REMARK    4  A    between atoms: C_7  and  O_6 
REMARK    5  A    between atoms: C_9  and  C_10 
REMARK    6  A    between atoms: N_15  and  C_14 
REMARK    7  A    between atoms: N_20  and  C_19 
REMARK       I    between atoms: C_22  and  N_20 
ROOT
ATOM      1  C   LIG d   1      -2.115  75.960 114.028  0.00  0.00     0.161 C 
ATOM      2  C   LIG d   1      -2.267  75.601 115.377  0.00  0.00     0.016 C 
ATOM      3  C   LIG d   1      -1.918  76.451 116.452  0.00  0.00     0.038 C 
ATOM      4  C   LIG d   1      -1.531  77.784 116.248  0.00  0.00     0.028 C 
ATOM      5  C   LIG d   1      -0.881  78.025 114.890  0.00  0.00    -0.047 C 
ATOM      6  C   LIG d   1      -1.799  77.450 113.786  0.00  0.00     0.091 C 
ENDROOT
BRANCH   1   7
ATOM      7  O   LIG d   1      -3.285  75.569 113.283  0.00  0.00    -0.368 OA
BRANCH   7   8
ATOM      8  C   LIG d   1      -4.440  76.434 113.411  0.00  0.00     0.119 C 
BRANCH   8   9
ATOM      9  C   LIG d   1      -5.610  75.573 113.926  0.00  0.00     0.028 C 
ATOM     10  C   LIG d   1      -5.974  75.891 115.386  0.00  0.00     0.006 C 
ENDBRANCH   8   9
BRANCH   8  11
ATOM     11  C   LIG d   1      -4.895  76.961 112.046  0.00  0.00     0.028 C 
ATOM     12  C   LIG d   1      -6.314  76.503 111.673  0.00  0.00     0.006 C 
ENDBRANCH   8  11
ENDBRANCH   7   8
ENDBRANCH   1   7
BRANCH   6  13
ATOM     13  N   LIG d   1      -1.199  77.569 112.431  0.00  0.00    -0.311 N 
ATOM     14  C   LIG d   1      -1.431  78.594 111.614  0.00  0.00     0.210 C 
ATOM     15  C   LIG d   1      -0.729  78.510 110.255  0.00  0.00     0.109 C 
ATOM     16  O   LIG d   1      -2.127  79.581 111.897  0.00  0.00    -0.276 OA
ATOM     17  H   LIG d   1      -0.596  76.827 112.133  0.00  0.00     0.149 HD
ENDBRANCH   6  13
BRANCH   5  18
ATOM     18  N   LIG d   1      -0.654  79.476 114.755  0.00  0.00     0.381 N 
ATOM     19  H   LIG d   1      -1.113  79.816 113.934  0.00  0.00    -0.090 HD
ATOM     20  H   LIG d   1       0.332  79.643 114.657  0.00  0.00    -0.090 HD
ATOM     21  H   LIG d   1      -1.000  79.951 115.560  0.00  0.00    -0.090 HD
ENDBRANCH   5  18
BRANCH   3  22
ATOM     22  C   LIG d   1      -1.916  75.955 117.747  0.00  0.00     0.382 C 
ATOM     23  O   LIG d   1      -2.563  76.546 118.645  0.00  0.00    -0.241 OA
ATOM     24  O   LIG d   1      -1.239  74.951 118.038  0.00  0.00    -0.241 OA
ENDBRANCH   3  22
TORSDOF 7
ENDMDL
MODEL 4
REMARK VINA RESULT:      -5.1      2.315      4.915
REMARK  7 active torsions:
REMARK  status: ('A' for Active; 'I' for Inactive)
REMARK    1  A    between atoms: C_2  and  C_3 
REMARK    2  A    between atoms: C_3  and  O_6 
REMARK    3  A    between atoms: C_3  and  C_4 
REMARK    4  A    between atoms: C_7  and  O_6 
REMARK    5  A    between atoms: C_9  and  C_10 
REMARK    6  A    between atoms: N_15  and  C_14 
REMARK    7  A    between atoms: N_20  and  C_19 
REMARK       I    between atoms: C_22  and  N_20 
ROOT
ATOM      1  C   LIG d   1      -1.768  80.042 113.427  0.00  0.00     0.161 C 
ATOM      2  C   LIG d   1      -2.684  79.041 113.061  0.00  0.00     0.016 C 
ATOM      3  C   LIG d   1      -2.542  78.241 111.904  0.00  0.00     0.038 C 
ATOM      4  C   LIG d   1      -1.386  78.285 111.110  0.00  0.00     0.028 C 
ATOM      5  C   LIG d   1      -0.670  79.631 111.156  0.00  0.00    -0.047 C 
ATOM      6  C   LIG d   1      -0.445  80.029 112.633  0.00  0.00     0.091 C 
ENDROOT
BRANCH   1   7
ATOM      7  O   LIG d   1      -1.504  79.969 114.842  0.00  0.00    -0.368 OA
BRANCH   7   8
ATOM      8  C   LIG d   1      -1.870  78.729 115.496  0.00  0.00     0.119 C 
BRANCH   8   9
ATOM      9  C   LIG d   1      -2.547  79.092 116.832  0.00  0.00     0.028 C 
ATOM     10  C   LIG d   1      -3.998  78.588 116.911  0.00  0.00     0.006 C 
ENDBRANCH   8   9
BRANCH   8  11
ATOM     11  C   LIG d   1      -0.631  77.913 115.877  0.00  0.00     0.028 C 
ATOM     12  C   LIG d   1      -0.447  76.665 115.001  0.00  0.00     0.006 C 
ENDBRANCH   8  11
ENDBRANCH   7   8
ENDBRANCH   1   7
BRANCH   6  13
ATOM     13  N   LIG d   1       0.175  81.372 112.769  0.00  0.00    -0.311 N 
ATOM     14  C   LIG d   1      -0.361  82.482 112.264  0.00  0.00     0.210 C 
ATOM     15  C   LIG d   1       0.451  83.759 112.501  0.00  0.00     0.109 C 
ATOM     16  O   LIG d   1      -1.448  82.535 111.669  0.00  0.00    -0.276 OA
ATOM     17  H   LIG d   1       1.043  81.426 113.265  0.00  0.00     0.149 HD
ENDBRANCH   6  13
BRANCH   5  18
ATOM     18  N   LIG d   1       0.586  79.493 110.396  0.00  0.00     0.381 N 
ATOM     19  H   LIG d   1       1.185  80.271 110.588  0.00  0.00    -0.090 HD
ATOM     20  H   LIG d   1       0.374  79.494 109.414  0.00  0.00    -0.090 HD
ATOM     21  H   LIG d   1       1.044  78.644 110.644  0.00  0.00    -0.090 HD
ENDBRANCH   5  18
BRANCH   3  22
ATOM     22  C   LIG d   1      -3.581  77.412 111.510  0.00  0.00     0.382 C 
ATOM     23  O   LIG d   1      -3.776  77.189 110.291  0.00  0.00    -0.241 OA
ATOM     24  O   LIG d   1      -4.353  76.921 112.355  0.00  0.00    -0.241 OA
ENDBRANCH   3  22
TORSDOF 7
ENDMDL
MODEL 5
REMARK VINA RESULT:      -5.1      3.879      7.470
REMARK  7 active torsions:
REMARK  status: ('A' for Active; 'I' for Inactive)
REMARK    1  A    between atoms: C_2  and  C_3 
REMARK    2  A    between atoms: C_3  and  O_6 
REMARK    3  A    between atoms: C_3  and  C_4 
REMARK    4  A    between atoms: C_7  and  O_6 
REMARK    5  A    between atoms: C_9  and  C_10 
REMARK    6  A    between atoms: N_15  and  C_14 
REMARK    7  A    between atoms: N_20  and  C_19 
REMARK       I    between atoms: C_22  and  N_20 
ROOT
ATOM      1  C   LIG d   1      -3.530  76.925 113.665  0.00  0.00     0.161 C 
ATOM      2  C   LIG d   1      -2.846  77.288 112.493  0.00  0.00     0.016 C 
ATOM      3  C   LIG d   1      -1.827  78.268 112.459  0.00  0.00     0.038 C 
ATOM      4  C   LIG d   1      -1.316  78.847 113.630  0.00  0.00     0.028 C 
ATOM      5  C   LIG d   1      -2.320  78.881 114.777  0.00  0.00    -0.047 C 
ATOM      6  C   LIG d   1      -2.910  77.465 114.970  0.00  0.00     0.091 C 
ENDROOT
BRANCH   1   7
ATOM      7  O   LIG d   1      -3.662  75.491 113.729  0.00  0.00    -0.368 OA
BRANCH   7   8
ATOM      8  C   LIG d   1      -5.002  74.965 113.561  0.00  0.00     0.119 C 
BRANCH   8   9
ATOM      9  C   LIG d   1      -5.934  76.158 113.271  0.00  0.00     0.028 C 
ATOM     10  C   LIG d   1      -6.400  76.197 111.806  0.00  0.00     0.006 C 
ENDBRANCH   8   9
BRANCH   8  11
ATOM     11  C   LIG d   1      -5.526  74.348 114.860  0.00  0.00     0.028 C 
ATOM     12  C   LIG d   1      -6.894  74.908 115.277  0.00  0.00     0.006 C 
ENDBRANCH   8  11
ENDBRANCH   7   8
ENDBRANCH   1   7
BRANCH   6  13
ATOM     13  N   LIG d   1      -3.964  77.428 116.018  0.00  0.00    -0.311 N 
ATOM     14  C   LIG d   1      -3.885  76.670 117.110  0.00  0.00     0.210 C 
ATOM     15  C   LIG d   1      -5.089  76.767 118.052  0.00  0.00     0.109 C 
ATOM     16  O   LIG d   1      -2.917  75.952 117.404  0.00  0.00    -0.276 OA
ATOM     17  H   LIG d   1      -4.770  78.004 115.875  0.00  0.00     0.149 HD
ENDBRANCH   6  13
BRANCH   5  18
ATOM     18  N   LIG d   1      -1.615  79.382 115.972  0.00  0.00     0.381 N 
ATOM     19  H   LIG d   1      -1.854  80.340 116.130  0.00  0.00    -0.090 HD
ATOM     20  H   LIG d   1      -0.625  79.326 115.812  0.00  0.00    -0.090 HD
ATOM     21  H   LIG d   1      -1.861  78.835 116.767  0.00  0.00    -0.090 HD
ENDBRANCH   5  18
BRANCH   3  22
ATOM     22  C   LIG d   1      -1.337  78.707 111.238  0.00  0.00     0.382 C 
ATOM     23  O   LIG d   1      -0.888  79.873 111.126  0.00  0.00    -0.241 OA
ATOM     24  O   LIG d   1      -1.378  77.966 110.238  0.00  0.00    -0.241 OA
ENDBRANCH   3  22
TORSDOF 7
ENDMDL
MODEL 6
REMARK VINA RESULT:      -4.9      3.080      5.433
REMARK  7 active torsions:
REMARK  status: ('A' for Active; 'I' for Inactive)
REMARK    1  A    between atoms: C_2  and  C_3 
REMARK    2  A    between atoms: C_3  and  O_6 
REMARK    3  A    between atoms: C_3  and  C_4 
REMARK    4  A    between atoms: C_7  and  O_6 
REMARK    5  A    between atoms: C_9  and  C_10 
REMARK    6  A    between atoms: N_15  and  C_14 
REMARK    7  A    between atoms: N_20  and  C_19 
REMARK       I    between atoms: C_22  and  N_20 
ROOT
ATOM      1  C   LIG d   1      -2.343  79.315 114.350  0.00  0.00     0.161 C 
ATOM      2  C   LIG d   1      -2.765  77.991 114.553  0.00  0.00     0.016 C 
ATOM      3  C   LIG d   1      -2.725  76.999 113.546  0.00  0.00     0.038 C 
ATOM      4  C   LIG d   1      -2.115  77.227 112.304  0.00  0.00     0.028 C 
ATOM      5  C   LIG d   1      -2.131  78.692 111.881  0.00  0.00    -0.047 C 
ATOM      6  C   LIG d   1      -1.570  79.554 113.035  0.00  0.00     0.091 C 
ENDROOT
BRANCH   1   7
ATOM      7  O   LIG d   1      -1.561  79.757 115.478  0.00  0.00    -0.368 OA
BRANCH   7   8
ATOM      8  C   LIG d   1      -1.390  78.797 116.549  0.00  0.00     0.119 C 
BRANCH   8   9
ATOM      9  C   LIG d   1      -1.729  79.513 117.871  0.00  0.00     0.028 C 
ATOM     10  C   LIG d   1      -3.179  79.264 118.318  0.00  0.00     0.006 C 
ENDBRANCH   8   9
BRANCH   8  11
ATOM     11  C   LIG d   1       0.074  78.368 116.685  0.00  0.00     0.028 C 
ATOM     12  C   LIG d   1       0.323  76.934 116.189  0.00  0.00     0.006 C 
ENDBRANCH   8  11
ENDBRANCH   7   8
ENDBRANCH   1   7
BRANCH   6  13
ATOM     13  N   LIG d   1      -1.629  81.009 112.737  0.00  0.00    -0.311 N 
ATOM     14  C   LIG d   1      -0.611  81.692 112.218  0.00  0.00     0.210 C 
ATOM     15  C   LIG d   1      -0.875  83.186 112.008  0.00  0.00     0.109 C 
ATOM     16  O   LIG d   1       0.475  81.197 111.882  0.00  0.00    -0.276 OA
ATOM     17  H   LIG d   1      -2.484  81.484 112.950  0.00  0.00     0.149 HD
ENDBRANCH   6  13
BRANCH   5  18
ATOM     18  N   LIG d   1      -1.343  78.806 110.639  0.00  0.00     0.381 N 
ATOM     19  H   LIG d   1      -1.900  78.526 109.857  0.00  0.00    -0.090 HD
ATOM     20  H   LIG d   1      -0.551  78.191 110.699  0.00  0.00    -0.090 HD
ATOM     21  H   LIG d   1      -1.034  79.746 110.516  0.00  0.00    -0.090 HD
ENDBRANCH   5  18
BRANCH   3  22
ATOM     22  C   LIG d   1      -3.337  75.774 113.764  0.00  0.00     0.382 C 
ATOM     23  O   LIG d   1      -2.780  74.916 114.491  0.00  0.00    -0.241 OA
ATOM     24  O   LIG d   1      -4.417  75.499 113.208  0.00  0.00    -0.241 OA
ENDBRANCH   3  22
TORSDOF 7
ENDMDL
MODEL 7
REMARK VINA RESULT:      -4.9      2.345      2.944
REMARK  7 active torsions:
REMARK  status: ('A' for Active; 'I' for Inactive)
REMARK    1  A    between atoms: C_2  and  C_3 
REMARK    2  A    between atoms: C_3  and  O_6 
REMARK    3  A    between atoms: C_3  and  C_4 
REMARK    4  A    between atoms: C_7  and  O_6 
REMARK    5  A    between atoms: C_9  and  C_10 
REMARK    6  A    between atoms: N_15  and  C_14 
REMARK    7  A    between atoms: N_20  and  C_19 
REMARK       I    between atoms: C_22  and  N_20 
ROOT
ATOM      1  C   LIG d   1      -0.938  79.689 113.281  0.00  0.00     0.161 C 
ATOM      2  C   LIG d   1      -1.880  79.134 112.399  0.00  0.00     0.016 C 
ATOM      3  C   LIG d   1      -2.760  78.087 112.758  0.00  0.00     0.038 C 
ATOM      4  C   LIG d   1      -2.861  77.624 114.078  0.00  0.00     0.028 C 
ATOM      5  C   LIG d   1      -1.579  77.805 114.884  0.00  0.00    -0.047 C 
ATOM      6  C   LIG d   1      -1.110  79.273 114.757  0.00  0.00     0.091 C 
ENDROOT
BRANCH   1   7
ATOM      7  O   LIG d   1      -0.945  81.126 113.162  0.00  0.00    -0.368 OA
BRANCH   7   8
ATOM      8  C   LIG d   1      -0.282  81.671 111.994  0.00  0.00     0.119 C 
BRANCH   8   9
ATOM      9  C   LIG d   1       1.217  81.797 112.329  0.00  0.00     0.028 C 
ATOM     10  C   LIG d   1       2.114  81.187 111.240  0.00  0.00     0.006 C 
ENDBRANCH   8   9
BRANCH   8  11
ATOM     11  C   LIG d   1      -0.754  83.099 111.703  0.00  0.00     0.028 C 
ATOM     12  C   LIG d   1      -0.055  84.149 112.580  0.00  0.00     0.006 C 
ENDBRANCH   8  11
ENDBRANCH   7   8
ENDBRANCH   1   7
BRANCH   6  13
ATOM     13  N   LIG d   1       0.184  79.516 115.446  0.00  0.00    -0.311 N 
ATOM     14  C   LIG d   1       0.275  79.955 116.701  0.00  0.00     0.210 C 
ATOM     15  C   LIG d   1       1.704  80.158 117.212  0.00  0.00     0.109 C 
ATOM     16  O   LIG d   1      -0.692  80.164 117.449  0.00  0.00    -0.276 OA
ATOM     17  H   LIG d   1       1.019  79.342 114.923  0.00  0.00     0.149 HD
ENDBRANCH   6  13
BRANCH   5  18
ATOM     18  N   LIG d   1      -1.867  77.409 116.275  0.00  0.00     0.381 N 
ATOM     19  H   LIG d   1      -1.247  77.886 116.899  0.00  0.00    -0.090 HD
ATOM     20  H   LIG d   1      -1.711  76.420 116.370  0.00  0.00    -0.090 HD
ATOM     21  H   LIG d   1      -2.812  77.627 116.503  0.00  0.00    -0.090 HD
ENDBRANCH   5  18
BRANCH   3  22
ATOM     22  C   LIG d   1      -3.523  77.465 111.782  0.00  0.00     0.382 C 
ATOM     23  O   LIG d   1      -3.097  77.395 110.603  0.00  0.00    -0.241 OA
ATOM     24  O   LIG d   1      -4.650  77.011 112.054  0.00  0.00    -0.241 OA
ENDBRANCH   3  22
TORSDOF 7
ENDMDL
MODEL 8
REMARK VINA RESULT:      -4.9      3.330      7.082
REMARK  7 active torsions:
REMARK  status: ('A' for Active; 'I' for Inactive)
REMARK    1  A    between atoms: C_2  and  C_3 
REMARK    2  A    between atoms: C_3  and  O_6 
REMARK    3  A    between atoms: C_3  and  C_4 
REMARK    4  A    between atoms: C_7  and  O_6 
REMARK    5  A    between atoms: C_9  and  C_10 
REMARK    6  A    between atoms: N_15  and  C_14 
REMARK    7  A    between atoms: N_20  and  C_19 
REMARK       I    between atoms: C_22  and  N_20 
ROOT
ATOM      1  C   LIG d   1      -2.108  78.655 114.168  0.00  0.00     0.161 C 
ATOM      2  C   LIG d   1      -1.220  79.698 113.857  0.00  0.00     0.016 C 
ATOM      3  C   LIG d   1      -0.677  79.899 112.567  0.00  0.00     0.038 C 
ATOM      4  C   LIG d   1      -1.105  79.155 111.458  0.00  0.00     0.028 C 
ATOM      5  C   LIG d   1      -1.621  77.767 111.822  0.00  0.00    -0.047 C 
ATOM      6  C   LIG d   1      -2.673  77.901 112.946  0.00  0.00     0.091 C 
ENDROOT
BRANCH   1   7
ATOM      7  O   LIG d   1      -3.182  79.155 114.988  0.00  0.00    -0.368 OA
BRANCH   7   8
ATOM      8  C   LIG d   1      -3.087  78.871 116.406  0.00  0.00     0.119 C 
BRANCH   8   9
ATOM      9  C   LIG d   1      -2.193  77.627 116.570  0.00  0.00     0.028 C 
ATOM     10  C   LIG d   1      -2.970  76.412 117.104  0.00  0.00     0.006 C 
ENDBRANCH   8   9
BRANCH   8  11
ATOM     11  C   LIG d   1      -4.447  78.473 116.987  0.00  0.00     0.028 C 
ATOM     12  C   LIG d   1      -5.163  79.641 117.683  0.00  0.00     0.006 C 
ENDBRANCH   8  11
ENDBRANCH   7   8
ENDBRANCH   1   7
BRANCH   6  13
ATOM     13  N   LIG d   1      -3.168  76.582 113.420  0.00  0.00    -0.311 N 
ATOM     14  C   LIG d   1      -4.436  76.190 113.307  0.00  0.00     0.210 C 
ATOM     15  C   LIG d   1      -4.737  74.801 113.879  0.00  0.00     0.109 C 
ATOM     16  O   LIG d   1      -5.333  76.848 112.759  0.00  0.00    -0.276 OA
ATOM     17  H   LIG d   1      -2.500  75.972 113.850  0.00  0.00     0.149 HD
ENDBRANCH   6  13
BRANCH   5  18
ATOM     18  N   LIG d   1      -2.161  77.155 110.593  0.00  0.00     0.381 N 
ATOM     19  H   LIG d   1      -1.427  76.698 110.091  0.00  0.00    -0.090 HD
ATOM     20  H   LIG d   1      -2.539  77.880 110.009  0.00  0.00    -0.090 HD
ATOM     21  H   LIG d   1      -2.874  76.499 110.824  0.00  0.00    -0.090 HD
ENDBRANCH   5  18
BRANCH   3  22
ATOM     22  C   LIG d   1       0.337  80.827 112.386  0.00  0.00     0.382 C 
ATOM     23  O   LIG d   1       1.111  80.726 111.404  0.00  0.00    -0.241 OA
ATOM     24  O   LIG d   1       0.514  81.739 113.215  0.00  0.00    -0.241 OA
ENDBRANCH   3  22
TORSDOF 7
ENDMDL
MODEL 9
REMARK VINA RESULT:      -4.9      4.188      5.910
REMARK  7 active torsions:
REMARK  status: ('A' for Active; 'I' for Inactive)
REMARK    1  A    between atoms: C_2  and  C_3 
REMARK    2  A    between atoms: C_3  and  O_6 
REMARK    3  A    between atoms: C_3  and  C_4 
REMARK    4  A    between atoms: C_7  and  O_6 
REMARK    5  A    between atoms: C_9  and  C_10 
REMARK    6  A    between atoms: N_15  and  C_14 
REMARK    7  A    between atoms: N_20  and  C_19 
REMARK       I    between atoms: C_22  and  N_20 
ROOT
ATOM      1  C   LIG d   1      -2.723  75.816 114.205  0.00  0.00     0.161 C 
ATOM      2  C   LIG d   1      -4.081  75.671 113.876  0.00  0.00     0.016 C 
ATOM      3  C   LIG d   1      -5.133  75.921 114.786  0.00  0.00     0.038 C 
ATOM      4  C   LIG d   1      -4.902  76.483 116.050  0.00  0.00     0.028 C 
ATOM      5  C   LIG d   1      -3.518  76.171 116.608  0.00  0.00    -0.047 C 
ATOM      6  C   LIG d   1      -2.455  76.534 115.545  0.00  0.00     0.091 C 
ENDROOT
BRANCH   1   7
ATOM      7  O   LIG d   1      -2.028  76.481 113.133  0.00  0.00    -0.368 OA
BRANCH   7   8
ATOM      8  C   LIG d   1      -2.669  77.664 112.595  0.00  0.00     0.119 C 
BRANCH   8   9
ATOM      9  C   LIG d   1      -2.648  77.544 111.059  0.00  0.00     0.028 C 
ATOM     10  C   LIG d   1      -1.431  78.245 110.432  0.00  0.00     0.006 C 
ENDBRANCH   8   9
BRANCH   8  11
ATOM     11  C   LIG d   1      -1.864  78.928 112.914  0.00  0.00     0.028 C 
ATOM     12  C   LIG d   1      -2.616  79.894 113.844  0.00  0.00     0.006 C 
ENDBRANCH   8  11
ENDBRANCH   7   8
ENDBRANCH   1   7
BRANCH   6  13
ATOM     13  N   LIG d   1      -1.078  76.181 115.977  0.00  0.00    -0.311 N 
ATOM     14  C   LIG d   1      -0.112  77.082 116.155  0.00  0.00     0.210 C 
ATOM     15  C   LIG d   1       1.240  76.504 116.583  0.00  0.00     0.109 C 
ATOM     16  O   LIG d   1      -0.256  78.307 116.029  0.00  0.00    -0.276 OA
ATOM     17  H   LIG d   1      -0.882  75.212 116.132  0.00  0.00     0.149 HD
ENDBRANCH   6  13
BRANCH   5  18
ATOM     18  N   LIG d   1      -3.361  76.930 117.863  0.00  0.00     0.381 N 
ATOM     19  H   LIG d   1      -2.863  77.779 117.686  0.00  0.00    -0.090 HD
ATOM     20  H   LIG d   1      -2.826  76.379 118.511  0.00  0.00    -0.090 HD
ATOM     21  H   LIG d   1      -4.256  77.136 118.251  0.00  0.00    -0.090 HD
ENDBRANCH   5  18
BRANCH   3  22
ATOM     22  C   LIG d   1      -6.432  75.572 114.448  0.00  0.00     0.382 C 
ATOM     23  O   LIG d   1      -6.967  74.565 114.972  0.00  0.00    -0.241 OA
ATOM     24  O   LIG d   1      -7.059  76.224 113.592  0.00  0.00    -0.241 OA
ENDBRANCH   3  22
TORSDOF 7
ENDMDL
