MODEL 1
REMARK VINA RESULT:      -5.0      0.000      0.000
REMARK  7 active torsions:
REMARK  status: ('A' for Active; 'I' for Inactive)
REMARK    1  A    between atoms: C_2  and  C_3 
REMARK    2  A    between atoms: C_3  and  O_6 
REMARK    3  A    between atoms: C_3  and  C_4 
REMARK    4  A    between atoms: C_7  and  O_6 
REMARK    5  A    between atoms: C_9  and  C_10 
REMARK    6  A    between atoms: N_15  and  C_14 
REMARK    7  A    between atoms: N_20  and  C_19 
REMARK       I    between atoms: C_22  and  N_20 
ROOT
ATOM      1  C   LIG d   1      -2.911  78.462 115.220  0.00  0.00     0.161 C 
ATOM      2  C   LIG d   1      -3.025  79.640 114.464  0.00  0.00     0.016 C 
ATOM      3  C   LIG d   1      -2.562  79.759 113.133  0.00  0.00     0.038 C 
ATOM      4  C   LIG d   1      -2.085  78.654 112.413  0.00  0.00     0.028 C 
ATOM      5  C   LIG d   1      -1.484  77.567 113.298  0.00  0.00    -0.047 C 
ATOM      6  C   LIG d   1      -2.494  77.214 114.413  0.00  0.00     0.091 C 
ENDROOT
BRANCH   1   7
ATOM      7  O   LIG d   1      -4.142  78.214 115.927  0.00  0.00    -0.368 OA
BRANCH   7   8
ATOM      8  C   LIG d   1      -4.265  78.837 117.229  0.00  0.00     0.119 C 
BRANCH   8   9
ATOM      9  C   LIG d   1      -3.537  77.935 118.245  0.00  0.00     0.028 C 
ATOM     10  C   LIG d   1      -4.316  76.644 118.548  0.00  0.00     0.006 C 
ENDBRANCH   8   9
BRANCH   8  11
ATOM     11  C   LIG d   1      -5.724  78.873 117.693  0.00  0.00     0.028 C 
ATOM     12  C   LIG d   1      -6.254  80.304 117.880  0.00  0.00     0.006 C 
ENDBRANCH   8  11
ENDBRANCH   7   8
ENDBRANCH   1   7
BRANCH   6  13
ATOM     13  N   LIG d   1      -1.952  76.218 115.374  0.00  0.00    -0.311 N 
ATOM     14  C   LIG d   1      -2.545  75.055 115.637  0.00  0.00     0.210 C 
ATOM     15  C   LIG d   1      -1.829  74.184 116.674  0.00  0.00     0.109 C 
ATOM     16  O   LIG d   1      -3.579  74.648 115.086  0.00  0.00    -0.276 OA
ATOM     17  H   LIG d   1      -1.099  76.454 115.843  0.00  0.00     0.149 HD
ENDBRANCH   6  13
BRANCH   5  18
ATOM     18  N   LIG d   1      -1.154  76.419 112.432  0.00  0.00     0.381 N 
ATOM     19  H   LIG d   1      -1.542  76.560 111.520  0.00  0.00    -0.090 HD
ATOM     20  H   LIG d   1      -1.562  75.589 112.823  0.00  0.00    -0.090 HD
ATOM     21  H   LIG d   1      -0.166  76.314 112.367  0.00  0.00    -0.090 HD
ENDBRANCH   5  18
BRANCH   3  22
ATOM     22  C   LIG d   1      -2.536  81.004 112.523  0.00  0.00     0.382 C 
ATOM     23  O   LIG d   1      -1.552  81.337 111.819  0.00  0.00    -0.241 OA
ATOM     24  O   LIG d   1      -3.463  81.816 112.705  0.00  0.00    -0.241 OA
ENDBRANCH   3  22
TORSDOF 7
ENDMDL
MODEL 2
REMARK VINA RESULT:      -4.7      2.747      5.431
REMARK  7 active torsions:
REMARK  status: ('A' for Active; 'I' for Inactive)
REMARK    1  A    between atoms: C_2  and  C_3 
REMARK    2  A    between atoms: C_3  and  O_6 
REMARK    3  A    between atoms: C_3  and  C_4 
REMARK    4  A    between atoms: C_7  and  O_6 
REMARK    5  A    between atoms: C_9  and  C_10 
REMARK    6  A    between atoms: N_15  and  C_14 
REMARK    7  A    between atoms: N_20  and  C_19 
REMARK       I    between atoms: C_22  and  N_20 
ROOT
ATOM      1  C   LIG d   1      -1.887  75.070 115.417  0.00  0.00     0.161 C 
ATOM      2  C   LIG d   1      -1.399  74.775 116.701  0.00  0.00     0.016 C 
ATOM      3  C   LIG d   1      -0.719  75.714 117.510  0.00  0.00     0.038 C 
ATOM      4  C   LIG d   1      -0.613  77.065 117.147  0.00  0.00     0.028 C 
ATOM      5  C   LIG d   1      -0.647  77.292 115.640  0.00  0.00    -0.047 C 
ATOM      6  C   LIG d   1      -1.879  76.568 115.051  0.00  0.00     0.091 C 
ENDROOT
BRANCH   1   7
ATOM      7  O   LIG d   1      -3.211  74.523 115.260  0.00  0.00    -0.368 OA
BRANCH   7   8
ATOM      8  C   LIG d   1      -4.310  75.412 115.579  0.00  0.00     0.119 C 
BRANCH   8   9
ATOM      9  C   LIG d   1      -4.652  75.208 117.068  0.00  0.00     0.028 C 
ATOM     10  C   LIG d   1      -4.485  76.497 117.890  0.00  0.00     0.006 C 
ENDBRANCH   8   9
BRANCH   8  11
ATOM     11  C   LIG d   1      -5.580  75.025 114.815  0.00  0.00     0.028 C 
ATOM     12  C   LIG d   1      -6.598  74.278 115.690  0.00  0.00     0.006 C 
ENDBRANCH   8  11
ENDBRANCH   7   8
ENDBRANCH   1   7
BRANCH   6  13
ATOM     13  N   LIG d   1      -1.941  76.670 113.569  0.00  0.00    -0.311 N 
ATOM     14  C   LIG d   1      -2.663  77.586 112.927  0.00  0.00     0.210 C 
ATOM     15  C   LIG d   1      -2.603  77.501 111.398  0.00  0.00     0.109 C 
ATOM     16  O   LIG d   1      -3.322  78.481 113.477  0.00  0.00    -0.276 OA
ATOM     17  H   LIG d   1      -1.411  76.002 113.044  0.00  0.00     0.149 HD
ENDBRANCH   6  13
BRANCH   5  18
ATOM     18  N   LIG d   1      -0.667  78.749 115.409  0.00  0.00     0.381 N 
ATOM     19  H   LIG d   1       0.242  79.061 115.133  0.00  0.00    -0.090 HD
ATOM     20  H   LIG d   1      -0.912  79.211 116.268  0.00  0.00    -0.090 HD
ATOM     21  H   LIG d   1      -1.332  78.973 114.702  0.00  0.00    -0.090 HD
ENDBRANCH   5  18
BRANCH   3  22
ATOM     22  C   LIG d   1      -0.101  75.295 118.678  0.00  0.00     0.382 C 
ATOM     23  O   LIG d   1      -0.794  74.908 119.650  0.00  0.00    -0.241 OA
ATOM     24  O   LIG d   1       1.139  75.341 118.789  0.00  0.00    -0.241 OA
ENDBRANCH   3  22
TORSDOF 7
ENDMDL
MODEL 3
REMARK VINA RESULT:      -4.6      2.709      5.086
REMARK  7 active torsions:
REMARK  status: ('A' for Active; 'I' for Inactive)
REMARK    1  A    between atoms: C_2  and  C_3 
REMARK    2  A    between atoms: C_3  and  O_6 
REMARK    3  A    between atoms: C_3  and  C_4 
REMARK    4  A    between atoms: C_7  and  O_6 
REMARK    5  A    between atoms: C_9  and  C_10 
REMARK    6  A    between atoms: N_15  and  C_14 
REMARK    7  A    between atoms: N_20  and  C_19 
REMARK       I    between atoms: C_22  and  N_20 
ROOT
ATOM      1  C   LIG d   1      -1.992  79.178 114.675  0.00  0.00     0.161 C 
ATOM      2  C   LIG d   1      -2.741  78.028 114.975  0.00  0.00     0.016 C 
ATOM      3  C   LIG d   1      -3.146  77.087 114.001  0.00  0.00     0.038 C 
ATOM      4  C   LIG d   1      -2.697  77.154 112.673  0.00  0.00     0.028 C 
ATOM      5  C   LIG d   1      -2.357  78.570 112.220  0.00  0.00    -0.047 C 
ATOM      6  C   LIG d   1      -1.399  79.210 113.251  0.00  0.00     0.091 C 
ENDROOT
BRANCH   1   7
ATOM      7  O   LIG d   1      -0.950  79.353 115.655  0.00  0.00    -0.368 OA
BRANCH   7   8
ATOM      8  C   LIG d   1      -1.153  78.687 116.926  0.00  0.00     0.119 C 
BRANCH   8   9
ATOM      9  C   LIG d   1      -1.125  79.768 118.024  0.00  0.00     0.028 C 
ATOM     10  C   LIG d   1      -2.434  79.821 118.829  0.00  0.00     0.006 C 
ENDBRANCH   8   9
BRANCH   8  11
ATOM     11  C   LIG d   1       0.009  77.746 117.254  0.00  0.00     0.028 C 
ATOM     12  C   LIG d   1      -0.438  76.286 117.428  0.00  0.00     0.006 C 
ENDBRANCH   8  11
ENDBRANCH   7   8
ENDBRANCH   1   7
BRANCH   6  13
ATOM     13  N   LIG d   1      -1.083  80.626 112.927  0.00  0.00    -0.311 N 
ATOM     14  C   LIG d   1      -0.069  80.990 112.144  0.00  0.00     0.210 C 
ATOM     15  C   LIG d   1       0.093  82.502 111.956  0.00  0.00     0.109 C 
ATOM     16  O   LIG d   1       0.692  80.203 111.561  0.00  0.00    -0.276 OA
ATOM     17  H   LIG d   1      -1.669  81.329 113.333  0.00  0.00     0.149 HD
ENDBRANCH   6  13
BRANCH   5  18
ATOM     18  N   LIG d   1      -1.773  78.477 110.868  0.00  0.00     0.381 N 
ATOM     19  H   LIG d   1      -0.786  78.634 110.914  0.00  0.00    -0.090 HD
ATOM     20  H   LIG d   1      -2.180  79.190 110.289  0.00  0.00    -0.090 HD
ATOM     21  H   LIG d   1      -1.956  77.578 110.479  0.00  0.00    -0.090 HD
ENDBRANCH   5  18
BRANCH   3  22
ATOM     22  C   LIG d   1      -4.042  76.086 114.343  0.00  0.00     0.382 C 
ATOM     23  O   LIG d   1      -3.645  75.080 114.980  0.00  0.00    -0.241 OA
ATOM     24  O   LIG d   1      -5.233  76.154 113.985  0.00  0.00    -0.241 OA
ENDBRANCH   3  22
TORSDOF 7
ENDMDL
MODEL 4
REMARK VINA RESULT:      -4.5      1.758      2.440
REMARK  7 active torsions:
REMARK  status: ('A' for Active; 'I' for Inactive)
REMARK    1  A    between atoms: C_2  and  C_3 
REMARK    2  A    between atoms: C_3  and  O_6 
REMARK    3  A    between atoms: C_3  and  C_4 
REMARK    4  A    between atoms: C_7  and  O_6 
REMARK    5  A    between atoms: C_9  and  C_10 
REMARK    6  A    between atoms: N_15  and  C_14 
REMARK    7  A    between atoms: N_20  and  C_19 
REMARK       I    between atoms: C_22  and  N_20 
ROOT
ATOM      1  C   LIG d   1      -2.395  78.251 116.635  0.00  0.00     0.161 C 
ATOM      2  C   LIG d   1      -2.778  79.035 115.533  0.00  0.00     0.016 C 
ATOM      3  C   LIG d   1      -2.419  78.731 114.200  0.00  0.00     0.038 C 
ATOM      4  C   LIG d   1      -1.774  77.532 113.861  0.00  0.00     0.028 C 
ATOM      5  C   LIG d   1      -0.927  76.958 114.991  0.00  0.00    -0.047 C 
ATOM      6  C   LIG d   1      -1.787  76.880 116.273  0.00  0.00     0.091 C 
ENDROOT
BRANCH   1   7
ATOM      7  O   LIG d   1      -3.515  78.083 117.527  0.00  0.00    -0.368 OA
BRANCH   7   8
ATOM      8  C   LIG d   1      -4.800  78.526 117.027  0.00  0.00     0.119 C 
BRANCH   8   9
ATOM      9  C   LIG d   1      -5.318  79.618 117.983  0.00  0.00     0.028 C 
ATOM     10  C   LIG d   1      -6.836  79.834 117.860  0.00  0.00     0.006 C 
ENDBRANCH   8   9
BRANCH   8  11
ATOM     11  C   LIG d   1      -5.840  77.403 117.093  0.00  0.00     0.028 C 
ATOM     12  C   LIG d   1      -5.497  76.218 116.177  0.00  0.00     0.006 C 
ENDBRANCH   8  11
ENDBRANCH   7   8
ENDBRANCH   1   7
BRANCH   6  13
ATOM     13  N   LIG d   1      -1.010  76.409 117.449  0.00  0.00    -0.311 N 
ATOM     14  C   LIG d   1      -0.910  75.126 117.795  0.00  0.00     0.210 C 
ATOM     15  C   LIG d   1      -0.077  74.859 119.053  0.00  0.00     0.109 C 
ATOM     16  O   LIG d   1      -1.404  74.182 117.161  0.00  0.00    -0.276 OA
ATOM     17  H   LIG d   1      -0.551  77.106 118.002  0.00  0.00     0.149 HD
ENDBRANCH   6  13
BRANCH   5  18
ATOM     18  N   LIG d   1      -0.426  75.643 114.550  0.00  0.00     0.381 N 
ATOM     19  H   LIG d   1       0.564  75.595 114.686  0.00  0.00    -0.090 HD
ATOM     20  H   LIG d   1      -0.615  75.536 113.569  0.00  0.00    -0.090 HD
ATOM     21  H   LIG d   1      -0.875  74.917 115.064  0.00  0.00    -0.090 HD
ENDBRANCH   5  18
BRANCH   3  22
ATOM     22  C   LIG d   1      -2.669  79.651 113.194  0.00  0.00     0.382 C 
ATOM     23  O   LIG d   1      -3.341  80.682 113.440  0.00  0.00    -0.241 OA
ATOM     24  O   LIG d   1      -2.268  79.443 112.033  0.00  0.00    -0.241 OA
ENDBRANCH   3  22
TORSDOF 7
ENDMDL
MODEL 5
REMARK VINA RESULT:      -4.5      2.687      4.943
REMARK  7 active torsions:
REMARK  status: ('A' for Active; 'I' for Inactive)
REMARK    1  A    between atoms: C_2  and  C_3 
REMARK    2  A    between atoms: C_3  and  O_6 
REMARK    3  A    between atoms: C_3  and  C_4 
REMARK    4  A    between atoms: C_7  and  O_6 
REMARK    5  A    between atoms: C_9  and  C_10 
REMARK    6  A    between atoms: N_15  and  C_14 
REMARK    7  A    between atoms: N_20  and  C_19 
REMARK       I    between atoms: C_22  and  N_20 
ROOT
ATOM      1  C   LIG d   1      -3.144  78.457 115.762  0.00  0.00     0.161 C 
ATOM      2  C   LIG d   1      -1.939  79.028 116.205  0.00  0.00     0.016 C 
ATOM      3  C   LIG d   1      -0.968  78.318 116.949  0.00  0.00     0.038 C 
ATOM      4  C   LIG d   1      -1.070  76.937 117.173  0.00  0.00     0.028 C 
ATOM      5  C   LIG d   1      -2.508  76.429 117.181  0.00  0.00    -0.047 C 
ATOM      6  C   LIG d   1      -3.221  76.922 115.901  0.00  0.00     0.091 C 
ENDROOT
BRANCH   1   7
ATOM      7  O   LIG d   1      -3.399  78.850 114.400  0.00  0.00    -0.368 OA
BRANCH   7   8
ATOM      8  C   LIG d   1      -2.439  78.396 113.414  0.00  0.00     0.119 C 
BRANCH   8   9
ATOM      9  C   LIG d   1      -1.964  79.632 112.626  0.00  0.00     0.028 C 
ATOM     10  C   LIG d   1      -2.857  80.860 112.867  0.00  0.00     0.006 C 
ENDBRANCH   8   9
BRANCH   8  11
ATOM     11  C   LIG d   1      -3.096  77.480 112.377  0.00  0.00     0.028 C 
ATOM     12  C   LIG d   1      -2.328  77.441 111.046  0.00  0.00     0.006 C 
ENDBRANCH   8  11
ENDBRANCH   7   8
ENDBRANCH   1   7
BRANCH   6  13
ATOM     13  N   LIG d   1      -4.657  76.540 115.870  0.00  0.00    -0.311 N 
ATOM     14  C   LIG d   1      -5.119  75.480 115.208  0.00  0.00     0.210 C 
ATOM     15  C   LIG d   1      -6.635  75.278 115.290  0.00  0.00     0.109 C 
ATOM     16  O   LIG d   1      -4.414  74.671 114.588  0.00  0.00    -0.276 OA
ATOM     17  H   LIG d   1      -5.296  77.124 116.373  0.00  0.00     0.149 HD
ENDBRANCH   6  13
BRANCH   5  18
ATOM     18  N   LIG d   1      -2.460  74.958 117.286  0.00  0.00     0.381 N 
ATOM     19  H   LIG d   1      -3.381  74.599 117.438  0.00  0.00    -0.090 HD
ATOM     20  H   LIG d   1      -1.889  74.707 118.073  0.00  0.00    -0.090 HD
ATOM     21  H   LIG d   1      -2.078  74.569 116.452  0.00  0.00    -0.090 HD
ENDBRANCH   5  18
BRANCH   3  22
ATOM     22  C   LIG d   1       0.099  79.000 117.513  0.00  0.00     0.382 C 
ATOM     23  O   LIG d   1       0.729  78.495 118.473  0.00  0.00    -0.241 OA
ATOM     24  O   LIG d   1       0.413  80.133 117.101  0.00  0.00    -0.241 OA
ENDBRANCH   3  22
TORSDOF 7
ENDMDL
MODEL 6
REMARK VINA RESULT:      -4.4      2.684      4.353
REMARK  7 active torsions:
REMARK  status: ('A' for Active; 'I' for Inactive)
REMARK    1  A    between atoms: C_2  and  C_3 
REMARK    2  A    between atoms: C_3  and  O_6 
REMARK    3  A    between atoms: C_3  and  C_4 
REMARK    4  A    between atoms: C_7  and  O_6 
REMARK    5  A    between atoms: C_9  and  C_10 
REMARK    6  A    between atoms: N_15  and  C_14 
REMARK    7  A    between atoms: N_20  and  C_19 
REMARK       I    between atoms: C_22  and  N_20 
ROOT
ATOM      1  C   LIG d   1      -3.721  77.348 115.338  0.00  0.00     0.161 C 
ATOM      2  C   LIG d   1      -3.418  76.860 114.056  0.00  0.00     0.016 C 
ATOM      3  C   LIG d   1      -2.184  77.092 113.406  0.00  0.00     0.038 C 
ATOM      4  C   LIG d   1      -1.105  77.706 114.061  0.00  0.00     0.028 C 
ATOM      5  C   LIG d   1      -1.534  78.659 115.172  0.00  0.00    -0.047 C 
ATOM      6  C   LIG d   1      -2.516  77.924 116.112  0.00  0.00     0.091 C 
ENDROOT
BRANCH   1   7
ATOM      7  O   LIG d   1      -4.368  76.318 116.113  0.00  0.00    -0.368 OA
BRANCH   7   8
ATOM      8  C   LIG d   1      -4.156  74.957 115.666  0.00  0.00     0.119 C 
BRANCH   8   9
ATOM      9  C   LIG d   1      -5.511  74.227 115.747  0.00  0.00     0.028 C 
ATOM     10  C   LIG d   1      -6.701  75.173 115.517  0.00  0.00     0.006 C 
ENDBRANCH   8   9
BRANCH   8  11
ATOM     11  C   LIG d   1      -3.228  74.196 116.618  0.00  0.00     0.028 C 
ATOM     12  C   LIG d   1      -1.767  74.180 116.140  0.00  0.00     0.006 C 
ENDBRANCH   8  11
ENDBRANCH   7   8
ENDBRANCH   1   7
BRANCH   6  13
ATOM     13  N   LIG d   1      -3.050  78.810 117.179  0.00  0.00    -0.311 N 
ATOM     14  C   LIG d   1      -2.797  78.631 118.475  0.00  0.00     0.210 C 
ATOM     15  C   LIG d   1      -3.462  79.647 119.409  0.00  0.00     0.109 C 
ATOM     16  O   LIG d   1      -2.061  77.747 118.936  0.00  0.00    -0.276 OA
ATOM     17  H   LIG d   1      -3.632  79.572 116.891  0.00  0.00     0.149 HD
ENDBRANCH   6  13
BRANCH   5  18
ATOM     18  N   LIG d   1      -0.312  79.120 115.858  0.00  0.00     0.381 N 
ATOM     19  H   LIG d   1      -0.517  79.319 116.817  0.00  0.00    -0.090 HD
ATOM     20  H   LIG d   1       0.006  79.967 115.421  0.00  0.00    -0.090 HD
ATOM     21  H   LIG d   1       0.396  78.422 115.801  0.00  0.00    -0.090 HD
ENDBRANCH   5  18
BRANCH   3  22
ATOM     22  C   LIG d   1      -2.034  76.745 112.073  0.00  0.00     0.382 C 
ATOM     23  O   LIG d   1      -2.809  77.222 111.209  0.00  0.00    -0.241 OA
ATOM     24  O   LIG d   1      -1.161  75.926 111.728  0.00  0.00    -0.241 OA
ENDBRANCH   3  22
TORSDOF 7
ENDMDL
MODEL 7
REMARK VINA RESULT:      -4.4      2.355      4.975
REMARK  7 active torsions:
REMARK  status: ('A' for Active; 'I' for Inactive)
REMARK    1  A    between atoms: C_2  and  C_3 
REMARK    2  A    between atoms: C_3  and  O_6 
REMARK    3  A    between atoms: C_3  and  C_4 
REMARK    4  A    between atoms: C_7  and  O_6 
REMARK    5  A    between atoms: C_9  and  C_10 
REMARK    6  A    between atoms: N_15  and  C_14 
REMARK    7  A    between atoms: N_20  and  C_19 
REMARK       I    between atoms: C_22  and  N_20 
ROOT
ATOM      1  C   LIG d   1      -3.033  77.377 112.837  0.00  0.00     0.161 C 
ATOM      2  C   LIG d   1      -2.905  78.695 112.367  0.00  0.00     0.016 C 
ATOM      3  C   LIG d   1      -2.469  79.770 113.175  0.00  0.00     0.038 C 
ATOM      4  C   LIG d   1      -1.985  79.571 114.476  0.00  0.00     0.028 C 
ATOM      5  C   LIG d   1      -2.569  78.338 115.158  0.00  0.00    -0.047 C 
ATOM      6  C   LIG d   1      -2.403  77.120 114.221  0.00  0.00     0.091 C 
ENDROOT
BRANCH   1   7
ATOM      7  O   LIG d   1      -2.498  76.457 111.864  0.00  0.00    -0.368 OA
BRANCH   7   8
ATOM      8  C   LIG d   1      -1.146  76.719 111.416  0.00  0.00     0.119 C 
BRANCH   8   9
ATOM      9  C   LIG d   1      -1.223  77.793 110.313  0.00  0.00     0.028 C 
ATOM     10  C   LIG d   1       0.079  78.601 110.189  0.00  0.00     0.006 C 
ENDBRANCH   8   9
BRANCH   8  11
ATOM     11  C   LIG d   1      -0.534  75.488 110.742  0.00  0.00     0.028 C 
ATOM     12  C   LIG d   1       0.191  74.564 111.733  0.00  0.00     0.006 C 
ENDBRANCH   8  11
ENDBRANCH   7   8
ENDBRANCH   1   7
BRANCH   6  13
ATOM     13  N   LIG d   1      -3.024  75.889 114.777  0.00  0.00    -0.311 N 
ATOM     14  C   LIG d   1      -4.300  75.818 115.153  0.00  0.00     0.210 C 
ATOM     15  C   LIG d   1      -4.732  74.461 115.718  0.00  0.00     0.109 C 
ATOM     16  O   LIG d   1      -5.123  76.739 115.043  0.00  0.00    -0.276 OA
ATOM     17  H   LIG d   1      -2.437  75.084 114.872  0.00  0.00     0.149 HD
ENDBRANCH   6  13
BRANCH   5  18
ATOM     18  N   LIG d   1      -1.877  78.173 116.450  0.00  0.00     0.381 N 
ATOM     19  H   LIG d   1      -2.549  78.100 117.188  0.00  0.00    -0.090 HD
ATOM     20  H   LIG d   1      -1.308  78.984 116.620  0.00  0.00    -0.090 HD
ATOM     21  H   LIG d   1      -1.306  77.357 116.429  0.00  0.00    -0.090 HD
ENDBRANCH   5  18
BRANCH   3  22
ATOM     22  C   LIG d   1      -2.554  81.068 112.695  0.00  0.00     0.382 C 
ATOM     23  O   LIG d   1      -1.518  81.664 112.315  0.00  0.00    -0.241 OA
ATOM     24  O   LIG d   1      -3.646  81.666 112.679  0.00  0.00    -0.241 OA
ENDBRANCH   3  22
TORSDOF 7
ENDMDL
MODEL 8
REMARK VINA RESULT:      -4.2      2.953      3.555
REMARK  7 active torsions:
REMARK  status: ('A' for Active; 'I' for Inactive)
REMARK    1  A    between atoms: C_2  and  C_3 
REMARK    2  A    between atoms: C_3  and  O_6 
REMARK    3  A    between atoms: C_3  and  C_4 
REMARK    4  A    between atoms: C_7  and  O_6 
REMARK    5  A    between atoms: C_9  and  C_10 
REMARK    6  A    between atoms: N_15  and  C_14 
REMARK    7  A    between atoms: N_20  and  C_19 
REMARK       I    between atoms: C_22  and  N_20 
ROOT
ATOM      1  C   LIG d   1      -3.386  77.821 116.994  0.00  0.00     0.161 C 
ATOM      2  C   LIG d   1      -2.332  78.681 117.344  0.00  0.00     0.016 C 
ATOM      3  C   LIG d   1      -0.990  78.469 116.951  0.00  0.00     0.038 C 
ATOM      4  C   LIG d   1      -0.634  77.456 116.048  0.00  0.00     0.028 C 
ATOM      5  C   LIG d   1      -1.583  76.262 116.071  0.00  0.00    -0.047 C 
ATOM      6  C   LIG d   1      -3.035  76.772 115.918  0.00  0.00     0.091 C 
ENDROOT
BRANCH   1   7
ATOM      7  O   LIG d   1      -4.532  78.593 116.587  0.00  0.00    -0.368 OA
BRANCH   7   8
ATOM      8  C   LIG d   1      -5.545  78.813 117.599  0.00  0.00     0.119 C 
BRANCH   8   9
ATOM      9  C   LIG d   1      -6.774  77.967 117.215  0.00  0.00     0.028 C 
ATOM     10  C   LIG d   1      -6.930  76.722 118.105  0.00  0.00     0.006 C 
ENDBRANCH   8   9
BRANCH   8  11
ATOM     11  C   LIG d   1      -6.033  80.265 117.592  0.00  0.00     0.028 C 
ATOM     12  C   LIG d   1      -6.048  80.896 118.993  0.00  0.00     0.006 C 
ENDBRANCH   8  11
ENDBRANCH   7   8
ENDBRANCH   1   7
BRANCH   6  13
ATOM     13  N   LIG d   1      -4.034  75.676 116.014  0.00  0.00    -0.311 N 
ATOM     14  C   LIG d   1      -4.972  75.456 115.095  0.00  0.00     0.210 C 
ATOM     15  C   LIG d   1      -5.913  74.287 115.398  0.00  0.00     0.109 C 
ATOM     16  O   LIG d   1      -5.093  76.099 114.041  0.00  0.00    -0.276 OA
ATOM     17  H   LIG d   1      -3.988  75.087 116.823  0.00  0.00     0.149 HD
ENDBRANCH   6  13
BRANCH   5  18
ATOM     18  N   LIG d   1      -1.175  75.347 114.988  0.00  0.00     0.381 N 
ATOM     19  H   LIG d   1      -1.040  75.863 114.141  0.00  0.00    -0.090 HD
ATOM     20  H   LIG d   1      -1.908  74.677 114.836  0.00  0.00    -0.090 HD
ATOM     21  H   LIG d   1      -0.332  74.879 115.238  0.00  0.00    -0.090 HD
ENDBRANCH   5  18
BRANCH   3  22
ATOM     22  C   LIG d   1       0.017  79.251 117.494  0.00  0.00     0.382 C 
ATOM     23  O   LIG d   1       0.391  80.292 116.902  0.00  0.00    -0.241 OA
ATOM     24  O   LIG d   1       0.588  78.905 118.546  0.00  0.00    -0.241 OA
ENDBRANCH   3  22
TORSDOF 7
ENDMDL
MODEL 9
REMARK VINA RESULT:      -4.2      2.717      5.607
REMARK  7 active torsions:
REMARK  status: ('A' for Active; 'I' for Inactive)
REMARK    1  A    between atoms: C_2  and  C_3 
REMARK    2  A    between atoms: C_3  and  O_6 
REMARK    3  A    between atoms: C_3  and  C_4 
REMARK    4  A    between atoms: C_7  and  O_6 
REMARK    5  A    between atoms: C_9  and  C_10 
REMARK    6  A    between atoms: N_15  and  C_14 
REMARK    7  A    between atoms: N_20  and  C_19 
REMARK       I    between atoms: C_22  and  N_20 
ROOT
ATOM      1  C   LIG d   1      -2.169  76.357 115.100  0.00  0.00     0.161 C 
ATOM      2  C   LIG d   1      -3.413  75.866 114.671  0.00  0.00     0.016 C 
ATOM      3  C   LIG d   1      -4.631  76.148 115.331  0.00  0.00     0.038 C 
ATOM      4  C   LIG d   1      -4.706  77.070 116.385  0.00  0.00     0.028 C 
ATOM      5  C   LIG d   1      -3.406  77.200 117.171  0.00  0.00    -0.047 C 
ATOM      6  C   LIG d   1      -2.245  77.454 116.183  0.00  0.00     0.091 C 
ENDROOT
BRANCH   1   7
ATOM      7  O   LIG d   1      -1.409  76.823 113.967  0.00  0.00    -0.368 OA
BRANCH   7   8
ATOM      8  C   LIG d   1      -2.155  77.537 112.951  0.00  0.00     0.119 C 
BRANCH   8   9
ATOM      9  C   LIG d   1      -1.760  76.943 111.585  0.00  0.00     0.028 C 
ATOM     10  C   LIG d   1      -1.256  78.013 110.603  0.00  0.00     0.006 C 
ENDBRANCH   8   9
BRANCH   8  11
ATOM     11  C   LIG d   1      -1.741  79.010 112.887  0.00  0.00     0.028 C 
ATOM     12  C   LIG d   1      -2.868  79.965 113.309  0.00  0.00     0.006 C 
ENDBRANCH   8  11
ENDBRANCH   7   8
ENDBRANCH   1   7
BRANCH   6  13
ATOM     13  N   LIG d   1      -0.924  77.510 116.862  0.00  0.00    -0.311 N 
ATOM     14  C   LIG d   1      -0.362  78.642 117.279  0.00  0.00     0.210 C 
ATOM     15  C   LIG d   1       1.012  78.477 117.937  0.00  0.00     0.109 C 
ATOM     16  O   LIG d   1      -0.884  79.764 117.196  0.00  0.00    -0.276 OA
ATOM     17  H   LIG d   1      -0.445  76.641 116.998  0.00  0.00     0.149 HD
ENDBRANCH   6  13
BRANCH   5  18
ATOM     18  N   LIG d   1      -3.583  78.290 118.149  0.00  0.00     0.381 N 
ATOM     19  H   LIG d   1      -2.850  78.963 118.042  0.00  0.00    -0.090 HD
ATOM     20  H   LIG d   1      -3.527  77.907 119.076  0.00  0.00    -0.090 HD
ATOM     21  H   LIG d   1      -4.468  78.728 118.015  0.00  0.00    -0.090 HD
ENDBRANCH   5  18
BRANCH   3  22
ATOM     22  C   LIG d   1      -5.785  75.473 114.962  0.00  0.00     0.382 C 
ATOM     23  O   LIG d   1      -5.977  74.298 115.357  0.00  0.00    -0.241 OA
ATOM     24  O   LIG d   1      -6.614  76.009 114.202  0.00  0.00    -0.241 OA
ENDBRANCH   3  22
TORSDOF 7
ENDMDL
