MODEL 1
REMARK VINA RESULT:      -5.4      0.000      0.000
REMARK  7 active torsions:
REMARK  status: ('A' for Active; 'I' for Inactive)
REMARK    1  A    between atoms: C_2  and  C_3 
REMARK    2  A    between atoms: C_3  and  O_6 
REMARK    3  A    between atoms: C_3  and  C_4 
REMARK    4  A    between atoms: C_7  and  O_6 
REMARK    5  A    between atoms: C_9  and  C_10 
REMARK    6  A    between atoms: N_15  and  C_14 
REMARK    7  A    between atoms: N_20  and  C_19 
REMARK       I    between atoms: C_22  and  N_20 
ROOT
ATOM      1  C   LIG d   1      -1.585  80.781 112.000  0.00  0.00     0.161 C 
ATOM      2  C   LIG d   1      -2.439  79.744 112.412  0.00  0.00     0.016 C 
ATOM      3  C   LIG d   1      -2.369  78.428 111.899  0.00  0.00     0.038 C 
ATOM      4  C   LIG d   1      -1.334  78.020 111.044  0.00  0.00     0.028 C 
ATOM      5  C   LIG d   1      -0.752  79.157 110.212  0.00  0.00    -0.047 C 
ATOM      6  C   LIG d   1      -0.380  80.327 111.151  0.00  0.00     0.091 C 
ENDROOT
BRANCH   1   7
ATOM      7  O   LIG d   1      -1.137  81.529 113.148  0.00  0.00    -0.368 OA
BRANCH   7   8
ATOM      8  C   LIG d   1       0.094  81.075 113.763  0.00  0.00     0.119 C 
BRANCH   8   9
ATOM      9  C   LIG d   1      -0.241  80.639 115.202  0.00  0.00     0.028 C 
ATOM     10  C   LIG d   1      -0.548  79.135 115.303  0.00  0.00     0.006 C 
ENDBRANCH   8   9
BRANCH   8  11
ATOM     11  C   LIG d   1       1.099  82.222 113.910  0.00  0.00     0.028 C 
ATOM     12  C   LIG d   1       0.563  83.557 113.369  0.00  0.00     0.006 C 
ENDBRANCH   8  11
ENDBRANCH   7   8
ENDBRANCH   1   7
BRANCH   6  13
ATOM     13  N   LIG d   1       0.119  81.513 110.408  0.00  0.00    -0.311 N 
ATOM     14  C   LIG d   1       1.412  81.759 110.203  0.00  0.00     0.210 C 
ATOM     15  C   LIG d   1       1.711  83.048 109.431  0.00  0.00     0.109 C 
ATOM     16  O   LIG d   1       2.339  81.016 110.559  0.00  0.00    -0.276 OA
ATOM     17  H   LIG d   1      -0.566  82.153 110.057  0.00  0.00     0.149 HD
ENDBRANCH   6  13
BRANCH   5  18
ATOM     18  N   LIG d   1       0.404  78.620 109.470  0.00  0.00     0.381 N 
ATOM     19  H   LIG d   1       0.192  78.581 108.493  0.00  0.00    -0.090 HD
ATOM     20  H   LIG d   1       0.590  77.685 109.790  0.00  0.00    -0.090 HD
ATOM     21  H   LIG d   1       1.204  79.195 109.622  0.00  0.00    -0.090 HD
ENDBRANCH   5  18
BRANCH   3  22
ATOM     22  C   LIG d   1      -3.365  77.515 112.210  0.00  0.00     0.382 C 
ATOM     23  O   LIG d   1      -3.125  76.570 112.999  0.00  0.00    -0.241 OA
ATOM     24  O   LIG d   1      -4.488  77.599 111.678  0.00  0.00    -0.241 OA
ENDBRANCH   3  22
TORSDOF 7
ENDMDL
MODEL 2
REMARK VINA RESULT:      -4.9      2.053      3.699
REMARK  7 active torsions:
REMARK  status: ('A' for Active; 'I' for Inactive)
REMARK    1  A    between atoms: C_2  and  C_3 
REMARK    2  A    between atoms: C_3  and  O_6 
REMARK    3  A    between atoms: C_3  and  C_4 
REMARK    4  A    between atoms: C_7  and  O_6 
REMARK    5  A    between atoms: C_9  and  C_10 
REMARK    6  A    between atoms: N_15  and  C_14 
REMARK    7  A    between atoms: N_20  and  C_19 
REMARK       I    between atoms: C_22  and  N_20 
ROOT
ATOM      1  C   LIG d   1      -0.254  80.422 111.756  0.00  0.00     0.161 C 
ATOM      2  C   LIG d   1      -1.013  79.413 111.141  0.00  0.00     0.016 C 
ATOM      3  C   LIG d   1      -1.742  78.438 111.861  0.00  0.00     0.038 C 
ATOM      4  C   LIG d   1      -1.883  78.499 113.256  0.00  0.00     0.028 C 
ATOM      5  C   LIG d   1      -0.723  79.203 113.952  0.00  0.00    -0.047 C 
ATOM      6  C   LIG d   1      -0.486  80.572 113.274  0.00  0.00     0.091 C 
ENDROOT
BRANCH   1   7
ATOM      7  O   LIG d   1      -0.480  81.679 111.088  0.00  0.00    -0.368 OA
BRANCH   7   8
ATOM      8  C   LIG d   1       0.549  82.102 110.161  0.00  0.00     0.119 C 
BRANCH   8   9
ATOM      9  C   LIG d   1       1.848  81.368 110.544  0.00  0.00     0.028 C 
ATOM     10  C   LIG d   1       2.945  82.331 111.031  0.00  0.00     0.006 C 
ENDBRANCH   8   9
BRANCH   8  11
ATOM     11  C   LIG d   1       0.863  83.593 110.319  0.00  0.00     0.028 C 
ATOM     12  C   LIG d   1      -0.172  84.332 111.181  0.00  0.00     0.006 C 
ENDBRANCH   8  11
ENDBRANCH   7   8
ENDBRANCH   1   7
BRANCH   6  13
ATOM     13  N   LIG d   1       0.686  81.289 113.840  0.00  0.00    -0.311 N 
ATOM     14  C   LIG d   1       0.610  82.503 114.382  0.00  0.00     0.210 C 
ATOM     15  C   LIG d   1       1.941  83.070 114.887  0.00  0.00     0.109 C 
ATOM     16  O   LIG d   1      -0.438  83.151 114.522  0.00  0.00    -0.276 OA
ATOM     17  H   LIG d   1       1.571  80.823 113.796  0.00  0.00     0.149 HD
ENDBRANCH   6  13
BRANCH   5  18
ATOM     18  N   LIG d   1      -1.065  79.317 115.382  0.00  0.00     0.381 N 
ATOM     19  H   LIG d   1      -0.345  79.818 115.864  0.00  0.00    -0.090 HD
ATOM     20  H   LIG d   1      -1.126  78.395 115.777  0.00  0.00    -0.090 HD
ATOM     21  H   LIG d   1      -1.936  79.790 115.488  0.00  0.00    -0.090 HD
ENDBRANCH   5  18
BRANCH   3  22
ATOM     22  C   LIG d   1      -2.306  77.365 111.188  0.00  0.00     0.382 C 
ATOM     23  O   LIG d   1      -1.642  76.315 111.016  0.00  0.00    -0.241 OA
ATOM     24  O   LIG d   1      -3.454  77.450 110.713  0.00  0.00    -0.241 OA
ENDBRANCH   3  22
TORSDOF 7
ENDMDL
MODEL 3
REMARK VINA RESULT:      -4.9      1.441      1.799
REMARK  7 active torsions:
REMARK  status: ('A' for Active; 'I' for Inactive)
REMARK    1  A    between atoms: C_2  and  C_3 
REMARK    2  A    between atoms: C_3  and  O_6 
REMARK    3  A    between atoms: C_3  and  C_4 
REMARK    4  A    between atoms: C_7  and  O_6 
REMARK    5  A    between atoms: C_9  and  C_10 
REMARK    6  A    between atoms: N_15  and  C_14 
REMARK    7  A    between atoms: N_20  and  C_19 
REMARK       I    between atoms: C_22  and  N_20 
ROOT
ATOM      1  C   LIG d   1      -0.721  80.184 113.113  0.00  0.00     0.161 C 
ATOM      2  C   LIG d   1      -1.316  79.114 113.802  0.00  0.00     0.016 C 
ATOM      3  C   LIG d   1      -1.841  77.969 113.158  0.00  0.00     0.038 C 
ATOM      4  C   LIG d   1      -1.669  77.748 111.784  0.00  0.00     0.028 C 
ATOM      5  C   LIG d   1      -1.523  79.034 110.977  0.00  0.00    -0.047 C 
ATOM      6  C   LIG d   1      -0.426  79.910 111.624  0.00  0.00     0.091 C 
ENDROOT
BRANCH   1   7
ATOM      7  O   LIG d   1       0.480  80.597 113.795  0.00  0.00    -0.368 OA
BRANCH   7   8
ATOM      8  C   LIG d   1       0.418  81.872 114.480  0.00  0.00     0.119 C 
BRANCH   8   9
ATOM      9  C   LIG d   1       0.235  81.582 115.982  0.00  0.00     0.028 C 
ATOM     10  C   LIG d   1       0.151  82.868 116.822  0.00  0.00     0.006 C 
ENDBRANCH   8   9
BRANCH   8  11
ATOM     11  C   LIG d   1      -0.824  82.667 114.066  0.00  0.00     0.028 C 
ATOM     12  C   LIG d   1      -0.480  83.961 113.312  0.00  0.00     0.006 C 
ENDBRANCH   8  11
ENDBRANCH   7   8
ENDBRANCH   1   7
BRANCH   6  13
ATOM     13  N   LIG d   1      -0.277  81.224 110.946  0.00  0.00    -0.311 N 
ATOM     14  C   LIG d   1       0.896  81.714 110.547  0.00  0.00     0.210 C 
ATOM     15  C   LIG d   1       0.828  83.095 109.887  0.00  0.00     0.109 C 
ATOM     16  O   LIG d   1       1.981  81.123 110.648  0.00  0.00    -0.276 OA
ATOM     17  H   LIG d   1      -1.111  81.757 110.795  0.00  0.00     0.149 HD
ENDBRANCH   6  13
BRANCH   5  18
ATOM     18  N   LIG d   1      -1.213  78.654 109.586  0.00  0.00     0.381 N 
ATOM     19  H   LIG d   1      -0.230  78.736 109.423  0.00  0.00    -0.090 HD
ATOM     20  H   LIG d   1      -1.690  79.283 108.963  0.00  0.00    -0.090 HD
ATOM     21  H   LIG d   1      -1.509  77.718 109.414  0.00  0.00    -0.090 HD
ENDBRANCH   5  18
BRANCH   3  22
ATOM     22  C   LIG d   1      -2.581  77.050 113.886  0.00  0.00     0.382 C 
ATOM     23  O   LIG d   1      -3.717  77.362 114.318  0.00  0.00    -0.241 OA
ATOM     24  O   LIG d   1      -2.109  75.929 114.154  0.00  0.00    -0.241 OA
ENDBRANCH   3  22
TORSDOF 7
ENDMDL
MODEL 4
REMARK VINA RESULT:      -4.8      4.544      7.341
REMARK  7 active torsions:
REMARK  status: ('A' for Active; 'I' for Inactive)
REMARK    1  A    between atoms: C_2  and  C_3 
REMARK    2  A    between atoms: C_3  and  O_6 
REMARK    3  A    between atoms: C_3  and  C_4 
REMARK    4  A    between atoms: C_7  and  O_6 
REMARK    5  A    between atoms: C_9  and  C_10 
REMARK    6  A    between atoms: N_15  and  C_14 
REMARK    7  A    between atoms: N_20  and  C_19 
REMARK       I    between atoms: C_22  and  N_20 
ROOT
ATOM      1  C   LIG d   1      -3.017  75.701 115.177  0.00  0.00     0.161 C 
ATOM      2  C   LIG d   1      -3.312  76.700 114.234  0.00  0.00     0.016 C 
ATOM      3  C   LIG d   1      -2.363  77.210 113.319  0.00  0.00     0.038 C 
ATOM      4  C   LIG d   1      -1.086  76.646 113.182  0.00  0.00     0.028 C 
ATOM      5  C   LIG d   1      -0.581  75.976 114.455  0.00  0.00    -0.047 C 
ATOM      6  C   LIG d   1      -1.660  74.996 114.968  0.00  0.00     0.091 C 
ENDROOT
BRANCH   1   7
ATOM      7  O   LIG d   1      -4.084  74.733 115.214  0.00  0.00    -0.368 OA
BRANCH   7   8
ATOM      8  C   LIG d   1      -4.834  74.659 116.451  0.00  0.00     0.119 C 
BRANCH   8   9
ATOM      9  C   LIG d   1      -6.331  74.626 116.084  0.00  0.00     0.028 C 
ATOM     10  C   LIG d   1      -6.694  75.663 115.008  0.00  0.00     0.006 C 
ENDBRANCH   8   9
BRANCH   8  11
ATOM     11  C   LIG d   1      -4.650  75.926 117.292  0.00  0.00     0.028 C 
ATOM     12  C   LIG d   1      -5.713  76.070 118.392  0.00  0.00     0.006 C 
ENDBRANCH   8  11
ENDBRANCH   7   8
ENDBRANCH   1   7
BRANCH   6  13
ATOM     13  N   LIG d   1      -1.282  74.359 116.257  0.00  0.00    -0.311 N 
ATOM     14  C   LIG d   1      -0.979  75.050 117.355  0.00  0.00     0.210 C 
ATOM     15  C   LIG d   1      -0.597  74.199 118.570  0.00  0.00     0.109 C 
ATOM     16  O   LIG d   1      -1.021  76.286 117.446  0.00  0.00    -0.276 OA
ATOM     17  H   LIG d   1      -1.252  73.359 116.281  0.00  0.00     0.149 HD
ENDBRANCH   6  13
BRANCH   5  18
ATOM     18  N   LIG d   1       0.696  75.312 114.133  0.00  0.00     0.381 N 
ATOM     19  H   LIG d   1       0.520  74.401 113.761  0.00  0.00    -0.090 HD
ATOM     20  H   LIG d   1       1.232  75.210 114.977  0.00  0.00    -0.090 HD
ATOM     21  H   LIG d   1       1.206  75.856 113.472  0.00  0.00    -0.090 HD
ENDBRANCH   5  18
BRANCH   3  22
ATOM     22  C   LIG d   1      -2.676  78.325 112.555  0.00  0.00     0.382 C 
ATOM     23  O   LIG d   1      -2.943  79.415 113.116  0.00  0.00    -0.241 OA
ATOM     24  O   LIG d   1      -2.738  78.242 111.313  0.00  0.00    -0.241 OA
ENDBRANCH   3  22
TORSDOF 7
ENDMDL
MODEL 5
REMARK VINA RESULT:      -4.7      1.228      2.124
REMARK  7 active torsions:
REMARK  status: ('A' for Active; 'I' for Inactive)
REMARK    1  A    between atoms: C_2  and  C_3 
REMARK    2  A    between atoms: C_3  and  O_6 
REMARK    3  A    between atoms: C_3  and  C_4 
REMARK    4  A    between atoms: C_7  and  O_6 
REMARK    5  A    between atoms: C_9  and  C_10 
REMARK    6  A    between atoms: N_15  and  C_14 
REMARK    7  A    between atoms: N_20  and  C_19 
REMARK       I    between atoms: C_22  and  N_20 
ROOT
ATOM      1  C   LIG d   1      -0.645  81.190 112.155  0.00  0.00     0.161 C 
ATOM      2  C   LIG d   1      -1.609  80.319 112.691  0.00  0.00     0.016 C 
ATOM      3  C   LIG d   1      -1.839  79.014 112.197  0.00  0.00     0.038 C 
ATOM      4  C   LIG d   1      -1.012  78.433 111.224  0.00  0.00     0.028 C 
ATOM      5  C   LIG d   1      -0.350  79.453 110.304  0.00  0.00    -0.047 C 
ATOM      6  C   LIG d   1       0.342  80.533 111.167  0.00  0.00     0.091 C 
ENDROOT
BRANCH   1   7
ATOM      7  O   LIG d   1       0.073  81.840 113.223  0.00  0.00    -0.368 OA
BRANCH   7   8
ATOM      8  C   LIG d   1      -0.676  82.809 113.997  0.00  0.00     0.119 C 
BRANCH   8   9
ATOM      9  C   LIG d   1      -0.435  84.193 113.364  0.00  0.00     0.028 C 
ATOM     10  C   LIG d   1       1.012  84.680 113.550  0.00  0.00     0.006 C 
ENDBRANCH   8   9
BRANCH   8  11
ATOM     11  C   LIG d   1      -0.137  82.917 115.426  0.00  0.00     0.028 C 
ATOM     12  C   LIG d   1       0.440  81.591 115.947  0.00  0.00     0.006 C 
ENDBRANCH   8  11
ENDBRANCH   7   8
ENDBRANCH   1   7
BRANCH   6  13
ATOM     13  N   LIG d   1       0.943  81.616 110.346  0.00  0.00    -0.311 N 
ATOM     14  C   LIG d   1       2.246  81.888 110.331  0.00  0.00     0.210 C 
ATOM     15  C   LIG d   1       2.653  83.058 109.430  0.00  0.00     0.109 C 
ATOM     16  O   LIG d   1       3.109  81.250 110.954  0.00  0.00    -0.276 OA
ATOM     17  H   LIG d   1       0.319  82.164 109.786  0.00  0.00     0.149 HD
ENDBRANCH   6  13
BRANCH   5  18
ATOM     18  N   LIG d   1       0.588  78.723 109.431  0.00  0.00     0.381 N 
ATOM     19  H   LIG d   1       1.512  78.771 109.811  0.00  0.00    -0.090 HD
ATOM     20  H   LIG d   1       0.597  79.160 108.526  0.00  0.00    -0.090 HD
ATOM     21  H   LIG d   1       0.305  77.772 109.346  0.00  0.00    -0.090 HD
ENDBRANCH   5  18
BRANCH   3  22
ATOM     22  C   LIG d   1      -2.932  78.291 112.649  0.00  0.00     0.382 C 
ATOM     23  O   LIG d   1      -3.658  77.676 111.832  0.00  0.00    -0.241 OA
ATOM     24  O   LIG d   1      -3.227  78.283 113.860  0.00  0.00    -0.241 OA
ENDBRANCH   3  22
TORSDOF 7
ENDMDL
MODEL 6
REMARK VINA RESULT:      -4.6      3.254      6.232
REMARK  7 active torsions:
REMARK  status: ('A' for Active; 'I' for Inactive)
REMARK    1  A    between atoms: C_2  and  C_3 
REMARK    2  A    between atoms: C_3  and  O_6 
REMARK    3  A    between atoms: C_3  and  C_4 
REMARK    4  A    between atoms: C_7  and  O_6 
REMARK    5  A    between atoms: C_9  and  C_10 
REMARK    6  A    between atoms: N_15  and  C_14 
REMARK    7  A    between atoms: N_20  and  C_19 
REMARK       I    between atoms: C_22  and  N_20 
ROOT
ATOM      1  C   LIG d   1      -1.613  77.829 114.277  0.00  0.00     0.161 C 
ATOM      2  C   LIG d   1      -0.837  78.859 113.720  0.00  0.00     0.016 C 
ATOM      3  C   LIG d   1      -1.150  79.495 112.496  0.00  0.00     0.038 C 
ATOM      4  C   LIG d   1      -2.351  79.245 111.817  0.00  0.00     0.028 C 
ATOM      5  C   LIG d   1      -2.917  77.853 112.080  0.00  0.00    -0.047 C 
ATOM      6  C   LIG d   1      -2.987  77.620 113.606  0.00  0.00     0.091 C 
ENDROOT
BRANCH   1   7
ATOM      7  O   LIG d   1      -1.774  78.049 115.692  0.00  0.00    -0.368 OA
BRANCH   7   8
ATOM      8  C   LIG d   1      -1.074  77.128 116.564  0.00  0.00     0.119 C 
BRANCH   8   9
ATOM      9  C   LIG d   1      -0.503  76.000 115.684  0.00  0.00     0.028 C 
ATOM     10  C   LIG d   1      -1.063  74.619 116.062  0.00  0.00     0.006 C 
ENDBRANCH   8   9
BRANCH   8  11
ATOM     11  C   LIG d   1      -2.038  76.437 117.533  0.00  0.00     0.028 C 
ATOM     12  C   LIG d   1      -1.799  76.837 118.998  0.00  0.00     0.006 C 
ENDBRANCH   8  11
ENDBRANCH   7   8
ENDBRANCH   1   7
BRANCH   6  13
ATOM     13  N   LIG d   1      -3.451  76.250 113.950  0.00  0.00    -0.311 N 
ATOM     14  C   LIG d   1      -4.486  76.007 114.752  0.00  0.00     0.210 C 
ATOM     15  C   LIG d   1      -4.784  74.523 114.990  0.00  0.00     0.109 C 
ATOM     16  O   LIG d   1      -5.205  76.878 115.263  0.00  0.00    -0.276 OA
ATOM     17  H   LIG d   1      -2.943  75.484 113.553  0.00  0.00     0.149 HD
ENDBRANCH   6  13
BRANCH   5  18
ATOM     18  N   LIG d   1      -4.236  77.777 111.423  0.00  0.00     0.381 N 
ATOM     19  H   LIG d   1      -4.216  77.085 110.701  0.00  0.00    -0.090 HD
ATOM     20  H   LIG d   1      -4.441  78.666 111.001  0.00  0.00    -0.090 HD
ATOM     21  H   LIG d   1      -4.938  77.549 112.092  0.00  0.00    -0.090 HD
ENDBRANCH   5  18
BRANCH   3  22
ATOM     22  C   LIG d   1      -0.235  80.363 111.919  0.00  0.00     0.382 C 
ATOM     23  O   LIG d   1      -0.421  80.784 110.752  0.00  0.00    -0.241 OA
ATOM     24  O   LIG d   1       0.795  80.696 112.535  0.00  0.00    -0.241 OA
ENDBRANCH   3  22
TORSDOF 7
ENDMDL
MODEL 7
REMARK VINA RESULT:      -4.6      4.802      7.113
REMARK  7 active torsions:
REMARK  status: ('A' for Active; 'I' for Inactive)
REMARK    1  A    between atoms: C_2  and  C_3 
REMARK    2  A    between atoms: C_3  and  O_6 
REMARK    3  A    between atoms: C_3  and  C_4 
REMARK    4  A    between atoms: C_7  and  O_6 
REMARK    5  A    between atoms: C_9  and  C_10 
REMARK    6  A    between atoms: N_15  and  C_14 
REMARK    7  A    between atoms: N_20  and  C_19 
REMARK       I    between atoms: C_22  and  N_20 
ROOT
ATOM      1  C   LIG d   1      -2.957  77.327 114.599  0.00  0.00     0.161 C 
ATOM      2  C   LIG d   1      -2.760  77.029 113.241  0.00  0.00     0.016 C 
ATOM      3  C   LIG d   1      -1.571  76.456 112.734  0.00  0.00     0.038 C 
ATOM      4  C   LIG d   1      -0.549  76.001 113.580  0.00  0.00     0.028 C 
ATOM      5  C   LIG d   1      -0.490  76.741 114.912  0.00  0.00    -0.047 C 
ATOM      6  C   LIG d   1      -1.897  76.735 115.552  0.00  0.00     0.091 C 
ENDROOT
BRANCH   1   7
ATOM      7  O   LIG d   1      -4.278  76.917 115.003  0.00  0.00    -0.368 OA
BRANCH   7   8
ATOM      8  C   LIG d   1      -4.439  75.513 115.326  0.00  0.00     0.119 C 
BRANCH   8   9
ATOM      9  C   LIG d   1      -5.540  74.950 114.407  0.00  0.00     0.028 C 
ATOM     10  C   LIG d   1      -6.422  76.055 113.801  0.00  0.00     0.006 C 
ENDBRANCH   8   9
BRANCH   8  11
ATOM     11  C   LIG d   1      -4.967  75.327 116.752  0.00  0.00     0.028 C 
ATOM     12  C   LIG d   1      -5.988  74.183 116.864  0.00  0.00     0.006 C 
ENDBRANCH   8  11
ENDBRANCH   7   8
ENDBRANCH   1   7
BRANCH   6  13
ATOM     13  N   LIG d   1      -1.947  77.511 116.818  0.00  0.00    -0.311 N 
ATOM     14  C   LIG d   1      -1.842  76.954 118.024  0.00  0.00     0.210 C 
ATOM     15  C   LIG d   1      -1.940  77.932 119.199  0.00  0.00     0.109 C 
ATOM     16  O   LIG d   1      -1.646  75.747 118.231  0.00  0.00    -0.276 OA
ATOM     17  H   LIG d   1      -2.073  78.501 116.742  0.00  0.00     0.149 HD
ENDBRANCH   6  13
BRANCH   5  18
ATOM     18  N   LIG d   1       0.527  76.075 115.748  0.00  0.00     0.381 N 
ATOM     19  H   LIG d   1       0.109  75.748 116.595  0.00  0.00    -0.090 HD
ATOM     20  H   LIG d   1       1.241  76.742 115.985  0.00  0.00    -0.090 HD
ATOM     21  H   LIG d   1       0.929  75.310 115.251  0.00  0.00    -0.090 HD
ENDBRANCH   5  18
BRANCH   3  22
ATOM     22  C   LIG d   1      -1.379  76.371 111.364  0.00  0.00     0.382 C 
ATOM     23  O   LIG d   1      -2.108  77.033 110.586  0.00  0.00    -0.241 OA
ATOM     24  O   LIG d   1      -0.515  75.607 110.893  0.00  0.00    -0.241 OA
ENDBRANCH   3  22
TORSDOF 7
ENDMDL
MODEL 8
REMARK VINA RESULT:      -4.6      2.732      5.939
REMARK  7 active torsions:
REMARK  status: ('A' for Active; 'I' for Inactive)
REMARK    1  A    between atoms: C_2  and  C_3 
REMARK    2  A    between atoms: C_3  and  O_6 
REMARK    3  A    between atoms: C_3  and  C_4 
REMARK    4  A    between atoms: C_7  and  O_6 
REMARK    5  A    between atoms: C_9  and  C_10 
REMARK    6  A    between atoms: N_15  and  C_14 
REMARK    7  A    between atoms: N_20  and  C_19 
REMARK       I    between atoms: C_22  and  N_20 
ROOT
ATOM      1  C   LIG d   1      -1.838  80.111 113.960  0.00  0.00     0.161 C 
ATOM      2  C   LIG d   1      -1.543  80.975 112.893  0.00  0.00     0.016 C 
ATOM      3  C   LIG d   1      -0.266  81.546 112.684  0.00  0.00     0.038 C 
ATOM      4  C   LIG d   1       0.849  81.169 113.447  0.00  0.00     0.028 C 
ATOM      5  C   LIG d   1       0.488  80.686 114.848  0.00  0.00    -0.047 C 
ATOM      6  C   LIG d   1      -0.607  79.601 114.738  0.00  0.00     0.091 C 
ENDROOT
BRANCH   1   7
ATOM      7  O   LIG d   1      -2.627  79.001 113.486  0.00  0.00    -0.368 OA
BRANCH   7   8
ATOM      8  C   LIG d   1      -1.893  77.917 112.865  0.00  0.00     0.119 C 
BRANCH   8   9
ATOM      9  C   LIG d   1      -2.426  77.762 111.428  0.00  0.00     0.028 C 
ATOM     10  C   LIG d   1      -1.500  78.410 110.385  0.00  0.00     0.006 C 
ENDBRANCH   8   9
BRANCH   8  11
ATOM     11  C   LIG d   1      -2.185  76.581 113.553  0.00  0.00     0.028 C 
ATOM     12  C   LIG d   1      -3.529  76.576 114.299  0.00  0.00     0.006 C 
ENDBRANCH   8  11
ENDBRANCH   7   8
ENDBRANCH   1   7
BRANCH   6  13
ATOM     13  N   LIG d   1      -1.078  79.134 116.068  0.00  0.00    -0.311 N 
ATOM     14  C   LIG d   1      -0.660  78.006 116.640  0.00  0.00     0.210 C 
ATOM     15  C   LIG d   1      -1.286  77.701 118.004  0.00  0.00     0.109 C 
ATOM     16  O   LIG d   1       0.194  77.245 116.160  0.00  0.00    -0.276 OA
ATOM     17  H   LIG d   1      -1.749  79.707 116.542  0.00  0.00     0.149 HD
ENDBRANCH   6  13
BRANCH   5  18
ATOM     18  N   LIG d   1       1.726  80.196 115.483  0.00  0.00     0.381 N 
ATOM     19  H   LIG d   1       2.520  80.626 115.052  0.00  0.00    -0.090 HD
ATOM     20  H   LIG d   1       1.791  79.203 115.345  0.00  0.00    -0.090 HD
ATOM     21  H   LIG d   1       1.715  80.404 116.457  0.00  0.00    -0.090 HD
ENDBRANCH   5  18
BRANCH   3  22
ATOM     22  C   LIG d   1      -0.104  82.536 111.726  0.00  0.00     0.382 C 
ATOM     23  O   LIG d   1       0.780  83.413 111.875  0.00  0.00    -0.241 OA
ATOM     24  O   LIG d   1      -0.861  82.589 110.738  0.00  0.00    -0.241 OA
ENDBRANCH   3  22
TORSDOF 7
ENDMDL
MODEL 9
REMARK VINA RESULT:      -4.6      2.706      5.189
REMARK  7 active torsions:
REMARK  status: ('A' for Active; 'I' for Inactive)
REMARK    1  A    between atoms: C_2  and  C_3 
REMARK    2  A    between atoms: C_3  and  O_6 
REMARK    3  A    between atoms: C_3  and  C_4 
REMARK    4  A    between atoms: C_7  and  O_6 
REMARK    5  A    between atoms: C_9  and  C_10 
REMARK    6  A    between atoms: N_15  and  C_14 
REMARK    7  A    between atoms: N_20  and  C_19 
REMARK       I    between atoms: C_22  and  N_20 
ROOT
ATOM      1  C   LIG d   1      -0.567  79.344 114.600  0.00  0.00     0.161 C 
ATOM      2  C   LIG d   1      -0.702  80.621 114.031  0.00  0.00     0.016 C 
ATOM      3  C   LIG d   1      -1.225  80.844 112.736  0.00  0.00     0.038 C 
ATOM      4  C   LIG d   1      -1.794  79.810 111.978  0.00  0.00     0.028 C 
ATOM      5  C   LIG d   1      -1.220  78.435 112.304  0.00  0.00    -0.047 C 
ATOM      6  C   LIG d   1      -1.284  78.214 113.832  0.00  0.00     0.091 C 
ENDROOT
BRANCH   1   7
ATOM      7  O   LIG d   1      -1.005  79.373 115.973  0.00  0.00    -0.368 OA
BRANCH   7   8
ATOM      8  C   LIG d   1      -0.035  79.843 116.942  0.00  0.00     0.119 C 
BRANCH   8   9
ATOM      9  C   LIG d   1       0.943  78.684 117.217  0.00  0.00     0.028 C 
ATOM     10  C   LIG d   1       0.228  77.421 117.726  0.00  0.00     0.006 C 
ENDBRANCH   8   9
BRANCH   8  11
ATOM     11  C   LIG d   1      -0.696  80.145 118.290  0.00  0.00     0.028 C 
ATOM     12  C   LIG d   1      -0.551  81.616 118.709  0.00  0.00     0.006 C 
ENDBRANCH   8  11
ENDBRANCH   7   8
ENDBRANCH   1   7
BRANCH   6  13
ATOM     13  N   LIG d   1      -0.666  76.927 114.245  0.00  0.00    -0.311 N 
ATOM     14  C   LIG d   1      -1.368  75.822 114.491  0.00  0.00     0.210 C 
ATOM     15  C   LIG d   1      -0.536  74.610 114.923  0.00  0.00     0.109 C 
ATOM     16  O   LIG d   1      -2.597  75.722 114.361  0.00  0.00    -0.276 OA
ATOM     17  H   LIG d   1       0.330  76.911 114.345  0.00  0.00     0.149 HD
ENDBRANCH   6  13
BRANCH   5  18
ATOM     18  N   LIG d   1      -1.996  77.437 111.543  0.00  0.00     0.381 N 
ATOM     19  H   LIG d   1      -1.490  76.575 111.501  0.00  0.00    -0.090 HD
ATOM     20  H   LIG d   1      -2.125  77.773 110.604  0.00  0.00    -0.090 HD
ATOM     21  H   LIG d   1      -2.881  77.290 111.976  0.00  0.00    -0.090 HD
ENDBRANCH   5  18
BRANCH   3  22
ATOM     22  C   LIG d   1      -1.147  82.108 112.172  0.00  0.00     0.382 C 
ATOM     23  O   LIG d   1      -1.329  83.125 112.884  0.00  0.00    -0.241 OA
ATOM     24  O   LIG d   1      -0.942  82.244 110.951  0.00  0.00    -0.241 OA
ENDBRANCH   3  22
TORSDOF 7
ENDMDL
