MODEL 1
REMARK VINA RESULT:      -5.5      0.000      0.000
REMARK  7 active torsions:
REMARK  status: ('A' for Active; 'I' for Inactive)
REMARK    1  A    between atoms: C_2  and  C_3 
REMARK    2  A    between atoms: C_3  and  O_6 
REMARK    3  A    between atoms: C_3  and  C_4 
REMARK    4  A    between atoms: C_7  and  O_6 
REMARK    5  A    between atoms: C_9  and  C_10 
REMARK    6  A    between atoms: N_15  and  C_14 
REMARK    7  A    between atoms: N_20  and  C_19 
REMARK       I    between atoms: C_22  and  N_20 
ROOT
ATOM      1  C   LIG d   1      -2.564  77.737 116.158  0.00  0.00     0.161 C 
ATOM      2  C   LIG d   1      -2.839  78.610 115.092  0.00  0.00     0.016 C 
ATOM      3  C   LIG d   1      -2.237  78.497 113.818  0.00  0.00     0.038 C 
ATOM      4  C   LIG d   1      -1.426  77.404 113.476  0.00  0.00     0.028 C 
ATOM      5  C   LIG d   1      -0.721  76.774 114.672  0.00  0.00    -0.047 C 
ATOM      6  C   LIG d   1      -1.767  76.474 115.770  0.00  0.00     0.091 C 
ENDROOT
BRANCH   1   7
ATOM      7  O   LIG d   1      -3.791  77.372 116.820  0.00  0.00    -0.368 OA
BRANCH   7   8
ATOM      8  C   LIG d   1      -4.984  77.374 115.997  0.00  0.00     0.119 C 
BRANCH   8   9
ATOM      9  C   LIG d   1      -6.128  77.968 116.842  0.00  0.00     0.028 C 
ATOM     10  C   LIG d   1      -5.862  79.428 117.245  0.00  0.00     0.006 C 
ENDBRANCH   8   9
BRANCH   8  11
ATOM     11  C   LIG d   1      -5.429  75.948 115.658  0.00  0.00     0.028 C 
ATOM     12  C   LIG d   1      -5.034  75.523 114.235  0.00  0.00     0.006 C 
ENDBRANCH   8  11
ENDBRANCH   7   8
ENDBRANCH   1   7
BRANCH   6  13
ATOM     13  N   LIG d   1      -1.150  75.934 117.009  0.00  0.00    -0.311 N 
ATOM     14  C   LIG d   1      -1.652  74.905 117.690  0.00  0.00     0.210 C 
ATOM     15  C   LIG d   1      -0.870  74.521 118.951  0.00  0.00     0.109 C 
ATOM     16  O   LIG d   1      -2.652  74.254 117.353  0.00  0.00    -0.276 OA
ATOM     17  H   LIG d   1      -0.317  76.383 117.337  0.00  0.00     0.149 HD
ENDBRANCH   6  13
BRANCH   5  18
ATOM     18  N   LIG d   1      -0.023  75.567 114.193  0.00  0.00     0.381 N 
ATOM     19  H   LIG d   1      -0.498  75.195 113.395  0.00  0.00    -0.090 HD
ATOM     20  H   LIG d   1      -0.036  74.873 114.920  0.00  0.00    -0.090 HD
ATOM     21  H   LIG d   1       0.919  75.790 113.954  0.00  0.00    -0.090 HD
ENDBRANCH   5  18
BRANCH   3  22
ATOM     22  C   LIG d   1      -2.412  79.506 112.883  0.00  0.00     0.382 C 
ATOM     23  O   LIG d   1      -1.862  79.420 111.758  0.00  0.00    -0.241 OA
ATOM     24  O   LIG d   1      -3.075  80.521 113.166  0.00  0.00    -0.241 OA
ENDBRANCH   3  22
TORSDOF 7
ENDMDL
MODEL 2
REMARK VINA RESULT:      -5.0      2.184      5.036
REMARK  7 active torsions:
REMARK  status: ('A' for Active; 'I' for Inactive)
REMARK    1  A    between atoms: C_2  and  C_3 
REMARK    2  A    between atoms: C_3  and  O_6 
REMARK    3  A    between atoms: C_3  and  C_4 
REMARK    4  A    between atoms: C_7  and  O_6 
REMARK    5  A    between atoms: C_9  and  C_10 
REMARK    6  A    between atoms: N_15  and  C_14 
REMARK    7  A    between atoms: N_20  and  C_19 
REMARK       I    between atoms: C_22  and  N_20 
ROOT
ATOM      1  C   LIG d   1      -1.198  75.422 115.215  0.00  0.00     0.161 C 
ATOM      2  C   LIG d   1      -0.774  74.949 116.467  0.00  0.00     0.016 C 
ATOM      3  C   LIG d   1      -0.112  75.756 117.421  0.00  0.00     0.038 C 
ATOM      4  C   LIG d   1       0.036  77.140 117.247  0.00  0.00     0.028 C 
ATOM      5  C   LIG d   1       0.074  77.565 115.783  0.00  0.00    -0.047 C 
ATOM      6  C   LIG d   1      -1.144  76.956 115.052  0.00  0.00     0.091 C 
ENDROOT
BRANCH   1   7
ATOM      7  O   LIG d   1      -2.524  74.934 114.931  0.00  0.00    -0.368 OA
BRANCH   7   8
ATOM      8  C   LIG d   1      -3.620  75.757 115.402  0.00  0.00     0.119 C 
BRANCH   8   9
ATOM      9  C   LIG d   1      -4.132  75.138 116.717  0.00  0.00     0.028 C 
ATOM     10  C   LIG d   1      -3.851  76.033 117.935  0.00  0.00     0.006 C 
ENDBRANCH   8   9
BRANCH   8  11
ATOM     11  C   LIG d   1      -4.809  75.705 114.438  0.00  0.00     0.028 C 
ATOM     12  C   LIG d   1      -6.138  76.087 115.110  0.00  0.00     0.006 C 
ENDBRANCH   8  11
ENDBRANCH   7   8
ENDBRANCH   1   7
BRANCH   6  13
ATOM     13  N   LIG d   1      -1.138  77.253 113.595  0.00  0.00    -0.311 N 
ATOM     14  C   LIG d   1      -2.018  78.063 113.009  0.00  0.00     0.210 C 
ATOM     15  C   LIG d   1      -1.846  78.216 111.494  0.00  0.00     0.109 C 
ATOM     16  O   LIG d   1      -2.905  78.693 113.604  0.00  0.00    -0.276 OA
ATOM     17  H   LIG d   1      -0.432  76.808 113.042  0.00  0.00     0.149 HD
ENDBRANCH   6  13
BRANCH   5  18
ATOM     18  N   LIG d   1       0.092  79.039 115.747  0.00  0.00     0.381 N 
ATOM     19  H   LIG d   1       0.926  79.357 115.295  0.00  0.00    -0.090 HD
ATOM     20  H   LIG d   1       0.093  79.387 116.690  0.00  0.00    -0.090 HD
ATOM     21  H   LIG d   1      -0.709  79.379 115.261  0.00  0.00    -0.090 HD
ENDBRANCH   5  18
BRANCH   3  22
ATOM     22  C   LIG d   1       0.445  75.171 118.549  0.00  0.00     0.382 C 
ATOM     23  O   LIG d   1      -0.112  74.180 119.081  0.00  0.00    -0.241 OA
ATOM     24  O   LIG d   1       1.472  75.649 119.066  0.00  0.00    -0.241 OA
ENDBRANCH   3  22
TORSDOF 7
ENDMDL
MODEL 3
REMARK VINA RESULT:      -4.5      2.320      3.147
REMARK  7 active torsions:
REMARK  status: ('A' for Active; 'I' for Inactive)
REMARK    1  A    between atoms: C_2  and  C_3 
REMARK    2  A    between atoms: C_3  and  O_6 
REMARK    3  A    between atoms: C_3  and  C_4 
REMARK    4  A    between atoms: C_7  and  O_6 
REMARK    5  A    between atoms: C_9  and  C_10 
REMARK    6  A    between atoms: N_15  and  C_14 
REMARK    7  A    between atoms: N_20  and  C_19 
REMARK       I    between atoms: C_22  and  N_20 
ROOT
ATOM      1  C   LIG d   1      -2.031  76.704 115.850  0.00  0.00     0.161 C 
ATOM      2  C   LIG d   1      -2.495  76.902 114.539  0.00  0.00     0.016 C 
ATOM      3  C   LIG d   1      -1.944  77.858 113.655  0.00  0.00     0.038 C 
ATOM      4  C   LIG d   1      -0.784  78.580 113.973  0.00  0.00     0.028 C 
ATOM      5  C   LIG d   1      -0.585  78.777 115.472  0.00  0.00    -0.047 C 
ATOM      6  C   LIG d   1      -0.696  77.406 116.177  0.00  0.00     0.091 C 
ENDROOT
BRANCH   1   7
ATOM      7  O   LIG d   1      -1.937  75.293 116.127  0.00  0.00    -0.368 OA
BRANCH   7   8
ATOM      8  C   LIG d   1      -2.868  74.772 117.107  0.00  0.00     0.119 C 
BRANCH   8   9
ATOM      9  C   LIG d   1      -3.841  75.911 117.473  0.00  0.00     0.028 C 
ATOM     10  C   LIG d   1      -5.273  75.638 116.984  0.00  0.00     0.006 C 
ENDBRANCH   8   9
BRANCH   8  11
ATOM     11  C   LIG d   1      -2.157  74.411 118.415  0.00  0.00     0.028 C 
ATOM     12  C   LIG d   1      -2.615  75.276 119.600  0.00  0.00     0.006 C 
ENDBRANCH   8  11
ENDBRANCH   7   8
ENDBRANCH   1   7
BRANCH   6  13
ATOM     13  N   LIG d   1      -0.597  77.519 117.655  0.00  0.00    -0.311 N 
ATOM     14  C   LIG d   1       0.538  77.345 118.330  0.00  0.00     0.210 C 
ATOM     15  C   LIG d   1       0.415  77.487 119.850  0.00  0.00     0.109 C 
ATOM     16  O   LIG d   1       1.641  77.118 117.811  0.00  0.00    -0.276 OA
ATOM     17  H   LIG d   1      -1.439  77.731 118.154  0.00  0.00     0.149 HD
ENDBRANCH   6  13
BRANCH   5  18
ATOM     18  N   LIG d   1       0.727  79.423 115.666  0.00  0.00     0.381 N 
ATOM     19  H   LIG d   1       1.335  78.809 116.171  0.00  0.00    -0.090 HD
ATOM     20  H   LIG d   1       0.600  80.258 116.210  0.00  0.00    -0.090 HD
ATOM     21  H   LIG d   1       1.129  79.650 114.784  0.00  0.00    -0.090 HD
ENDBRANCH   5  18
BRANCH   3  22
ATOM     22  C   LIG d   1      -2.578  78.126 112.451  0.00  0.00     0.382 C 
ATOM     23  O   LIG d   1      -2.169  79.062 111.722  0.00  0.00    -0.241 OA
ATOM     24  O   LIG d   1      -3.581  77.474 112.106  0.00  0.00    -0.241 OA
ENDBRANCH   3  22
TORSDOF 7
ENDMDL
MODEL 4
REMARK VINA RESULT:      -4.4      1.372      2.251
REMARK  7 active torsions:
REMARK  status: ('A' for Active; 'I' for Inactive)
REMARK    1  A    between atoms: C_2  and  C_3 
REMARK    2  A    between atoms: C_3  and  O_6 
REMARK    3  A    between atoms: C_3  and  C_4 
REMARK    4  A    between atoms: C_7  and  O_6 
REMARK    5  A    between atoms: C_9  and  C_10 
REMARK    6  A    between atoms: N_15  and  C_14 
REMARK    7  A    between atoms: N_20  and  C_19 
REMARK       I    between atoms: C_22  and  N_20 
ROOT
ATOM      1  C   LIG d   1      -2.874  78.366 115.604  0.00  0.00     0.161 C 
ATOM      2  C   LIG d   1      -2.902  78.554 114.212  0.00  0.00     0.016 C 
ATOM      3  C   LIG d   1      -1.982  77.947 113.327  0.00  0.00     0.038 C 
ATOM      4  C   LIG d   1      -1.059  76.984 113.761  0.00  0.00     0.028 C 
ATOM      5  C   LIG d   1      -0.663  77.143 115.226  0.00  0.00    -0.047 C 
ATOM      6  C   LIG d   1      -1.944  77.232 116.085  0.00  0.00     0.091 C 
ENDROOT
BRANCH   1   7
ATOM      7  O   LIG d   1      -4.213  78.158 116.096  0.00  0.00    -0.368 OA
BRANCH   7   8
ATOM      8  C   LIG d   1      -4.583  76.786 116.378  0.00  0.00     0.119 C 
BRANCH   8   9
ATOM      9  C   LIG d   1      -5.581  76.342 115.291  0.00  0.00     0.028 C 
ATOM     10  C   LIG d   1      -4.937  75.416 114.246  0.00  0.00     0.006 C 
ENDBRANCH   8   9
BRANCH   8  11
ATOM     11  C   LIG d   1      -5.348  76.676 117.701  0.00  0.00     0.028 C 
ATOM     12  C   LIG d   1      -4.976  77.784 118.698  0.00  0.00     0.006 C 
ENDBRANCH   8  11
ENDBRANCH   7   8
ENDBRANCH   1   7
BRANCH   6  13
ATOM     13  N   LIG d   1      -1.648  77.473 117.521  0.00  0.00    -0.311 N 
ATOM     14  C   LIG d   1      -1.527  76.496 118.419  0.00  0.00     0.210 C 
ATOM     15  C   LIG d   1      -1.239  76.964 119.849  0.00  0.00     0.109 C 
ATOM     16  O   LIG d   1      -1.598  75.285 118.160  0.00  0.00    -0.276 OA
ATOM     17  H   LIG d   1      -1.543  78.425 117.812  0.00  0.00     0.149 HD
ENDBRANCH   6  13
BRANCH   5  18
ATOM     18  N   LIG d   1       0.194  75.996 115.582  0.00  0.00     0.381 N 
ATOM     19  H   LIG d   1      -0.313  75.143 115.456  0.00  0.00    -0.090 HD
ATOM     20  H   LIG d   1       0.450  76.071 116.551  0.00  0.00    -0.090 HD
ATOM     21  H   LIG d   1       1.012  75.992 115.014  0.00  0.00    -0.090 HD
ENDBRANCH   5  18
BRANCH   3  22
ATOM     22  C   LIG d   1      -1.954  78.332 111.995  0.00  0.00     0.382 C 
ATOM     23  O   LIG d   1      -1.782  79.538 111.694  0.00  0.00    -0.241 OA
ATOM     24  O   LIG d   1      -2.143  77.496 111.091  0.00  0.00    -0.241 OA
ENDBRANCH   3  22
TORSDOF 7
ENDMDL
MODEL 5
REMARK VINA RESULT:      -4.4      1.732      4.977
REMARK  7 active torsions:
REMARK  status: ('A' for Active; 'I' for Inactive)
REMARK    1  A    between atoms: C_2  and  C_3 
REMARK    2  A    between atoms: C_3  and  O_6 
REMARK    3  A    between atoms: C_3  and  C_4 
REMARK    4  A    between atoms: C_7  and  O_6 
REMARK    5  A    between atoms: C_9  and  C_10 
REMARK    6  A    between atoms: N_15  and  C_14 
REMARK    7  A    between atoms: N_20  and  C_19 
REMARK       I    between atoms: C_22  and  N_20 
ROOT
ATOM      1  C   LIG d   1      -3.462  76.090 115.513  0.00  0.00     0.161 C 
ATOM      2  C   LIG d   1      -3.310  75.497 116.778  0.00  0.00     0.016 C 
ATOM      3  C   LIG d   1      -2.136  75.614 117.556  0.00  0.00     0.038 C 
ATOM      4  C   LIG d   1      -1.083  76.464 117.187  0.00  0.00     0.028 C 
ATOM      5  C   LIG d   1      -0.982  76.685 115.681  0.00  0.00    -0.047 C 
ATOM      6  C   LIG d   1      -2.367  77.112 115.143  0.00  0.00     0.091 C 
ENDROOT
BRANCH   1   7
ATOM      7  O   LIG d   1      -4.766  76.694 115.410  0.00  0.00    -0.368 OA
BRANCH   7   8
ATOM      8  C   LIG d   1      -5.442  76.969 116.662  0.00  0.00     0.119 C 
BRANCH   8   9
ATOM      9  C   LIG d   1      -6.906  76.512 116.508  0.00  0.00     0.028 C 
ATOM     10  C   LIG d   1      -7.050  74.981 116.542  0.00  0.00     0.006 C 
ENDBRANCH   8   9
BRANCH   8  11
ATOM     11  C   LIG d   1      -5.514  78.473 116.939  0.00  0.00     0.028 C 
ATOM     12  C   LIG d   1      -4.483  78.938 117.979  0.00  0.00     0.006 C 
ENDBRANCH   8  11
ENDBRANCH   7   8
ENDBRANCH   1   7
BRANCH   6  13
ATOM     13  N   LIG d   1      -2.377  77.267 113.665  0.00  0.00    -0.311 N 
ATOM     14  C   LIG d   1      -2.108  78.415 113.046  0.00  0.00     0.210 C 
ATOM     15  C   LIG d   1      -2.194  78.362 111.517  0.00  0.00     0.109 C 
ATOM     16  O   LIG d   1      -1.775  79.465 113.616  0.00  0.00    -0.276 OA
ATOM     17  H   LIG d   1      -2.607  76.457 113.123  0.00  0.00     0.149 HD
ENDBRANCH   6  13
BRANCH   5  18
ATOM     18  N   LIG d   1       0.067  77.695 115.448  0.00  0.00     0.381 N 
ATOM     19  H   LIG d   1      -0.199  78.290 114.688  0.00  0.00    -0.090 HD
ATOM     20  H   LIG d   1       0.920  77.227 115.198  0.00  0.00    -0.090 HD
ATOM     21  H   LIG d   1       0.206  78.239 116.271  0.00  0.00    -0.090 HD
ENDBRANCH   5  18
BRANCH   3  22
ATOM     22  C   LIG d   1      -1.990  74.845 118.700  0.00  0.00     0.382 C 
ATOM     23  O   LIG d   1      -0.941  74.180 118.880  0.00  0.00    -0.241 OA
ATOM     24  O   LIG d   1      -2.913  74.771 119.534  0.00  0.00    -0.241 OA
ENDBRANCH   3  22
TORSDOF 7
ENDMDL
MODEL 6
REMARK VINA RESULT:      -4.3      2.579      4.508
REMARK  7 active torsions:
REMARK  status: ('A' for Active; 'I' for Inactive)
REMARK    1  A    between atoms: C_2  and  C_3 
REMARK    2  A    between atoms: C_3  and  O_6 
REMARK    3  A    between atoms: C_3  and  C_4 
REMARK    4  A    between atoms: C_7  and  O_6 
REMARK    5  A    between atoms: C_9  and  C_10 
REMARK    6  A    between atoms: N_15  and  C_14 
REMARK    7  A    between atoms: N_20  and  C_19 
REMARK       I    between atoms: C_22  and  N_20 
ROOT
ATOM      1  C   LIG d   1      -1.464  75.762 115.535  0.00  0.00     0.161 C 
ATOM      2  C   LIG d   1      -2.662  75.860 114.809  0.00  0.00     0.016 C 
ATOM      3  C   LIG d   1      -3.942  75.796 115.406  0.00  0.00     0.038 C 
ATOM      4  C   LIG d   1      -4.110  75.781 116.799  0.00  0.00     0.028 C 
ATOM      5  C   LIG d   1      -2.927  75.173 117.545  0.00  0.00    -0.047 C 
ATOM      6  C   LIG d   1      -1.626  75.857 117.067  0.00  0.00     0.091 C 
ENDROOT
BRANCH   1   7
ATOM      7  O   LIG d   1      -0.527  76.753 115.068  0.00  0.00    -0.368 OA
BRANCH   7   8
ATOM      8  C   LIG d   1      -0.906  78.136 115.275  0.00  0.00     0.119 C 
BRANCH   8   9
ATOM      9  C   LIG d   1      -0.788  78.856 113.917  0.00  0.00     0.028 C 
ATOM     10  C   LIG d   1      -2.158  79.100 113.261  0.00  0.00     0.006 C 
ENDBRANCH   8   9
BRANCH   8  11
ATOM     11  C   LIG d   1       0.081  78.853 116.201  0.00  0.00     0.028 C 
ATOM     12  C   LIG d   1      -0.600  79.478 117.428  0.00  0.00     0.006 C 
ENDBRANCH   8  11
ENDBRANCH   7   8
ENDBRANCH   1   7
BRANCH   6  13
ATOM     13  N   LIG d   1      -0.412  75.263 117.685  0.00  0.00    -0.311 N 
ATOM     14  C   LIG d   1       0.142  75.726 118.804  0.00  0.00     0.210 C 
ATOM     15  C   LIG d   1       1.400  74.980 119.259  0.00  0.00     0.109 C 
ATOM     16  O   LIG d   1      -0.307  76.664 119.480  0.00  0.00    -0.276 OA
ATOM     17  H   LIG d   1      -0.001  74.478 117.219  0.00  0.00     0.149 HD
ENDBRANCH   6  13
BRANCH   5  18
ATOM     18  N   LIG d   1      -3.174  75.346 118.989  0.00  0.00     0.381 N 
ATOM     19  H   LIG d   1      -3.905  76.015 119.130  0.00  0.00    -0.090 HD
ATOM     20  H   LIG d   1      -2.338  75.697 119.422  0.00  0.00    -0.090 HD
ATOM     21  H   LIG d   1      -3.428  74.474 119.399  0.00  0.00    -0.090 HD
ENDBRANCH   5  18
BRANCH   3  22
ATOM     22  C   LIG d   1      -5.070  75.707 114.606  0.00  0.00     0.382 C 
ATOM     23  O   LIG d   1      -6.132  76.278 114.953  0.00  0.00    -0.241 OA
ATOM     24  O   LIG d   1      -5.053  75.026 113.563  0.00  0.00    -0.241 OA
ENDBRANCH   3  22
TORSDOF 7
ENDMDL
MODEL 7
REMARK VINA RESULT:      -4.3      2.814      3.796
REMARK  7 active torsions:
REMARK  status: ('A' for Active; 'I' for Inactive)
REMARK    1  A    between atoms: C_2  and  C_3 
REMARK    2  A    between atoms: C_3  and  O_6 
REMARK    3  A    between atoms: C_3  and  C_4 
REMARK    4  A    between atoms: C_7  and  O_6 
REMARK    5  A    between atoms: C_9  and  C_10 
REMARK    6  A    between atoms: N_15  and  C_14 
REMARK    7  A    between atoms: N_20  and  C_19 
REMARK       I    between atoms: C_22  and  N_20 
ROOT
ATOM      1  C   LIG d   1      -1.804  78.389 116.289  0.00  0.00     0.161 C 
ATOM      2  C   LIG d   1      -2.993  77.784 115.849  0.00  0.00     0.016 C 
ATOM      3  C   LIG d   1      -3.033  76.531 115.195  0.00  0.00     0.038 C 
ATOM      4  C   LIG d   1      -1.893  75.723 115.070  0.00  0.00     0.028 C 
ATOM      5  C   LIG d   1      -0.589  76.514 115.048  0.00  0.00    -0.047 C 
ATOM      6  C   LIG d   1      -0.563  77.472 116.261  0.00  0.00     0.091 C 
ENDROOT
BRANCH   1   7
ATOM      7  O   LIG d   1      -1.994  78.936 117.608  0.00  0.00    -0.368 OA
BRANCH   7   8
ATOM      8  C   LIG d   1      -3.145  78.450 118.341  0.00  0.00     0.119 C 
BRANCH   8   9
ATOM      9  C   LIG d   1      -3.795  79.660 119.040  0.00  0.00     0.028 C 
ATOM     10  C   LIG d   1      -2.754  80.611 119.653  0.00  0.00     0.006 C 
ENDBRANCH   8   9
BRANCH   8  11
ATOM     11  C   LIG d   1      -2.728  77.505 119.471  0.00  0.00     0.028 C 
ATOM     12  C   LIG d   1      -2.846  76.022 119.083  0.00  0.00     0.006 C 
ENDBRANCH   8  11
ENDBRANCH   7   8
ENDBRANCH   1   7
BRANCH   6  13
ATOM     13  N   LIG d   1       0.640  78.344 116.269  0.00  0.00    -0.311 N 
ATOM     14  C   LIG d   1       1.579  78.289 117.212  0.00  0.00     0.210 C 
ATOM     15  C   LIG d   1       2.726  79.290 117.041  0.00  0.00     0.109 C 
ATOM     16  O   LIG d   1       1.587  77.485 118.156  0.00  0.00    -0.276 OA
ATOM     17  H   LIG d   1       0.729  79.005 115.522  0.00  0.00     0.149 HD
ENDBRANCH   6  13
BRANCH   5  18
ATOM     18  N   LIG d   1       0.521  75.543 115.054  0.00  0.00     0.381 N 
ATOM     19  H   LIG d   1       0.753  75.289 114.115  0.00  0.00    -0.090 HD
ATOM     20  H   LIG d   1       0.227  74.716 115.542  0.00  0.00    -0.090 HD
ATOM     21  H   LIG d   1       1.317  75.938 115.506  0.00  0.00    -0.090 HD
ENDBRANCH   5  18
BRANCH   3  22
ATOM     22  C   LIG d   1      -4.217  76.092 114.621  0.00  0.00     0.382 C 
ATOM     23  O   LIG d   1      -4.464  76.350 113.419  0.00  0.00    -0.241 OA
ATOM     24  O   LIG d   1      -5.061  75.481 115.304  0.00  0.00    -0.241 OA
ENDBRANCH   3  22
TORSDOF 7
ENDMDL
MODEL 8
REMARK VINA RESULT:      -4.2      3.122      5.653
REMARK  7 active torsions:
REMARK  status: ('A' for Active; 'I' for Inactive)
REMARK    1  A    between atoms: C_2  and  C_3 
REMARK    2  A    between atoms: C_3  and  O_6 
REMARK    3  A    between atoms: C_3  and  C_4 
REMARK    4  A    between atoms: C_7  and  O_6 
REMARK    5  A    between atoms: C_9  and  C_10 
REMARK    6  A    between atoms: N_15  and  C_14 
REMARK    7  A    between atoms: N_20  and  C_19 
REMARK       I    between atoms: C_22  and  N_20 
ROOT
ATOM      1  C   LIG d   1      -1.034  78.557 113.935  0.00  0.00     0.161 C 
ATOM      2  C   LIG d   1      -2.202  77.802 113.739  0.00  0.00     0.016 C 
ATOM      3  C   LIG d   1      -2.886  77.141 114.785  0.00  0.00     0.038 C 
ATOM      4  C   LIG d   1      -2.529  77.315 116.131  0.00  0.00     0.028 C 
ATOM      5  C   LIG d   1      -1.056  77.659 116.327  0.00  0.00    -0.047 C 
ATOM      6  C   LIG d   1      -0.693  78.850 115.411  0.00  0.00     0.091 C 
ENDROOT
BRANCH   1   7
ATOM      7  O   LIG d   1      -1.114  79.786 113.186  0.00  0.00    -0.368 OA
BRANCH   7   8
ATOM      8  C   LIG d   1      -0.082  79.995 112.192  0.00  0.00     0.119 C 
BRANCH   8   9
ATOM      9  C   LIG d   1       0.119  81.516 112.046  0.00  0.00     0.028 C 
ATOM     10  C   LIG d   1       1.441  81.995 112.670  0.00  0.00     0.006 C 
ENDBRANCH   8   9
BRANCH   8  11
ATOM     11  C   LIG d   1      -0.533  79.512 110.810  0.00  0.00     0.028 C 
ATOM     12  C   LIG d   1       0.450  79.898 109.693  0.00  0.00     0.006 C 
ENDBRANCH   8  11
ENDBRANCH   7   8
ENDBRANCH   1   7
BRANCH   6  13
ATOM     13  N   LIG d   1       0.751  79.197 115.479  0.00  0.00    -0.311 N 
ATOM     14  C   LIG d   1       1.249  80.098 116.325  0.00  0.00     0.210 C 
ATOM     15  C   LIG d   1       2.761  80.319 116.216  0.00  0.00     0.109 C 
ATOM     16  O   LIG d   1       0.588  80.710 117.177  0.00  0.00    -0.276 OA
ATOM     17  H   LIG d   1       1.364  78.725 114.845  0.00  0.00     0.149 HD
ENDBRANCH   6  13
BRANCH   5  18
ATOM     18  N   LIG d   1      -0.853  77.948 117.760  0.00  0.00     0.381 N 
ATOM     19  H   LIG d   1       0.028  78.403 117.892  0.00  0.00    -0.090 HD
ATOM     20  H   LIG d   1      -0.841  77.081 118.268  0.00  0.00    -0.090 HD
ATOM     21  H   LIG d   1      -1.589  78.529 118.098  0.00  0.00    -0.090 HD
ENDBRANCH   5  18
BRANCH   3  22
ATOM     22  C   LIG d   1      -3.915  76.262 114.485  0.00  0.00     0.382 C 
ATOM     23  O   LIG d   1      -4.243  75.375 115.311  0.00  0.00    -0.241 OA
ATOM     24  O   LIG d   1      -4.490  76.315 113.382  0.00  0.00    -0.241 OA
ENDBRANCH   3  22
TORSDOF 7
ENDMDL
MODEL 9
REMARK VINA RESULT:      -4.2      2.612      5.539
REMARK  7 active torsions:
REMARK  status: ('A' for Active; 'I' for Inactive)
REMARK    1  A    between atoms: C_2  and  C_3 
REMARK    2  A    between atoms: C_3  and  O_6 
REMARK    3  A    between atoms: C_3  and  C_4 
REMARK    4  A    between atoms: C_7  and  O_6 
REMARK    5  A    between atoms: C_9  and  C_10 
REMARK    6  A    between atoms: N_15  and  C_14 
REMARK    7  A    between atoms: N_20  and  C_19 
REMARK       I    between atoms: C_22  and  N_20 
ROOT
ATOM      1  C   LIG d   1      -1.660  77.749 116.137  0.00  0.00     0.161 C 
ATOM      2  C   LIG d   1      -1.845  76.939 117.270  0.00  0.00     0.016 C 
ATOM      3  C   LIG d   1      -1.297  75.642 117.396  0.00  0.00     0.038 C 
ATOM      4  C   LIG d   1      -0.394  75.123 116.455  0.00  0.00     0.028 C 
ATOM      5  C   LIG d   1      -0.578  75.702 115.056  0.00  0.00    -0.047 C 
ATOM      6  C   LIG d   1      -0.587  77.245 115.149  0.00  0.00     0.091 C 
ENDROOT
BRANCH   1   7
ATOM      7  O   LIG d   1      -1.369  79.101 116.547  0.00  0.00    -0.368 OA
BRANCH   7   8
ATOM      8  C   LIG d   1      -0.484  79.245 117.685  0.00  0.00     0.119 C 
BRANCH   8   9
ATOM      9  C   LIG d   1      -1.089  80.321 118.608  0.00  0.00     0.028 C 
ATOM     10  C   LIG d   1      -2.477  79.925 119.139  0.00  0.00     0.006 C 
ENDBRANCH   8   9
BRANCH   8  11
ATOM     11  C   LIG d   1       0.882  79.795 117.263  0.00  0.00     0.028 C 
ATOM     12  C   LIG d   1       1.098  81.253 117.698  0.00  0.00     0.006 C 
ENDBRANCH   8  11
ENDBRANCH   7   8
ENDBRANCH   1   7
BRANCH   6  13
ATOM     13  N   LIG d   1      -0.846  77.891 113.836  0.00  0.00    -0.311 N 
ATOM     14  C   LIG d   1      -1.934  77.654 113.105  0.00  0.00     0.210 C 
ATOM     15  C   LIG d   1      -1.995  78.408 111.773  0.00  0.00     0.109 C 
ATOM     16  O   LIG d   1      -2.869  76.914 113.447  0.00  0.00    -0.276 OA
ATOM     17  H   LIG d   1      -0.154  78.529 113.497  0.00  0.00     0.149 HD
ENDBRANCH   6  13
BRANCH   5  18
ATOM     18  N   LIG d   1       0.512  75.180 114.211  0.00  0.00     0.381 N 
ATOM     19  H   LIG d   1       0.826  75.894 113.584  0.00  0.00    -0.090 HD
ATOM     20  H   LIG d   1       0.162  74.413 113.666  0.00  0.00    -0.090 HD
ATOM     21  H   LIG d   1       1.269  74.874 114.782  0.00  0.00    -0.090 HD
ENDBRANCH   5  18
BRANCH   3  22
ATOM     22  C   LIG d   1      -1.682  74.832 118.454  0.00  0.00     0.382 C 
ATOM     23  O   LIG d   1      -2.886  74.788 118.803  0.00  0.00    -0.241 OA
ATOM     24  O   LIG d   1      -0.834  74.180 119.092  0.00  0.00    -0.241 OA
ENDBRANCH   3  22
TORSDOF 7
ENDMDL
