MODEL 1
REMARK VINA RESULT:      -5.3      0.000      0.000
REMARK  7 active torsions:
REMARK  status: ('A' for Active; 'I' for Inactive)
REMARK    1  A    between atoms: C_2  and  C_3 
REMARK    2  A    between atoms: C_3  and  O_6 
REMARK    3  A    between atoms: C_3  and  C_4 
REMARK    4  A    between atoms: C_7  and  O_6 
REMARK    5  A    between atoms: C_9  and  C_10 
REMARK    6  A    between atoms: N_15  and  C_14 
REMARK    7  A    between atoms: N_20  and  C_19 
REMARK       I    between atoms: C_22  and  N_20 
ROOT
ATOM      1  C   LIG d   1      -0.636  81.074 112.027  0.00  0.00     0.161 C 
ATOM      2  C   LIG d   1      -1.356  79.917 111.683  0.00  0.00     0.016 C 
ATOM      3  C   LIG d   1      -2.182  79.217 112.592  0.00  0.00     0.038 C 
ATOM      4  C   LIG d   1      -2.465  79.714 113.873  0.00  0.00     0.028 C 
ATOM      5  C   LIG d   1      -1.363  80.609 114.432  0.00  0.00    -0.047 C 
ATOM      6  C   LIG d   1      -1.019  81.694 113.387  0.00  0.00     0.091 C 
ENDROOT
BRANCH   1   7
ATOM      7  O   LIG d   1      -0.757  82.054 110.977  0.00  0.00    -0.368 OA
BRANCH   7   8
ATOM      8  C   LIG d   1       0.318  82.083 110.006  0.00  0.00     0.119 C 
BRANCH   8   9
ATOM      9  C   LIG d   1       1.627  81.766 110.754  0.00  0.00     0.028 C 
ATOM     10  C   LIG d   1       2.598  80.925 109.908  0.00  0.00     0.006 C 
ENDBRANCH   8   9
BRANCH   8  11
ATOM     11  C   LIG d   1       0.511  83.489 109.430  0.00  0.00     0.028 C 
ATOM     12  C   LIG d   1       1.319  84.408 110.360  0.00  0.00     0.006 C 
ENDBRANCH   8  11
ENDBRANCH   7   8
ENDBRANCH   1   7
BRANCH   6  13
ATOM     13  N   LIG d   1       0.108  82.561 113.820  0.00  0.00    -0.311 N 
ATOM     14  C   LIG d   1       0.043  83.891 113.842  0.00  0.00     0.210 C 
ATOM     15  C   LIG d   1       1.324  84.593 114.302  0.00  0.00     0.109 C 
ATOM     16  O   LIG d   1      -0.964  84.555 113.554  0.00  0.00    -0.276 OA
ATOM     17  H   LIG d   1       0.953  82.104 114.099  0.00  0.00     0.149 HD
ENDBRANCH   6  13
BRANCH   5  18
ATOM     18  N   LIG d   1      -1.848  81.167 115.708  0.00  0.00     0.381 N 
ATOM     19  H   LIG d   1      -1.089  81.238 116.357  0.00  0.00    -0.090 HD
ATOM     20  H   LIG d   1      -2.537  80.546 116.094  0.00  0.00    -0.090 HD
ATOM     21  H   LIG d   1      -2.249  82.066 115.556  0.00  0.00    -0.090 HD
ENDBRANCH   5  18
BRANCH   3  22
ATOM     22  C   LIG d   1      -2.703  77.982 112.235  0.00  0.00     0.382 C 
ATOM     23  O   LIG d   1      -3.698  77.521 112.846  0.00  0.00    -0.241 OA
ATOM     24  O   LIG d   1      -2.164  77.304 111.340  0.00  0.00    -0.241 OA
ENDBRANCH   3  22
TORSDOF 7
ENDMDL
MODEL 2
REMARK VINA RESULT:      -5.1      2.147      3.961
REMARK  7 active torsions:
REMARK  status: ('A' for Active; 'I' for Inactive)
REMARK    1  A    between atoms: C_2  and  C_3 
REMARK    2  A    between atoms: C_3  and  O_6 
REMARK    3  A    between atoms: C_3  and  C_4 
REMARK    4  A    between atoms: C_7  and  O_6 
REMARK    5  A    between atoms: C_9  and  C_10 
REMARK    6  A    between atoms: N_15  and  C_14 
REMARK    7  A    between atoms: N_20  and  C_19 
REMARK       I    between atoms: C_22  and  N_20 
ROOT
ATOM      1  C   LIG d   1      -0.599  81.820 112.242  0.00  0.00     0.161 C 
ATOM      2  C   LIG d   1      -1.589  80.982 112.782  0.00  0.00     0.016 C 
ATOM      3  C   LIG d   1      -1.853  79.679 112.301  0.00  0.00     0.038 C 
ATOM      4  C   LIG d   1      -1.037  79.064 111.341  0.00  0.00     0.028 C 
ATOM      5  C   LIG d   1      -0.341  80.054 110.413  0.00  0.00    -0.047 C 
ATOM      6  C   LIG d   1       0.375  81.125 111.267  0.00  0.00     0.091 C 
ENDROOT
BRANCH   1   7
ATOM      7  O   LIG d   1       0.131  82.463 113.306  0.00  0.00    -0.368 OA
BRANCH   7   8
ATOM      8  C   LIG d   1      -0.176  83.860 113.535  0.00  0.00     0.119 C 
BRANCH   8   9
ATOM      9  C   LIG d   1       1.063  84.679 113.126  0.00  0.00     0.028 C 
ATOM     10  C   LIG d   1       2.375  84.041 113.612  0.00  0.00     0.006 C 
ENDBRANCH   8   9
BRANCH   8  11
ATOM     11  C   LIG d   1      -0.380  84.148 115.026  0.00  0.00     0.028 C 
ATOM     12  C   LIG d   1      -1.788  83.778 115.518  0.00  0.00     0.006 C 
ENDBRANCH   8  11
ENDBRANCH   7   8
ENDBRANCH   1   7
BRANCH   6  13
ATOM     13  N   LIG d   1       1.010  82.181 110.437  0.00  0.00    -0.311 N 
ATOM     14  C   LIG d   1       2.329  82.336 110.331  0.00  0.00     0.210 C 
ATOM     15  C   LIG d   1       2.774  83.499 109.439  0.00  0.00     0.109 C 
ATOM     16  O   LIG d   1       3.173  81.600 110.865  0.00  0.00    -0.276 OA
ATOM     17  H   LIG d   1       0.400  82.803 109.944  0.00  0.00     0.149 HD
ENDBRANCH   6  13
BRANCH   5  18
ATOM     18  N   LIG d   1       0.581  79.288 109.554  0.00  0.00     0.381 N 
ATOM     19  H   LIG d   1       1.527  79.499 109.800  0.00  0.00    -0.090 HD
ATOM     20  H   LIG d   1       0.436  79.560 108.597  0.00  0.00    -0.090 HD
ATOM     21  H   LIG d   1       0.413  78.312 109.658  0.00  0.00    -0.090 HD
ENDBRANCH   5  18
BRANCH   3  22
ATOM     22  C   LIG d   1      -2.968  78.992 112.755  0.00  0.00     0.382 C 
ATOM     23  O   LIG d   1      -3.529  79.342 113.822  0.00  0.00    -0.241 OA
ATOM     24  O   LIG d   1      -3.394  77.999 112.136  0.00  0.00    -0.241 OA
ENDBRANCH   3  22
TORSDOF 7
ENDMDL
MODEL 3
REMARK VINA RESULT:      -5.0      3.048      6.879
REMARK  7 active torsions:
REMARK  status: ('A' for Active; 'I' for Inactive)
REMARK    1  A    between atoms: C_2  and  C_3 
REMARK    2  A    between atoms: C_3  and  O_6 
REMARK    3  A    between atoms: C_3  and  C_4 
REMARK    4  A    between atoms: C_7  and  O_6 
REMARK    5  A    between atoms: C_9  and  C_10 
REMARK    6  A    between atoms: N_15  and  C_14 
REMARK    7  A    between atoms: N_20  and  C_19 
REMARK       I    between atoms: C_22  and  N_20 
ROOT
ATOM      1  C   LIG d   1      -2.789  80.120 114.722  0.00  0.00     0.161 C 
ATOM      2  C   LIG d   1      -2.321  81.237 114.010  0.00  0.00     0.016 C 
ATOM      3  C   LIG d   1      -1.737  81.152 112.725  0.00  0.00     0.038 C 
ATOM      4  C   LIG d   1      -1.720  79.953 111.997  0.00  0.00     0.028 C 
ATOM      5  C   LIG d   1      -1.723  78.709 112.878  0.00  0.00    -0.047 C 
ATOM      6  C   LIG d   1      -2.880  78.819 113.897  0.00  0.00     0.091 C 
ENDROOT
BRANCH   1   7
ATOM      7  O   LIG d   1      -4.064  80.423 115.322  0.00  0.00    -0.368 OA
BRANCH   7   8
ATOM      8  C   LIG d   1      -4.167  80.194 116.749  0.00  0.00     0.119 C 
BRANCH   8   9
ATOM      9  C   LIG d   1      -5.094  81.282 117.326  0.00  0.00     0.028 C 
ATOM     10  C   LIG d   1      -6.574  80.866 117.302  0.00  0.00     0.006 C 
ENDBRANCH   8   9
BRANCH   8  11
ATOM     11  C   LIG d   1      -2.819  80.399 117.445  0.00  0.00     0.028 C 
ATOM     12  C   LIG d   1      -2.680  81.794 118.076  0.00  0.00     0.006 C 
ENDBRANCH   8  11
ENDBRANCH   7   8
ENDBRANCH   1   7
BRANCH   6  13
ATOM     13  N   LIG d   1      -2.904  77.681 114.853  0.00  0.00    -0.311 N 
ATOM     14  C   LIG d   1      -3.651  76.592 114.679  0.00  0.00     0.210 C 
ATOM     15  C   LIG d   1      -3.542  75.548 115.794  0.00  0.00     0.109 C 
ATOM     16  O   LIG d   1      -4.369  76.378 113.690  0.00  0.00    -0.276 OA
ATOM     17  H   LIG d   1      -2.327  77.758 115.668  0.00  0.00     0.149 HD
ENDBRANCH   6  13
BRANCH   5  18
ATOM     18  N   LIG d   1      -1.843  77.536 111.992  0.00  0.00     0.381 N 
ATOM     19  H   LIG d   1      -2.650  77.000 112.246  0.00  0.00    -0.090 HD
ATOM     20  H   LIG d   1      -1.031  76.956 112.108  0.00  0.00    -0.090 HD
ATOM     21  H   LIG d   1      -1.917  77.831 111.043  0.00  0.00    -0.090 HD
ENDBRANCH   5  18
BRANCH   3  22
ATOM     22  C   LIG d   1      -1.126  82.267 112.173  0.00  0.00     0.382 C 
ATOM     23  O   LIG d   1      -1.013  83.319 112.848  0.00  0.00    -0.241 OA
ATOM     24  O   LIG d   1      -0.727  82.250 110.993  0.00  0.00    -0.241 OA
ENDBRANCH   3  22
TORSDOF 7
ENDMDL
MODEL 4
REMARK VINA RESULT:      -4.9      2.351      5.690
REMARK  7 active torsions:
REMARK  status: ('A' for Active; 'I' for Inactive)
REMARK    1  A    between atoms: C_2  and  C_3 
REMARK    2  A    between atoms: C_3  and  O_6 
REMARK    3  A    between atoms: C_3  and  C_4 
REMARK    4  A    between atoms: C_7  and  O_6 
REMARK    5  A    between atoms: C_9  and  C_10 
REMARK    6  A    between atoms: N_15  and  C_14 
REMARK    7  A    between atoms: N_20  and  C_19 
REMARK       I    between atoms: C_22  and  N_20 
ROOT
ATOM      1  C   LIG d   1       0.005  82.389 112.684  0.00  0.00     0.161 C 
ATOM      2  C   LIG d   1       0.812  83.129 111.804  0.00  0.00     0.016 C 
ATOM      3  C   LIG d   1       1.134  82.699 110.496  0.00  0.00     0.038 C 
ATOM      4  C   LIG d   1       0.543  81.563 109.922  0.00  0.00     0.028 C 
ATOM      5  C   LIG d   1       0.119  80.518 110.948  0.00  0.00    -0.047 C 
ATOM      6  C   LIG d   1      -0.738  81.202 112.037  0.00  0.00     0.091 C 
ENDROOT
BRANCH   1   7
ATOM      7  O   LIG d   1      -0.930  83.265 113.344  0.00  0.00    -0.368 OA
BRANCH   7   8
ATOM      8  C   LIG d   1      -0.830  83.333 114.788  0.00  0.00     0.119 C 
BRANCH   8   9
ATOM      9  C   LIG d   1      -2.262  83.281 115.354  0.00  0.00     0.028 C 
ATOM     10  C   LIG d   1      -2.384  82.328 116.554  0.00  0.00     0.006 C 
ENDBRANCH   8   9
BRANCH   8  11
ATOM     11  C   LIG d   1      -0.261  84.680 115.245  0.00  0.00     0.028 C 
ATOM     12  C   LIG d   1       1.189  84.577 115.743  0.00  0.00     0.006 C 
ENDBRANCH   8  11
ENDBRANCH   7   8
ENDBRANCH   1   7
BRANCH   6  13
ATOM     13  N   LIG d   1      -1.125  80.266 113.125  0.00  0.00    -0.311 N 
ATOM     14  C   LIG d   1      -2.389  79.999 113.447  0.00  0.00     0.210 C 
ATOM     15  C   LIG d   1      -2.567  79.021 114.613  0.00  0.00     0.109 C 
ATOM     16  O   LIG d   1      -3.381  80.455 112.858  0.00  0.00    -0.276 OA
ATOM     17  H   LIG d   1      -0.383  79.828 113.634  0.00  0.00     0.149 HD
ENDBRANCH   6  13
BRANCH   5  18
ATOM     18  N   LIG d   1      -0.604  79.453 110.226  0.00  0.00     0.381 N 
ATOM     19  H   LIG d   1      -0.142  79.257 109.361  0.00  0.00    -0.090 HD
ATOM     20  H   LIG d   1      -1.534  79.773 110.021  0.00  0.00    -0.090 HD
ATOM     21  H   LIG d   1      -0.643  78.629 110.785  0.00  0.00    -0.090 HD
ENDBRANCH   5  18
BRANCH   3  22
ATOM     22  C   LIG d   1       2.088  83.388 109.762  0.00  0.00     0.382 C 
ATOM     23  O   LIG d   1       3.156  82.818 109.431  0.00  0.00    -0.241 OA
ATOM     24  O   LIG d   1       1.913  84.584 109.464  0.00  0.00    -0.241 OA
ENDBRANCH   3  22
TORSDOF 7
ENDMDL
MODEL 5
REMARK VINA RESULT:      -4.9      2.301      5.865
REMARK  7 active torsions:
REMARK  status: ('A' for Active; 'I' for Inactive)
REMARK    1  A    between atoms: C_2  and  C_3 
REMARK    2  A    between atoms: C_3  and  O_6 
REMARK    3  A    between atoms: C_3  and  C_4 
REMARK    4  A    between atoms: C_7  and  O_6 
REMARK    5  A    between atoms: C_9  and  C_10 
REMARK    6  A    between atoms: N_15  and  C_14 
REMARK    7  A    between atoms: N_20  and  C_19 
REMARK       I    between atoms: C_22  and  N_20 
ROOT
ATOM      1  C   LIG d   1      -0.736  81.884 112.883  0.00  0.00     0.161 C 
ATOM      2  C   LIG d   1      -0.218  82.979 112.171  0.00  0.00     0.016 C 
ATOM      3  C   LIG d   1       0.293  82.880 110.856  0.00  0.00     0.038 C 
ATOM      4  C   LIG d   1       0.183  81.702 110.104  0.00  0.00     0.028 C 
ATOM      5  C   LIG d   1       0.127  80.440 110.959  0.00  0.00    -0.047 C 
ATOM      6  C   LIG d   1      -0.967  80.614 112.038  0.00  0.00     0.091 C 
ENDROOT
BRANCH   1   7
ATOM      7  O   LIG d   1      -1.953  82.268 113.553  0.00  0.00    -0.368 OA
BRANCH   7   8
ATOM      8  C   LIG d   1      -1.935  82.192 115.000  0.00  0.00     0.119 C 
BRANCH   8   9
ATOM      9  C   LIG d   1      -2.203  83.609 115.542  0.00  0.00     0.028 C 
ATOM     10  C   LIG d   1      -0.905  84.389 115.814  0.00  0.00     0.006 C 
ENDBRANCH   8   9
BRANCH   8  11
ATOM     11  C   LIG d   1      -0.545  81.814 115.521  0.00  0.00     0.028 C 
ATOM     12  C   LIG d   1      -0.563  80.563 116.414  0.00  0.00     0.006 C 
ENDBRANCH   8  11
ENDBRANCH   7   8
ENDBRANCH   1   7
BRANCH   6  13
ATOM     13  N   LIG d   1      -1.030  79.459 112.972  0.00  0.00    -0.311 N 
ATOM     14  C   LIG d   1      -2.151  78.786 113.230  0.00  0.00     0.210 C 
ATOM     15  C   LIG d   1      -2.000  77.642 114.238  0.00  0.00     0.109 C 
ATOM     16  O   LIG d   1      -3.248  79.008 112.697  0.00  0.00    -0.276 OA
ATOM     17  H   LIG d   1      -0.179  79.191 113.425  0.00  0.00     0.149 HD
ENDBRANCH   6  13
BRANCH   5  18
ATOM     18  N   LIG d   1      -0.127  79.301 110.057  0.00  0.00     0.381 N 
ATOM     19  H   LIG d   1      -0.248  79.631 109.121  0.00  0.00    -0.090 HD
ATOM     20  H   LIG d   1      -0.975  78.843 110.343  0.00  0.00    -0.090 HD
ATOM     21  H   LIG d   1       0.635  78.660 110.096  0.00  0.00    -0.090 HD
ENDBRANCH   5  18
BRANCH   3  22
ATOM     22  C   LIG d   1       0.960  83.959 110.296  0.00  0.00     0.382 C 
ATOM     23  O   LIG d   1       0.389  84.670 109.433  0.00  0.00    -0.241 OA
ATOM     24  O   LIG d   1       2.140  84.204 110.609  0.00  0.00    -0.241 OA
ENDBRANCH   3  22
TORSDOF 7
ENDMDL
MODEL 6
REMARK VINA RESULT:      -4.9      2.300      4.315
REMARK  7 active torsions:
REMARK  status: ('A' for Active; 'I' for Inactive)
REMARK    1  A    between atoms: C_2  and  C_3 
REMARK    2  A    between atoms: C_3  and  O_6 
REMARK    3  A    between atoms: C_3  and  C_4 
REMARK    4  A    between atoms: C_7  and  O_6 
REMARK    5  A    between atoms: C_9  and  C_10 
REMARK    6  A    between atoms: N_15  and  C_14 
REMARK    7  A    between atoms: N_20  and  C_19 
REMARK       I    between atoms: C_22  and  N_20 
ROOT
ATOM      1  C   LIG d   1      -2.177  80.611 113.742  0.00  0.00     0.161 C 
ATOM      2  C   LIG d   1      -2.837  79.556 114.395  0.00  0.00     0.016 C 
ATOM      3  C   LIG d   1      -2.912  78.244 113.873  0.00  0.00     0.038 C 
ATOM      4  C   LIG d   1      -2.199  77.859 112.728  0.00  0.00     0.028 C 
ATOM      5  C   LIG d   1      -1.934  79.011 111.764  0.00  0.00    -0.047 C 
ATOM      6  C   LIG d   1      -1.300  80.184 112.547  0.00  0.00     0.091 C 
ENDROOT
BRANCH   1   7
ATOM      7  O   LIG d   1      -1.398  81.363 114.692  0.00  0.00    -0.368 OA
BRANCH   7   8
ATOM      8  C   LIG d   1      -1.664  82.786 114.752  0.00  0.00     0.119 C 
BRANCH   8   9
ATOM      9  C   LIG d   1      -0.306  83.508 114.838  0.00  0.00     0.028 C 
ATOM     10  C   LIG d   1       0.880  82.561 114.590  0.00  0.00     0.006 C 
ENDBRANCH   8   9
BRANCH   8  11
ATOM     11  C   LIG d   1      -2.405  83.160 116.039  0.00  0.00     0.028 C 
ATOM     12  C   LIG d   1      -1.966  82.317 117.246  0.00  0.00     0.006 C 
ENDBRANCH   8  11
ENDBRANCH   7   8
ENDBRANCH   1   7
BRANCH   6  13
ATOM     13  N   LIG d   1      -1.085  81.383 111.695  0.00  0.00    -0.311 N 
ATOM     14  C   LIG d   1       0.070  81.655 111.090  0.00  0.00     0.210 C 
ATOM     15  C   LIG d   1       0.083  82.952 110.276  0.00  0.00     0.109 C 
ATOM     16  O   LIG d   1       1.075  80.929 111.125  0.00  0.00    -0.276 OA
ATOM     17  H   LIG d   1      -1.858  82.010 111.587  0.00  0.00     0.149 HD
ENDBRANCH   6  13
BRANCH   5  18
ATOM     18  N   LIG d   1      -1.067  78.499 110.686  0.00  0.00     0.381 N 
ATOM     19  H   LIG d   1      -1.520  78.616 109.802  0.00  0.00    -0.090 HD
ATOM     20  H   LIG d   1      -0.911  77.517 110.833  0.00  0.00    -0.090 HD
ATOM     21  H   LIG d   1      -0.197  78.985 110.689  0.00  0.00    -0.090 HD
ENDBRANCH   5  18
BRANCH   3  22
ATOM     22  C   LIG d   1      -3.741  77.311 114.478  0.00  0.00     0.382 C 
ATOM     23  O   LIG d   1      -3.808  76.144 114.023  0.00  0.00    -0.241 OA
ATOM     24  O   LIG d   1      -4.455  77.634 115.447  0.00  0.00    -0.241 OA
ENDBRANCH   3  22
TORSDOF 7
ENDMDL
MODEL 7
REMARK VINA RESULT:      -4.7      3.034      6.683
REMARK  7 active torsions:
REMARK  status: ('A' for Active; 'I' for Inactive)
REMARK    1  A    between atoms: C_2  and  C_3 
REMARK    2  A    between atoms: C_3  and  O_6 
REMARK    3  A    between atoms: C_3  and  C_4 
REMARK    4  A    between atoms: C_7  and  O_6 
REMARK    5  A    between atoms: C_9  and  C_10 
REMARK    6  A    between atoms: N_15  and  C_14 
REMARK    7  A    between atoms: N_20  and  C_19 
REMARK       I    between atoms: C_22  and  N_20 
ROOT
ATOM      1  C   LIG d   1      -2.740  80.613 114.867  0.00  0.00     0.161 C 
ATOM      2  C   LIG d   1      -2.239  81.598 113.999  0.00  0.00     0.016 C 
ATOM      3  C   LIG d   1      -1.658  81.307 112.744  0.00  0.00     0.038 C 
ATOM      4  C   LIG d   1      -1.676  80.014 112.200  0.00  0.00     0.028 C 
ATOM      5  C   LIG d   1      -1.716  78.914 113.256  0.00  0.00    -0.047 C 
ATOM      6  C   LIG d   1      -2.869  79.208 114.243  0.00  0.00     0.091 C 
ENDROOT
BRANCH   1   7
ATOM      7  O   LIG d   1      -4.005  81.038 115.410  0.00  0.00    -0.368 OA
BRANCH   7   8
ATOM      8  C   LIG d   1      -3.958  81.682 116.707  0.00  0.00     0.119 C 
BRANCH   8   9
ATOM      9  C   LIG d   1      -2.739  81.116 117.461  0.00  0.00     0.028 C 
ATOM     10  C   LIG d   1      -1.871  82.221 118.086  0.00  0.00     0.006 C 
ENDBRANCH   8   9
BRANCH   8  11
ATOM     11  C   LIG d   1      -5.173  81.307 117.560  0.00  0.00     0.028 C 
ATOM     12  C   LIG d   1      -5.210  79.813 117.920  0.00  0.00     0.006 C 
ENDBRANCH   8  11
ENDBRANCH   7   8
ENDBRANCH   1   7
BRANCH   6  13
ATOM     13  N   LIG d   1      -2.926  78.225 115.357  0.00  0.00    -0.311 N 
ATOM     14  C   LIG d   1      -3.682  77.129 115.330  0.00  0.00     0.210 C 
ATOM     15  C   LIG d   1      -3.609  76.261 116.590  0.00  0.00     0.109 C 
ATOM     16  O   LIG d   1      -4.383  76.777 114.369  0.00  0.00    -0.276 OA
ATOM     17  H   LIG d   1      -2.364  78.417 116.163  0.00  0.00     0.149 HD
ENDBRANCH   6  13
BRANCH   5  18
ATOM     18  N   LIG d   1      -1.871  77.627 112.553  0.00  0.00     0.381 N 
ATOM     19  H   LIG d   1      -2.838  77.464 112.353  0.00  0.00    -0.090 HD
ATOM     20  H   LIG d   1      -1.544  76.888 113.151  0.00  0.00    -0.090 HD
ATOM     21  H   LIG d   1      -1.346  77.635 111.706  0.00  0.00    -0.090 HD
ENDBRANCH   5  18
BRANCH   3  22
ATOM     22  C   LIG d   1      -1.015  82.310 112.035  0.00  0.00     0.382 C 
ATOM     23  O   LIG d   1      -0.808  83.424 112.573  0.00  0.00    -0.241 OA
ATOM     24  O   LIG d   1      -0.679  82.130 110.849  0.00  0.00    -0.241 OA
ENDBRANCH   3  22
TORSDOF 7
ENDMDL
MODEL 8
REMARK VINA RESULT:      -4.7      2.329      4.263
REMARK  7 active torsions:
REMARK  status: ('A' for Active; 'I' for Inactive)
REMARK    1  A    between atoms: C_2  and  C_3 
REMARK    2  A    between atoms: C_3  and  O_6 
REMARK    3  A    between atoms: C_3  and  C_4 
REMARK    4  A    between atoms: C_7  and  O_6 
REMARK    5  A    between atoms: C_9  and  C_10 
REMARK    6  A    between atoms: N_15  and  C_14 
REMARK    7  A    between atoms: N_20  and  C_19 
REMARK       I    between atoms: C_22  and  N_20 
ROOT
ATOM      1  C   LIG d   1      -2.147  80.490 113.859  0.00  0.00     0.161 C 
ATOM      2  C   LIG d   1      -2.817  79.430 114.492  0.00  0.00     0.016 C 
ATOM      3  C   LIG d   1      -2.944  78.141 113.925  0.00  0.00     0.038 C 
ATOM      4  C   LIG d   1      -2.275  77.780 112.746  0.00  0.00     0.028 C 
ATOM      5  C   LIG d   1      -2.005  78.960 111.818  0.00  0.00    -0.047 C 
ATOM      6  C   LIG d   1      -1.316  80.084 112.623  0.00  0.00     0.091 C 
ENDROOT
BRANCH   1   7
ATOM      7  O   LIG d   1      -1.319  81.184 114.813  0.00  0.00    -0.368 OA
BRANCH   7   8
ATOM      8  C   LIG d   1      -0.033  80.582 115.099  0.00  0.00     0.119 C 
BRANCH   8   9
ATOM      9  C   LIG d   1       0.001  80.256 116.605  0.00  0.00     0.028 C 
ATOM     10  C   LIG d   1      -0.009  78.743 116.878  0.00  0.00     0.006 C 
ENDBRANCH   8   9
BRANCH   8  11
ATOM     11  C   LIG d   1       1.111  81.575 114.872  0.00  0.00     0.028 C 
ATOM     12  C   LIG d   1       0.613  83.002 114.592  0.00  0.00     0.006 C 
ENDBRANCH   8  11
ENDBRANCH   7   8
ENDBRANCH   1   7
BRANCH   6  13
ATOM     13  N   LIG d   1      -1.092  81.308 111.810  0.00  0.00    -0.311 N 
ATOM     14  C   LIG d   1       0.064  81.588 111.210  0.00  0.00     0.210 C 
ATOM     15  C   LIG d   1       0.088  82.911 110.438  0.00  0.00     0.109 C 
ATOM     16  O   LIG d   1       1.061  80.851 111.217  0.00  0.00    -0.276 OA
ATOM     17  H   LIG d   1      -1.858  81.947 111.726  0.00  0.00     0.149 HD
ENDBRANCH   6  13
BRANCH   5  18
ATOM     18  N   LIG d   1      -1.184  78.465 110.697  0.00  0.00     0.381 N 
ATOM     19  H   LIG d   1      -1.559  77.602 110.356  0.00  0.00    -0.090 HD
ATOM     20  H   LIG d   1      -0.251  78.294 111.028  0.00  0.00    -0.090 HD
ATOM     21  H   LIG d   1      -1.165  79.140 109.964  0.00  0.00    -0.090 HD
ENDBRANCH   5  18
BRANCH   3  22
ATOM     22  C   LIG d   1      -3.781  77.209 114.519  0.00  0.00     0.382 C 
ATOM     23  O   LIG d   1      -3.860  76.048 114.050  0.00  0.00    -0.241 OA
ATOM     24  O   LIG d   1      -4.492  77.527 115.492  0.00  0.00    -0.241 OA
ENDBRANCH   3  22
TORSDOF 7
ENDMDL
MODEL 9
REMARK VINA RESULT:      -4.6      3.481      7.107
REMARK  7 active torsions:
REMARK  status: ('A' for Active; 'I' for Inactive)
REMARK    1  A    between atoms: C_2  and  C_3 
REMARK    2  A    between atoms: C_3  and  O_6 
REMARK    3  A    between atoms: C_3  and  C_4 
REMARK    4  A    between atoms: C_7  and  O_6 
REMARK    5  A    between atoms: C_9  and  C_10 
REMARK    6  A    between atoms: N_15  and  C_14 
REMARK    7  A    between atoms: N_20  and  C_19 
REMARK       I    between atoms: C_22  and  N_20 
ROOT
ATOM      1  C   LIG d   1      -2.658  78.345 114.936  0.00  0.00     0.161 C 
ATOM      2  C   LIG d   1      -2.918  79.247 113.891  0.00  0.00     0.016 C 
ATOM      3  C   LIG d   1      -2.028  80.278 113.514  0.00  0.00     0.038 C 
ATOM      4  C   LIG d   1      -0.741  80.384 114.061  0.00  0.00     0.028 C 
ATOM      5  C   LIG d   1      -0.632  79.808 115.469  0.00  0.00    -0.047 C 
ATOM      6  C   LIG d   1      -1.210  78.374 115.470  0.00  0.00     0.091 C 
ENDROOT
BRANCH   1   7
ATOM      7  O   LIG d   1      -3.014  77.009 114.528  0.00  0.00    -0.368 OA
BRANCH   7   8
ATOM      8  C   LIG d   1      -4.004  76.336 115.344  0.00  0.00     0.119 C 
BRANCH   8   9
ATOM      9  C   LIG d   1      -5.085  75.781 114.396  0.00  0.00     0.028 C 
ATOM     10  C   LIG d   1      -5.961  74.710 115.067  0.00  0.00     0.006 C 
ENDBRANCH   8   9
BRANCH   8  11
ATOM     11  C   LIG d   1      -4.736  77.323 116.259  0.00  0.00     0.028 C 
ATOM     12  C   LIG d   1      -4.638  76.942 117.745  0.00  0.00     0.006 C 
ENDBRANCH   8  11
ENDBRANCH   7   8
ENDBRANCH   1   7
BRANCH   6  13
ATOM     13  N   LIG d   1      -1.219  77.768 116.827  0.00  0.00    -0.311 N 
ATOM     14  C   LIG d   1      -0.823  76.522 117.076  0.00  0.00     0.210 C 
ATOM     15  C   LIG d   1      -0.932  76.088 118.541  0.00  0.00     0.109 C 
ATOM     16  O   LIG d   1      -0.360  75.744 116.228  0.00  0.00    -0.276 OA
ATOM     17  H   LIG d   1      -1.550  78.340 117.580  0.00  0.00     0.149 HD
ENDBRANCH   6  13
BRANCH   5  18
ATOM     18  N   LIG d   1       0.789  79.858 115.862  0.00  0.00     0.381 N 
ATOM     19  H   LIG d   1       1.319  80.330 115.157  0.00  0.00    -0.090 HD
ATOM     20  H   LIG d   1       1.138  78.919 115.943  0.00  0.00    -0.090 HD
ATOM     21  H   LIG d   1       0.885  80.332 116.733  0.00  0.00    -0.090 HD
ENDBRANCH   5  18
BRANCH   3  22
ATOM     22  C   LIG d   1      -2.440  81.243 112.607  0.00  0.00     0.382 C 
ATOM     23  O   LIG d   1      -1.645  81.657 111.728  0.00  0.00    -0.241 OA
ATOM     24  O   LIG d   1      -3.580  81.737 112.684  0.00  0.00    -0.241 OA
ENDBRANCH   3  22
TORSDOF 7
ENDMDL
