MODEL 1
REMARK VINA RESULT:      -5.0      0.000      0.000
REMARK  7 active torsions:
REMARK  status: ('A' for Active; 'I' for Inactive)
REMARK    1  A    between atoms: C_2  and  C_3 
REMARK    2  A    between atoms: C_3  and  O_6 
REMARK    3  A    between atoms: C_3  and  C_4 
REMARK    4  A    between atoms: C_7  and  O_6 
REMARK    5  A    between atoms: C_9  and  C_10 
REMARK    6  A    between atoms: N_15  and  C_14 
REMARK    7  A    between atoms: N_20  and  C_19 
REMARK       I    between atoms: C_22  and  N_20 
ROOT
ATOM      1  C   LIG d   1       0.126  83.082 112.937  0.00  0.00     0.161 C 
ATOM      2  C   LIG d   1       1.156  83.530 112.092  0.00  0.00     0.016 C 
ATOM      3  C   LIG d   1       1.581  82.825 110.943  0.00  0.00     0.038 C 
ATOM      4  C   LIG d   1       0.899  81.693 110.472  0.00  0.00     0.028 C 
ATOM      5  C   LIG d   1       0.174  80.923 111.571  0.00  0.00    -0.047 C 
ATOM      6  C   LIG d   1      -0.703  81.907 112.378  0.00  0.00     0.091 C 
ENDROOT
BRANCH   1   7
ATOM      7  O   LIG d   1      -0.736  84.184 113.284  0.00  0.00    -0.368 OA
BRANCH   7   8
ATOM      8  C   LIG d   1      -0.622  84.680 114.640  0.00  0.00     0.119 C 
BRANCH   8   9
ATOM      9  C   LIG d   1       0.422  83.809 115.366  0.00  0.00     0.028 C 
ATOM     10  C   LIG d   1       1.557  84.644 115.981  0.00  0.00     0.006 C 
ENDBRANCH   8   9
BRANCH   8  11
ATOM     11  C   LIG d   1      -1.926  84.482 115.417  0.00  0.00     0.028 C 
ATOM     12  C   LIG d   1      -1.764  83.547 116.626  0.00  0.00     0.006 C 
ENDBRANCH   8  11
ENDBRANCH   7   8
ENDBRANCH   1   7
BRANCH   6  13
ATOM     13  N   LIG d   1      -1.382  81.250 113.526  0.00  0.00    -0.311 N 
ATOM     14  C   LIG d   1      -2.702  81.267 113.704  0.00  0.00     0.210 C 
ATOM     15  C   LIG d   1      -3.194  80.546 114.963  0.00  0.00     0.109 C 
ATOM     16  O   LIG d   1      -3.515  81.784 112.922  0.00  0.00    -0.276 OA
ATOM     17  H   LIG d   1      -0.801  80.781 114.192  0.00  0.00     0.149 HD
ENDBRANCH   6  13
BRANCH   5  18
ATOM     18  N   LIG d   1      -0.606  79.851 110.923  0.00  0.00     0.381 N 
ATOM     19  H   LIG d   1      -0.708  79.080 111.552  0.00  0.00    -0.090 HD
ATOM     20  H   LIG d   1      -0.107  79.532 110.111  0.00  0.00    -0.090 HD
ATOM     21  H   LIG d   1      -1.503  80.194 110.658  0.00  0.00    -0.090 HD
ENDBRANCH   5  18
BRANCH   3  22
ATOM     22  C   LIG d   1       2.725  83.230 110.273  0.00  0.00     0.382 C 
ATOM     23  O   LIG d   1       3.023  84.448 110.220  0.00  0.00    -0.241 OA
ATOM     24  O   LIG d   1       3.440  82.398 109.683  0.00  0.00    -0.241 OA
ENDBRANCH   3  22
TORSDOF 7
ENDMDL
MODEL 2
REMARK VINA RESULT:      -4.9      3.059      5.110
REMARK  7 active torsions:
REMARK  status: ('A' for Active; 'I' for Inactive)
REMARK    1  A    between atoms: C_2  and  C_3 
REMARK    2  A    between atoms: C_3  and  O_6 
REMARK    3  A    between atoms: C_3  and  C_4 
REMARK    4  A    between atoms: C_7  and  O_6 
REMARK    5  A    between atoms: C_9  and  C_10 
REMARK    6  A    between atoms: N_15  and  C_14 
REMARK    7  A    between atoms: N_20  and  C_19 
REMARK       I    between atoms: C_22  and  N_20 
ROOT
ATOM      1  C   LIG d   1      -2.911  80.084 115.000  0.00  0.00     0.161 C 
ATOM      2  C   LIG d   1      -2.329  81.214 114.401  0.00  0.00     0.016 C 
ATOM      3  C   LIG d   1      -1.589  81.162 113.198  0.00  0.00     0.038 C 
ATOM      4  C   LIG d   1      -1.507  79.993 112.427  0.00  0.00     0.028 C 
ATOM      5  C   LIG d   1      -1.652  78.716 113.247  0.00  0.00    -0.047 C 
ATOM      6  C   LIG d   1      -2.927  78.819 114.116  0.00  0.00     0.091 C 
ENDROOT
BRANCH   1   7
ATOM      7  O   LIG d   1      -4.244  80.399 115.447  0.00  0.00    -0.368 OA
BRANCH   7   8
ATOM      8  C   LIG d   1      -4.432  80.489 116.881  0.00  0.00     0.119 C 
BRANCH   8   9
ATOM      9  C   LIG d   1      -5.856  79.990 117.193  0.00  0.00     0.028 C 
ATOM     10  C   LIG d   1      -5.978  78.460 117.091  0.00  0.00     0.006 C 
ENDBRANCH   8   9
BRANCH   8  11
ATOM     11  C   LIG d   1      -4.398  81.943 117.358  0.00  0.00     0.028 C 
ATOM     12  C   LIG d   1      -3.077  82.312 118.053  0.00  0.00     0.006 C 
ENDBRANCH   8  11
ENDBRANCH   7   8
ENDBRANCH   1   7
BRANCH   6  13
ATOM     13  N   LIG d   1      -3.098  77.646 115.012  0.00  0.00    -0.311 N 
ATOM     14  C   LIG d   1      -3.801  76.565 114.678  0.00  0.00     0.210 C 
ATOM     15  C   LIG d   1      -3.868  75.479 115.756  0.00  0.00     0.109 C 
ATOM     16  O   LIG d   1      -4.348  76.389 113.579  0.00  0.00    -0.276 OA
ATOM     17  H   LIG d   1      -2.662  77.692 115.912  0.00  0.00     0.149 HD
ENDBRANCH   6  13
BRANCH   5  18
ATOM     18  N   LIG d   1      -1.687  77.582 112.303  0.00  0.00     0.381 N 
ATOM     19  H   LIG d   1      -1.451  76.736 112.782  0.00  0.00    -0.090 HD
ATOM     20  H   LIG d   1      -1.004  77.738 111.583  0.00  0.00    -0.090 HD
ATOM     21  H   LIG d   1      -2.594  77.502 111.900  0.00  0.00    -0.090 HD
ENDBRANCH   5  18
BRANCH   3  22
ATOM     22  C   LIG d   1      -0.887  82.281 112.775  0.00  0.00     0.382 C 
ATOM     23  O   LIG d   1      -1.412  83.082 111.965  0.00  0.00    -0.241 OA
ATOM     24  O   LIG d   1       0.282  82.475 113.158  0.00  0.00    -0.241 OA
ENDBRANCH   3  22
TORSDOF 7
ENDMDL
MODEL 3
REMARK VINA RESULT:      -4.9      1.644      1.981
REMARK  7 active torsions:
REMARK  status: ('A' for Active; 'I' for Inactive)
REMARK    1  A    between atoms: C_2  and  C_3 
REMARK    2  A    between atoms: C_3  and  O_6 
REMARK    3  A    between atoms: C_3  and  C_4 
REMARK    4  A    between atoms: C_7  and  O_6 
REMARK    5  A    between atoms: C_9  and  C_10 
REMARK    6  A    between atoms: N_15  and  C_14 
REMARK    7  A    between atoms: N_20  and  C_19 
REMARK       I    between atoms: C_22  and  N_20 
ROOT
ATOM      1  C   LIG d   1       0.528  81.463 113.343  0.00  0.00     0.161 C 
ATOM      2  C   LIG d   1       1.360  82.511 112.916  0.00  0.00     0.016 C 
ATOM      3  C   LIG d   1       1.605  82.806 111.555  0.00  0.00     0.038 C 
ATOM      4  C   LIG d   1       0.910  82.163 110.521  0.00  0.00     0.028 C 
ATOM      5  C   LIG d   1       0.440  80.759 110.888  0.00  0.00    -0.047 C 
ATOM      6  C   LIG d   1      -0.326  80.821 112.229  0.00  0.00     0.091 C 
ENDROOT
BRANCH   1   7
ATOM      7  O   LIG d   1      -0.313  81.915 114.422  0.00  0.00    -0.368 OA
BRANCH   7   8
ATOM      8  C   LIG d   1      -1.453  82.727 114.045  0.00  0.00     0.119 C 
BRANCH   8   9
ATOM      9  C   LIG d   1      -1.179  84.163 114.530  0.00  0.00     0.028 C 
ATOM     10  C   LIG d   1      -0.372  84.197 115.839  0.00  0.00     0.006 C 
ENDBRANCH   8   9
BRANCH   8  11
ATOM     11  C   LIG d   1      -2.720  82.285 114.782  0.00  0.00     0.028 C 
ATOM     12  C   LIG d   1      -2.457  81.166 115.802  0.00  0.00     0.006 C 
ENDBRANCH   8  11
ENDBRANCH   7   8
ENDBRANCH   1   7
BRANCH   6  13
ATOM     13  N   LIG d   1      -0.748  79.477 112.704  0.00  0.00    -0.311 N 
ATOM     14  C   LIG d   1      -2.022  79.107 112.817  0.00  0.00     0.210 C 
ATOM     15  C   LIG d   1      -2.237  77.685 113.345  0.00  0.00     0.109 C 
ATOM     16  O   LIG d   1      -2.994  79.809 112.500  0.00  0.00    -0.276 OA
ATOM     17  H   LIG d   1      -0.023  78.833 112.953  0.00  0.00     0.149 HD
ENDBRANCH   6  13
BRANCH   5  18
ATOM     18  N   LIG d   1      -0.387  80.260 109.773  0.00  0.00     0.381 N 
ATOM     19  H   LIG d   1      -1.249  79.895 110.127  0.00  0.00    -0.090 HD
ATOM     20  H   LIG d   1       0.105  79.515 109.312  0.00  0.00    -0.090 HD
ATOM     21  H   LIG d   1      -0.570  80.996 109.128  0.00  0.00    -0.090 HD
ENDBRANCH   5  18
BRANCH   3  22
ATOM     22  C   LIG d   1       2.585  83.727 111.217  0.00  0.00     0.382 C 
ATOM     23  O   LIG d   1       3.056  83.743 110.055  0.00  0.00    -0.241 OA
ATOM     24  O   LIG d   1       3.034  84.514 112.072  0.00  0.00    -0.241 OA
ENDBRANCH   3  22
TORSDOF 7
ENDMDL
MODEL 4
REMARK VINA RESULT:      -4.9      2.689      5.424
REMARK  7 active torsions:
REMARK  status: ('A' for Active; 'I' for Inactive)
REMARK    1  A    between atoms: C_2  and  C_3 
REMARK    2  A    between atoms: C_3  and  O_6 
REMARK    3  A    between atoms: C_3  and  C_4 
REMARK    4  A    between atoms: C_7  and  O_6 
REMARK    5  A    between atoms: C_9  and  C_10 
REMARK    6  A    between atoms: N_15  and  C_14 
REMARK    7  A    between atoms: N_20  and  C_19 
REMARK       I    between atoms: C_22  and  N_20 
ROOT
ATOM      1  C   LIG d   1      -2.615  80.533 114.389  0.00  0.00     0.161 C 
ATOM      2  C   LIG d   1      -3.025  79.220 114.672  0.00  0.00     0.016 C 
ATOM      3  C   LIG d   1      -2.690  78.109 113.864  0.00  0.00     0.038 C 
ATOM      4  C   LIG d   1      -1.790  78.215 112.794  0.00  0.00     0.028 C 
ATOM      5  C   LIG d   1      -1.752  79.606 112.170  0.00  0.00    -0.047 C 
ATOM      6  C   LIG d   1      -1.541  80.652 113.288  0.00  0.00     0.091 C 
ENDROOT
BRANCH   1   7
ATOM      7  O   LIG d   1      -2.167  81.176 115.599  0.00  0.00    -0.368 OA
BRANCH   7   8
ATOM      8  C   LIG d   1      -2.885  82.372 115.989  0.00  0.00     0.119 C 
BRANCH   8   9
ATOM      9  C   LIG d   1      -1.838  83.444 116.350  0.00  0.00     0.028 C 
ATOM     10  C   LIG d   1      -1.843  84.625 115.365  0.00  0.00     0.006 C 
ENDBRANCH   8   9
BRANCH   8  11
ATOM     11  C   LIG d   1      -3.692  82.145 117.271  0.00  0.00     0.028 C 
ATOM     12  C   LIG d   1      -2.879  82.429 118.544  0.00  0.00     0.006 C 
ENDBRANCH   8  11
ENDBRANCH   7   8
ENDBRANCH   1   7
BRANCH   6  13
ATOM     13  N   LIG d   1      -1.575  82.046 112.774  0.00  0.00    -0.311 N 
ATOM     14  C   LIG d   1      -0.490  82.709 112.378  0.00  0.00     0.210 C 
ATOM     15  C   LIG d   1      -0.746  84.142 111.902  0.00  0.00     0.109 C 
ATOM     16  O   LIG d   1       0.655  82.234 112.344  0.00  0.00    -0.276 OA
ATOM     17  H   LIG d   1      -2.469  82.497 112.738  0.00  0.00     0.149 HD
ENDBRANCH   6  13
BRANCH   5  18
ATOM     18  N   LIG d   1      -0.676  79.613 111.161  0.00  0.00     0.381 N 
ATOM     19  H   LIG d   1      -0.532  80.544 110.826  0.00  0.00    -0.090 HD
ATOM     20  H   LIG d   1      -0.955  79.039 110.385  0.00  0.00    -0.090 HD
ATOM     21  H   LIG d   1       0.166  79.260 111.559  0.00  0.00    -0.090 HD
ENDBRANCH   5  18
BRANCH   3  22
ATOM     22  C   LIG d   1      -3.291  76.881 114.101  0.00  0.00     0.382 C 
ATOM     23  O   LIG d   1      -2.779  76.081 114.921  0.00  0.00    -0.241 OA
ATOM     24  O   LIG d   1      -4.312  76.546 113.472  0.00  0.00    -0.241 OA
ENDBRANCH   3  22
TORSDOF 7
ENDMDL
MODEL 5
REMARK VINA RESULT:      -4.8      4.278      6.631
REMARK  7 active torsions:
REMARK  status: ('A' for Active; 'I' for Inactive)
REMARK    1  A    between atoms: C_2  and  C_3 
REMARK    2  A    between atoms: C_3  and  O_6 
REMARK    3  A    between atoms: C_3  and  C_4 
REMARK    4  A    between atoms: C_7  and  O_6 
REMARK    5  A    between atoms: C_9  and  C_10 
REMARK    6  A    between atoms: N_15  and  C_14 
REMARK    7  A    between atoms: N_20  and  C_19 
REMARK       I    between atoms: C_22  and  N_20 
ROOT
ATOM      1  C   LIG d   1      -2.568  78.913 115.898  0.00  0.00     0.161 C 
ATOM      2  C   LIG d   1      -2.927  80.189 115.435  0.00  0.00     0.016 C 
ATOM      3  C   LIG d   1      -2.897  80.559 114.071  0.00  0.00     0.038 C 
ATOM      4  C   LIG d   1      -2.650  79.625 113.054  0.00  0.00     0.028 C 
ATOM      5  C   LIG d   1      -1.790  78.450 113.508  0.00  0.00    -0.047 C 
ATOM      6  C   LIG d   1      -2.402  77.848 114.794  0.00  0.00     0.091 C 
ENDROOT
BRANCH   1   7
ATOM      7  O   LIG d   1      -3.517  78.466 116.886  0.00  0.00    -0.368 OA
BRANCH   7   8
ATOM      8  C   LIG d   1      -4.915  78.576 116.522  0.00  0.00     0.119 C 
BRANCH   8   9
ATOM      9  C   LIG d   1      -5.631  79.334 117.657  0.00  0.00     0.028 C 
ATOM     10  C   LIG d   1      -6.092  80.737 117.227  0.00  0.00     0.006 C 
ENDBRANCH   8   9
BRANCH   8  11
ATOM     11  C   LIG d   1      -5.587  77.201 116.466  0.00  0.00     0.028 C 
ATOM     12  C   LIG d   1      -6.774  77.078 117.435  0.00  0.00     0.006 C 
ENDBRANCH   8  11
ENDBRANCH   7   8
ENDBRANCH   1   7
BRANCH   6  13
ATOM     13  N   LIG d   1      -1.576  76.746 115.352  0.00  0.00    -0.311 N 
ATOM     14  C   LIG d   1      -2.004  75.489 115.457  0.00  0.00     0.210 C 
ATOM     15  C   LIG d   1      -1.000  74.513 116.079  0.00  0.00     0.109 C 
ATOM     16  O   LIG d   1      -3.107  75.083 115.063  0.00  0.00    -0.276 OA
ATOM     17  H   LIG d   1      -0.655  76.981 115.667  0.00  0.00     0.149 HD
ENDBRANCH   6  13
BRANCH   5  18
ATOM     18  N   LIG d   1      -1.726  77.487 112.392  0.00  0.00     0.381 N 
ATOM     19  H   LIG d   1      -2.177  77.872 111.587  0.00  0.00    -0.090 HD
ATOM     20  H   LIG d   1      -2.214  76.650 112.657  0.00  0.00    -0.090 HD
ATOM     21  H   LIG d   1      -0.776  77.273 112.180  0.00  0.00    -0.090 HD
ENDBRANCH   5  18
BRANCH   3  22
ATOM     22  C   LIG d   1      -3.079  81.887 113.715  0.00  0.00     0.382 C 
ATOM     23  O   LIG d   1      -2.464  82.361 112.729  0.00  0.00    -0.241 OA
ATOM     24  O   LIG d   1      -3.815  82.628 114.393  0.00  0.00    -0.241 OA
ENDBRANCH   3  22
TORSDOF 7
ENDMDL
MODEL 6
REMARK VINA RESULT:      -4.4      3.117      5.641
REMARK  7 active torsions:
REMARK  status: ('A' for Active; 'I' for Inactive)
REMARK    1  A    between atoms: C_2  and  C_3 
REMARK    2  A    between atoms: C_3  and  O_6 
REMARK    3  A    between atoms: C_3  and  C_4 
REMARK    4  A    between atoms: C_7  and  O_6 
REMARK    5  A    between atoms: C_9  and  C_10 
REMARK    6  A    between atoms: N_15  and  C_14 
REMARK    7  A    between atoms: N_20  and  C_19 
REMARK       I    between atoms: C_22  and  N_20 
ROOT
ATOM      1  C   LIG d   1      -1.715  80.063 115.007  0.00  0.00     0.161 C 
ATOM      2  C   LIG d   1      -2.452  78.875 115.145  0.00  0.00     0.016 C 
ATOM      3  C   LIG d   1      -2.665  77.965 114.084  0.00  0.00     0.038 C 
ATOM      4  C   LIG d   1      -2.024  78.108 112.844  0.00  0.00     0.028 C 
ATOM      5  C   LIG d   1      -1.679  79.553 112.504  0.00  0.00    -0.047 C 
ATOM      6  C   LIG d   1      -0.916  80.180 113.693  0.00  0.00     0.091 C 
ENDROOT
BRANCH   1   7
ATOM      7  O   LIG d   1      -0.842  80.230 116.142  0.00  0.00    -0.368 OA
BRANCH   7   8
ATOM      8  C   LIG d   1      -1.270  81.189 117.140  0.00  0.00     0.119 C 
BRANCH   8   9
ATOM      9  C   LIG d   1      -1.952  80.402 118.275  0.00  0.00     0.028 C 
ATOM     10  C   LIG d   1      -3.439  80.764 118.429  0.00  0.00     0.006 C 
ENDBRANCH   8   9
BRANCH   8  11
ATOM     11  C   LIG d   1      -2.351  82.123 116.588  0.00  0.00     0.028 C 
ATOM     12  C   LIG d   1      -1.885  83.586 116.499  0.00  0.00     0.006 C 
ENDBRANCH   8  11
ENDBRANCH   7   8
ENDBRANCH   1   7
BRANCH   6  13
ATOM     13  N   LIG d   1      -0.614  81.619 113.477  0.00  0.00    -0.311 N 
ATOM     14  C   LIG d   1      -1.515  82.502 113.050  0.00  0.00     0.210 C 
ATOM     15  C   LIG d   1      -0.990  83.930 112.875  0.00  0.00     0.109 C 
ATOM     16  O   LIG d   1      -2.708  82.244 112.831  0.00  0.00    -0.276 OA
ATOM     17  H   LIG d   1       0.323  81.921 113.660  0.00  0.00     0.149 HD
ENDBRANCH   6  13
BRANCH   5  18
ATOM     18  N   LIG d   1      -0.895  79.542 111.255  0.00  0.00     0.381 N 
ATOM     19  H   LIG d   1      -1.191  80.291 110.662  0.00  0.00    -0.090 HD
ATOM     20  H   LIG d   1      -1.061  78.675 110.774  0.00  0.00    -0.090 HD
ATOM     21  H   LIG d   1       0.076  79.635 111.460  0.00  0.00    -0.090 HD
ENDBRANCH   5  18
BRANCH   3  22
ATOM     22  C   LIG d   1      -3.560  76.918 114.246  0.00  0.00     0.382 C 
ATOM     23  O   LIG d   1      -3.586  76.277 115.324  0.00  0.00    -0.241 OA
ATOM     24  O   LIG d   1      -4.312  76.579 113.313  0.00  0.00    -0.241 OA
ENDBRANCH   3  22
TORSDOF 7
ENDMDL
MODEL 7
REMARK VINA RESULT:      -4.3      4.511      7.058
REMARK  7 active torsions:
REMARK  status: ('A' for Active; 'I' for Inactive)
REMARK    1  A    between atoms: C_2  and  C_3 
REMARK    2  A    between atoms: C_3  and  O_6 
REMARK    3  A    between atoms: C_3  and  C_4 
REMARK    4  A    between atoms: C_7  and  O_6 
REMARK    5  A    between atoms: C_9  and  C_10 
REMARK    6  A    between atoms: N_15  and  C_14 
REMARK    7  A    between atoms: N_20  and  C_19 
REMARK       I    between atoms: C_22  and  N_20 
ROOT
ATOM      1  C   LIG d   1      -3.621  79.605 115.928  0.00  0.00     0.161 C 
ATOM      2  C   LIG d   1      -3.068  78.489 115.279  0.00  0.00     0.016 C 
ATOM      3  C   LIG d   1      -3.515  77.164 115.492  0.00  0.00     0.038 C 
ATOM      4  C   LIG d   1      -4.653  76.880 116.261  0.00  0.00     0.028 C 
ATOM      5  C   LIG d   1      -4.933  77.925 117.337  0.00  0.00    -0.047 C 
ATOM      6  C   LIG d   1      -4.936  79.327 116.686  0.00  0.00     0.091 C 
ENDROOT
BRANCH   1   7
ATOM      7  O   LIG d   1      -3.804  80.679 114.984  0.00  0.00    -0.368 OA
BRANCH   7   8
ATOM      8  C   LIG d   1      -2.699  81.607 114.853  0.00  0.00     0.119 C 
BRANCH   8   9
ATOM      9  C   LIG d   1      -3.070  82.881 115.636  0.00  0.00     0.028 C 
ATOM     10  C   LIG d   1      -2.308  82.994 116.967  0.00  0.00     0.006 C 
ENDBRANCH   8   9
BRANCH   8  11
ATOM     11  C   LIG d   1      -2.523  82.061 113.401  0.00  0.00     0.028 C 
ATOM     12  C   LIG d   1      -1.279  82.941 113.198  0.00  0.00     0.006 C 
ENDBRANCH   8  11
ENDBRANCH   7   8
ENDBRANCH   1   7
BRANCH   6  13
ATOM     13  N   LIG d   1      -5.119  80.414 117.683  0.00  0.00    -0.311 N 
ATOM     14  C   LIG d   1      -6.039  81.369 117.566  0.00  0.00     0.210 C 
ATOM     15  C   LIG d   1      -6.045  82.404 118.695  0.00  0.00     0.109 C 
ATOM     16  O   LIG d   1      -6.873  81.439 116.651  0.00  0.00    -0.276 OA
ATOM     17  H   LIG d   1      -4.505  80.415 118.474  0.00  0.00     0.149 HD
ENDBRANCH   6  13
BRANCH   5  18
ATOM     18  N   LIG d   1      -6.220  77.578 117.970  0.00  0.00     0.381 N 
ATOM     19  H   LIG d   1      -6.104  77.518 118.962  0.00  0.00    -0.090 HD
ATOM     20  H   LIG d   1      -6.517  76.680 117.631  0.00  0.00    -0.090 HD
ATOM     21  H   LIG d   1      -6.904  78.268 117.750  0.00  0.00    -0.090 HD
ENDBRANCH   5  18
BRANCH   3  22
ATOM     22  C   LIG d   1      -2.796  76.103 114.963  0.00  0.00     0.382 C 
ATOM     23  O   LIG d   1      -3.075  74.927 115.301  0.00  0.00    -0.241 OA
ATOM     24  O   LIG d   1      -1.843  76.309 114.188  0.00  0.00    -0.241 OA
ENDBRANCH   3  22
TORSDOF 7
ENDMDL
MODEL 8
REMARK VINA RESULT:      -4.3      2.665      5.975
REMARK  7 active torsions:
REMARK  status: ('A' for Active; 'I' for Inactive)
REMARK    1  A    between atoms: C_2  and  C_3 
REMARK    2  A    between atoms: C_3  and  O_6 
REMARK    3  A    between atoms: C_3  and  C_4 
REMARK    4  A    between atoms: C_7  and  O_6 
REMARK    5  A    between atoms: C_9  and  C_10 
REMARK    6  A    between atoms: N_15  and  C_14 
REMARK    7  A    between atoms: N_20  and  C_19 
REMARK       I    between atoms: C_22  and  N_20 
ROOT
ATOM      1  C   LIG d   1      -0.613  80.822 112.495  0.00  0.00     0.161 C 
ATOM      2  C   LIG d   1      -1.282  79.593 112.362  0.00  0.00     0.016 C 
ATOM      3  C   LIG d   1      -2.246  79.128 113.285  0.00  0.00     0.038 C 
ATOM      4  C   LIG d   1      -2.721  79.934 114.331  0.00  0.00     0.028 C 
ATOM      5  C   LIG d   1      -1.711  80.977 114.797  0.00  0.00    -0.047 C 
ATOM      6  C   LIG d   1      -1.198  81.763 113.569  0.00  0.00     0.091 C 
ENDROOT
BRANCH   1   7
ATOM      7  O   LIG d   1      -0.559  81.490 111.219  0.00  0.00    -0.368 OA
BRANCH   7   8
ATOM      8  C   LIG d   1       0.709  81.429 110.521  0.00  0.00     0.119 C 
BRANCH   8   9
ATOM      9  C   LIG d   1       0.587  80.345 109.432  0.00  0.00     0.028 C 
ATOM     10  C   LIG d   1       1.764  79.356 109.454  0.00  0.00     0.006 C 
ENDBRANCH   8   9
BRANCH   8  11
ATOM     11  C   LIG d   1       1.832  80.950 111.446  0.00  0.00     0.028 C 
ATOM     12  C   LIG d   1       2.953  81.988 111.609  0.00  0.00     0.006 C 
ENDBRANCH   8  11
ENDBRANCH   7   8
ENDBRANCH   1   7
BRANCH   6  13
ATOM     13  N   LIG d   1      -0.144  82.748 113.926  0.00  0.00    -0.311 N 
ATOM     14  C   LIG d   1       0.942  82.436 114.631  0.00  0.00     0.210 C 
ATOM     15  C   LIG d   1       1.893  83.605 114.905  0.00  0.00     0.109 C 
ATOM     16  O   LIG d   1       1.225  81.295 115.027  0.00  0.00    -0.276 OA
ATOM     17  H   LIG d   1      -0.278  83.691 113.618  0.00  0.00     0.149 HD
ENDBRANCH   6  13
BRANCH   5  18
ATOM     18  N   LIG d   1      -2.384  81.834 115.792  0.00  0.00     0.381 N 
ATOM     19  H   LIG d   1      -1.875  82.689 115.902  0.00  0.00    -0.090 HD
ATOM     20  H   LIG d   1      -2.395  81.358 116.677  0.00  0.00    -0.090 HD
ATOM     21  H   LIG d   1      -3.316  82.029 115.500  0.00  0.00    -0.090 HD
ENDBRANCH   5  18
BRANCH   3  22
ATOM     22  C   LIG d   1      -2.718  77.827 113.189  0.00  0.00     0.382 C 
ATOM     23  O   LIG d   1      -3.734  77.480 113.837  0.00  0.00    -0.241 OA
ATOM     24  O   LIG d   1      -2.113  76.986 112.499  0.00  0.00    -0.241 OA
ENDBRANCH   3  22
TORSDOF 7
ENDMDL
MODEL 9
REMARK VINA RESULT:      -4.2      5.854      8.613
REMARK  7 active torsions:
REMARK  status: ('A' for Active; 'I' for Inactive)
REMARK    1  A    between atoms: C_2  and  C_3 
REMARK    2  A    between atoms: C_3  and  O_6 
REMARK    3  A    between atoms: C_3  and  C_4 
REMARK    4  A    between atoms: C_7  and  O_6 
REMARK    5  A    between atoms: C_9  and  C_10 
REMARK    6  A    between atoms: N_15  and  C_14 
REMARK    7  A    between atoms: N_20  and  C_19 
REMARK       I    between atoms: C_22  and  N_20 
ROOT
ATOM      1  C   LIG d   1      -4.284  78.049 116.354  0.00  0.00     0.161 C 
ATOM      2  C   LIG d   1      -5.165  79.085 116.707  0.00  0.00     0.016 C 
ATOM      3  C   LIG d   1      -4.843  80.456 116.584  0.00  0.00     0.038 C 
ATOM      4  C   LIG d   1      -3.666  80.887 115.954  0.00  0.00     0.028 C 
ATOM      5  C   LIG d   1      -2.527  79.877 116.041  0.00  0.00    -0.047 C 
ATOM      6  C   LIG d   1      -3.039  78.500 115.562  0.00  0.00     0.091 C 
ENDROOT
BRANCH   1   7
ATOM      7  O   LIG d   1      -4.997  77.027 115.629  0.00  0.00    -0.368 OA
BRANCH   7   8
ATOM      8  C   LIG d   1      -4.982  75.702 116.215  0.00  0.00     0.119 C 
BRANCH   8   9
ATOM      9  C   LIG d   1      -5.233  74.691 115.079  0.00  0.00     0.028 C 
ATOM     10  C   LIG d   1      -5.678  75.373 113.774  0.00  0.00     0.006 C 
ENDBRANCH   8   9
BRANCH   8  11
ATOM     11  C   LIG d   1      -6.145  75.512 117.192  0.00  0.00     0.028 C 
ATOM     12  C   LIG d   1      -5.677  75.272 118.636  0.00  0.00     0.006 C 
ENDBRANCH   8  11
ENDBRANCH   7   8
ENDBRANCH   1   7
BRANCH   6  13
ATOM     13  N   LIG d   1      -2.011  77.435 115.694  0.00  0.00    -0.311 N 
ATOM     14  C   LIG d   1      -1.667  76.620 114.699  0.00  0.00     0.210 C 
ATOM     15  C   LIG d   1      -0.601  75.580 115.054  0.00  0.00     0.109 C 
ATOM     16  O   LIG d   1      -2.121  76.681 113.546  0.00  0.00    -0.276 OA
ATOM     17  H   LIG d   1      -1.570  77.336 116.587  0.00  0.00     0.149 HD
ENDBRANCH   6  13
BRANCH   5  18
ATOM     18  N   LIG d   1      -1.410  80.394 115.227  0.00  0.00     0.381 N 
ATOM     19  H   LIG d   1      -1.672  81.262 114.805  0.00  0.00    -0.090 HD
ATOM     20  H   LIG d   1      -1.209  79.735 114.495  0.00  0.00    -0.090 HD
ATOM     21  H   LIG d   1      -0.604  80.523 115.798  0.00  0.00    -0.090 HD
ENDBRANCH   5  18
BRANCH   3  22
ATOM     22  C   LIG d   1      -5.685  81.412 117.131  0.00  0.00     0.382 C 
ATOM     23  O   LIG d   1      -5.270  82.165 118.044  0.00  0.00    -0.241 OA
ATOM     24  O   LIG d   1      -6.869  81.501 116.754  0.00  0.00    -0.241 OA
ENDBRANCH   3  22
TORSDOF 7
ENDMDL
