MODEL 1
REMARK VINA RESULT:      -5.4      0.000      0.000
REMARK  7 active torsions:
REMARK  status: ('A' for Active; 'I' for Inactive)
REMARK    1  A    between atoms: C_2  and  C_3 
REMARK    2  A    between atoms: C_3  and  O_6 
REMARK    3  A    between atoms: C_3  and  C_4 
REMARK    4  A    between atoms: C_7  and  O_6 
REMARK    5  A    between atoms: C_9  and  C_10 
REMARK    6  A    between atoms: N_15  and  C_14 
REMARK    7  A    between atoms: N_20  and  C_19 
REMARK       I    between atoms: C_22  and  N_20 
ROOT
ATOM      1  C   LIG d   1      -0.079  82.231 112.898  0.00  0.00     0.161 C 
ATOM      2  C   LIG d   1       0.672  83.229 112.256  0.00  0.00     0.016 C 
ATOM      3  C   LIG d   1       1.341  83.030 111.026  0.00  0.00     0.038 C 
ATOM      4  C   LIG d   1       1.178  81.857 110.275  0.00  0.00     0.028 C 
ATOM      5  C   LIG d   1       0.838  80.637 111.124  0.00  0.00    -0.047 C 
ATOM      6  C   LIG d   1      -0.360  80.980 112.039  0.00  0.00     0.091 C 
ENDROOT
BRANCH   1   7
ATOM      7  O   LIG d   1      -1.314  82.788 113.389  0.00  0.00    -0.368 OA
BRANCH   7   8
ATOM      8  C   LIG d   1      -1.421  82.933 114.826  0.00  0.00     0.119 C 
BRANCH   8   9
ATOM      9  C   LIG d   1      -2.833  82.471 115.235  0.00  0.00     0.028 C 
ATOM     10  C   LIG d   1      -2.849  81.025 115.757  0.00  0.00     0.006 C 
ENDBRANCH   8   9
BRANCH   8  11
ATOM     11  C   LIG d   1      -1.339  84.404 115.246  0.00  0.00     0.028 C 
ATOM     12  C   LIG d   1      -0.191  84.680 116.230  0.00  0.00     0.006 C 
ENDBRANCH   8  11
ENDBRANCH   7   8
ENDBRANCH   1   7
BRANCH   6  13
ATOM     13  N   LIG d   1      -0.704  79.868 112.963  0.00  0.00    -0.311 N 
ATOM     14  C   LIG d   1      -1.642  78.960 112.699  0.00  0.00     0.210 C 
ATOM     15  C   LIG d   1      -1.852  77.910 113.795  0.00  0.00     0.109 C 
ATOM     16  O   LIG d   1      -2.297  78.904 111.647  0.00  0.00    -0.276 OA
ATOM     17  H   LIG d   1      -0.199  79.819 113.826  0.00  0.00     0.149 HD
ENDBRANCH   6  13
BRANCH   5  18
ATOM     18  N   LIG d   1       0.561  79.517 110.204  0.00  0.00     0.381 N 
ATOM     19  H   LIG d   1       1.395  79.269 109.711  0.00  0.00    -0.090 HD
ATOM     20  H   LIG d   1      -0.126  79.811 109.532  0.00  0.00    -0.090 HD
ATOM     21  H   LIG d   1       0.222  78.732 110.715  0.00  0.00    -0.090 HD
ENDBRANCH   5  18
BRANCH   3  22
ATOM     22  C   LIG d   1       2.216  83.998 110.556  0.00  0.00     0.382 C 
ATOM     23  O   LIG d   1       3.190  84.358 111.260  0.00  0.00    -0.241 OA
ATOM     24  O   LIG d   1       2.019  84.547 109.455  0.00  0.00    -0.241 OA
ENDBRANCH   3  22
TORSDOF 7
ENDMDL
MODEL 2
REMARK VINA RESULT:      -5.3      2.319      3.211
REMARK  7 active torsions:
REMARK  status: ('A' for Active; 'I' for Inactive)
REMARK    1  A    between atoms: C_2  and  C_3 
REMARK    2  A    between atoms: C_3  and  O_6 
REMARK    3  A    between atoms: C_3  and  C_4 
REMARK    4  A    between atoms: C_7  and  O_6 
REMARK    5  A    between atoms: C_9  and  C_10 
REMARK    6  A    between atoms: N_15  and  C_14 
REMARK    7  A    between atoms: N_20  and  C_19 
REMARK       I    between atoms: C_22  and  N_20 
ROOT
ATOM      1  C   LIG d   1      -1.864  80.580 114.412  0.00  0.00     0.161 C 
ATOM      2  C   LIG d   1      -1.604  81.945 114.202  0.00  0.00     0.016 C 
ATOM      3  C   LIG d   1      -1.033  82.454 113.013  0.00  0.00     0.038 C 
ATOM      4  C   LIG d   1      -0.823  81.646 111.886  0.00  0.00     0.028 C 
ATOM      5  C   LIG d   1      -0.601  80.176 112.228  0.00  0.00    -0.047 C 
ATOM      6  C   LIG d   1      -1.744  79.698 113.152  0.00  0.00     0.091 C 
ENDROOT
BRANCH   1   7
ATOM      7  O   LIG d   1      -3.162  80.418 115.016  0.00  0.00    -0.368 OA
BRANCH   7   8
ATOM      8  C   LIG d   1      -3.173  80.082 116.425  0.00  0.00     0.119 C 
BRANCH   8   9
ATOM      9  C   LIG d   1      -4.075  78.845 116.600  0.00  0.00     0.028 C 
ATOM     10  C   LIG d   1      -3.337  77.667 117.257  0.00  0.00     0.006 C 
ENDBRANCH   8   9
BRANCH   8  11
ATOM     11  C   LIG d   1      -3.832  81.186 117.257  0.00  0.00     0.028 C 
ATOM     12  C   LIG d   1      -2.926  81.702 118.386  0.00  0.00     0.006 C 
ENDBRANCH   8  11
ENDBRANCH   7   8
ENDBRANCH   1   7
BRANCH   6  13
ATOM     13  N   LIG d   1      -1.559  78.294 113.603  0.00  0.00    -0.311 N 
ATOM     14  C   LIG d   1      -2.521  77.374 113.552  0.00  0.00     0.210 C 
ATOM     15  C   LIG d   1      -2.125  75.994 114.085  0.00  0.00     0.109 C 
ATOM     16  O   LIG d   1      -3.655  77.563 113.086  0.00  0.00    -0.276 OA
ATOM     17  H   LIG d   1      -0.659  78.046 113.966  0.00  0.00     0.149 HD
ENDBRANCH   6  13
BRANCH   5  18
ATOM     18  N   LIG d   1      -0.533  79.429 110.958  0.00  0.00     0.381 N 
ATOM     19  H   LIG d   1      -0.898  78.506 111.088  0.00  0.00    -0.090 HD
ATOM     20  H   LIG d   1       0.429  79.351 110.678  0.00  0.00    -0.090 HD
ATOM     21  H   LIG d   1      -1.054  79.904 110.255  0.00  0.00    -0.090 HD
ENDBRANCH   5  18
BRANCH   3  22
ATOM     22  C   LIG d   1      -0.630  83.780 112.957  0.00  0.00     0.382 C 
ATOM     23  O   LIG d   1      -0.056  84.302 113.942  0.00  0.00    -0.241 OA
ATOM     24  O   LIG d   1      -0.874  84.472 111.951  0.00  0.00    -0.241 OA
ENDBRANCH   3  22
TORSDOF 7
ENDMDL
MODEL 3
REMARK VINA RESULT:      -5.3      2.142      3.266
REMARK  7 active torsions:
REMARK  status: ('A' for Active; 'I' for Inactive)
REMARK    1  A    between atoms: C_2  and  C_3 
REMARK    2  A    between atoms: C_3  and  O_6 
REMARK    3  A    between atoms: C_3  and  C_4 
REMARK    4  A    between atoms: C_7  and  O_6 
REMARK    5  A    between atoms: C_9  and  C_10 
REMARK    6  A    between atoms: N_15  and  C_14 
REMARK    7  A    between atoms: N_20  and  C_19 
REMARK       I    between atoms: C_22  and  N_20 
ROOT
ATOM      1  C   LIG d   1      -1.909  80.646 114.294  0.00  0.00     0.161 C 
ATOM      2  C   LIG d   1      -1.632  82.007 114.082  0.00  0.00     0.016 C 
ATOM      3  C   LIG d   1      -0.998  82.500 112.919  0.00  0.00     0.038 C 
ATOM      4  C   LIG d   1      -0.732  81.677 111.814  0.00  0.00     0.028 C 
ATOM      5  C   LIG d   1      -0.535  80.211 112.185  0.00  0.00    -0.047 C 
ATOM      6  C   LIG d   1      -1.727  79.748 113.053  0.00  0.00     0.091 C 
ENDROOT
BRANCH   1   7
ATOM      7  O   LIG d   1      -3.239  80.496 114.831  0.00  0.00    -0.368 OA
BRANCH   7   8
ATOM      8  C   LIG d   1      -3.324  80.115 116.226  0.00  0.00     0.119 C 
BRANCH   8   9
ATOM      9  C   LIG d   1      -3.715  81.372 117.026  0.00  0.00     0.028 C 
ATOM     10  C   LIG d   1      -2.573  81.874 117.925  0.00  0.00     0.006 C 
ENDBRANCH   8   9
BRANCH   8  11
ATOM     11  C   LIG d   1      -1.957  79.694 116.773  0.00  0.00     0.028 C 
ATOM     12  C   LIG d   1      -1.906  78.212 117.175  0.00  0.00     0.006 C 
ENDBRANCH   8  11
ENDBRANCH   7   8
ENDBRANCH   1   7
BRANCH   6  13
ATOM     13  N   LIG d   1      -1.572  78.349 113.529  0.00  0.00    -0.311 N 
ATOM     14  C   LIG d   1      -2.554  77.450 113.495  0.00  0.00     0.210 C 
ATOM     15  C   LIG d   1      -2.188  76.071 114.054  0.00  0.00     0.109 C 
ATOM     16  O   LIG d   1      -3.684  77.654 113.026  0.00  0.00    -0.276 OA
ATOM     17  H   LIG d   1      -0.678  78.089 113.897  0.00  0.00     0.149 HD
ENDBRANCH   6  13
BRANCH   5  18
ATOM     18  N   LIG d   1      -0.403  79.448 110.929  0.00  0.00     0.381 N 
ATOM     19  H   LIG d   1       0.565  79.336 110.701  0.00  0.00    -0.090 HD
ATOM     20  H   LIG d   1      -0.844  79.963 110.188  0.00  0.00    -0.090 HD
ATOM     21  H   LIG d   1      -0.835  78.555 111.026  0.00  0.00    -0.090 HD
ENDBRANCH   5  18
BRANCH   3  22
ATOM     22  C   LIG d   1      -0.586  83.823 112.868  0.00  0.00     0.382 C 
ATOM     23  O   LIG d   1       0.363  84.157 112.118  0.00  0.00    -0.241 OA
ATOM     24  O   LIG d   1      -1.123  84.680 113.597  0.00  0.00    -0.241 OA
ENDBRANCH   3  22
TORSDOF 7
ENDMDL
MODEL 4
REMARK VINA RESULT:      -5.1      1.786      4.721
REMARK  7 active torsions:
REMARK  status: ('A' for Active; 'I' for Inactive)
REMARK    1  A    between atoms: C_2  and  C_3 
REMARK    2  A    between atoms: C_3  and  O_6 
REMARK    3  A    between atoms: C_3  and  C_4 
REMARK    4  A    between atoms: C_7  and  O_6 
REMARK    5  A    between atoms: C_9  and  C_10 
REMARK    6  A    between atoms: N_15  and  C_14 
REMARK    7  A    between atoms: N_20  and  C_19 
REMARK       I    between atoms: C_22  and  N_20 
ROOT
ATOM      1  C   LIG d   1      -0.518  82.422 112.162  0.00  0.00     0.161 C 
ATOM      2  C   LIG d   1      -1.557  81.651 112.711  0.00  0.00     0.016 C 
ATOM      3  C   LIG d   1      -1.712  80.268 112.465  0.00  0.00     0.038 C 
ATOM      4  C   LIG d   1      -0.746  79.525 111.771  0.00  0.00     0.028 C 
ATOM      5  C   LIG d   1       0.055  80.355 110.774  0.00  0.00    -0.047 C 
ATOM      6  C   LIG d   1       0.608  81.607 111.493  0.00  0.00     0.091 C 
ENDROOT
BRANCH   1   7
ATOM      7  O   LIG d   1       0.027  83.296 113.170  0.00  0.00    -0.368 OA
BRANCH   7   8
ATOM      8  C   LIG d   1       0.124  82.745 114.507  0.00  0.00     0.119 C 
BRANCH   8   9
ATOM      9  C   LIG d   1      -0.579  83.727 115.464  0.00  0.00     0.028 C 
ATOM     10  C   LIG d   1      -1.849  83.127 116.091  0.00  0.00     0.006 C 
ENDBRANCH   8   9
BRANCH   8  11
ATOM     11  C   LIG d   1       1.578  82.687 114.982  0.00  0.00     0.028 C 
ATOM     12  C   LIG d   1       2.519  83.553 114.129  0.00  0.00     0.006 C 
ENDBRANCH   8  11
ENDBRANCH   7   8
ENDBRANCH   1   7
BRANCH   6  13
ATOM     13  N   LIG d   1       1.334  82.517 110.568  0.00  0.00    -0.311 N 
ATOM     14  C   LIG d   1       2.662  82.566 110.481  0.00  0.00     0.210 C 
ATOM     15  C   LIG d   1       3.206  83.589 109.479  0.00  0.00     0.109 C 
ATOM     16  O   LIG d   1       3.440  81.838 111.115  0.00  0.00    -0.276 OA
ATOM     17  H   LIG d   1       0.779  83.121 109.994  0.00  0.00     0.149 HD
ENDBRANCH   6  13
BRANCH   5  18
ATOM     18  N   LIG d   1       1.115  79.489 110.223  0.00  0.00     0.381 N 
ATOM     19  H   LIG d   1       1.150  78.629 110.733  0.00  0.00    -0.090 HD
ATOM     20  H   LIG d   1       2.000  79.953 110.327  0.00  0.00    -0.090 HD
ATOM     21  H   LIG d   1       0.939  79.305 109.260  0.00  0.00    -0.090 HD
ENDBRANCH   5  18
BRANCH   3  22
ATOM     22  C   LIG d   1      -2.865  79.621 112.883  0.00  0.00     0.382 C 
ATOM     23  O   LIG d   1      -3.358  79.882 114.007  0.00  0.00    -0.241 OA
ATOM     24  O   LIG d   1      -3.393  78.747 112.170  0.00  0.00    -0.241 OA
ENDBRANCH   3  22
TORSDOF 7
ENDMDL
MODEL 5
REMARK VINA RESULT:      -5.0      2.518      6.045
REMARK  7 active torsions:
REMARK  status: ('A' for Active; 'I' for Inactive)
REMARK    1  A    between atoms: C_2  and  C_3 
REMARK    2  A    between atoms: C_3  and  O_6 
REMARK    3  A    between atoms: C_3  and  C_4 
REMARK    4  A    between atoms: C_7  and  O_6 
REMARK    5  A    between atoms: C_9  and  C_10 
REMARK    6  A    between atoms: N_15  and  C_14 
REMARK    7  A    between atoms: N_20  and  C_19 
REMARK       I    between atoms: C_22  and  N_20 
ROOT
ATOM      1  C   LIG d   1      -0.163  81.078 111.507  0.00  0.00     0.161 C 
ATOM      2  C   LIG d   1      -0.953  79.919 111.582  0.00  0.00     0.016 C 
ATOM      3  C   LIG d   1      -1.900  79.688 112.606  0.00  0.00     0.038 C 
ATOM      4  C   LIG d   1      -2.232  80.675 113.546  0.00  0.00     0.028 C 
ATOM      5  C   LIG d   1      -1.102  81.663 113.811  0.00  0.00    -0.047 C 
ATOM      6  C   LIG d   1      -0.590  82.214 112.460  0.00  0.00     0.091 C 
ENDROOT
BRANCH   1   7
ATOM      7  O   LIG d   1      -0.122  81.554 110.147  0.00  0.00    -0.368 OA
BRANCH   7   8
ATOM      8  C   LIG d   1       1.146  81.413 109.461  0.00  0.00     0.119 C 
BRANCH   8   9
ATOM      9  C   LIG d   1       2.008  80.431 110.277  0.00  0.00     0.028 C 
ATOM     10  C   LIG d   1       2.281  79.121 109.519  0.00  0.00     0.006 C 
ENDBRANCH   8   9
BRANCH   8  11
ATOM     11  C   LIG d   1       1.927  82.731 109.457  0.00  0.00     0.028 C 
ATOM     12  C   LIG d   1       3.410  82.545 109.815  0.00  0.00     0.006 C 
ENDBRANCH   8  11
ENDBRANCH   7   8
ENDBRANCH   1   7
BRANCH   6  13
ATOM     13  N   LIG d   1       0.573  83.125 112.623  0.00  0.00    -0.311 N 
ATOM     14  C   LIG d   1       1.712  82.762 113.209  0.00  0.00     0.210 C 
ATOM     15  C   LIG d   1       2.776  83.861 113.291  0.00  0.00     0.109 C 
ATOM     16  O   LIG d   1       1.955  81.624 113.639  0.00  0.00    -0.276 OA
ATOM     17  H   LIG d   1       0.473  84.059 112.274  0.00  0.00     0.149 HD
ENDBRANCH   6  13
BRANCH   5  18
ATOM     18  N   LIG d   1      -1.628  82.714 114.702  0.00  0.00     0.381 N 
ATOM     19  H   LIG d   1      -2.553  82.968 114.417  0.00  0.00    -0.090 HD
ATOM     20  H   LIG d   1      -1.041  83.527 114.629  0.00  0.00    -0.090 HD
ATOM     21  H   LIG d   1      -1.641  82.388 115.643  0.00  0.00    -0.090 HD
ENDBRANCH   5  18
BRANCH   3  22
ATOM     22  C   LIG d   1      -2.498  78.442 112.720  0.00  0.00     0.382 C 
ATOM     23  O   LIG d   1      -1.893  77.506 113.296  0.00  0.00    -0.241 OA
ATOM     24  O   LIG d   1      -3.617  78.230 112.216  0.00  0.00    -0.241 OA
ENDBRANCH   3  22
TORSDOF 7
ENDMDL
MODEL 6
REMARK VINA RESULT:      -4.8      2.437      5.412
REMARK  7 active torsions:
REMARK  status: ('A' for Active; 'I' for Inactive)
REMARK    1  A    between atoms: C_2  and  C_3 
REMARK    2  A    between atoms: C_3  and  O_6 
REMARK    3  A    between atoms: C_3  and  C_4 
REMARK    4  A    between atoms: C_7  and  O_6 
REMARK    5  A    between atoms: C_9  and  C_10 
REMARK    6  A    between atoms: N_15  and  C_14 
REMARK    7  A    between atoms: N_20  and  C_19 
REMARK       I    between atoms: C_22  and  N_20 
ROOT
ATOM      1  C   LIG d   1      -2.200  81.421 114.098  0.00  0.00     0.161 C 
ATOM      2  C   LIG d   1      -2.621  80.357 114.913  0.00  0.00     0.016 C 
ATOM      3  C   LIG d   1      -2.495  78.997 114.546  0.00  0.00     0.038 C 
ATOM      4  C   LIG d   1      -1.796  78.603 113.395  0.00  0.00     0.028 C 
ATOM      5  C   LIG d   1      -1.798  79.657 112.294  0.00  0.00    -0.047 C 
ATOM      6  C   LIG d   1      -1.335  81.006 112.890  0.00  0.00     0.091 C 
ENDROOT
BRANCH   1   7
ATOM      7  O   LIG d   1      -1.510  82.403 114.895  0.00  0.00    -0.368 OA
BRANCH   7   8
ATOM      8  C   LIG d   1      -0.866  81.911 116.096  0.00  0.00     0.119 C 
BRANCH   8   9
ATOM      9  C   LIG d   1      -1.133  82.934 117.217  0.00  0.00     0.028 C 
ATOM     10  C   LIG d   1      -1.780  82.292 118.456  0.00  0.00     0.006 C 
ENDBRANCH   8   9
BRANCH   8  11
ATOM     11  C   LIG d   1       0.657  81.874 115.936  0.00  0.00     0.028 C 
ATOM     12  C   LIG d   1       1.311  80.731 116.729  0.00  0.00     0.006 C 
ENDBRANCH   8  11
ENDBRANCH   7   8
ENDBRANCH   1   7
BRANCH   6  13
ATOM     13  N   LIG d   1      -1.389  82.112 111.898  0.00  0.00    -0.311 N 
ATOM     14  C   LIG d   1      -0.374  82.944 111.673  0.00  0.00     0.210 C 
ATOM     15  C   LIG d   1      -0.646  84.026 110.623  0.00  0.00     0.109 C 
ATOM     16  O   LIG d   1       0.737  82.870 112.220  0.00  0.00    -0.276 OA
ATOM     17  H   LIG d   1      -2.242  82.225 111.387  0.00  0.00     0.149 HD
ENDBRANCH   6  13
BRANCH   5  18
ATOM     18  N   LIG d   1      -0.921  79.172 111.211  0.00  0.00     0.381 N 
ATOM     19  H   LIG d   1      -0.058  79.678 111.222  0.00  0.00    -0.090 HD
ATOM     20  H   LIG d   1      -1.373  79.336 110.329  0.00  0.00    -0.090 HD
ATOM     21  H   LIG d   1      -0.744  78.198 111.326  0.00  0.00    -0.090 HD
ENDBRANCH   5  18
BRANCH   3  22
ATOM     22  C   LIG d   1      -3.106  78.018 115.314  0.00  0.00     0.382 C 
ATOM     23  O   LIG d   1      -4.189  78.265 115.899  0.00  0.00    -0.241 OA
ATOM     24  O   LIG d   1      -2.567  76.906 115.465  0.00  0.00    -0.241 OA
ENDBRANCH   3  22
TORSDOF 7
ENDMDL
MODEL 7
REMARK VINA RESULT:      -4.8      3.765      6.142
REMARK  7 active torsions:
REMARK  status: ('A' for Active; 'I' for Inactive)
REMARK    1  A    between atoms: C_2  and  C_3 
REMARK    2  A    between atoms: C_3  and  O_6 
REMARK    3  A    between atoms: C_3  and  C_4 
REMARK    4  A    between atoms: C_7  and  O_6 
REMARK    5  A    between atoms: C_9  and  C_10 
REMARK    6  A    between atoms: N_15  and  C_14 
REMARK    7  A    between atoms: N_20  and  C_19 
REMARK       I    between atoms: C_22  and  N_20 
ROOT
ATOM      1  C   LIG d   1      -2.592  78.814 115.575  0.00  0.00     0.161 C 
ATOM      2  C   LIG d   1      -2.926  79.510 114.402  0.00  0.00     0.016 C 
ATOM      3  C   LIG d   1      -2.065  80.443 113.779  0.00  0.00     0.038 C 
ATOM      4  C   LIG d   1      -0.742  80.632 114.207  0.00  0.00     0.028 C 
ATOM      5  C   LIG d   1      -0.534  80.325 115.686  0.00  0.00    -0.047 C 
ATOM      6  C   LIG d   1      -1.111  78.924 115.994  0.00  0.00     0.091 C 
ENDROOT
BRANCH   1   7
ATOM      7  O   LIG d   1      -2.975  77.430 115.448  0.00  0.00    -0.368 OA
BRANCH   7   8
ATOM      8  C   LIG d   1      -2.790  76.836 114.139  0.00  0.00     0.119 C 
BRANCH   8   9
ATOM      9  C   LIG d   1      -4.111  76.139 113.757  0.00  0.00     0.028 C 
ATOM     10  C   LIG d   1      -5.020  75.896 114.974  0.00  0.00     0.006 C 
ENDBRANCH   8   9
BRANCH   8  11
ATOM     11  C   LIG d   1      -1.740  75.722 114.176  0.00  0.00     0.028 C 
ATOM     12  C   LIG d   1      -1.414  75.258 115.605  0.00  0.00     0.006 C 
ENDBRANCH   8  11
ENDBRANCH   7   8
ENDBRANCH   1   7
BRANCH   6  13
ATOM     13  N   LIG d   1      -1.024  78.579 117.437  0.00  0.00    -0.311 N 
ATOM     14  C   LIG d   1      -0.025  77.874 117.964  0.00  0.00     0.210 C 
ATOM     15  C   LIG d   1      -0.140  77.614 119.469  0.00  0.00     0.109 C 
ATOM     16  O   LIG d   1       0.963  77.467 117.333  0.00  0.00    -0.276 OA
ATOM     17  H   LIG d   1      -1.768  78.897 118.027  0.00  0.00     0.149 HD
ENDBRANCH   6  13
BRANCH   5  18
ATOM     18  N   LIG d   1       0.910  80.429 115.965  0.00  0.00     0.381 N 
ATOM     19  H   LIG d   1       1.178  81.392 116.011  0.00  0.00    -0.090 HD
ATOM     20  H   LIG d   1       1.418  79.997 115.213  0.00  0.00    -0.090 HD
ATOM     21  H   LIG d   1       1.126  79.976 116.825  0.00  0.00    -0.090 HD
ENDBRANCH   5  18
BRANCH   3  22
ATOM     22  C   LIG d   1      -2.539  81.229 112.740  0.00  0.00     0.382 C 
ATOM     23  O   LIG d   1      -3.774  81.329 112.543  0.00  0.00    -0.241 OA
ATOM     24  O   LIG d   1      -1.747  81.804 111.970  0.00  0.00    -0.241 OA
ENDBRANCH   3  22
TORSDOF 7
ENDMDL
MODEL 8
REMARK VINA RESULT:      -4.8      5.017      7.317
REMARK  7 active torsions:
REMARK  status: ('A' for Active; 'I' for Inactive)
REMARK    1  A    between atoms: C_2  and  C_3 
REMARK    2  A    between atoms: C_3  and  O_6 
REMARK    3  A    between atoms: C_3  and  C_4 
REMARK    4  A    between atoms: C_7  and  O_6 
REMARK    5  A    between atoms: C_9  and  C_10 
REMARK    6  A    between atoms: N_15  and  C_14 
REMARK    7  A    between atoms: N_20  and  C_19 
REMARK       I    between atoms: C_22  and  N_20 
ROOT
ATOM      1  C   LIG d   1      -1.571  77.703 114.816  0.00  0.00     0.161 C 
ATOM      2  C   LIG d   1      -2.761  77.440 114.118  0.00  0.00     0.016 C 
ATOM      3  C   LIG d   1      -3.433  76.198 114.166  0.00  0.00     0.038 C 
ATOM      4  C   LIG d   1      -3.040  75.175 115.042  0.00  0.00     0.028 C 
ATOM      5  C   LIG d   1      -1.555  75.213 115.389  0.00  0.00    -0.047 C 
ATOM      6  C   LIG d   1      -1.187  76.637 115.864  0.00  0.00     0.091 C 
ENDROOT
BRANCH   1   7
ATOM      7  O   LIG d   1      -1.641  79.005 115.430  0.00  0.00    -0.368 OA
BRANCH   7   8
ATOM      8  C   LIG d   1      -2.972  79.505 115.712  0.00  0.00     0.119 C 
BRANCH   8   9
ATOM      9  C   LIG d   1      -2.921  81.042 115.605  0.00  0.00     0.028 C 
ATOM     10  C   LIG d   1      -1.715  81.643 116.347  0.00  0.00     0.006 C 
ENDBRANCH   8   9
BRANCH   8  11
ATOM     11  C   LIG d   1      -3.381  79.213 117.159  0.00  0.00     0.028 C 
ATOM     12  C   LIG d   1      -4.692  78.418 117.258  0.00  0.00     0.006 C 
ENDBRANCH   8  11
ENDBRANCH   7   8
ENDBRANCH   1   7
BRANCH   6  13
ATOM     13  N   LIG d   1       0.265  76.783 116.143  0.00  0.00    -0.311 N 
ATOM     14  C   LIG d   1       0.804  76.589 117.346  0.00  0.00     0.210 C 
ATOM     15  C   LIG d   1       2.318  76.812 117.420  0.00  0.00     0.109 C 
ATOM     16  O   LIG d   1       0.176  76.223 118.351  0.00  0.00    -0.276 OA
ATOM     17  H   LIG d   1       0.853  77.048 115.377  0.00  0.00     0.149 HD
ENDBRANCH   6  13
BRANCH   5  18
ATOM     18  N   LIG d   1      -1.311  74.180 116.413  0.00  0.00     0.381 N 
ATOM     19  H   LIG d   1      -1.640  73.294 116.086  0.00  0.00    -0.090 HD
ATOM     20  H   LIG d   1      -1.822  74.419 117.244  0.00  0.00    -0.090 HD
ATOM     21  H   LIG d   1      -0.337  74.126 116.617  0.00  0.00    -0.090 HD
ENDBRANCH   5  18
BRANCH   3  22
ATOM     22  C   LIG d   1      -4.490  75.954 113.302  0.00  0.00     0.382 C 
ATOM     23  O   LIG d   1      -4.970  74.799 113.208  0.00  0.00    -0.241 OA
ATOM     24  O   LIG d   1      -4.940  76.866 112.582  0.00  0.00    -0.241 OA
ENDBRANCH   3  22
TORSDOF 7
ENDMDL
MODEL 9
REMARK VINA RESULT:      -4.8      2.260      5.597
REMARK  7 active torsions:
REMARK  status: ('A' for Active; 'I' for Inactive)
REMARK    1  A    between atoms: C_2  and  C_3 
REMARK    2  A    between atoms: C_3  and  O_6 
REMARK    3  A    between atoms: C_3  and  C_4 
REMARK    4  A    between atoms: C_7  and  O_6 
REMARK    5  A    between atoms: C_9  and  C_10 
REMARK    6  A    between atoms: N_15  and  C_14 
REMARK    7  A    between atoms: N_20  and  C_19 
REMARK       I    between atoms: C_22  and  N_20 
ROOT
ATOM      1  C   LIG d   1      -2.032  80.887 114.637  0.00  0.00     0.161 C 
ATOM      2  C   LIG d   1      -2.476  79.717 115.276  0.00  0.00     0.016 C 
ATOM      3  C   LIG d   1      -2.515  78.453 114.644  0.00  0.00     0.038 C 
ATOM      4  C   LIG d   1      -1.967  78.243 113.371  0.00  0.00     0.028 C 
ATOM      5  C   LIG d   1      -1.968  79.492 112.497  0.00  0.00    -0.047 C 
ATOM      6  C   LIG d   1      -1.326  80.656 113.285  0.00  0.00     0.091 C 
ENDROOT
BRANCH   1   7
ATOM      7  O   LIG d   1      -1.180  81.635 115.526  0.00  0.00    -0.368 OA
BRANCH   7   8
ATOM      8  C   LIG d   1      -1.835  82.635 116.346  0.00  0.00     0.119 C 
BRANCH   8   9
ATOM      9  C   LIG d   1      -1.018  83.936 116.229  0.00  0.00     0.028 C 
ATOM     10  C   LIG d   1      -1.284  84.680 114.909  0.00  0.00     0.006 C 
ENDBRANCH   8   9
BRANCH   8  11
ATOM     11  C   LIG d   1      -1.787  82.258 117.829  0.00  0.00     0.028 C 
ATOM     12  C   LIG d   1      -3.106  81.650 118.332  0.00  0.00     0.006 C 
ENDBRANCH   8  11
ENDBRANCH   7   8
ENDBRANCH   1   7
BRANCH   6  13
ATOM     13  N   LIG d   1      -1.363  81.938 112.534  0.00  0.00    -0.311 N 
ATOM     14  C   LIG d   1      -0.373  82.357 111.747  0.00  0.00     0.210 C 
ATOM     15  C   LIG d   1      -0.607  83.716 111.081  0.00  0.00     0.109 C 
ATOM     16  O   LIG d   1       0.662  81.716 111.512  0.00  0.00    -0.276 OA
ATOM     17  H   LIG d   1      -2.181  82.507 112.642  0.00  0.00     0.149 HD
ENDBRANCH   6  13
BRANCH   5  18
ATOM     18  N   LIG d   1      -1.246  79.167 111.253  0.00  0.00     0.381 N 
ATOM     19  H   LIG d   1      -0.728  78.319 111.373  0.00  0.00    -0.090 HD
ATOM     20  H   LIG d   1      -0.596  79.907 111.051  0.00  0.00    -0.090 HD
ATOM     21  H   LIG d   1      -1.890  79.068 110.500  0.00  0.00    -0.090 HD
ENDBRANCH   5  18
BRANCH   3  22
ATOM     22  C   LIG d   1      -3.145  77.389 115.274  0.00  0.00     0.382 C 
ATOM     23  O   LIG d   1      -4.398  77.326 115.294  0.00  0.00    -0.241 OA
ATOM     24  O   LIG d   1      -2.477  76.517 115.860  0.00  0.00    -0.241 OA
ENDBRANCH   3  22
TORSDOF 7
ENDMDL
