MODEL 1
REMARK VINA RESULT:      -5.3      0.000      0.000
REMARK  7 active torsions:
REMARK  status: ('A' for Active; 'I' for Inactive)
REMARK    1  A    between atoms: C_2  and  C_3 
REMARK    2  A    between atoms: C_3  and  O_6 
REMARK    3  A    between atoms: C_3  and  C_4 
REMARK    4  A    between atoms: C_7  and  O_6 
REMARK    5  A    between atoms: C_9  and  C_10 
REMARK    6  A    between atoms: N_15  and  C_14 
REMARK    7  A    between atoms: N_20  and  C_19 
REMARK       I    between atoms: C_22  and  N_20 
ROOT
ATOM      1  C   LIG d   1      -2.045  78.468 115.578  0.00  0.00     0.161 C 
ATOM      2  C   LIG d   1      -2.465  79.598 114.857  0.00  0.00     0.016 C 
ATOM      3  C   LIG d   1      -2.224  79.772 113.475  0.00  0.00     0.038 C 
ATOM      4  C   LIG d   1      -1.675  78.753 112.683  0.00  0.00     0.028 C 
ATOM      5  C   LIG d   1      -0.778  77.797 113.463  0.00  0.00    -0.047 C 
ATOM      6  C   LIG d   1      -1.543  77.296 114.709  0.00  0.00     0.091 C 
ENDROOT
BRANCH   1   7
ATOM      7  O   LIG d   1      -3.102  78.026 116.453  0.00  0.00    -0.368 OA
BRANCH   7   8
ATOM      8  C   LIG d   1      -4.413  77.889 115.851  0.00  0.00     0.119 C 
BRANCH   8   9
ATOM      9  C   LIG d   1      -5.449  78.377 116.882  0.00  0.00     0.028 C 
ATOM     10  C   LIG d   1      -5.192  79.825 117.331  0.00  0.00     0.006 C 
ENDBRANCH   8   9
BRANCH   8  11
ATOM     11  C   LIG d   1      -4.757  76.419 115.594  0.00  0.00     0.028 C 
ATOM     12  C   LIG d   1      -5.008  76.117 114.108  0.00  0.00     0.006 C 
ENDBRANCH   8  11
ENDBRANCH   7   8
ENDBRANCH   1   7
BRANCH   6  13
ATOM     13  N   LIG d   1      -0.707  76.421 115.573  0.00  0.00    -0.311 N 
ATOM     14  C   LIG d   1      -0.616  75.103 115.411  0.00  0.00     0.210 C 
ATOM     15  C   LIG d   1       0.285  74.388 116.423  0.00  0.00     0.109 C 
ATOM     16  O   LIG d   1      -1.169  74.461 114.505  0.00  0.00    -0.276 OA
ATOM     17  H   LIG d   1      -0.199  76.863 116.314  0.00  0.00     0.149 HD
ENDBRANCH   6  13
BRANCH   5  18
ATOM     18  N   LIG d   1      -0.385  76.709 112.549  0.00  0.00     0.381 N 
ATOM     19  H   LIG d   1       0.564  76.446 112.723  0.00  0.00    -0.090 HD
ATOM     20  H   LIG d   1      -0.452  77.039 111.602  0.00  0.00    -0.090 HD
ATOM     21  H   LIG d   1      -0.984  75.923 112.677  0.00  0.00    -0.090 HD
ENDBRANCH   5  18
BRANCH   3  22
ATOM     22  C   LIG d   1      -2.498  80.994 112.879  0.00  0.00     0.382 C 
ATOM     23  O   LIG d   1      -3.675  81.426 112.846  0.00  0.00    -0.241 OA
ATOM     24  O   LIG d   1      -1.589  81.649 112.334  0.00  0.00    -0.241 OA
ENDBRANCH   3  22
TORSDOF 7
ENDMDL
MODEL 2
REMARK VINA RESULT:      -5.1      1.095      1.599
REMARK  7 active torsions:
REMARK  status: ('A' for Active; 'I' for Inactive)
REMARK    1  A    between atoms: C_2  and  C_3 
REMARK    2  A    between atoms: C_3  and  O_6 
REMARK    3  A    between atoms: C_3  and  C_4 
REMARK    4  A    between atoms: C_7  and  O_6 
REMARK    5  A    between atoms: C_9  and  C_10 
REMARK    6  A    between atoms: N_15  and  C_14 
REMARK    7  A    between atoms: N_20  and  C_19 
REMARK       I    between atoms: C_22  and  N_20 
ROOT
ATOM      1  C   LIG d   1      -1.873  78.926 115.978  0.00  0.00     0.161 C 
ATOM      2  C   LIG d   1      -2.333  79.925 115.104  0.00  0.00     0.016 C 
ATOM      3  C   LIG d   1      -2.179  79.863 113.700  0.00  0.00     0.038 C 
ATOM      4  C   LIG d   1      -1.686  78.717 113.059  0.00  0.00     0.028 C 
ATOM      5  C   LIG d   1      -0.745  77.892 113.931  0.00  0.00    -0.047 C 
ATOM      6  C   LIG d   1      -1.432  77.617 115.289  0.00  0.00     0.091 C 
ENDROOT
BRANCH   1   7
ATOM      7  O   LIG d   1      -2.874  78.652 116.978  0.00  0.00    -0.368 OA
BRANCH   7   8
ATOM      8  C   LIG d   1      -4.000  77.848 116.550  0.00  0.00     0.119 C 
BRANCH   8   9
ATOM      9  C   LIG d   1      -5.284  78.598 116.952  0.00  0.00     0.028 C 
ATOM     10  C   LIG d   1      -6.518  77.680 116.970  0.00  0.00     0.006 C 
ENDBRANCH   8   9
BRANCH   8  11
ATOM     11  C   LIG d   1      -4.053  76.517 117.306  0.00  0.00     0.028 C 
ATOM     12  C   LIG d   1      -3.339  76.575 118.665  0.00  0.00     0.006 C 
ENDBRANCH   8  11
ENDBRANCH   7   8
ENDBRANCH   1   7
BRANCH   6  13
ATOM     13  N   LIG d   1      -0.547  76.887 116.234  0.00  0.00    -0.311 N 
ATOM     14  C   LIG d   1      -0.556  75.563 116.372  0.00  0.00     0.210 C 
ATOM     15  C   LIG d   1       0.421  75.014 117.416  0.00  0.00     0.109 C 
ATOM     16  O   LIG d   1      -1.258  74.787 115.706  0.00  0.00    -0.276 OA
ATOM     17  H   LIG d   1       0.077  77.437 116.792  0.00  0.00     0.149 HD
ENDBRANCH   6  13
BRANCH   5  18
ATOM     18  N   LIG d   1      -0.416  76.659 113.190  0.00  0.00     0.381 N 
ATOM     19  H   LIG d   1       0.333  76.179 113.646  0.00  0.00    -0.090 HD
ATOM     20  H   LIG d   1      -0.115  76.907 112.264  0.00  0.00    -0.090 HD
ATOM     21  H   LIG d   1      -1.217  76.068 113.139  0.00  0.00    -0.090 HD
ENDBRANCH   5  18
BRANCH   3  22
ATOM     22  C   LIG d   1      -2.484  80.971 112.925  0.00  0.00     0.382 C 
ATOM     23  O   LIG d   1      -1.571  81.586 112.323  0.00  0.00    -0.241 OA
ATOM     24  O   LIG d   1      -3.655  81.391 112.857  0.00  0.00    -0.241 OA
ENDBRANCH   3  22
TORSDOF 7
ENDMDL
MODEL 3
REMARK VINA RESULT:      -5.0      1.149      1.551
REMARK  7 active torsions:
REMARK  status: ('A' for Active; 'I' for Inactive)
REMARK    1  A    between atoms: C_2  and  C_3 
REMARK    2  A    between atoms: C_3  and  O_6 
REMARK    3  A    between atoms: C_3  and  C_4 
REMARK    4  A    between atoms: C_7  and  O_6 
REMARK    5  A    between atoms: C_9  and  C_10 
REMARK    6  A    between atoms: N_15  and  C_14 
REMARK    7  A    between atoms: N_20  and  C_19 
REMARK       I    between atoms: C_22  and  N_20 
ROOT
ATOM      1  C   LIG d   1      -2.217  78.909 116.012  0.00  0.00     0.161 C 
ATOM      2  C   LIG d   1      -2.593  79.910 115.101  0.00  0.00     0.016 C 
ATOM      3  C   LIG d   1      -2.272  79.870 113.724  0.00  0.00     0.038 C 
ATOM      4  C   LIG d   1      -1.680  78.744 113.134  0.00  0.00     0.028 C 
ATOM      5  C   LIG d   1      -0.832  77.927 114.102  0.00  0.00    -0.047 C 
ATOM      6  C   LIG d   1      -1.668  77.620 115.366  0.00  0.00     0.091 C 
ENDROOT
BRANCH   1   7
ATOM      7  O   LIG d   1      -3.323  78.601 116.883  0.00  0.00    -0.368 OA
BRANCH   7   8
ATOM      8  C   LIG d   1      -4.341  79.624 117.007  0.00  0.00     0.119 C 
BRANCH   8   9
ATOM      9  C   LIG d   1      -4.040  80.423 118.291  0.00  0.00     0.028 C 
ATOM     10  C   LIG d   1      -3.804  79.511 119.507  0.00  0.00     0.006 C 
ENDBRANCH   8   9
BRANCH   8  11
ATOM     11  C   LIG d   1      -5.726  79.009 117.227  0.00  0.00     0.028 C 
ATOM     12  C   LIG d   1      -5.854  77.601 116.625  0.00  0.00     0.006 C 
ENDBRANCH   8  11
ENDBRANCH   7   8
ENDBRANCH   1   7
BRANCH   6  13
ATOM     13  N   LIG d   1      -0.885  76.896 116.401  0.00  0.00    -0.311 N 
ATOM     14  C   LIG d   1      -0.860  75.569 116.506  0.00  0.00     0.210 C 
ATOM     15  C   LIG d   1      -0.005  75.027 117.656  0.00  0.00     0.109 C 
ATOM     16  O   LIG d   1      -1.439  74.787 115.737  0.00  0.00    -0.276 OA
ATOM     17  H   LIG d   1      -0.360  77.452 117.048  0.00  0.00     0.149 HD
ENDBRANCH   6  13
BRANCH   5  18
ATOM     18  N   LIG d   1      -0.389  76.713 113.392  0.00  0.00     0.381 N 
ATOM     19  H   LIG d   1      -1.182  76.236 113.010  0.00  0.00    -0.090 HD
ATOM     20  H   LIG d   1       0.062  76.099 114.047  0.00  0.00    -0.090 HD
ATOM     21  H   LIG d   1       0.244  76.956 112.662  0.00  0.00    -0.090 HD
ENDBRANCH   5  18
BRANCH   3  22
ATOM     22  C   LIG d   1      -2.509  80.983 112.931  0.00  0.00     0.382 C 
ATOM     23  O   LIG d   1      -3.675  81.428 112.807  0.00  0.00    -0.241 OA
ATOM     24  O   LIG d   1      -1.577  81.520 112.303  0.00  0.00    -0.241 OA
ENDBRANCH   3  22
TORSDOF 7
ENDMDL
MODEL 4
REMARK VINA RESULT:      -4.8      2.008      2.705
REMARK  7 active torsions:
REMARK  status: ('A' for Active; 'I' for Inactive)
REMARK    1  A    between atoms: C_2  and  C_3 
REMARK    2  A    between atoms: C_3  and  O_6 
REMARK    3  A    between atoms: C_3  and  C_4 
REMARK    4  A    between atoms: C_7  and  O_6 
REMARK    5  A    between atoms: C_9  and  C_10 
REMARK    6  A    between atoms: N_15  and  C_14 
REMARK    7  A    between atoms: N_20  and  C_19 
REMARK       I    between atoms: C_22  and  N_20 
ROOT
ATOM      1  C   LIG d   1      -2.044  77.811 114.804  0.00  0.00     0.161 C 
ATOM      2  C   LIG d   1      -2.431  78.788 113.872  0.00  0.00     0.016 C 
ATOM      3  C   LIG d   1      -1.715  79.989 113.661  0.00  0.00     0.038 C 
ATOM      4  C   LIG d   1      -0.470  80.225 114.263  0.00  0.00     0.028 C 
ATOM      5  C   LIG d   1      -0.291  79.495 115.590  0.00  0.00    -0.047 C 
ATOM      6  C   LIG d   1      -0.630  78.000 115.390  0.00  0.00     0.091 C 
ENDROOT
BRANCH   1   7
ATOM      7  O   LIG d   1      -2.172  76.500 114.218  0.00  0.00    -0.368 OA
BRANCH   7   8
ATOM      8  C   LIG d   1      -3.249  75.676 114.729  0.00  0.00     0.119 C 
BRANCH   8   9
ATOM      9  C   LIG d   1      -4.523  76.542 114.755  0.00  0.00     0.028 C 
ATOM     10  C   LIG d   1      -5.616  76.007 113.815  0.00  0.00     0.006 C 
ENDBRANCH   8   9
BRANCH   8  11
ATOM     11  C   LIG d   1      -3.001  75.276 116.186  0.00  0.00     0.028 C 
ATOM     12  C   LIG d   1      -3.921  76.014 117.172  0.00  0.00     0.006 C 
ENDBRANCH   8  11
ENDBRANCH   7   8
ENDBRANCH   1   7
BRANCH   6  13
ATOM     13  N   LIG d   1      -0.561  77.229 116.658  0.00  0.00    -0.311 N 
ATOM     14  C   LIG d   1       0.496  76.504 117.019  0.00  0.00     0.210 C 
ATOM     15  C   LIG d   1       0.351  75.771 118.357  0.00  0.00     0.109 C 
ATOM     16  O   LIG d   1       1.552  76.424 116.375  0.00  0.00    -0.276 OA
ATOM     17  H   LIG d   1      -1.364  77.263 117.257  0.00  0.00     0.149 HD
ENDBRANCH   6  13
BRANCH   5  18
ATOM     18  N   LIG d   1       1.096  79.719 116.038  0.00  0.00     0.381 N 
ATOM     19  H   LIG d   1       1.138  80.536 116.614  0.00  0.00    -0.090 HD
ATOM     20  H   LIG d   1       1.677  79.871 115.233  0.00  0.00    -0.090 HD
ATOM     21  H   LIG d   1       1.422  78.927 116.547  0.00  0.00    -0.090 HD
ENDBRANCH   5  18
BRANCH   3  22
ATOM     22  C   LIG d   1      -2.263  80.986 112.868  0.00  0.00     0.382 C 
ATOM     23  O   LIG d   1      -1.518  81.700 112.154  0.00  0.00    -0.241 OA
ATOM     24  O   LIG d   1      -3.488  81.210 112.892  0.00  0.00    -0.241 OA
ENDBRANCH   3  22
TORSDOF 7
ENDMDL
MODEL 5
REMARK VINA RESULT:      -4.7      2.601      3.729
REMARK  7 active torsions:
REMARK  status: ('A' for Active; 'I' for Inactive)
REMARK    1  A    between atoms: C_2  and  C_3 
REMARK    2  A    between atoms: C_3  and  O_6 
REMARK    3  A    between atoms: C_3  and  C_4 
REMARK    4  A    between atoms: C_7  and  O_6 
REMARK    5  A    between atoms: C_9  and  C_10 
REMARK    6  A    between atoms: N_15  and  C_14 
REMARK    7  A    between atoms: N_20  and  C_19 
REMARK       I    between atoms: C_22  and  N_20 
ROOT
ATOM      1  C   LIG d   1      -2.743  78.555 114.765  0.00  0.00     0.161 C 
ATOM      2  C   LIG d   1      -2.757  78.114 113.431  0.00  0.00     0.016 C 
ATOM      3  C   LIG d   1      -1.733  78.410 112.502  0.00  0.00     0.038 C 
ATOM      4  C   LIG d   1      -0.544  79.046 112.888  0.00  0.00     0.028 C 
ATOM      5  C   LIG d   1      -0.708  79.952 114.104  0.00  0.00    -0.047 C 
ATOM      6  C   LIG d   1      -1.401  79.156 115.233  0.00  0.00     0.091 C 
ENDROOT
BRANCH   1   7
ATOM      7  O   LIG d   1      -3.145  77.482 115.639  0.00  0.00    -0.368 OA
BRANCH   7   8
ATOM      8  C   LIG d   1      -3.127  76.152 115.065  0.00  0.00     0.119 C 
BRANCH   8   9
ATOM      9  C   LIG d   1      -4.497  75.506 115.352  0.00  0.00     0.028 C 
ATOM     10  C   LIG d   1      -5.398  75.464 114.107  0.00  0.00     0.006 C 
ENDBRANCH   8   9
BRANCH   8  11
ATOM     11  C   LIG d   1      -2.102  75.256 115.766  0.00  0.00     0.028 C 
ATOM     12  C   LIG d   1      -0.830  75.040 114.930  0.00  0.00     0.006 C 
ENDBRANCH   8  11
ENDBRANCH   7   8
ENDBRANCH   1   7
BRANCH   6  13
ATOM     13  N   LIG d   1      -1.677  79.993 116.430  0.00  0.00    -0.311 N 
ATOM     14  C   LIG d   1      -1.307  79.652 117.663  0.00  0.00     0.210 C 
ATOM     15  C   LIG d   1      -1.707  80.648 118.757  0.00  0.00     0.109 C 
ATOM     16  O   LIG d   1      -0.658  78.635 117.952  0.00  0.00    -0.276 OA
ATOM     17  H   LIG d   1      -2.172  80.850 116.283  0.00  0.00     0.149 HD
ENDBRANCH   6  13
BRANCH   5  18
ATOM     18  N   LIG d   1       0.632  80.441 114.480  0.00  0.00     0.381 N 
ATOM     19  H   LIG d   1       0.881  80.086 115.381  0.00  0.00    -0.090 HD
ATOM     20  H   LIG d   1       0.609  81.444 114.531  0.00  0.00    -0.090 HD
ATOM     21  H   LIG d   1       1.303  80.150 113.803  0.00  0.00    -0.090 HD
ENDBRANCH   5  18
BRANCH   3  22
ATOM     22  C   LIG d   1      -1.911  78.104 111.162  0.00  0.00     0.382 C 
ATOM     23  O   LIG d   1      -2.909  77.435 110.799  0.00  0.00    -0.241 OA
ATOM     24  O   LIG d   1      -1.065  78.451 110.317  0.00  0.00    -0.241 OA
ENDBRANCH   3  22
TORSDOF 7
ENDMDL
MODEL 6
REMARK VINA RESULT:      -4.7      2.722      4.949
REMARK  7 active torsions:
REMARK  status: ('A' for Active; 'I' for Inactive)
REMARK    1  A    between atoms: C_2  and  C_3 
REMARK    2  A    between atoms: C_3  and  O_6 
REMARK    3  A    between atoms: C_3  and  C_4 
REMARK    4  A    between atoms: C_7  and  O_6 
REMARK    5  A    between atoms: C_9  and  C_10 
REMARK    6  A    between atoms: N_15  and  C_14 
REMARK    7  A    between atoms: N_20  and  C_19 
REMARK       I    between atoms: C_22  and  N_20 
ROOT
ATOM      1  C   LIG d   1      -1.212  80.151 113.350  0.00  0.00     0.161 C 
ATOM      2  C   LIG d   1      -2.289  79.253 113.437  0.00  0.00     0.016 C 
ATOM      3  C   LIG d   1      -2.469  78.166 112.551  0.00  0.00     0.038 C 
ATOM      4  C   LIG d   1      -1.497  77.812 111.604  0.00  0.00     0.028 C 
ATOM      5  C   LIG d   1      -0.640  78.988 111.148  0.00  0.00    -0.047 C 
ATOM      6  C   LIG d   1      -0.083  79.716 112.393  0.00  0.00     0.091 C 
ENDROOT
BRANCH   1   7
ATOM      7  O   LIG d   1      -0.683  80.409 114.665  0.00  0.00    -0.368 OA
BRANCH   7   8
ATOM      8  C   LIG d   1      -1.055  79.464 115.698  0.00  0.00     0.119 C 
BRANCH   8   9
ATOM      9  C   LIG d   1      -1.338  80.268 116.982  0.00  0.00     0.028 C 
ATOM     10  C   LIG d   1      -2.755  80.024 117.527  0.00  0.00     0.006 C 
ENDBRANCH   8   9
BRANCH   8  11
ATOM     11  C   LIG d   1       0.111  78.535 116.050  0.00  0.00     0.028 C 
ATOM     12  C   LIG d   1      -0.054  77.124 115.466  0.00  0.00     0.006 C 
ENDBRANCH   8  11
ENDBRANCH   7   8
ENDBRANCH   1   7
BRANCH   6  13
ATOM     13  N   LIG d   1       0.698  80.929 112.038  0.00  0.00    -0.311 N 
ATOM     14  C   LIG d   1       0.138  82.084 111.682  0.00  0.00     0.210 C 
ATOM     15  C   LIG d   1       1.126  83.203 111.337  0.00  0.00     0.109 C 
ATOM     16  O   LIG d   1      -1.083  82.297 111.650  0.00  0.00    -0.276 OA
ATOM     17  H   LIG d   1       1.696  80.854 112.067  0.00  0.00     0.149 HD
ENDBRANCH   6  13
BRANCH   5  18
ATOM     18  N   LIG d   1       0.418  78.454 110.269  0.00  0.00     0.381 N 
ATOM     19  H   LIG d   1       1.314  78.756 110.596  0.00  0.00    -0.090 HD
ATOM     20  H   LIG d   1       0.283  78.816 109.341  0.00  0.00    -0.090 HD
ATOM     21  H   LIG d   1       0.379  77.459 110.255  0.00  0.00    -0.090 HD
ENDBRANCH   5  18
BRANCH   3  22
ATOM     22  C   LIG d   1      -3.653  77.444 112.581  0.00  0.00     0.382 C 
ATOM     23  O   LIG d   1      -4.571  77.711 111.769  0.00  0.00    -0.241 OA
ATOM     24  O   LIG d   1      -3.831  76.559 113.439  0.00  0.00    -0.241 OA
ENDBRANCH   3  22
TORSDOF 7
ENDMDL
MODEL 7
REMARK VINA RESULT:      -4.7      1.988      2.286
REMARK  7 active torsions:
REMARK  status: ('A' for Active; 'I' for Inactive)
REMARK    1  A    between atoms: C_2  and  C_3 
REMARK    2  A    between atoms: C_3  and  O_6 
REMARK    3  A    between atoms: C_3  and  C_4 
REMARK    4  A    between atoms: C_7  and  O_6 
REMARK    5  A    between atoms: C_9  and  C_10 
REMARK    6  A    between atoms: N_15  and  C_14 
REMARK    7  A    between atoms: N_20  and  C_19 
REMARK       I    between atoms: C_22  and  N_20 
ROOT
ATOM      1  C   LIG d   1      -2.635  77.707 116.034  0.00  0.00     0.161 C 
ATOM      2  C   LIG d   1      -2.984  78.028 114.711  0.00  0.00     0.016 C 
ATOM      3  C   LIG d   1      -2.138  77.791 113.604  0.00  0.00     0.038 C 
ATOM      4  C   LIG d   1      -0.939  77.074 113.727  0.00  0.00     0.028 C 
ATOM      5  C   LIG d   1      -0.311  77.178 115.113  0.00  0.00    -0.047 C 
ATOM      6  C   LIG d   1      -1.378  76.824 116.174  0.00  0.00     0.091 C 
ENDROOT
BRANCH   1   7
ATOM      7  O   LIG d   1      -3.756  77.093 116.700  0.00  0.00    -0.368 OA
BRANCH   7   8
ATOM      8  C   LIG d   1      -4.956  76.926 115.906  0.00  0.00     0.119 C 
BRANCH   8   9
ATOM      9  C   LIG d   1      -6.153  77.339 116.784  0.00  0.00     0.028 C 
ATOM     10  C   LIG d   1      -6.058  78.799 117.258  0.00  0.00     0.006 C 
ENDBRANCH   8   9
BRANCH   8  11
ATOM     11  C   LIG d   1      -5.195  75.453 115.561  0.00  0.00     0.028 C 
ATOM     12  C   LIG d   1      -5.517  75.234 114.074  0.00  0.00     0.006 C 
ENDBRANCH   8  11
ENDBRANCH   7   8
ENDBRANCH   1   7
BRANCH   6  13
ATOM     13  N   LIG d   1      -0.870  76.982 117.562  0.00  0.00    -0.311 N 
ATOM     14  C   LIG d   1      -0.328  75.987 118.262  0.00  0.00     0.210 C 
ATOM     15  C   LIG d   1       0.112  76.360 119.682  0.00  0.00     0.109 C 
ATOM     16  O   LIG d   1      -0.140  74.839 117.831  0.00  0.00    -0.276 OA
ATOM     17  H   LIG d   1      -0.954  77.889 117.978  0.00  0.00     0.149 HD
ENDBRANCH   6  13
BRANCH   5  18
ATOM     18  N   LIG d   1       0.856  76.275 115.142  0.00  0.00     0.381 N 
ATOM     19  H   LIG d   1       0.822  75.705 115.963  0.00  0.00    -0.090 HD
ATOM     20  H   LIG d   1       1.694  76.828 115.177  0.00  0.00    -0.090 HD
ATOM     21  H   LIG d   1       0.862  75.700 114.329  0.00  0.00    -0.090 HD
ENDBRANCH   5  18
BRANCH   3  22
ATOM     22  C   LIG d   1      -2.471  78.309 112.361  0.00  0.00     0.382 C 
ATOM     23  O   LIG d   1      -2.976  77.564 111.487  0.00  0.00    -0.241 OA
ATOM     24  O   LIG d   1      -2.233  79.500 112.089  0.00  0.00    -0.241 OA
ENDBRANCH   3  22
TORSDOF 7
ENDMDL
MODEL 8
REMARK VINA RESULT:      -4.7      1.879      2.582
REMARK  7 active torsions:
REMARK  status: ('A' for Active; 'I' for Inactive)
REMARK    1  A    between atoms: C_2  and  C_3 
REMARK    2  A    between atoms: C_3  and  O_6 
REMARK    3  A    between atoms: C_3  and  C_4 
REMARK    4  A    between atoms: C_7  and  O_6 
REMARK    5  A    between atoms: C_9  and  C_10 
REMARK    6  A    between atoms: N_15  and  C_14 
REMARK    7  A    between atoms: N_20  and  C_19 
REMARK       I    between atoms: C_22  and  N_20 
ROOT
ATOM      1  C   LIG d   1      -2.842  77.217 115.574  0.00  0.00     0.161 C 
ATOM      2  C   LIG d   1      -2.992  78.139 114.525  0.00  0.00     0.016 C 
ATOM      3  C   LIG d   1      -1.934  78.937 114.033  0.00  0.00     0.038 C 
ATOM      4  C   LIG d   1      -0.610  78.758 114.460  0.00  0.00     0.028 C 
ATOM      5  C   LIG d   1      -0.500  78.193 115.872  0.00  0.00    -0.047 C 
ATOM      6  C   LIG d   1      -1.381  76.928 115.977  0.00  0.00     0.091 C 
ENDROOT
BRANCH   1   7
ATOM      7  O   LIG d   1      -3.524  75.990 115.248  0.00  0.00    -0.368 OA
BRANCH   7   8
ATOM      8  C   LIG d   1      -4.565  75.575 116.167  0.00  0.00     0.119 C 
BRANCH   8   9
ATOM      9  C   LIG d   1      -5.766  75.104 115.324  0.00  0.00     0.028 C 
ATOM     10  C   LIG d   1      -5.553  75.335 113.818  0.00  0.00     0.006 C 
ENDBRANCH   8   9
BRANCH   8  11
ATOM     11  C   LIG d   1      -5.085  76.757 116.989  0.00  0.00     0.028 C 
ATOM     12  C   LIG d   1      -6.618  76.863 116.977  0.00  0.00     0.006 C 
ENDBRANCH   8  11
ENDBRANCH   7   8
ENDBRANCH   1   7
BRANCH   6  13
ATOM     13  N   LIG d   1      -1.397  76.360 117.350  0.00  0.00    -0.311 N 
ATOM     14  C   LIG d   1      -1.286  75.058 117.606  0.00  0.00     0.210 C 
ATOM     15  C   LIG d   1      -1.346  74.683 119.091  0.00  0.00     0.109 C 
ATOM     16  O   LIG d   1      -1.110  74.180 116.748  0.00  0.00    -0.276 OA
ATOM     17  H   LIG d   1      -1.504  77.004 118.109  0.00  0.00     0.149 HD
ENDBRANCH   6  13
BRANCH   5  18
ATOM     18  N   LIG d   1       0.927  77.928 116.136  0.00  0.00     0.381 N 
ATOM     19  H   LIG d   1       1.401  78.788 116.330  0.00  0.00    -0.090 HD
ATOM     20  H   LIG d   1       1.339  77.518 115.316  0.00  0.00    -0.090 HD
ATOM     21  H   LIG d   1       1.021  77.307 116.910  0.00  0.00    -0.090 HD
ENDBRANCH   5  18
BRANCH   3  22
ATOM     22  C   LIG d   1      -2.203  79.956 113.132  0.00  0.00     0.382 C 
ATOM     23  O   LIG d   1      -3.143  80.758 113.354  0.00  0.00    -0.241 OA
ATOM     24  O   LIG d   1      -1.547  80.057 112.078  0.00  0.00    -0.241 OA
ENDBRANCH   3  22
TORSDOF 7
ENDMDL
MODEL 9
REMARK VINA RESULT:      -4.6      2.425      4.490
REMARK  7 active torsions:
REMARK  status: ('A' for Active; 'I' for Inactive)
REMARK    1  A    between atoms: C_2  and  C_3 
REMARK    2  A    between atoms: C_3  and  O_6 
REMARK    3  A    between atoms: C_3  and  C_4 
REMARK    4  A    between atoms: C_7  and  O_6 
REMARK    5  A    between atoms: C_9  and  C_10 
REMARK    6  A    between atoms: N_15  and  C_14 
REMARK    7  A    between atoms: N_20  and  C_19 
REMARK       I    between atoms: C_22  and  N_20 
ROOT
ATOM      1  C   LIG d   1      -1.685  76.807 115.227  0.00  0.00     0.161 C 
ATOM      2  C   LIG d   1      -2.889  76.735 114.506  0.00  0.00     0.016 C 
ATOM      3  C   LIG d   1      -3.965  75.892 114.869  0.00  0.00     0.038 C 
ATOM      4  C   LIG d   1      -3.968  75.170 116.072  0.00  0.00     0.028 C 
ATOM      5  C   LIG d   1      -2.570  74.823 116.573  0.00  0.00    -0.047 C 
ATOM      6  C   LIG d   1      -1.714  76.110 116.603  0.00  0.00     0.091 C 
ENDROOT
BRANCH   1   7
ATOM      7  O   LIG d   1      -1.283  78.183 115.370  0.00  0.00    -0.368 OA
BRANCH   7   8
ATOM      8  C   LIG d   1      -2.290  79.177 115.062  0.00  0.00     0.119 C 
BRANCH   8   9
ATOM      9  C   LIG d   1      -1.636  80.231 114.147  0.00  0.00     0.028 C 
ATOM     10  C   LIG d   1      -2.568  80.679 113.009  0.00  0.00     0.006 C 
ENDBRANCH   8   9
BRANCH   8  11
ATOM     11  C   LIG d   1      -2.722  79.942 116.317  0.00  0.00     0.028 C 
ATOM     12  C   LIG d   1      -4.141  79.576 116.779  0.00  0.00     0.006 C 
ENDBRANCH   8  11
ENDBRANCH   7   8
ENDBRANCH   1   7
BRANCH   6  13
ATOM     13  N   LIG d   1      -0.307  75.845 117.003  0.00  0.00    -0.311 N 
ATOM     14  C   LIG d   1       0.134  75.958 118.254  0.00  0.00     0.210 C 
ATOM     15  C   LIG d   1       1.624  75.658 118.445  0.00  0.00     0.109 C 
ATOM     16  O   LIG d   1      -0.575  76.246 119.230  0.00  0.00    -0.276 OA
ATOM     17  H   LIG d   1       0.330  75.575 116.278  0.00  0.00     0.149 HD
ENDBRANCH   6  13
BRANCH   5  18
ATOM     18  N   LIG d   1      -2.716  74.195 117.900  0.00  0.00     0.381 N 
ATOM     19  H   LIG d   1      -1.845  74.232 118.390  0.00  0.00    -0.090 HD
ATOM     20  H   LIG d   1      -2.968  73.230 117.776  0.00  0.00    -0.090 HD
ATOM     21  H   LIG d   1      -3.421  74.665 118.424  0.00  0.00    -0.090 HD
ENDBRANCH   5  18
BRANCH   3  22
ATOM     22  C   LIG d   1      -5.036  75.735 114.003  0.00  0.00     0.382 C 
ATOM     23  O   LIG d   1      -5.246  76.584 113.103  0.00  0.00    -0.241 OA
ATOM     24  O   LIG d   1      -5.823  74.778 114.139  0.00  0.00    -0.241 OA
ENDBRANCH   3  22
TORSDOF 7
ENDMDL
