MODEL 1
REMARK VINA RESULT:      -5.5      0.000      0.000
REMARK  7 active torsions:
REMARK  status: ('A' for Active; 'I' for Inactive)
REMARK    1  A    between atoms: C_2  and  C_3 
REMARK    2  A    between atoms: C_3  and  O_6 
REMARK    3  A    between atoms: C_3  and  C_4 
REMARK    4  A    between atoms: C_7  and  O_6 
REMARK    5  A    between atoms: C_9  and  C_10 
REMARK    6  A    between atoms: N_15  and  C_14 
REMARK    7  A    between atoms: N_20  and  C_19 
REMARK       I    between atoms: C_22  and  N_20 
ROOT
ATOM      1  C   LIG d   1      -1.579  78.580 114.598  0.00  0.00     0.161 C 
ATOM      2  C   LIG d   1      -2.043  79.814 114.113  0.00  0.00     0.016 C 
ATOM      3  C   LIG d   1      -2.565  79.992 112.811  0.00  0.00     0.038 C 
ATOM      4  C   LIG d   1      -2.800  78.909 111.952  0.00  0.00     0.028 C 
ATOM      5  C   LIG d   1      -1.880  77.720 112.211  0.00  0.00    -0.047 C 
ATOM      6  C   LIG d   1      -1.930  77.365 113.714  0.00  0.00     0.091 C 
ENDROOT
BRANCH   1   7
ATOM      7  O   LIG d   1      -2.053  78.375 115.944  0.00  0.00    -0.368 OA
BRANCH   7   8
ATOM      8  C   LIG d   1      -2.889  79.423 116.492  0.00  0.00     0.119 C 
BRANCH   8   9
ATOM      9  C   LIG d   1      -2.396  79.707 117.924  0.00  0.00     0.028 C 
ATOM     10  C   LIG d   1      -1.436  80.907 117.986  0.00  0.00     0.006 C 
ENDBRANCH   8   9
BRANCH   8  11
ATOM     11  C   LIG d   1      -4.339  78.954 116.648  0.00  0.00     0.028 C 
ATOM     12  C   LIG d   1      -5.275  80.066 117.147  0.00  0.00     0.006 C 
ENDBRANCH   8  11
ENDBRANCH   7   8
ENDBRANCH   1   7
BRANCH   6  13
ATOM     13  N   LIG d   1      -0.994  76.266 114.069  0.00  0.00    -0.311 N 
ATOM     14  C   LIG d   1      -1.361  75.182 114.751  0.00  0.00     0.210 C 
ATOM     15  C   LIG d   1      -0.235  74.181 115.027  0.00  0.00     0.109 C 
ATOM     16  O   LIG d   1      -2.518  74.940 115.125  0.00  0.00    -0.276 OA
ATOM     17  H   LIG d   1      -0.042  76.366 113.776  0.00  0.00     0.149 HD
ENDBRANCH   6  13
BRANCH   5  18
ATOM     18  N   LIG d   1      -2.325  76.615 111.341  0.00  0.00     0.381 N 
ATOM     19  H   LIG d   1      -1.535  76.073 111.052  0.00  0.00    -0.090 HD
ATOM     20  H   LIG d   1      -2.758  77.001 110.521  0.00  0.00    -0.090 HD
ATOM     21  H   LIG d   1      -2.974  76.037 111.828  0.00  0.00    -0.090 HD
ENDBRANCH   5  18
BRANCH   3  22
ATOM     22  C   LIG d   1      -2.821  81.272 112.343  0.00  0.00     0.382 C 
ATOM     23  O   LIG d   1      -4.005  81.668 112.215  0.00  0.00    -0.241 OA
ATOM     24  O   LIG d   1      -1.884  82.020 112.004  0.00  0.00    -0.241 OA
ENDBRANCH   3  22
TORSDOF 7
ENDMDL
MODEL 2
REMARK VINA RESULT:      -5.3      1.065      1.567
REMARK  7 active torsions:
REMARK  status: ('A' for Active; 'I' for Inactive)
REMARK    1  A    between atoms: C_2  and  C_3 
REMARK    2  A    between atoms: C_3  and  O_6 
REMARK    3  A    between atoms: C_3  and  C_4 
REMARK    4  A    between atoms: C_7  and  O_6 
REMARK    5  A    between atoms: C_9  and  C_10 
REMARK    6  A    between atoms: N_15  and  C_14 
REMARK    7  A    between atoms: N_20  and  C_19 
REMARK       I    between atoms: C_22  and  N_20 
ROOT
ATOM      1  C   LIG d   1      -1.689  78.539 114.707  0.00  0.00     0.161 C 
ATOM      2  C   LIG d   1      -2.128  79.765 114.180  0.00  0.00     0.016 C 
ATOM      3  C   LIG d   1      -2.515  79.938 112.831  0.00  0.00     0.038 C 
ATOM      4  C   LIG d   1      -2.636  78.854 111.949  0.00  0.00     0.028 C 
ATOM      5  C   LIG d   1      -1.722  77.684 112.299  0.00  0.00    -0.047 C 
ATOM      6  C   LIG d   1      -1.920  77.321 113.788  0.00  0.00     0.091 C 
ENDROOT
BRANCH   1   7
ATOM      7  O   LIG d   1      -2.296  78.317 115.996  0.00  0.00    -0.368 OA
BRANCH   7   8
ATOM      8  C   LIG d   1      -1.504  78.700 117.147  0.00  0.00     0.119 C 
BRANCH   8   9
ATOM      9  C   LIG d   1      -0.949  77.408 117.778  0.00  0.00     0.028 C 
ATOM     10  C   LIG d   1      -2.056  76.528 118.383  0.00  0.00     0.006 C 
ENDBRANCH   8   9
BRANCH   8  11
ATOM     11  C   LIG d   1      -2.374  79.340 118.233  0.00  0.00     0.028 C 
ATOM     12  C   LIG d   1      -3.695  79.903 117.684  0.00  0.00     0.006 C 
ENDBRANCH   8  11
ENDBRANCH   7   8
ENDBRANCH   1   7
BRANCH   6  13
ATOM     13  N   LIG d   1      -1.002  76.241 114.235  0.00  0.00    -0.311 N 
ATOM     14  C   LIG d   1      -1.409  75.161 114.901  0.00  0.00     0.210 C 
ATOM     15  C   LIG d   1      -0.297  74.180 115.284  0.00  0.00     0.109 C 
ATOM     16  O   LIG d   1      -2.590  74.907 115.182  0.00  0.00    -0.276 OA
ATOM     17  H   LIG d   1      -0.030  76.350 114.021  0.00  0.00     0.149 HD
ENDBRANCH   6  13
BRANCH   5  18
ATOM     18  N   LIG d   1      -2.049  76.574 111.384  0.00  0.00     0.381 N 
ATOM     19  H   LIG d   1      -2.214  76.931 110.465  0.00  0.00    -0.090 HD
ATOM     20  H   LIG d   1      -2.889  76.126 111.705  0.00  0.00    -0.090 HD
ATOM     21  H   LIG d   1      -1.300  75.918 111.364  0.00  0.00    -0.090 HD
ENDBRANCH   5  18
BRANCH   3  22
ATOM     22  C   LIG d   1      -2.749  81.214 112.342  0.00  0.00     0.382 C 
ATOM     23  O   LIG d   1      -1.784  81.951 112.026  0.00  0.00    -0.241 OA
ATOM     24  O   LIG d   1      -3.911  81.654 112.254  0.00  0.00    -0.241 OA
ENDBRANCH   3  22
TORSDOF 7
ENDMDL
MODEL 3
REMARK VINA RESULT:      -5.1      2.456      4.687
REMARK  7 active torsions:
REMARK  status: ('A' for Active; 'I' for Inactive)
REMARK    1  A    between atoms: C_2  and  C_3 
REMARK    2  A    between atoms: C_3  and  O_6 
REMARK    3  A    between atoms: C_3  and  C_4 
REMARK    4  A    between atoms: C_7  and  O_6 
REMARK    5  A    between atoms: C_9  and  C_10 
REMARK    6  A    between atoms: N_15  and  C_14 
REMARK    7  A    between atoms: N_20  and  C_19 
REMARK       I    between atoms: C_22  and  N_20 
ROOT
ATOM      1  C   LIG d   1      -1.799  79.766 114.101  0.00  0.00     0.161 C 
ATOM      2  C   LIG d   1      -2.501  78.584 114.388  0.00  0.00     0.016 C 
ATOM      3  C   LIG d   1      -2.805  77.604 113.415  0.00  0.00     0.038 C 
ATOM      4  C   LIG d   1      -2.293  77.670 112.110  0.00  0.00     0.028 C 
ATOM      5  C   LIG d   1      -2.004  79.093 111.644  0.00  0.00    -0.047 C 
ATOM      6  C   LIG d   1      -1.136  79.803 112.708  0.00  0.00     0.091 C 
ENDROOT
BRANCH   1   7
ATOM      7  O   LIG d   1      -0.819  80.015 115.129  0.00  0.00    -0.368 OA
BRANCH   7   8
ATOM      8  C   LIG d   1      -1.087  79.419 116.422  0.00  0.00     0.119 C 
BRANCH   8   9
ATOM      9  C   LIG d   1      -1.180  80.564 117.449  0.00  0.00     0.028 C 
ATOM     10  C   LIG d   1      -2.445  80.472 118.318  0.00  0.00     0.006 C 
ENDBRANCH   8   9
BRANCH   8  11
ATOM     11  C   LIG d   1       0.084  78.549 116.888  0.00  0.00     0.028 C 
ATOM     12  C   LIG d   1      -0.266  77.053 116.935  0.00  0.00     0.006 C 
ENDBRANCH   8  11
ENDBRANCH   7   8
ENDBRANCH   1   7
BRANCH   6  13
ATOM     13  N   LIG d   1      -0.878  81.227 112.370  0.00  0.00    -0.311 N 
ATOM     14  C   LIG d   1       0.195  81.638 111.695  0.00  0.00     0.210 C 
ATOM     15  C   LIG d   1       0.277  83.151 111.471  0.00  0.00     0.109 C 
ATOM     16  O   LIG d   1       1.069  80.890 111.232  0.00  0.00    -0.276 OA
ATOM     17  H   LIG d   1      -1.552  81.899 112.680  0.00  0.00     0.149 HD
ENDBRANCH   6  13
BRANCH   5  18
ATOM     18  N   LIG d   1      -1.348  79.006 110.326  0.00  0.00     0.381 N 
ATOM     19  H   LIG d   1      -1.760  79.667 109.698  0.00  0.00    -0.090 HD
ATOM     20  H   LIG d   1      -1.490  78.084 109.952  0.00  0.00    -0.090 HD
ATOM     21  H   LIG d   1      -0.373  79.188 110.418  0.00  0.00    -0.090 HD
ENDBRANCH   5  18
BRANCH   3  22
ATOM     22  C   LIG d   1      -3.664  76.563 113.733  0.00  0.00     0.382 C 
ATOM     23  O   LIG d   1      -3.379  75.780 114.671  0.00  0.00    -0.241 OA
ATOM     24  O   LIG d   1      -4.697  76.370 113.065  0.00  0.00    -0.241 OA
ENDBRANCH   3  22
TORSDOF 7
ENDMDL
MODEL 4
REMARK VINA RESULT:      -4.8      1.393      2.094
REMARK  7 active torsions:
REMARK  status: ('A' for Active; 'I' for Inactive)
REMARK    1  A    between atoms: C_2  and  C_3 
REMARK    2  A    between atoms: C_3  and  O_6 
REMARK    3  A    between atoms: C_3  and  C_4 
REMARK    4  A    between atoms: C_7  and  O_6 
REMARK    5  A    between atoms: C_9  and  C_10 
REMARK    6  A    between atoms: N_15  and  C_14 
REMARK    7  A    between atoms: N_20  and  C_19 
REMARK       I    between atoms: C_22  and  N_20 
ROOT
ATOM      1  C   LIG d   1      -2.838  78.581 115.142  0.00  0.00     0.161 C 
ATOM      2  C   LIG d   1      -2.918  79.785 114.423  0.00  0.00     0.016 C 
ATOM      3  C   LIG d   1      -2.643  79.886 113.040  0.00  0.00     0.038 C 
ATOM      4  C   LIG d   1      -2.414  78.753 112.245  0.00  0.00     0.028 C 
ATOM      5  C   LIG d   1      -1.826  77.578 113.020  0.00  0.00    -0.047 C 
ATOM      6  C   LIG d   1      -2.698  77.315 114.270  0.00  0.00     0.091 C 
ENDROOT
BRANCH   1   7
ATOM      7  O   LIG d   1      -3.973  78.460 116.021  0.00  0.00    -0.368 OA
BRANCH   7   8
ATOM      8  C   LIG d   1      -3.681  78.439 117.440  0.00  0.00     0.119 C 
BRANCH   8   9
ATOM      9  C   LIG d   1      -4.375  77.199 118.037  0.00  0.00     0.028 C 
ATOM     10  C   LIG d   1      -5.834  77.062 117.570  0.00  0.00     0.006 C 
ENDBRANCH   8   9
BRANCH   8  11
ATOM     11  C   LIG d   1      -4.307  79.639 118.156  0.00  0.00     0.028 C 
ATOM     12  C   LIG d   1      -3.282  80.733 118.493  0.00  0.00     0.006 C 
ENDBRANCH   8  11
ENDBRANCH   7   8
ENDBRANCH   1   7
BRANCH   6  13
ATOM     13  N   LIG d   1      -2.145  76.236 115.129  0.00  0.00    -0.311 N 
ATOM     14  C   LIG d   1      -2.844  75.164 115.500  0.00  0.00     0.210 C 
ATOM     15  C   LIG d   1      -2.091  74.183 116.404  0.00  0.00     0.109 C 
ATOM     16  O   LIG d   1      -4.005  74.918 115.141  0.00  0.00    -0.276 OA
ATOM     17  H   LIG d   1      -1.200  76.340 115.441  0.00  0.00     0.149 HD
ENDBRANCH   6  13
BRANCH   5  18
ATOM     18  N   LIG d   1      -1.768  76.424 112.103  0.00  0.00     0.381 N 
ATOM     19  H   LIG d   1      -1.048  76.567 111.424  0.00  0.00    -0.090 HD
ATOM     20  H   LIG d   1      -2.646  76.347 111.621  0.00  0.00    -0.090 HD
ATOM     21  H   LIG d   1      -1.588  75.589 112.617  0.00  0.00    -0.090 HD
ENDBRANCH   5  18
BRANCH   3  22
ATOM     22  C   LIG d   1      -2.556  81.135 112.446  0.00  0.00     0.382 C 
ATOM     23  O   LIG d   1      -1.435  81.672 112.274  0.00  0.00    -0.241 OA
ATOM     24  O   LIG d   1      -3.587  81.753 112.119  0.00  0.00    -0.241 OA
ENDBRANCH   3  22
TORSDOF 7
ENDMDL
MODEL 5
REMARK VINA RESULT:      -4.7      2.807      4.288
REMARK  7 active torsions:
REMARK  status: ('A' for Active; 'I' for Inactive)
REMARK    1  A    between atoms: C_2  and  C_3 
REMARK    2  A    between atoms: C_3  and  O_6 
REMARK    3  A    between atoms: C_3  and  C_4 
REMARK    4  A    between atoms: C_7  and  O_6 
REMARK    5  A    between atoms: C_9  and  C_10 
REMARK    6  A    between atoms: N_15  and  C_14 
REMARK    7  A    between atoms: N_20  and  C_19 
REMARK       I    between atoms: C_22  and  N_20 
ROOT
ATOM      1  C   LIG d   1      -2.539  77.423 114.775  0.00  0.00     0.161 C 
ATOM      2  C   LIG d   1      -3.169  76.870 113.648  0.00  0.00     0.016 C 
ATOM      3  C   LIG d   1      -3.259  77.533 112.403  0.00  0.00     0.038 C 
ATOM      4  C   LIG d   1      -2.587  78.740 112.155  0.00  0.00     0.028 C 
ATOM      5  C   LIG d   1      -2.362  79.576 113.410  0.00  0.00    -0.047 C 
ATOM      6  C   LIG d   1      -1.704  78.689 114.493  0.00  0.00     0.091 C 
ENDROOT
BRANCH   1   7
ATOM      7  O   LIG d   1      -1.728  76.422 115.421  0.00  0.00    -0.368 OA
BRANCH   7   8
ATOM      8  C   LIG d   1      -2.222  75.920 116.687  0.00  0.00     0.119 C 
BRANCH   8   9
ATOM      9  C   LIG d   1      -1.029  75.867 117.662  0.00  0.00     0.028 C 
ATOM     10  C   LIG d   1       0.248  76.477 117.059  0.00  0.00     0.006 C 
ENDBRANCH   8   9
BRANCH   8  11
ATOM     11  C   LIG d   1      -2.708  74.473 116.562  0.00  0.00     0.028 C 
ATOM     12  C   LIG d   1      -4.240  74.355 116.584  0.00  0.00     0.006 C 
ENDBRANCH   8  11
ENDBRANCH   7   8
ENDBRANCH   1   7
BRANCH   6  13
ATOM     13  N   LIG d   1      -1.526  79.407 115.782  0.00  0.00    -0.311 N 
ATOM     14  C   LIG d   1      -0.425  80.089 116.095  0.00  0.00     0.210 C 
ATOM     15  C   LIG d   1      -0.440  80.738 117.483  0.00  0.00     0.109 C 
ATOM     16  O   LIG d   1       0.548  80.246 115.342  0.00  0.00    -0.276 OA
ATOM     17  H   LIG d   1      -2.279  79.358 116.439  0.00  0.00     0.149 HD
ENDBRANCH   6  13
BRANCH   5  18
ATOM     18  N   LIG d   1      -1.533  80.735 113.031  0.00  0.00     0.381 N 
ATOM     19  H   LIG d   1      -1.107  81.129 113.846  0.00  0.00    -0.090 HD
ATOM     20  H   LIG d   1      -2.123  81.434 112.614  0.00  0.00    -0.090 HD
ATOM     21  H   LIG d   1      -0.830  80.454 112.383  0.00  0.00    -0.090 HD
ENDBRANCH   5  18
BRANCH   3  22
ATOM     22  C   LIG d   1      -4.061  77.008 111.400  0.00  0.00     0.382 C 
ATOM     23  O   LIG d   1      -5.294  76.874 111.590  0.00  0.00    -0.241 OA
ATOM     24  O   LIG d   1      -3.560  76.626 110.326  0.00  0.00    -0.241 OA
ENDBRANCH   3  22
TORSDOF 7
ENDMDL
MODEL 6
REMARK VINA RESULT:      -4.6      1.982      2.392
REMARK  7 active torsions:
REMARK  status: ('A' for Active; 'I' for Inactive)
REMARK    1  A    between atoms: C_2  and  C_3 
REMARK    2  A    between atoms: C_3  and  O_6 
REMARK    3  A    between atoms: C_3  and  C_4 
REMARK    4  A    between atoms: C_7  and  O_6 
REMARK    5  A    between atoms: C_9  and  C_10 
REMARK    6  A    between atoms: N_15  and  C_14 
REMARK    7  A    between atoms: N_20  and  C_19 
REMARK       I    between atoms: C_22  and  N_20 
ROOT
ATOM      1  C   LIG d   1      -2.523  78.652 114.452  0.00  0.00     0.161 C 
ATOM      2  C   LIG d   1      -1.841  79.742 113.885  0.00  0.00     0.016 C 
ATOM      3  C   LIG d   1      -1.557  79.850 112.504  0.00  0.00     0.038 C 
ATOM      4  C   LIG d   1      -2.072  78.941 111.569  0.00  0.00     0.028 C 
ATOM      5  C   LIG d   1      -2.336  77.556 112.151  0.00  0.00    -0.047 C 
ATOM      6  C   LIG d   1      -3.189  77.706 113.432  0.00  0.00     0.091 C 
ENDROOT
BRANCH   1   7
ATOM      7  O   LIG d   1      -3.495  79.126 115.405  0.00  0.00    -0.368 OA
BRANCH   7   8
ATOM      8  C   LIG d   1      -3.277  78.738 116.784  0.00  0.00     0.119 C 
BRANCH   8   9
ATOM      9  C   LIG d   1      -3.019  80.025 117.591  0.00  0.00     0.028 C 
ATOM     10  C   LIG d   1      -1.521  80.351 117.714  0.00  0.00     0.006 C 
ENDBRANCH   8   9
BRANCH   8  11
ATOM     11  C   LIG d   1      -2.001  77.904 116.933  0.00  0.00     0.028 C 
ATOM     12  C   LIG d   1      -2.255  76.540 117.595  0.00  0.00     0.006 C 
ENDBRANCH   8  11
ENDBRANCH   7   8
ENDBRANCH   1   7
BRANCH   6  13
ATOM     13  N   LIG d   1      -3.423  76.405 114.112  0.00  0.00    -0.311 N 
ATOM     14  C   LIG d   1      -4.608  76.030 114.589  0.00  0.00     0.210 C 
ATOM     15  C   LIG d   1      -4.626  74.658 115.271  0.00  0.00     0.109 C 
ATOM     16  O   LIG d   1      -5.654  76.688 114.483  0.00  0.00    -0.276 OA
ATOM     17  H   LIG d   1      -2.635  75.795 114.213  0.00  0.00     0.149 HD
ENDBRANCH   6  13
BRANCH   5  18
ATOM     18  N   LIG d   1      -2.998  76.752 111.106  0.00  0.00     0.381 N 
ATOM     19  H   LIG d   1      -2.442  75.947 110.896  0.00  0.00    -0.090 HD
ATOM     20  H   LIG d   1      -3.079  77.306 110.272  0.00  0.00    -0.090 HD
ATOM     21  H   LIG d   1      -3.902  76.470 111.415  0.00  0.00    -0.090 HD
ENDBRANCH   5  18
BRANCH   3  22
ATOM     22  C   LIG d   1      -0.716  80.855 112.052  0.00  0.00     0.382 C 
ATOM     23  O   LIG d   1       0.331  81.129 112.687  0.00  0.00    -0.241 OA
ATOM     24  O   LIG d   1      -1.014  81.522 111.043  0.00  0.00    -0.241 OA
ENDBRANCH   3  22
TORSDOF 7
ENDMDL
MODEL 7
REMARK VINA RESULT:      -4.3      2.001      2.518
REMARK  7 active torsions:
REMARK  status: ('A' for Active; 'I' for Inactive)
REMARK    1  A    between atoms: C_2  and  C_3 
REMARK    2  A    between atoms: C_3  and  O_6 
REMARK    3  A    between atoms: C_3  and  C_4 
REMARK    4  A    between atoms: C_7  and  O_6 
REMARK    5  A    between atoms: C_9  and  C_10 
REMARK    6  A    between atoms: N_15  and  C_14 
REMARK    7  A    between atoms: N_20  and  C_19 
REMARK       I    between atoms: C_22  and  N_20 
ROOT
ATOM      1  C   LIG d   1      -1.720  78.680 114.759  0.00  0.00     0.161 C 
ATOM      2  C   LIG d   1      -1.106  79.702 114.016  0.00  0.00     0.016 C 
ATOM      3  C   LIG d   1      -1.332  79.904 112.635  0.00  0.00     0.038 C 
ATOM      4  C   LIG d   1      -2.311  79.187 111.932  0.00  0.00     0.028 C 
ATOM      5  C   LIG d   1      -2.593  77.809 112.521  0.00  0.00    -0.047 C 
ATOM      6  C   LIG d   1      -2.875  77.958 114.034  0.00  0.00     0.091 C 
ENDROOT
BRANCH   1   7
ATOM      7  O   LIG d   1      -2.171  79.201 116.025  0.00  0.00    -0.368 OA
BRANCH   7   8
ATOM      8  C   LIG d   1      -1.686  78.515 117.206  0.00  0.00     0.119 C 
BRANCH   8   9
ATOM      9  C   LIG d   1      -2.895  78.276 118.132  0.00  0.00     0.028 C 
ATOM     10  C   LIG d   1      -4.206  78.817 117.537  0.00  0.00     0.006 C 
ENDBRANCH   8   9
BRANCH   8  11
ATOM     11  C   LIG d   1      -0.727  79.398 118.009  0.00  0.00     0.028 C 
ATOM     12  C   LIG d   1      -1.023  80.898 117.849  0.00  0.00     0.006 C 
ENDBRANCH   8  11
ENDBRANCH   7   8
ENDBRANCH   1   7
BRANCH   6  13
ATOM     13  N   LIG d   1      -3.078  76.648 114.705  0.00  0.00    -0.311 N 
ATOM     14  C   LIG d   1      -4.279  76.132 114.957  0.00  0.00     0.210 C 
ATOM     15  C   LIG d   1      -4.264  74.779 115.676  0.00  0.00     0.109 C 
ATOM     16  O   LIG d   1      -5.356  76.651 114.626  0.00  0.00    -0.276 OA
ATOM     17  H   LIG d   1      -2.257  76.144 114.980  0.00  0.00     0.149 HD
ENDBRANCH   6  13
BRANCH   5  18
ATOM     18  N   LIG d   1      -3.726  77.229 111.777  0.00  0.00     0.381 N 
ATOM     19  H   LIG d   1      -3.730  76.234 111.886  0.00  0.00    -0.090 HD
ATOM     20  H   LIG d   1      -3.615  77.438 110.800  0.00  0.00    -0.090 HD
ATOM     21  H   LIG d   1      -4.584  77.610 112.110  0.00  0.00    -0.090 HD
ENDBRANCH   5  18
BRANCH   3  22
ATOM     22  C   LIG d   1      -0.546  80.806 111.935  0.00  0.00     0.382 C 
ATOM     23  O   LIG d   1      -0.814  81.075 110.739  0.00  0.00    -0.241 OA
ATOM     24  O   LIG d   1       0.454  81.321 112.470  0.00  0.00    -0.241 OA
ENDBRANCH   3  22
TORSDOF 7
ENDMDL
MODEL 8
REMARK VINA RESULT:      -4.3      2.704      3.916
REMARK  7 active torsions:
REMARK  status: ('A' for Active; 'I' for Inactive)
REMARK    1  A    between atoms: C_2  and  C_3 
REMARK    2  A    between atoms: C_3  and  O_6 
REMARK    3  A    between atoms: C_3  and  C_4 
REMARK    4  A    between atoms: C_7  and  O_6 
REMARK    5  A    between atoms: C_9  and  C_10 
REMARK    6  A    between atoms: N_15  and  C_14 
REMARK    7  A    between atoms: N_20  and  C_19 
REMARK       I    between atoms: C_22  and  N_20 
ROOT
ATOM      1  C   LIG d   1      -2.764  77.165 115.097  0.00  0.00     0.161 C 
ATOM      2  C   LIG d   1      -2.987  77.930 113.940  0.00  0.00     0.016 C 
ATOM      3  C   LIG d   1      -2.192  79.041 113.577  0.00  0.00     0.038 C 
ATOM      4  C   LIG d   1      -1.019  79.373 114.271  0.00  0.00     0.028 C 
ATOM      5  C   LIG d   1      -1.038  78.938 115.733  0.00  0.00    -0.047 C 
ATOM      6  C   LIG d   1      -1.422  77.443 115.807  0.00  0.00     0.091 C 
ENDROOT
BRANCH   1   7
ATOM      7  O   LIG d   1      -2.884  75.763 114.786  0.00  0.00    -0.368 OA
BRANCH   7   8
ATOM      8  C   LIG d   1      -3.971  75.057 115.434  0.00  0.00     0.119 C 
BRANCH   8   9
ATOM      9  C   LIG d   1      -4.925  76.116 116.022  0.00  0.00     0.028 C 
ATOM     10  C   LIG d   1      -6.307  76.099 115.348  0.00  0.00     0.006 C 
ENDBRANCH   8   9
BRANCH   8  11
ATOM     11  C   LIG d   1      -3.473  74.249 116.636  0.00  0.00     0.028 C 
ATOM     12  C   LIG d   1      -4.223  74.586 117.934  0.00  0.00     0.006 C 
ENDBRANCH   8  11
ENDBRANCH   7   8
ENDBRANCH   1   7
BRANCH   6  13
ATOM     13  N   LIG d   1      -1.546  76.958 117.207  0.00  0.00    -0.311 N 
ATOM     14  C   LIG d   1      -0.563  76.336 117.856  0.00  0.00     0.210 C 
ATOM     15  C   LIG d   1      -0.906  75.901 119.284  0.00  0.00     0.109 C 
ATOM     16  O   LIG d   1       0.570  76.131 117.396  0.00  0.00    -0.276 OA
ATOM     17  H   LIG d   1      -2.422  77.111 117.667  0.00  0.00     0.149 HD
ENDBRANCH   6  13
BRANCH   5  18
ATOM     18  N   LIG d   1       0.295  79.221 116.298  0.00  0.00     0.381 N 
ATOM     19  H   LIG d   1       0.623  80.107 115.967  0.00  0.00    -0.090 HD
ATOM     20  H   LIG d   1       0.936  78.512 115.990  0.00  0.00    -0.090 HD
ATOM     21  H   LIG d   1       0.249  79.227 117.294  0.00  0.00    -0.090 HD
ENDBRANCH   5  18
BRANCH   3  22
ATOM     22  C   LIG d   1      -2.592  79.859 112.530  0.00  0.00     0.382 C 
ATOM     23  O   LIG d   1      -3.493  80.712 112.710  0.00  0.00    -0.241 OA
ATOM     24  O   LIG d   1      -2.092  79.723 111.397  0.00  0.00    -0.241 OA
ENDBRANCH   3  22
TORSDOF 7
ENDMDL
MODEL 9
REMARK VINA RESULT:      -4.3      2.383      2.888
REMARK  7 active torsions:
REMARK  status: ('A' for Active; 'I' for Inactive)
REMARK    1  A    between atoms: C_2  and  C_3 
REMARK    2  A    between atoms: C_3  and  O_6 
REMARK    3  A    between atoms: C_3  and  C_4 
REMARK    4  A    between atoms: C_7  and  O_6 
REMARK    5  A    between atoms: C_9  and  C_10 
REMARK    6  A    between atoms: N_15  and  C_14 
REMARK    7  A    between atoms: N_20  and  C_19 
REMARK       I    between atoms: C_22  and  N_20 
ROOT
ATOM      1  C   LIG d   1      -3.038  77.801 115.980  0.00  0.00     0.161 C 
ATOM      2  C   LIG d   1      -2.079  78.805 115.763  0.00  0.00     0.016 C 
ATOM      3  C   LIG d   1      -1.622  79.179 114.479  0.00  0.00     0.038 C 
ATOM      4  C   LIG d   1      -2.208  78.677 113.307  0.00  0.00     0.028 C 
ATOM      5  C   LIG d   1      -2.826  77.294 113.484  0.00  0.00    -0.047 C 
ATOM      6  C   LIG d   1      -3.769  77.320 114.709  0.00  0.00     0.091 C 
ENDROOT
BRANCH   1   7
ATOM      7  O   LIG d   1      -3.990  78.241 116.969  0.00  0.00    -0.368 OA
BRANCH   7   8
ATOM      8  C   LIG d   1      -4.105  79.673 117.151  0.00  0.00     0.119 C 
BRANCH   8   9
ATOM      9  C   LIG d   1      -3.784  79.980 118.627  0.00  0.00     0.028 C 
ATOM     10  C   LIG d   1      -2.557  80.893 118.783  0.00  0.00     0.006 C 
ENDBRANCH   8   9
BRANCH   8  11
ATOM     11  C   LIG d   1      -5.546  80.148 116.942  0.00  0.00     0.028 C 
ATOM     12  C   LIG d   1      -6.567  79.321 117.738  0.00  0.00     0.006 C 
ENDBRANCH   8  11
ENDBRANCH   7   8
ENDBRANCH   1   7
BRANCH   6  13
ATOM     13  N   LIG d   1      -4.352  75.985 115.004  0.00  0.00    -0.311 N 
ATOM     14  C   LIG d   1      -5.539  75.586 114.549  0.00  0.00     0.210 C 
ATOM     15  C   LIG d   1      -5.960  74.180 114.988  0.00  0.00     0.109 C 
ATOM     16  O   LIG d   1      -6.269  76.252 113.799  0.00  0.00    -0.276 OA
ATOM     17  H   LIG d   1      -3.813  75.369 115.580  0.00  0.00     0.149 HD
ENDBRANCH   6  13
BRANCH   5  18
ATOM     18  N   LIG d   1      -3.520  76.952 112.228  0.00  0.00     0.381 N 
ATOM     19  H   LIG d   1      -3.643  75.961 112.168  0.00  0.00    -0.090 HD
ATOM     20  H   LIG d   1      -2.952  77.247 111.453  0.00  0.00    -0.090 HD
ATOM     21  H   LIG d   1      -4.405  77.407 112.192  0.00  0.00    -0.090 HD
ENDBRANCH   5  18
BRANCH   3  22
ATOM     22  C   LIG d   1      -0.539  80.037 114.358  0.00  0.00     0.382 C 
ATOM     23  O   LIG d   1      -0.279  80.567 113.251  0.00  0.00    -0.241 OA
ATOM     24  O   LIG d   1       0.207  80.254 115.332  0.00  0.00    -0.241 OA
ENDBRANCH   3  22
TORSDOF 7
ENDMDL
