MODEL 1
REMARK VINA RESULT:      -5.6      0.000      0.000
REMARK  7 active torsions:
REMARK  status: ('A' for Active; 'I' for Inactive)
REMARK    1  A    between atoms: C_2  and  C_3 
REMARK    2  A    between atoms: C_3  and  O_6 
REMARK    3  A    between atoms: C_3  and  C_4 
REMARK    4  A    between atoms: C_7  and  O_6 
REMARK    5  A    between atoms: C_9  and  C_10 
REMARK    6  A    between atoms: N_15  and  C_14 
REMARK    7  A    between atoms: N_20  and  C_19 
REMARK       I    between atoms: C_22  and  N_20 
ROOT
ATOM      1  C   LIG d   1      -0.204  80.691 111.221  0.00  0.00     0.161 C 
ATOM      2  C   LIG d   1      -0.866  79.472 111.001  0.00  0.00     0.016 C 
ATOM      3  C   LIG d   1      -1.910  78.993 111.826  0.00  0.00     0.038 C 
ATOM      4  C   LIG d   1      -2.468  79.777 112.846  0.00  0.00     0.028 C 
ATOM      5  C   LIG d   1      -1.497  80.802 113.423  0.00  0.00    -0.047 C 
ATOM      6  C   LIG d   1      -0.874  81.612 112.263  0.00  0.00     0.091 C 
ENDROOT
BRANCH   1   7
ATOM      7  O   LIG d   1      -0.036  81.389 109.971  0.00  0.00    -0.368 OA
BRANCH   7   8
ATOM      8  C   LIG d   1       1.322  81.492 109.477  0.00  0.00     0.119 C 
BRANCH   8   9
ATOM      9  C   LIG d   1       2.213  80.623 110.385  0.00  0.00     0.028 C 
ATOM     10  C   LIG d   1       3.380  79.978 109.619  0.00  0.00     0.006 C 
ENDBRANCH   8   9
BRANCH   8  11
ATOM     11  C   LIG d   1       1.861  82.918 109.624  0.00  0.00     0.028 C 
ATOM     12  C   LIG d   1       0.776  83.989 109.431  0.00  0.00     0.006 C 
ENDBRANCH   8  11
ENDBRANCH   7   8
ENDBRANCH   1   7
BRANCH   6  13
ATOM     13  N   LIG d   1       0.151  82.580 112.733  0.00  0.00    -0.311 N 
ATOM     14  C   LIG d   1      -0.124  83.845 113.045  0.00  0.00     0.210 C 
ATOM     15  C   LIG d   1       1.082  84.678 113.489  0.00  0.00     0.109 C 
ATOM     16  O   LIG d   1      -1.258  84.348 113.027  0.00  0.00    -0.276 OA
ATOM     17  H   LIG d   1       1.092  82.247 112.807  0.00  0.00     0.149 HD
ENDBRANCH   6  13
BRANCH   5  18
ATOM     18  N   LIG d   1      -2.247  81.640 114.376  0.00  0.00     0.381 N 
ATOM     19  H   LIG d   1      -3.225  81.596 114.170  0.00  0.00    -0.090 HD
ATOM     20  H   LIG d   1      -1.947  82.594 114.277  0.00  0.00    -0.090 HD
ATOM     21  H   LIG d   1      -2.083  81.328 115.308  0.00  0.00    -0.090 HD
ENDBRANCH   5  18
BRANCH   3  22
ATOM     22  C   LIG d   1      -2.379  77.699 111.659  0.00  0.00     0.382 C 
ATOM     23  O   LIG d   1      -3.515  77.383 112.087  0.00  0.00    -0.241 OA
ATOM     24  O   LIG d   1      -1.662  76.831 111.126  0.00  0.00    -0.241 OA
ENDBRANCH   3  22
TORSDOF 7
ENDMDL
MODEL 2
REMARK VINA RESULT:      -5.5      2.100      4.185
REMARK  7 active torsions:
REMARK  status: ('A' for Active; 'I' for Inactive)
REMARK    1  A    between atoms: C_2  and  C_3 
REMARK    2  A    between atoms: C_3  and  O_6 
REMARK    3  A    between atoms: C_3  and  C_4 
REMARK    4  A    between atoms: C_7  and  O_6 
REMARK    5  A    between atoms: C_9  and  C_10 
REMARK    6  A    between atoms: N_15  and  C_14 
REMARK    7  A    between atoms: N_20  and  C_19 
REMARK       I    between atoms: C_22  and  N_20 
ROOT
ATOM      1  C   LIG d   1      -1.472  80.488 112.395  0.00  0.00     0.161 C 
ATOM      2  C   LIG d   1      -2.289  79.534 113.024  0.00  0.00     0.016 C 
ATOM      3  C   LIG d   1      -2.351  78.179 112.626  0.00  0.00     0.038 C 
ATOM      4  C   LIG d   1      -1.480  77.648 111.662  0.00  0.00     0.028 C 
ATOM      5  C   LIG d   1      -0.993  78.682 110.652  0.00  0.00    -0.047 C 
ATOM      6  C   LIG d   1      -0.433  79.904 111.415  0.00  0.00     0.091 C 
ENDROOT
BRANCH   1   7
ATOM      7  O   LIG d   1      -0.820  81.304 113.389  0.00  0.00    -0.368 OA
BRANCH   7   8
ATOM      8  C   LIG d   1      -1.479  82.549 113.723  0.00  0.00     0.119 C 
BRANCH   8   9
ATOM      9  C   LIG d   1      -0.706  83.685 113.025  0.00  0.00     0.028 C 
ATOM     10  C   LIG d   1       0.810  83.602 113.276  0.00  0.00     0.006 C 
ENDBRANCH   8   9
BRANCH   8  11
ATOM     11  C   LIG d   1      -1.376  82.850 115.221  0.00  0.00     0.028 C 
ATOM     12  C   LIG d   1      -0.674  81.731 116.006  0.00  0.00     0.006 C 
ENDBRANCH   8  11
ENDBRANCH   7   8
ENDBRANCH   1   7
BRANCH   6  13
ATOM     13  N   LIG d   1      -0.012  80.998 110.501  0.00  0.00    -0.311 N 
ATOM     14  C   LIG d   1       1.238  81.450 110.426  0.00  0.00     0.210 C 
ATOM     15  C   LIG d   1       1.453  82.597 109.434  0.00  0.00     0.109 C 
ATOM     16  O   LIG d   1       2.196  80.989 111.065  0.00  0.00    -0.276 OA
ATOM     17  H   LIG d   1      -0.720  81.408 109.924  0.00  0.00     0.149 HD
ENDBRANCH   6  13
BRANCH   5  18
ATOM     18  N   LIG d   1       0.011  78.026 109.793  0.00  0.00     0.381 N 
ATOM     19  H   LIG d   1       0.577  78.719 109.345  0.00  0.00    -0.090 HD
ATOM     20  H   LIG d   1      -0.465  77.499 109.082  0.00  0.00    -0.090 HD
ATOM     21  H   LIG d   1       0.583  77.421 110.339  0.00  0.00    -0.090 HD
ENDBRANCH   5  18
BRANCH   3  22
ATOM     22  C   LIG d   1      -3.320  77.347 113.167  0.00  0.00     0.382 C 
ATOM     23  O   LIG d   1      -4.180  76.819 112.422  0.00  0.00    -0.241 OA
ATOM     24  O   LIG d   1      -3.371  77.153 114.396  0.00  0.00    -0.241 OA
ENDBRANCH   3  22
TORSDOF 7
ENDMDL
MODEL 3
REMARK VINA RESULT:      -5.5      2.170      4.096
REMARK  7 active torsions:
REMARK  status: ('A' for Active; 'I' for Inactive)
REMARK    1  A    between atoms: C_2  and  C_3 
REMARK    2  A    between atoms: C_3  and  O_6 
REMARK    3  A    between atoms: C_3  and  C_4 
REMARK    4  A    between atoms: C_7  and  O_6 
REMARK    5  A    between atoms: C_9  and  C_10 
REMARK    6  A    between atoms: N_15  and  C_14 
REMARK    7  A    between atoms: N_20  and  C_19 
REMARK       I    between atoms: C_22  and  N_20 
ROOT
ATOM      1  C   LIG d   1      -1.778  80.475 112.529  0.00  0.00     0.161 C 
ATOM      2  C   LIG d   1      -2.580  79.480 113.111  0.00  0.00     0.016 C 
ATOM      3  C   LIG d   1      -2.580  78.131 112.686  0.00  0.00     0.038 C 
ATOM      4  C   LIG d   1      -1.659  77.652 111.742  0.00  0.00     0.028 C 
ATOM      5  C   LIG d   1      -1.177  78.722 110.769  0.00  0.00    -0.047 C 
ATOM      6  C   LIG d   1      -0.687  79.948 111.573  0.00  0.00     0.091 C 
ENDROOT
BRANCH   1   7
ATOM      7  O   LIG d   1      -1.189  81.293 113.559  0.00  0.00    -0.368 OA
BRANCH   7   8
ATOM      8  C   LIG d   1      -0.001  80.761 114.194  0.00  0.00     0.119 C 
BRANCH   8   9
ATOM      9  C   LIG d   1      -0.303  80.618 115.698  0.00  0.00     0.028 C 
ATOM     10  C   LIG d   1      -0.622  79.168 116.097  0.00  0.00     0.006 C 
ENDBRANCH   8   9
BRANCH   8  11
ATOM     11  C   LIG d   1       1.166  81.750 114.107  0.00  0.00     0.028 C 
ATOM     12  C   LIG d   1       0.734  83.141 113.620  0.00  0.00     0.006 C 
ENDBRANCH   8  11
ENDBRANCH   7   8
ENDBRANCH   1   7
BRANCH   6  13
ATOM     13  N   LIG d   1      -0.276  81.075 110.695  0.00  0.00    -0.311 N 
ATOM     14  C   LIG d   1       0.984  81.291 110.321  0.00  0.00     0.210 C 
ATOM     15  C   LIG d   1       1.192  82.520 109.430  0.00  0.00     0.109 C 
ATOM     16  O   LIG d   1       1.944  80.563 110.615  0.00  0.00    -0.276 OA
ATOM     17  H   LIG d   1      -0.996  81.697 110.384  0.00  0.00     0.149 HD
ENDBRANCH   6  13
BRANCH   5  18
ATOM     18  N   LIG d   1      -0.121  78.121 109.932  0.00  0.00     0.381 N 
ATOM     19  H   LIG d   1       0.530  78.825 109.650  0.00  0.00    -0.090 HD
ATOM     20  H   LIG d   1      -0.543  77.733 109.106  0.00  0.00    -0.090 HD
ATOM     21  H   LIG d   1       0.351  77.405 110.440  0.00  0.00    -0.090 HD
ENDBRANCH   5  18
BRANCH   3  22
ATOM     22  C   LIG d   1      -3.535  77.255 113.178  0.00  0.00     0.382 C 
ATOM     23  O   LIG d   1      -3.476  76.868 114.370  0.00  0.00    -0.241 OA
ATOM     24  O   LIG d   1      -4.429  76.811 112.433  0.00  0.00    -0.241 OA
ENDBRANCH   3  22
TORSDOF 7
ENDMDL
MODEL 4
REMARK VINA RESULT:      -5.2      4.676      6.601
REMARK  7 active torsions:
REMARK  status: ('A' for Active; 'I' for Inactive)
REMARK    1  A    between atoms: C_2  and  C_3 
REMARK    2  A    between atoms: C_3  and  O_6 
REMARK    3  A    between atoms: C_3  and  C_4 
REMARK    4  A    between atoms: C_7  and  O_6 
REMARK    5  A    between atoms: C_9  and  C_10 
REMARK    6  A    between atoms: N_15  and  C_14 
REMARK    7  A    between atoms: N_20  and  C_19 
REMARK       I    between atoms: C_22  and  N_20 
ROOT
ATOM      1  C   LIG d   1      -2.096  76.903 114.939  0.00  0.00     0.161 C 
ATOM      2  C   LIG d   1      -3.315  76.614 114.302  0.00  0.00     0.016 C 
ATOM      3  C   LIG d   1      -4.198  75.599 114.738  0.00  0.00     0.038 C 
ATOM      4  C   LIG d   1      -3.992  74.901 115.937  0.00  0.00     0.028 C 
ATOM      5  C   LIG d   1      -2.524  74.810 116.341  0.00  0.00    -0.047 C 
ATOM      6  C   LIG d   1      -1.907  76.227 116.313  0.00  0.00     0.091 C 
ENDROOT
BRANCH   1   7
ATOM      7  O   LIG d   1      -1.933  78.330 115.056  0.00  0.00    -0.368 OA
BRANCH   7   8
ATOM      8  C   LIG d   1      -1.170  78.973 114.005  0.00  0.00     0.119 C 
BRANCH   8   9
ATOM      9  C   LIG d   1      -0.613  80.291 114.577  0.00  0.00     0.028 C 
ATOM     10  C   LIG d   1      -1.325  81.527 114.003  0.00  0.00     0.006 C 
ENDBRANCH   8   9
BRANCH   8  11
ATOM     11  C   LIG d   1      -2.070  79.386 112.837  0.00  0.00     0.028 C 
ATOM     12  C   LIG d   1      -1.731  78.647 111.532  0.00  0.00     0.006 C 
ENDBRANCH   8  11
ENDBRANCH   7   8
ENDBRANCH   1   7
BRANCH   6  13
ATOM     13  N   LIG d   1      -0.452  76.217 116.614  0.00  0.00    -0.311 N 
ATOM     14  C   LIG d   1       0.046  76.408 117.834  0.00  0.00     0.210 C 
ATOM     15  C   LIG d   1       1.575  76.379 117.921  0.00  0.00     0.109 C 
ATOM     16  O   LIG d   1      -0.635  76.567 118.859  0.00  0.00    -0.276 OA
ATOM     17  H   LIG d   1       0.171  76.065 115.845  0.00  0.00     0.149 HD
ENDBRANCH   6  13
BRANCH   5  18
ATOM     18  N   LIG d   1      -2.467  74.180 117.673  0.00  0.00     0.381 N 
ATOM     19  H   LIG d   1      -1.775  74.636 118.234  0.00  0.00    -0.090 HD
ATOM     20  H   LIG d   1      -2.202  73.217 117.566  0.00  0.00    -0.090 HD
ATOM     21  H   LIG d   1      -3.357  74.240 118.117  0.00  0.00    -0.090 HD
ENDBRANCH   5  18
BRANCH   3  22
ATOM     22  C   LIG d   1      -5.282  75.247 113.948  0.00  0.00     0.382 C 
ATOM     23  O   LIG d   1      -6.101  74.387 114.355  0.00  0.00    -0.241 OA
ATOM     24  O   LIG d   1      -5.427  75.745 112.816  0.00  0.00    -0.241 OA
ENDBRANCH   3  22
TORSDOF 7
ENDMDL
MODEL 5
REMARK VINA RESULT:      -5.1      5.153      7.085
REMARK  7 active torsions:
REMARK  status: ('A' for Active; 'I' for Inactive)
REMARK    1  A    between atoms: C_2  and  C_3 
REMARK    2  A    between atoms: C_3  and  O_6 
REMARK    3  A    between atoms: C_3  and  C_4 
REMARK    4  A    between atoms: C_7  and  O_6 
REMARK    5  A    between atoms: C_9  and  C_10 
REMARK    6  A    between atoms: N_15  and  C_14 
REMARK    7  A    between atoms: N_20  and  C_19 
REMARK       I    between atoms: C_22  and  N_20 
ROOT
ATOM      1  C   LIG d   1      -1.166  76.250 115.175  0.00  0.00     0.161 C 
ATOM      2  C   LIG d   1      -2.406  76.126 114.527  0.00  0.00     0.016 C 
ATOM      3  C   LIG d   1      -3.554  75.576 115.142  0.00  0.00     0.038 C 
ATOM      4  C   LIG d   1      -3.580  75.249 116.506  0.00  0.00     0.028 C 
ATOM      5  C   LIG d   1      -2.209  74.887 117.068  0.00  0.00    -0.047 C 
ATOM      6  C   LIG d   1      -1.204  76.002 116.698  0.00  0.00     0.091 C 
ENDROOT
BRANCH   1   7
ATOM      7  O   LIG d   1      -0.594  77.542 114.893  0.00  0.00    -0.368 OA
BRANCH   7   8
ATOM      8  C   LIG d   1      -1.234  78.676 115.529  0.00  0.00     0.119 C 
BRANCH   8   9
ATOM      9  C   LIG d   1      -1.401  79.773 114.460  0.00  0.00     0.028 C 
ATOM     10  C   LIG d   1      -2.726  79.646 113.691  0.00  0.00     0.006 C 
ENDBRANCH   8   9
BRANCH   8  11
ATOM     11  C   LIG d   1      -0.336  79.291 116.606  0.00  0.00     0.028 C 
ATOM     12  C   LIG d   1      -0.046  80.780 116.361  0.00  0.00     0.006 C 
ENDBRANCH   8  11
ENDBRANCH   7   8
ENDBRANCH   1   7
BRANCH   6  13
ATOM     13  N   LIG d   1       0.180  75.686 117.137  0.00  0.00    -0.311 N 
ATOM     14  C   LIG d   1       0.706  76.129 118.277  0.00  0.00     0.210 C 
ATOM     15  C   LIG d   1       2.156  75.703 118.529  0.00  0.00     0.109 C 
ATOM     16  O   LIG d   1       0.100  76.808 119.120  0.00  0.00    -0.276 OA
ATOM     17  H   LIG d   1       0.733  75.114 116.528  0.00  0.00     0.149 HD
ENDBRANCH   6  13
BRANCH   5  18
ATOM     18  N   LIG d   1      -2.359  74.704 118.524  0.00  0.00     0.381 N 
ATOM     19  H   LIG d   1      -3.283  74.963 118.805  0.00  0.00    -0.090 HD
ATOM     20  H   LIG d   1      -1.706  75.304 118.996  0.00  0.00    -0.090 HD
ATOM     21  H   LIG d   1      -2.184  73.754 118.768  0.00  0.00    -0.090 HD
ENDBRANCH   5  18
BRANCH   3  22
ATOM     22  C   LIG d   1      -4.681  75.310 114.380  0.00  0.00     0.382 C 
ATOM     23  O   LIG d   1      -4.822  75.854 113.258  0.00  0.00    -0.241 OA
ATOM     24  O   LIG d   1      -5.581  74.569 114.819  0.00  0.00    -0.241 OA
ENDBRANCH   3  22
TORSDOF 7
ENDMDL
MODEL 6
REMARK VINA RESULT:      -5.0      2.284      5.553
REMARK  7 active torsions:
REMARK  status: ('A' for Active; 'I' for Inactive)
REMARK    1  A    between atoms: C_2  and  C_3 
REMARK    2  A    between atoms: C_3  and  O_6 
REMARK    3  A    between atoms: C_3  and  C_4 
REMARK    4  A    between atoms: C_7  and  O_6 
REMARK    5  A    between atoms: C_9  and  C_10 
REMARK    6  A    between atoms: N_15  and  C_14 
REMARK    7  A    between atoms: N_20  and  C_19 
REMARK       I    between atoms: C_22  and  N_20 
ROOT
ATOM      1  C   LIG d   1      -0.182  80.562 113.534  0.00  0.00     0.161 C 
ATOM      2  C   LIG d   1      -0.816  81.305 114.544  0.00  0.00     0.016 C 
ATOM      3  C   LIG d   1      -1.255  82.637 114.371  0.00  0.00     0.038 C 
ATOM      4  C   LIG d   1      -1.227  83.271 113.120  0.00  0.00     0.028 C 
ATOM      5  C   LIG d   1      -0.136  82.739 112.196  0.00  0.00    -0.047 C 
ATOM      6  C   LIG d   1      -0.243  81.198 112.129  0.00  0.00     0.091 C 
ENDROOT
BRANCH   1   7
ATOM      7  O   LIG d   1      -0.718  79.225 113.501  0.00  0.00    -0.368 OA
BRANCH   7   8
ATOM      8  C   LIG d   1      -2.149  79.107 113.692  0.00  0.00     0.119 C 
BRANCH   8   9
ATOM      9  C   LIG d   1      -2.422  77.720 114.308  0.00  0.00     0.028 C 
ATOM     10  C   LIG d   1      -1.184  77.137 115.011  0.00  0.00     0.006 C 
ENDBRANCH   8   9
BRANCH   8  11
ATOM     11  C   LIG d   1      -2.893  79.109 112.353  0.00  0.00     0.028 C 
ATOM     12  C   LIG d   1      -2.551  77.892 111.480  0.00  0.00     0.006 C 
ENDBRANCH   8  11
ENDBRANCH   7   8
ENDBRANCH   1   7
BRANCH   6  13
ATOM     13  N   LIG d   1       0.840  80.590 111.313  0.00  0.00    -0.311 N 
ATOM     14  C   LIG d   1       0.637  80.043 110.116  0.00  0.00     0.210 C 
ATOM     15  C   LIG d   1       1.886  79.455 109.453  0.00  0.00     0.109 C 
ATOM     16  O   LIG d   1      -0.454  80.017 109.526  0.00  0.00    -0.276 OA
ATOM     17  H   LIG d   1       1.763  80.596 111.702  0.00  0.00     0.149 HD
ENDBRANCH   6  13
BRANCH   5  18
ATOM     18  N   LIG d   1      -0.309  83.388 110.883  0.00  0.00     0.381 N 
ATOM     19  H   LIG d   1      -1.283  83.481 110.676  0.00  0.00    -0.090 HD
ATOM     20  H   LIG d   1       0.110  82.809 110.177  0.00  0.00    -0.090 HD
ATOM     21  H   LIG d   1       0.124  84.286 110.887  0.00  0.00    -0.090 HD
ENDBRANCH   5  18
BRANCH   3  22
ATOM     22  C   LIG d   1      -1.694  83.364 115.468  0.00  0.00     0.382 C 
ATOM     23  O   LIG d   1      -2.739  84.054 115.385  0.00  0.00    -0.241 OA
ATOM     24  O   LIG d   1      -1.034  83.374 116.524  0.00  0.00    -0.241 OA
ENDBRANCH   3  22
TORSDOF 7
ENDMDL
MODEL 7
REMARK VINA RESULT:      -4.9      2.709      4.701
REMARK  7 active torsions:
REMARK  status: ('A' for Active; 'I' for Inactive)
REMARK    1  A    between atoms: C_2  and  C_3 
REMARK    2  A    between atoms: C_3  and  O_6 
REMARK    3  A    between atoms: C_3  and  C_4 
REMARK    4  A    between atoms: C_7  and  O_6 
REMARK    5  A    between atoms: C_9  and  C_10 
REMARK    6  A    between atoms: N_15  and  C_14 
REMARK    7  A    between atoms: N_20  and  C_19 
REMARK       I    between atoms: C_22  and  N_20 
ROOT
ATOM      1  C   LIG d   1      -1.419  79.916 113.733  0.00  0.00     0.161 C 
ATOM      2  C   LIG d   1      -1.911  78.740 114.324  0.00  0.00     0.016 C 
ATOM      3  C   LIG d   1      -2.214  77.569 113.591  0.00  0.00     0.038 C 
ATOM      4  C   LIG d   1      -1.901  77.444 112.230  0.00  0.00     0.028 C 
ATOM      5  C   LIG d   1      -1.871  78.778 111.490  0.00  0.00    -0.047 C 
ATOM      6  C   LIG d   1      -0.965  79.762 112.266  0.00  0.00     0.091 C 
ENDROOT
BRANCH   1   7
ATOM      7  O   LIG d   1      -0.348  80.454 114.535  0.00  0.00    -0.368 OA
BRANCH   7   8
ATOM      8  C   LIG d   1      -0.743  81.132 115.752  0.00  0.00     0.119 C 
BRANCH   8   9
ATOM      9  C   LIG d   1      -0.556  82.644 115.521  0.00  0.00     0.028 C 
ATOM     10  C   LIG d   1       0.640  82.955 114.606  0.00  0.00     0.006 C 
ENDBRANCH   8   9
BRANCH   8  11
ATOM     11  C   LIG d   1       0.192  80.781 116.914  0.00  0.00     0.028 C 
ATOM     12  C   LIG d   1      -0.361  79.658 117.805  0.00  0.00     0.006 C 
ENDBRANCH   8  11
ENDBRANCH   7   8
ENDBRANCH   1   7
BRANCH   6  13
ATOM     13  N   LIG d   1      -0.948  81.117 111.656  0.00  0.00    -0.311 N 
ATOM     14  C   LIG d   1       0.151  81.684 111.162  0.00  0.00     0.210 C 
ATOM     15  C   LIG d   1      -0.047  83.094 110.598  0.00  0.00     0.109 C 
ATOM     16  O   LIG d   1       1.265  81.140 111.108  0.00  0.00    -0.276 OA
ATOM     17  H   LIG d   1      -1.815  81.617 111.631  0.00  0.00     0.149 HD
ENDBRANCH   6  13
BRANCH   5  18
ATOM     18  N   LIG d   1      -1.397  78.516 110.118  0.00  0.00     0.381 N 
ATOM     19  H   LIG d   1      -2.082  77.985 109.619  0.00  0.00    -0.090 HD
ATOM     20  H   LIG d   1      -0.551  77.975 110.164  0.00  0.00    -0.090 HD
ATOM     21  H   LIG d   1      -1.224  79.376 109.647  0.00  0.00    -0.090 HD
ENDBRANCH   5  18
BRANCH   3  22
ATOM     22  C   LIG d   1      -2.875  76.521 114.214  0.00  0.00     0.382 C 
ATOM     23  O   LIG d   1      -4.081  76.645 114.538  0.00  0.00    -0.241 OA
ATOM     24  O   LIG d   1      -2.269  75.470 114.494  0.00  0.00    -0.241 OA
ENDBRANCH   3  22
TORSDOF 7
ENDMDL
MODEL 8
REMARK VINA RESULT:      -4.8      4.242      7.274
REMARK  7 active torsions:
REMARK  status: ('A' for Active; 'I' for Inactive)
REMARK    1  A    between atoms: C_2  and  C_3 
REMARK    2  A    between atoms: C_3  and  O_6 
REMARK    3  A    between atoms: C_3  and  C_4 
REMARK    4  A    between atoms: C_7  and  O_6 
REMARK    5  A    between atoms: C_9  and  C_10 
REMARK    6  A    between atoms: N_15  and  C_14 
REMARK    7  A    between atoms: N_20  and  C_19 
REMARK       I    between atoms: C_22  and  N_20 
ROOT
ATOM      1  C   LIG d   1      -1.301  77.821 115.532  0.00  0.00     0.161 C 
ATOM      2  C   LIG d   1      -0.966  78.151 116.856  0.00  0.00     0.016 C 
ATOM      3  C   LIG d   1      -0.464  79.417 117.239  0.00  0.00     0.038 C 
ATOM      4  C   LIG d   1      -0.406  80.494 116.343  0.00  0.00     0.028 C 
ATOM      5  C   LIG d   1      -0.259  80.063 114.887  0.00  0.00    -0.047 C 
ATOM      6  C   LIG d   1      -1.350  79.018 114.560  0.00  0.00     0.091 C 
ENDROOT
BRANCH   1   7
ATOM      7  O   LIG d   1      -2.552  77.106 115.509  0.00  0.00    -0.368 OA
BRANCH   7   8
ATOM      8  C   LIG d   1      -2.513  75.771 114.947  0.00  0.00     0.119 C 
BRANCH   8   9
ATOM      9  C   LIG d   1      -3.762  75.021 115.449  0.00  0.00     0.028 C 
ATOM     10  C   LIG d   1      -4.992  75.266 114.559  0.00  0.00     0.006 C 
ENDBRANCH   8   9
BRANCH   8  11
ATOM     11  C   LIG d   1      -1.319  74.976 115.483  0.00  0.00     0.028 C 
ATOM     12  C   LIG d   1      -0.592  74.181 114.387  0.00  0.00     0.006 C 
ENDBRANCH   8  11
ENDBRANCH   7   8
ENDBRANCH   1   7
BRANCH   6  13
ATOM     13  N   LIG d   1      -1.225  78.482 113.180  0.00  0.00    -0.311 N 
ATOM     14  C   LIG d   1      -2.212  78.520 112.286  0.00  0.00     0.210 C 
ATOM     15  C   LIG d   1      -1.879  77.893 110.928  0.00  0.00     0.109 C 
ATOM     16  O   LIG d   1      -3.320  79.042 112.478  0.00  0.00    -0.276 OA
ATOM     17  H   LIG d   1      -0.348  78.068 112.929  0.00  0.00     0.149 HD
ENDBRANCH   6  13
BRANCH   5  18
ATOM     18  N   LIG d   1      -0.350  81.276 114.052  0.00  0.00     0.381 N 
ATOM     19  H   LIG d   1       0.566  81.635 113.875  0.00  0.00    -0.090 HD
ATOM     20  H   LIG d   1      -0.873  81.975 114.550  0.00  0.00    -0.090 HD
ATOM     21  H   LIG d   1      -0.803  81.063 113.191  0.00  0.00    -0.090 HD
ENDBRANCH   5  18
BRANCH   3  22
ATOM     22  C   LIG d   1       0.024  79.602 118.524  0.00  0.00     0.382 C 
ATOM     23  O   LIG d   1       0.957  78.880 118.951  0.00  0.00    -0.241 OA
ATOM     24  O   LIG d   1      -0.487  80.453 119.277  0.00  0.00    -0.241 OA
ENDBRANCH   3  22
TORSDOF 7
ENDMDL
MODEL 9
REMARK VINA RESULT:      -4.8      4.745      6.703
REMARK  7 active torsions:
REMARK  status: ('A' for Active; 'I' for Inactive)
REMARK    1  A    between atoms: C_2  and  C_3 
REMARK    2  A    between atoms: C_3  and  O_6 
REMARK    3  A    between atoms: C_3  and  C_4 
REMARK    4  A    between atoms: C_7  and  O_6 
REMARK    5  A    between atoms: C_9  and  C_10 
REMARK    6  A    between atoms: N_15  and  C_14 
REMARK    7  A    between atoms: N_20  and  C_19 
REMARK       I    between atoms: C_22  and  N_20 
ROOT
ATOM      1  C   LIG d   1      -0.576  78.545 115.410  0.00  0.00     0.161 C 
ATOM      2  C   LIG d   1      -1.476  78.748 114.350  0.00  0.00     0.016 C 
ATOM      3  C   LIG d   1      -2.018  77.695 113.577  0.00  0.00     0.038 C 
ATOM      4  C   LIG d   1      -1.814  76.348 113.911  0.00  0.00     0.028 C 
ATOM      5  C   LIG d   1      -0.510  76.102 114.662  0.00  0.00    -0.047 C 
ATOM      6  C   LIG d   1      -0.429  77.076 115.860  0.00  0.00     0.091 C 
ENDROOT
BRANCH   1   7
ATOM      7  O   LIG d   1      -0.943  79.377 116.528  0.00  0.00    -0.368 OA
BRANCH   7   8
ATOM      8  C   LIG d   1      -0.017  80.439 116.862  0.00  0.00     0.119 C 
BRANCH   8   9
ATOM      9  C   LIG d   1       0.123  80.466 118.397  0.00  0.00     0.028 C 
ATOM     10  C   LIG d   1      -0.696  79.358 119.080  0.00  0.00     0.006 C 
ENDBRANCH   8   9
BRANCH   8  11
ATOM     11  C   LIG d   1      -0.582  81.811 116.483  0.00  0.00     0.028 C 
ATOM     12  C   LIG d   1      -0.028  82.947 117.358  0.00  0.00     0.006 C 
ENDBRANCH   8  11
ENDBRANCH   7   8
ENDBRANCH   1   7
BRANCH   6  13
ATOM     13  N   LIG d   1       0.855  76.960 116.599  0.00  0.00    -0.311 N 
ATOM     14  C   LIG d   1       1.002  76.229 117.703  0.00  0.00     0.210 C 
ATOM     15  C   LIG d   1       2.404  76.262 118.320  0.00  0.00     0.109 C 
ATOM     16  O   LIG d   1       0.112  75.531 118.213  0.00  0.00    -0.276 OA
ATOM     17  H   LIG d   1       1.638  77.469 116.238  0.00  0.00     0.149 HD
ENDBRANCH   6  13
BRANCH   5  18
ATOM     18  N   LIG d   1      -0.490  74.684 115.068  0.00  0.00     0.381 N 
ATOM     19  H   LIG d   1      -1.125  74.540 115.828  0.00  0.00    -0.090 HD
ATOM     20  H   LIG d   1       0.435  74.448 115.382  0.00  0.00    -0.090 HD
ATOM     21  H   LIG d   1      -0.745  74.105 114.299  0.00  0.00    -0.090 HD
ENDBRANCH   5  18
BRANCH   3  22
ATOM     22  C   LIG d   1      -2.743  77.987 112.432  0.00  0.00     0.382 C 
ATOM     23  O   LIG d   1      -3.721  77.270 112.109  0.00  0.00    -0.241 OA
ATOM     24  O   LIG d   1      -2.405  78.931 111.693  0.00  0.00    -0.241 OA
ENDBRANCH   3  22
TORSDOF 7
ENDMDL
