MODEL 1
REMARK VINA RESULT:      -5.7      0.000      0.000
REMARK  7 active torsions:
REMARK  status: ('A' for Active; 'I' for Inactive)
REMARK    1  A    between atoms: C_2  and  C_3 
REMARK    2  A    between atoms: C_3  and  O_6 
REMARK    3  A    between atoms: C_3  and  C_4 
REMARK    4  A    between atoms: C_7  and  O_6 
REMARK    5  A    between atoms: C_9  and  C_10 
REMARK    6  A    between atoms: N_15  and  C_14 
REMARK    7  A    between atoms: N_20  and  C_19 
REMARK       I    between atoms: C_22  and  N_20 
ROOT
ATOM      1  C   LIG d   1      -2.843  79.749 115.557  0.00  0.00     0.161 C 
ATOM      2  C   LIG d   1      -2.655  80.980 114.906  0.00  0.00     0.016 C 
ATOM      3  C   LIG d   1      -2.090  81.099 113.616  0.00  0.00     0.038 C 
ATOM      4  C   LIG d   1      -1.811  79.976 112.822  0.00  0.00     0.028 C 
ATOM      5  C   LIG d   1      -1.515  78.719 113.633  0.00  0.00    -0.047 C 
ATOM      6  C   LIG d   1      -2.648  78.507 114.663  0.00  0.00     0.091 C 
ENDROOT
BRANCH   1   7
ATOM      7  O   LIG d   1      -4.143  79.719 116.180  0.00  0.00    -0.368 OA
BRANCH   7   8
ATOM      8  C   LIG d   1      -4.296  80.523 117.375  0.00  0.00     0.119 C 
BRANCH   8   9
ATOM      9  C   LIG d   1      -3.262  80.027 118.403  0.00  0.00     0.028 C 
ATOM     10  C   LIG d   1      -3.558  80.532 119.825  0.00  0.00     0.006 C 
ENDBRANCH   8   9
BRANCH   8  11
ATOM     11  C   LIG d   1      -5.661  80.294 118.030  0.00  0.00     0.028 C 
ATOM     12  C   LIG d   1      -6.338  78.998 117.557  0.00  0.00     0.006 C 
ENDBRANCH   8  11
ENDBRANCH   7   8
ENDBRANCH   1   7
BRANCH   6  13
ATOM     13  N   LIG d   1      -2.394  77.346 115.554  0.00  0.00    -0.311 N 
ATOM     14  C   LIG d   1      -2.795  76.106 115.276  0.00  0.00     0.210 C 
ATOM     15  C   LIG d   1      -2.447  75.060 116.340  0.00  0.00     0.109 C 
ATOM     16  O   LIG d   1      -3.377  75.768 114.234  0.00  0.00    -0.276 OA
ATOM     17  H   LIG d   1      -1.900  77.525 116.407  0.00  0.00     0.149 HD
ENDBRANCH   6  13
BRANCH   5  18
ATOM     18  N   LIG d   1      -1.379  77.598 112.684  0.00  0.00     0.381 N 
ATOM     19  H   LIG d   1      -0.884  77.902 111.869  0.00  0.00    -0.090 HD
ATOM     20  H   LIG d   1      -2.295  77.297 112.403  0.00  0.00    -0.090 HD
ATOM     21  H   LIG d   1      -0.891  76.844 113.115  0.00  0.00    -0.090 HD
ENDBRANCH   5  18
BRANCH   3  22
ATOM     22  C   LIG d   1      -1.761  82.352 113.123  0.00  0.00     0.382 C 
ATOM     23  O   LIG d   1      -1.453  82.489 111.914  0.00  0.00    -0.241 OA
ATOM     24  O   LIG d   1      -1.724  83.339 113.881  0.00  0.00    -0.241 OA
ENDBRANCH   3  22
TORSDOF 7
ENDMDL
MODEL 2
REMARK VINA RESULT:      -5.5      2.604      5.212
REMARK  7 active torsions:
REMARK  status: ('A' for Active; 'I' for Inactive)
REMARK    1  A    between atoms: C_2  and  C_3 
REMARK    2  A    between atoms: C_3  and  O_6 
REMARK    3  A    between atoms: C_3  and  C_4 
REMARK    4  A    between atoms: C_7  and  O_6 
REMARK    5  A    between atoms: C_9  and  C_10 
REMARK    6  A    between atoms: N_15  and  C_14 
REMARK    7  A    between atoms: N_20  and  C_19 
REMARK       I    between atoms: C_22  and  N_20 
ROOT
ATOM      1  C   LIG d   1      -1.458  77.302 114.438  0.00  0.00     0.161 C 
ATOM      2  C   LIG d   1      -2.723  76.975 113.923  0.00  0.00     0.016 C 
ATOM      3  C   LIG d   1      -3.606  76.065 114.548  0.00  0.00     0.038 C 
ATOM      4  C   LIG d   1      -3.344  75.532 115.819  0.00  0.00     0.028 C 
ATOM      5  C   LIG d   1      -1.857  75.440 116.143  0.00  0.00    -0.047 C 
ATOM      6  C   LIG d   1      -1.201  76.815 115.880  0.00  0.00     0.091 C 
ENDROOT
BRANCH   1   7
ATOM      7  O   LIG d   1      -1.245  78.725 114.344  0.00  0.00    -0.368 OA
BRANCH   7   8
ATOM      8  C   LIG d   1      -2.436  79.548 114.339  0.00  0.00     0.119 C 
BRANCH   8   9
ATOM      9  C   LIG d   1      -2.239  80.640 113.269  0.00  0.00     0.028 C 
ATOM     10  C   LIG d   1      -2.326  82.059 113.856  0.00  0.00     0.006 C 
ENDBRANCH   8   9
BRANCH   8  11
ATOM     11  C   LIG d   1      -2.599  80.302 115.662  0.00  0.00     0.028 C 
ATOM     12  C   LIG d   1      -3.656  79.670 116.582  0.00  0.00     0.006 C 
ENDBRANCH   8  11
ENDBRANCH   7   8
ENDBRANCH   1   7
BRANCH   6  13
ATOM     13  N   LIG d   1       0.270  76.791 116.091  0.00  0.00    -0.311 N 
ATOM     14  C   LIG d   1       0.850  77.106 117.249  0.00  0.00     0.210 C 
ATOM     15  C   LIG d   1       2.380  77.035 117.246  0.00  0.00     0.109 C 
ATOM     16  O   LIG d   1       0.240  77.405 118.286  0.00  0.00    -0.276 OA
ATOM     17  H   LIG d   1       0.839  76.529 115.310  0.00  0.00     0.149 HD
ENDBRANCH   6  13
BRANCH   5  18
ATOM     18  N   LIG d   1      -1.732  74.999 117.545  0.00  0.00     0.381 N 
ATOM     19  H   LIG d   1      -1.312  74.091 117.578  0.00  0.00    -0.090 HD
ATOM     20  H   LIG d   1      -2.650  74.936 117.949  0.00  0.00    -0.090 HD
ATOM     21  H   LIG d   1      -1.178  75.648 118.059  0.00  0.00    -0.090 HD
ENDBRANCH   5  18
BRANCH   3  22
ATOM     22  C   LIG d   1      -4.749  75.649 113.882  0.00  0.00     0.382 C 
ATOM     23  O   LIG d   1      -5.385  74.648 114.293  0.00  0.00    -0.241 OA
ATOM     24  O   LIG d   1      -5.127  76.235 112.850  0.00  0.00    -0.241 OA
ENDBRANCH   3  22
TORSDOF 7
ENDMDL
MODEL 3
REMARK VINA RESULT:      -5.5      2.674      3.658
REMARK  7 active torsions:
REMARK  status: ('A' for Active; 'I' for Inactive)
REMARK    1  A    between atoms: C_2  and  C_3 
REMARK    2  A    between atoms: C_3  and  O_6 
REMARK    3  A    between atoms: C_3  and  C_4 
REMARK    4  A    between atoms: C_7  and  O_6 
REMARK    5  A    between atoms: C_9  and  C_10 
REMARK    6  A    between atoms: N_15  and  C_14 
REMARK    7  A    between atoms: N_20  and  C_19 
REMARK       I    between atoms: C_22  and  N_20 
ROOT
ATOM      1  C   LIG d   1      -2.054  78.808 115.452  0.00  0.00     0.161 C 
ATOM      2  C   LIG d   1      -2.540  79.665 114.451  0.00  0.00     0.016 C 
ATOM      3  C   LIG d   1      -1.823  80.785 113.970  0.00  0.00     0.038 C 
ATOM      4  C   LIG d   1      -0.497  81.038 114.354  0.00  0.00     0.028 C 
ATOM      5  C   LIG d   1      -0.152  80.491 115.735  0.00  0.00    -0.047 C 
ATOM      6  C   LIG d   1      -0.564  79.003 115.803  0.00  0.00     0.091 C 
ENDROOT
BRANCH   1   7
ATOM      7  O   LIG d   1      -2.307  77.437 115.086  0.00  0.00    -0.368 OA
BRANCH   7   8
ATOM      8  C   LIG d   1      -3.644  76.944 115.349  0.00  0.00     0.119 C 
BRANCH   8   9
ATOM      9  C   LIG d   1      -3.630  76.294 116.746  0.00  0.00     0.028 C 
ATOM     10  C   LIG d   1      -2.584  75.172 116.862  0.00  0.00     0.006 C 
ENDBRANCH   8   9
BRANCH   8  11
ATOM     11  C   LIG d   1      -4.023  75.818 114.382  0.00  0.00     0.028 C 
ATOM     12  C   LIG d   1      -5.514  75.454 114.447  0.00  0.00     0.006 C 
ENDBRANCH   8  11
ENDBRANCH   7   8
ENDBRANCH   1   7
BRANCH   6  13
ATOM     13  N   LIG d   1      -0.338  78.413 117.148  0.00  0.00    -0.311 N 
ATOM     14  C   LIG d   1       0.351  77.291 117.350  0.00  0.00     0.210 C 
ATOM     15  C   LIG d   1       0.448  76.846 118.813  0.00  0.00     0.109 C 
ATOM     16  O   LIG d   1       0.918  76.639 116.461  0.00  0.00    -0.276 OA
ATOM     17  H   LIG d   1      -0.737  78.894 117.930  0.00  0.00     0.149 HD
ENDBRANCH   6  13
BRANCH   5  18
ATOM     18  N   LIG d   1       1.292  80.702 115.950  0.00  0.00     0.381 N 
ATOM     19  H   LIG d   1       1.572  81.570 115.538  0.00  0.00    -0.090 HD
ATOM     20  H   LIG d   1       1.799  79.961 115.499  0.00  0.00    -0.090 HD
ATOM     21  H   LIG d   1       1.495  80.707 116.925  0.00  0.00    -0.090 HD
ENDBRANCH   5  18
BRANCH   3  22
ATOM     22  C   LIG d   1      -2.447  81.690 113.125  0.00  0.00     0.382 C 
ATOM     23  O   LIG d   1      -1.789  82.628 112.614  0.00  0.00    -0.241 OA
ATOM     24  O   LIG d   1      -3.670  81.606 112.903  0.00  0.00    -0.241 OA
ENDBRANCH   3  22
TORSDOF 7
ENDMDL
MODEL 4
REMARK VINA RESULT:      -5.4      1.490      1.782
REMARK  7 active torsions:
REMARK  status: ('A' for Active; 'I' for Inactive)
REMARK    1  A    between atoms: C_2  and  C_3 
REMARK    2  A    between atoms: C_3  and  O_6 
REMARK    3  A    between atoms: C_3  and  C_4 
REMARK    4  A    between atoms: C_7  and  O_6 
REMARK    5  A    between atoms: C_9  and  C_10 
REMARK    6  A    between atoms: N_15  and  C_14 
REMARK    7  A    between atoms: N_20  and  C_19 
REMARK       I    between atoms: C_22  and  N_20 
ROOT
ATOM      1  C   LIG d   1      -2.362  79.150 116.574  0.00  0.00     0.161 C 
ATOM      2  C   LIG d   1      -2.621  80.300 115.810  0.00  0.00     0.016 C 
ATOM      3  C   LIG d   1      -2.441  80.360 114.409  0.00  0.00     0.038 C 
ATOM      4  C   LIG d   1      -2.132  79.221 113.651  0.00  0.00     0.028 C 
ATOM      5  C   LIG d   1      -1.371  78.159 114.437  0.00  0.00    -0.047 C 
ATOM      6  C   LIG d   1      -2.131  77.865 115.751  0.00  0.00     0.091 C 
ENDROOT
BRANCH   1   7
ATOM      7  O   LIG d   1      -3.423  78.949 117.529  0.00  0.00    -0.368 OA
BRANCH   7   8
ATOM      8  C   LIG d   1      -4.758  78.822 116.982  0.00  0.00     0.119 C 
BRANCH   8   9
ATOM      9  C   LIG d   1      -5.626  79.923 117.621  0.00  0.00     0.028 C 
ATOM     10  C   LIG d   1      -4.919  80.621 118.795  0.00  0.00     0.006 C 
ENDBRANCH   8   9
BRANCH   8  11
ATOM     11  C   LIG d   1      -5.408  77.500 117.399  0.00  0.00     0.028 C 
ATOM     12  C   LIG d   1      -6.102  76.783 116.230  0.00  0.00     0.006 C 
ENDBRANCH   8  11
ENDBRANCH   7   8
ENDBRANCH   1   7
BRANCH   6  13
ATOM     13  N   LIG d   1      -1.410  76.898 116.619  0.00  0.00    -0.311 N 
ATOM     14  C   LIG d   1      -1.876  75.684 116.908  0.00  0.00     0.210 C 
ATOM     15  C   LIG d   1      -0.984  74.854 117.837  0.00  0.00     0.109 C 
ATOM     16  O   LIG d   1      -2.926  75.203 116.456  0.00  0.00    -0.276 OA
ATOM     17  H   LIG d   1      -0.534  77.195 117.003  0.00  0.00     0.149 HD
ENDBRANCH   6  13
BRANCH   5  18
ATOM     18  N   LIG d   1      -1.236  76.973 113.570  0.00  0.00     0.381 N 
ATOM     19  H   LIG d   1      -1.868  76.259 113.871  0.00  0.00    -0.090 HD
ATOM     20  H   LIG d   1      -0.299  76.619 113.648  0.00  0.00    -0.090 HD
ATOM     21  H   LIG d   1      -1.428  77.220 112.624  0.00  0.00    -0.090 HD
ENDBRANCH   5  18
BRANCH   3  22
ATOM     22  C   LIG d   1      -2.532  81.580 113.756  0.00  0.00     0.382 C 
ATOM     23  O   LIG d   1      -3.424  81.766 112.894  0.00  0.00    -0.241 OA
ATOM     24  O   LIG d   1      -1.705  82.483 113.987  0.00  0.00    -0.241 OA
ENDBRANCH   3  22
TORSDOF 7
ENDMDL
MODEL 5
REMARK VINA RESULT:      -5.4      2.306      3.188
REMARK  7 active torsions:
REMARK  status: ('A' for Active; 'I' for Inactive)
REMARK    1  A    between atoms: C_2  and  C_3 
REMARK    2  A    between atoms: C_3  and  O_6 
REMARK    3  A    between atoms: C_3  and  C_4 
REMARK    4  A    between atoms: C_7  and  O_6 
REMARK    5  A    between atoms: C_9  and  C_10 
REMARK    6  A    between atoms: N_15  and  C_14 
REMARK    7  A    between atoms: N_20  and  C_19 
REMARK       I    between atoms: C_22  and  N_20 
ROOT
ATOM      1  C   LIG d   1      -2.579  78.071 116.546  0.00  0.00     0.161 C 
ATOM      2  C   LIG d   1      -2.883  78.870 115.432  0.00  0.00     0.016 C 
ATOM      3  C   LIG d   1      -2.234  78.742 114.182  0.00  0.00     0.038 C 
ATOM      4  C   LIG d   1      -1.335  77.698 113.917  0.00  0.00     0.028 C 
ATOM      5  C   LIG d   1      -0.625  77.179 115.162  0.00  0.00    -0.047 C 
ATOM      6  C   LIG d   1      -1.681  76.853 116.243  0.00  0.00     0.091 C 
ENDROOT
BRANCH   1   7
ATOM      7  O   LIG d   1      -3.797  77.647 117.190  0.00  0.00    -0.368 OA
BRANCH   7   8
ATOM      8  C   LIG d   1      -4.985  77.635 116.362  0.00  0.00     0.119 C 
BRANCH   8   9
ATOM      9  C   LIG d   1      -6.128  78.264 117.182  0.00  0.00     0.028 C 
ATOM     10  C   LIG d   1      -5.790  79.683 117.667  0.00  0.00     0.006 C 
ENDBRANCH   8   9
BRANCH   8  11
ATOM     11  C   LIG d   1      -5.441  76.203 116.062  0.00  0.00     0.028 C 
ATOM     12  C   LIG d   1      -4.886  75.667 114.733  0.00  0.00     0.006 C 
ENDBRANCH   8  11
ENDBRANCH   7   8
ENDBRANCH   1   7
BRANCH   6  13
ATOM     13  N   LIG d   1      -1.065  76.418 117.524  0.00  0.00    -0.311 N 
ATOM     14  C   LIG d   1      -0.841  75.142 117.834  0.00  0.00     0.210 C 
ATOM     15  C   LIG d   1      -0.216  74.912 119.213  0.00  0.00     0.109 C 
ATOM     16  O   LIG d   1      -1.072  74.182 117.085  0.00  0.00    -0.276 OA
ATOM     17  H   LIG d   1      -0.818  77.135 118.178  0.00  0.00     0.149 HD
ENDBRANCH   6  13
BRANCH   5  18
ATOM     18  N   LIG d   1       0.174  76.005 114.762  0.00  0.00     0.381 N 
ATOM     19  H   LIG d   1       0.169  75.915 113.766  0.00  0.00    -0.090 HD
ATOM     20  H   LIG d   1      -0.241  75.179 115.156  0.00  0.00    -0.090 HD
ATOM     21  H   LIG d   1       1.110  76.103 115.089  0.00  0.00    -0.090 HD
ENDBRANCH   5  18
BRANCH   3  22
ATOM     22  C   LIG d   1      -2.452  79.691 113.195  0.00  0.00     0.382 C 
ATOM     23  O   LIG d   1      -3.206  80.668 113.419  0.00  0.00    -0.241 OA
ATOM     24  O   LIG d   1      -1.938  79.559 112.067  0.00  0.00    -0.241 OA
ENDBRANCH   3  22
TORSDOF 7
ENDMDL
MODEL 6
REMARK VINA RESULT:      -5.3      2.610      3.760
REMARK  7 active torsions:
REMARK  status: ('A' for Active; 'I' for Inactive)
REMARK    1  A    between atoms: C_2  and  C_3 
REMARK    2  A    between atoms: C_3  and  O_6 
REMARK    3  A    between atoms: C_3  and  C_4 
REMARK    4  A    between atoms: C_7  and  O_6 
REMARK    5  A    between atoms: C_9  and  C_10 
REMARK    6  A    between atoms: N_15  and  C_14 
REMARK    7  A    between atoms: N_20  and  C_19 
REMARK       I    between atoms: C_22  and  N_20 
ROOT
ATOM      1  C   LIG d   1      -2.918  77.405 115.830  0.00  0.00     0.161 C 
ATOM      2  C   LIG d   1      -3.110  78.487 114.954  0.00  0.00     0.016 C 
ATOM      3  C   LIG d   1      -2.109  79.445 114.670  0.00  0.00     0.038 C 
ATOM      4  C   LIG d   1      -0.792  79.299 115.128  0.00  0.00     0.028 C 
ATOM      5  C   LIG d   1      -0.685  78.498 116.421  0.00  0.00    -0.047 C 
ATOM      6  C   LIG d   1      -1.453  77.167 116.252  0.00  0.00     0.091 C 
ENDROOT
BRANCH   1   7
ATOM      7  O   LIG d   1      -3.475  76.207 115.254  0.00  0.00    -0.368 OA
BRANCH   7   8
ATOM      8  C   LIG d   1      -4.583  75.610 115.972  0.00  0.00     0.119 C 
BRANCH   8   9
ATOM      9  C   LIG d   1      -5.520  74.972 114.929  0.00  0.00     0.028 C 
ATOM     10  C   LIG d   1      -5.257  75.493 113.506  0.00  0.00     0.006 C 
ENDBRANCH   8   9
BRANCH   8  11
ATOM     11  C   LIG d   1      -5.427  76.676 116.678  0.00  0.00     0.028 C 
ATOM     12  C   LIG d   1      -6.916  76.302 116.753  0.00  0.00     0.006 C 
ENDBRANCH   8  11
ENDBRANCH   7   8
ENDBRANCH   1   7
BRANCH   6  13
ATOM     13  N   LIG d   1      -1.470  76.359 117.499  0.00  0.00    -0.311 N 
ATOM     14  C   LIG d   1      -1.256  75.045 117.525  0.00  0.00     0.210 C 
ATOM     15  C   LIG d   1      -1.339  74.403 118.914  0.00  0.00     0.109 C 
ATOM     16  O   LIG d   1      -0.975  74.355 116.534  0.00  0.00    -0.276 OA
ATOM     17  H   LIG d   1      -1.660  76.845 118.354  0.00  0.00     0.149 HD
ENDBRANCH   6  13
BRANCH   5  18
ATOM     18  N   LIG d   1       0.749  78.305 116.709  0.00  0.00     0.381 N 
ATOM     19  H   LIG d   1       1.212  77.946 115.898  0.00  0.00    -0.090 HD
ATOM     20  H   LIG d   1       0.844  77.633 117.450  0.00  0.00    -0.090 HD
ATOM     21  H   LIG d   1       1.161  79.170 116.980  0.00  0.00    -0.090 HD
ENDBRANCH   5  18
BRANCH   3  22
ATOM     22  C   LIG d   1      -2.434  80.585 113.951  0.00  0.00     0.382 C 
ATOM     23  O   LIG d   1      -3.169  80.500 112.938  0.00  0.00    -0.241 OA
ATOM     24  O   LIG d   1      -1.966  81.692 114.278  0.00  0.00    -0.241 OA
ENDBRANCH   3  22
TORSDOF 7
ENDMDL
MODEL 7
REMARK VINA RESULT:      -5.1      1.397      1.941
REMARK  7 active torsions:
REMARK  status: ('A' for Active; 'I' for Inactive)
REMARK    1  A    between atoms: C_2  and  C_3 
REMARK    2  A    between atoms: C_3  and  O_6 
REMARK    3  A    between atoms: C_3  and  C_4 
REMARK    4  A    between atoms: C_7  and  O_6 
REMARK    5  A    between atoms: C_9  and  C_10 
REMARK    6  A    between atoms: N_15  and  C_14 
REMARK    7  A    between atoms: N_20  and  C_19 
REMARK       I    between atoms: C_22  and  N_20 
ROOT
ATOM      1  C   LIG d   1      -2.861  79.204 116.502  0.00  0.00     0.161 C 
ATOM      2  C   LIG d   1      -2.948  80.308 115.638  0.00  0.00     0.016 C 
ATOM      3  C   LIG d   1      -2.470  80.295 114.307  0.00  0.00     0.038 C 
ATOM      4  C   LIG d   1      -2.005  79.119 113.698  0.00  0.00     0.028 C 
ATOM      5  C   LIG d   1      -1.432  78.110 114.688  0.00  0.00    -0.047 C 
ATOM      6  C   LIG d   1      -2.458  77.880 115.820  0.00  0.00     0.091 C 
ENDROOT
BRANCH   1   7
ATOM      7  O   LIG d   1      -4.103  79.043 117.216  0.00  0.00    -0.368 OA
BRANCH   7   8
ATOM      8  C   LIG d   1      -4.012  79.048 118.662  0.00  0.00     0.119 C 
BRANCH   8   9
ATOM      9  C   LIG d   1      -5.294  78.391 119.208  0.00  0.00     0.028 C 
ATOM     10  C   LIG d   1      -6.066  77.620 118.125  0.00  0.00     0.006 C 
ENDBRANCH   8   9
BRANCH   8  11
ATOM     11  C   LIG d   1      -4.021  80.476 119.215  0.00  0.00     0.028 C 
ATOM     12  C   LIG d   1      -5.439  80.997 119.498  0.00  0.00     0.006 C 
ENDBRANCH   8  11
ENDBRANCH   7   8
ENDBRANCH   1   7
BRANCH   6  13
ATOM     13  N   LIG d   1      -1.942  76.969 116.876  0.00  0.00    -0.311 N 
ATOM     14  C   LIG d   1      -2.280  75.684 116.965  0.00  0.00     0.210 C 
ATOM     15  C   LIG d   1      -1.650  74.930 118.140  0.00  0.00     0.109 C 
ATOM     16  O   LIG d   1      -3.016  75.089 116.163  0.00  0.00    -0.276 OA
ATOM     17  H   LIG d   1      -1.314  77.362 117.550  0.00  0.00     0.149 HD
ENDBRANCH   6  13
BRANCH   5  18
ATOM     18  N   LIG d   1      -1.113  76.881 113.937  0.00  0.00     0.381 N 
ATOM     19  H   LIG d   1      -0.128  76.833 113.769  0.00  0.00    -0.090 HD
ATOM     20  H   LIG d   1      -1.583  76.912 113.049  0.00  0.00    -0.090 HD
ATOM     21  H   LIG d   1      -1.410  76.081 114.450  0.00  0.00    -0.090 HD
ENDBRANCH   5  18
BRANCH   3  22
ATOM     22  C   LIG d   1      -2.417  81.476 113.584  0.00  0.00     0.382 C 
ATOM     23  O   LIG d   1      -3.387  81.815 112.864  0.00  0.00    -0.241 OA
ATOM     24  O   LIG d   1      -1.394  82.186 113.608  0.00  0.00    -0.241 OA
ENDBRANCH   3  22
TORSDOF 7
ENDMDL
MODEL 8
REMARK VINA RESULT:      -5.1      2.274      5.117
REMARK  7 active torsions:
REMARK  status: ('A' for Active; 'I' for Inactive)
REMARK    1  A    between atoms: C_2  and  C_3 
REMARK    2  A    between atoms: C_3  and  O_6 
REMARK    3  A    between atoms: C_3  and  C_4 
REMARK    4  A    between atoms: C_7  and  O_6 
REMARK    5  A    between atoms: C_9  and  C_10 
REMARK    6  A    between atoms: N_15  and  C_14 
REMARK    7  A    between atoms: N_20  and  C_19 
REMARK       I    between atoms: C_22  and  N_20 
ROOT
ATOM      1  C   LIG d   1      -2.443  79.839 115.048  0.00  0.00     0.161 C 
ATOM      2  C   LIG d   1      -2.911  78.514 115.033  0.00  0.00     0.016 C 
ATOM      3  C   LIG d   1      -2.752  77.645 113.929  0.00  0.00     0.038 C 
ATOM      4  C   LIG d   1      -1.975  77.997 112.814  0.00  0.00     0.028 C 
ATOM      5  C   LIG d   1      -1.910  79.501 112.572  0.00  0.00    -0.047 C 
ATOM      6  C   LIG d   1      -1.497  80.203 113.885  0.00  0.00     0.091 C 
ENDROOT
BRANCH   1   7
ATOM      7  O   LIG d   1      -1.813  80.120 116.313  0.00  0.00    -0.368 OA
BRANCH   7   8
ATOM      8  C   LIG d   1      -1.219  78.988 116.995  0.00  0.00     0.119 C 
BRANCH   8   9
ATOM      9  C   LIG d   1      -1.640  79.066 118.475  0.00  0.00     0.028 C 
ATOM     10  C   LIG d   1      -2.571  80.256 118.758  0.00  0.00     0.006 C 
ENDBRANCH   8   9
BRANCH   8  11
ATOM     11  C   LIG d   1       0.310  79.081 117.003  0.00  0.00     0.028 C 
ATOM     12  C   LIG d   1       0.821  80.506 116.735  0.00  0.00     0.006 C 
ENDBRANCH   8  11
ENDBRANCH   7   8
ENDBRANCH   1   7
BRANCH   6  13
ATOM     13  N   LIG d   1      -1.490  81.684 113.758  0.00  0.00    -0.311 N 
ATOM     14  C   LIG d   1      -0.396  82.392 113.485  0.00  0.00     0.210 C 
ATOM     15  C   LIG d   1      -0.606  83.908 113.417  0.00  0.00     0.109 C 
ATOM     16  O   LIG d   1       0.723  81.906 113.260  0.00  0.00    -0.276 OA
ATOM     17  H   LIG d   1      -2.362  82.157 113.894  0.00  0.00     0.149 HD
ENDBRANCH   6  13
BRANCH   5  18
ATOM     18  N   LIG d   1      -0.960  79.733 111.467  0.00  0.00     0.381 N 
ATOM     19  H   LIG d   1      -0.892  78.911 110.901  0.00  0.00    -0.090 HD
ATOM     20  H   LIG d   1      -0.053  79.926 111.854  0.00  0.00    -0.090 HD
ATOM     21  H   LIG d   1      -1.264  80.503 110.913  0.00  0.00    -0.090 HD
ENDBRANCH   5  18
BRANCH   3  22
ATOM     22  C   LIG d   1      -3.407  76.423 113.916  0.00  0.00     0.382 C 
ATOM     23  O   LIG d   1      -2.946  75.458 114.571  0.00  0.00    -0.241 OA
ATOM     24  O   LIG d   1      -4.429  76.262 113.223  0.00  0.00    -0.241 OA
ENDBRANCH   3  22
TORSDOF 7
ENDMDL
MODEL 9
REMARK VINA RESULT:      -4.8      2.575      4.632
REMARK  7 active torsions:
REMARK  status: ('A' for Active; 'I' for Inactive)
REMARK    1  A    between atoms: C_2  and  C_3 
REMARK    2  A    between atoms: C_3  and  O_6 
REMARK    3  A    between atoms: C_3  and  C_4 
REMARK    4  A    between atoms: C_7  and  O_6 
REMARK    5  A    between atoms: C_9  and  C_10 
REMARK    6  A    between atoms: N_15  and  C_14 
REMARK    7  A    between atoms: N_20  and  C_19 
REMARK       I    between atoms: C_22  and  N_20 
ROOT
ATOM      1  C   LIG d   1      -2.212  79.046 115.553  0.00  0.00     0.161 C 
ATOM      2  C   LIG d   1      -3.235  78.169 115.153  0.00  0.00     0.016 C 
ATOM      3  C   LIG d   1      -3.032  76.789 114.925  0.00  0.00     0.038 C 
ATOM      4  C   LIG d   1      -1.817  76.158 115.230  0.00  0.00     0.028 C 
ATOM      5  C   LIG d   1      -0.614  77.092 115.155  0.00  0.00    -0.047 C 
ATOM      6  C   LIG d   1      -0.906  78.355 115.997  0.00  0.00     0.091 C 
ENDROOT
BRANCH   1   7
ATOM      7  O   LIG d   1      -2.696  79.919 116.592  0.00  0.00    -0.368 OA
BRANCH   7   8
ATOM      8  C   LIG d   1      -3.752  79.389 117.430  0.00  0.00     0.119 C 
BRANCH   8   9
ATOM      9  C   LIG d   1      -4.734  80.541 117.720  0.00  0.00     0.028 C 
ATOM     10  C   LIG d   1      -6.201  80.077 117.715  0.00  0.00     0.006 C 
ENDBRANCH   8   9
BRANCH   8  11
ATOM     11  C   LIG d   1      -3.215  78.960 118.798  0.00  0.00     0.028 C 
ATOM     12  C   LIG d   1      -3.104  77.433 118.942  0.00  0.00     0.006 C 
ENDBRANCH   8  11
ENDBRANCH   7   8
ENDBRANCH   1   7
BRANCH   6  13
ATOM     13  N   LIG d   1       0.186  79.360 115.910  0.00  0.00    -0.311 N 
ATOM     14  C   LIG d   1       0.653  80.028 116.963  0.00  0.00     0.210 C 
ATOM     15  C   LIG d   1       1.767  81.032 116.650  0.00  0.00     0.109 C 
ATOM     16  O   LIG d   1       0.272  79.862 118.132  0.00  0.00    -0.276 OA
ATOM     17  H   LIG d   1       0.574  79.534 115.004  0.00  0.00     0.149 HD
ENDBRANCH   6  13
BRANCH   5  18
ATOM     18  N   LIG d   1       0.564  76.341 115.629  0.00  0.00     0.381 N 
ATOM     19  H   LIG d   1       0.580  75.435 115.206  0.00  0.00    -0.090 HD
ATOM     20  H   LIG d   1       0.496  76.224 116.624  0.00  0.00    -0.090 HD
ATOM     21  H   LIG d   1       1.398  76.836 115.402  0.00  0.00    -0.090 HD
ENDBRANCH   5  18
BRANCH   3  22
ATOM     22  C   LIG d   1      -4.041  76.032 114.349  0.00  0.00     0.382 C 
ATOM     23  O   LIG d   1      -4.393  76.253 113.165  0.00  0.00    -0.241 OA
ATOM     24  O   LIG d   1      -4.633  75.160 115.012  0.00  0.00    -0.241 OA
ENDBRANCH   3  22
TORSDOF 7
ENDMDL
