MODEL 1
REMARK VINA RESULT:      -5.2      0.000      0.000
REMARK  7 active torsions:
REMARK  status: ('A' for Active; 'I' for Inactive)
REMARK    1  A    between atoms: C_2  and  C_3 
REMARK    2  A    between atoms: C_3  and  O_6 
REMARK    3  A    between atoms: C_3  and  C_4 
REMARK    4  A    between atoms: C_7  and  O_6 
REMARK    5  A    between atoms: C_9  and  C_10 
REMARK    6  A    between atoms: N_15  and  C_14 
REMARK    7  A    between atoms: N_20  and  C_19 
REMARK       I    between atoms: C_22  and  N_20 
ROOT
ATOM      1  C   LIG d   1      -2.062  75.762 114.732  0.00  0.00     0.161 C 
ATOM      2  C   LIG d   1      -1.901  75.187 116.003  0.00  0.00     0.016 C 
ATOM      3  C   LIG d   1      -1.156  75.791 117.042  0.00  0.00     0.038 C 
ATOM      4  C   LIG d   1      -0.644  77.092 116.928  0.00  0.00     0.028 C 
ATOM      5  C   LIG d   1      -0.352  77.503 115.489  0.00  0.00    -0.047 C 
ATOM      6  C   LIG d   1      -1.604  77.232 114.625  0.00  0.00     0.091 C 
ENDROOT
BRANCH   1   7
ATOM      7  O   LIG d   1      -3.433  75.632 114.307  0.00  0.00    -0.368 OA
BRANCH   7   8
ATOM      8  C   LIG d   1      -4.390  75.284 115.338  0.00  0.00     0.119 C 
BRANCH   8   9
ATOM      9  C   LIG d   1      -5.309  74.189 114.766  0.00  0.00     0.028 C 
ATOM     10  C   LIG d   1      -6.696  74.180 115.431  0.00  0.00     0.006 C 
ENDBRANCH   8   9
BRANCH   8  11
ATOM     11  C   LIG d   1      -5.314  76.462 115.661  0.00  0.00     0.028 C 
ATOM     12  C   LIG d   1      -4.724  77.412 116.715  0.00  0.00     0.006 C 
ENDBRANCH   8  11
ENDBRANCH   7   8
ENDBRANCH   1   7
BRANCH   6  13
ATOM     13  N   LIG d   1      -1.376  77.528 113.186  0.00  0.00    -0.311 N 
ATOM     14  C   LIG d   1      -2.246  78.191 112.427  0.00  0.00     0.210 C 
ATOM     15  C   LIG d   1      -1.824  78.371 110.966  0.00  0.00     0.109 C 
ATOM     16  O   LIG d   1      -3.314  78.675 112.833  0.00  0.00    -0.276 OA
ATOM     17  H   LIG d   1      -0.521  77.199 112.783  0.00  0.00     0.149 HD
ENDBRANCH   6  13
BRANCH   5  18
ATOM     18  N   LIG d   1       0.044  78.924 115.503  0.00  0.00     0.381 N 
ATOM     19  H   LIG d   1      -0.203  79.336 116.381  0.00  0.00    -0.090 HD
ATOM     20  H   LIG d   1      -0.454  79.408 114.777  0.00  0.00    -0.090 HD
ATOM     21  H   LIG d   1       1.026  79.006 115.354  0.00  0.00    -0.090 HD
ENDBRANCH   5  18
BRANCH   3  22
ATOM     22  C   LIG d   1      -0.883  75.075 118.198  0.00  0.00     0.382 C 
ATOM     23  O   LIG d   1      -1.745  74.297 118.672  0.00  0.00    -0.241 OA
ATOM     24  O   LIG d   1       0.199  75.230 118.796  0.00  0.00    -0.241 OA
ENDBRANCH   3  22
TORSDOF 7
ENDMDL
MODEL 2
REMARK VINA RESULT:      -5.2      2.425      5.165
REMARK  7 active torsions:
REMARK  status: ('A' for Active; 'I' for Inactive)
REMARK    1  A    between atoms: C_2  and  C_3 
REMARK    2  A    between atoms: C_3  and  O_6 
REMARK    3  A    between atoms: C_3  and  C_4 
REMARK    4  A    between atoms: C_7  and  O_6 
REMARK    5  A    between atoms: C_9  and  C_10 
REMARK    6  A    between atoms: N_15  and  C_14 
REMARK    7  A    between atoms: N_20  and  C_19 
REMARK       I    between atoms: C_22  and  N_20 
ROOT
ATOM      1  C   LIG d   1      -2.805  78.521 115.409  0.00  0.00     0.161 C 
ATOM      2  C   LIG d   1      -2.870  79.698 114.645  0.00  0.00     0.016 C 
ATOM      3  C   LIG d   1      -2.334  79.810 113.342  0.00  0.00     0.038 C 
ATOM      4  C   LIG d   1      -1.826  78.700 112.650  0.00  0.00     0.028 C 
ATOM      5  C   LIG d   1      -1.282  77.612 113.569  0.00  0.00    -0.047 C 
ATOM      6  C   LIG d   1      -2.353  77.268 114.629  0.00  0.00     0.091 C 
ENDROOT
BRANCH   1   7
ATOM      7  O   LIG d   1      -4.074  78.282 116.049  0.00  0.00    -0.368 OA
BRANCH   7   8
ATOM      8  C   LIG d   1      -4.059  78.235 117.497  0.00  0.00     0.119 C 
BRANCH   8   9
ATOM      9  C   LIG d   1      -5.233  77.343 117.943  0.00  0.00     0.028 C 
ATOM     10  C   LIG d   1      -5.854  76.561 116.773  0.00  0.00     0.006 C 
ENDBRANCH   8   9
BRANCH   8  11
ATOM     11  C   LIG d   1      -4.345  79.613 118.102  0.00  0.00     0.028 C 
ATOM     12  C   LIG d   1      -5.716  80.172 117.690  0.00  0.00     0.006 C 
ENDBRANCH   8  11
ENDBRANCH   7   8
ENDBRANCH   1   7
BRANCH   6  13
ATOM     13  N   LIG d   1      -1.871  76.271 115.620  0.00  0.00    -0.311 N 
ATOM     14  C   LIG d   1      -2.425  75.070 115.781  0.00  0.00     0.210 C 
ATOM     15  C   LIG d   1      -1.786  74.205 116.872  0.00  0.00     0.109 C 
ATOM     16  O   LIG d   1      -3.364  74.628 115.102  0.00  0.00    -0.276 OA
ATOM     17  H   LIG d   1      -1.093  76.536 116.192  0.00  0.00     0.149 HD
ENDBRANCH   6  13
BRANCH   5  18
ATOM     18  N   LIG d   1      -0.913  76.459 112.725  0.00  0.00     0.381 N 
ATOM     19  H   LIG d   1      -1.233  76.609 111.789  0.00  0.00    -0.090 HD
ATOM     20  H   LIG d   1      -1.364  75.636 113.084  0.00  0.00    -0.090 HD
ATOM     21  H   LIG d   1       0.075  76.335 112.731  0.00  0.00    -0.090 HD
ENDBRANCH   5  18
BRANCH   3  22
ATOM     22  C   LIG d   1      -2.267  81.054 112.731  0.00  0.00     0.382 C 
ATOM     23  O   LIG d   1      -3.065  81.961 113.068  0.00  0.00    -0.241 OA
ATOM     24  O   LIG d   1      -1.447  81.265 111.818  0.00  0.00    -0.241 OA
ENDBRANCH   3  22
TORSDOF 7
ENDMDL
MODEL 3
REMARK VINA RESULT:      -5.1      1.873      5.114
REMARK  7 active torsions:
REMARK  status: ('A' for Active; 'I' for Inactive)
REMARK    1  A    between atoms: C_2  and  C_3 
REMARK    2  A    between atoms: C_3  and  O_6 
REMARK    3  A    between atoms: C_3  and  C_4 
REMARK    4  A    between atoms: C_7  and  O_6 
REMARK    5  A    between atoms: C_9  and  C_10 
REMARK    6  A    between atoms: N_15  and  C_14 
REMARK    7  A    between atoms: N_20  and  C_19 
REMARK       I    between atoms: C_22  and  N_20 
ROOT
ATOM      1  C   LIG d   1      -2.294  78.030 116.334  0.00  0.00     0.161 C 
ATOM      2  C   LIG d   1      -2.683  78.940 115.337  0.00  0.00     0.016 C 
ATOM      3  C   LIG d   1      -2.242  78.860 113.996  0.00  0.00     0.038 C 
ATOM      4  C   LIG d   1      -1.498  77.768 113.524  0.00  0.00     0.028 C 
ATOM      5  C   LIG d   1      -0.663  77.092 114.606  0.00  0.00    -0.047 C 
ATOM      6  C   LIG d   1      -1.572  76.770 115.814  0.00  0.00     0.091 C 
ENDROOT
BRANCH   1   7
ATOM      7  O   LIG d   1      -3.437  77.660 117.130  0.00  0.00    -0.368 OA
BRANCH   7   8
ATOM      8  C   LIG d   1      -4.702  77.573 116.428  0.00  0.00     0.119 C 
BRANCH   8   9
ATOM      9  C   LIG d   1      -5.782  78.179 117.344  0.00  0.00     0.028 C 
ATOM     10  C   LIG d   1      -5.580  79.687 117.571  0.00  0.00     0.006 C 
ENDBRANCH   8   9
BRANCH   8  11
ATOM     11  C   LIG d   1      -5.122  76.115 116.215  0.00  0.00     0.028 C 
ATOM     12  C   LIG d   1      -4.962  75.656 114.757  0.00  0.00     0.006 C 
ENDBRANCH   8  11
ENDBRANCH   7   8
ENDBRANCH   1   7
BRANCH   6  13
ATOM     13  N   LIG d   1      -0.817  76.182 116.951  0.00  0.00    -0.311 N 
ATOM     14  C   LIG d   1      -1.188  75.068 117.580  0.00  0.00     0.210 C 
ATOM     15  C   LIG d   1      -0.279  74.647 118.739  0.00  0.00     0.109 C 
ATOM     16  O   LIG d   1      -2.167  74.373 117.269  0.00  0.00    -0.276 OA
ATOM     17  H   LIG d   1       0.008  76.665 117.249  0.00  0.00     0.149 HD
ENDBRANCH   6  13
BRANCH   5  18
ATOM     18  N   LIG d   1      -0.048  75.891 114.008  0.00  0.00     0.381 N 
ATOM     19  H   LIG d   1       0.654  76.162 113.349  0.00  0.00    -0.090 HD
ATOM     20  H   LIG d   1      -0.756  75.372 113.520  0.00  0.00    -0.090 HD
ATOM     21  H   LIG d   1       0.357  75.325 114.721  0.00  0.00    -0.090 HD
ENDBRANCH   5  18
BRANCH   3  22
ATOM     22  C   LIG d   1      -2.513  79.900 113.120  0.00  0.00     0.382 C 
ATOM     23  O   LIG d   1      -3.028  80.962 113.548  0.00  0.00    -0.241 OA
ATOM     24  O   LIG d   1      -2.290  79.775 111.902  0.00  0.00    -0.241 OA
ENDBRANCH   3  22
TORSDOF 7
ENDMDL
MODEL 4
REMARK VINA RESULT:      -4.9      2.548      5.366
REMARK  7 active torsions:
REMARK  status: ('A' for Active; 'I' for Inactive)
REMARK    1  A    between atoms: C_2  and  C_3 
REMARK    2  A    between atoms: C_3  and  O_6 
REMARK    3  A    between atoms: C_3  and  C_4 
REMARK    4  A    between atoms: C_7  and  O_6 
REMARK    5  A    between atoms: C_9  and  C_10 
REMARK    6  A    between atoms: N_15  and  C_14 
REMARK    7  A    between atoms: N_20  and  C_19 
REMARK       I    between atoms: C_22  and  N_20 
ROOT
ATOM      1  C   LIG d   1      -2.904  78.329 115.430  0.00  0.00     0.161 C 
ATOM      2  C   LIG d   1      -2.960  79.477 114.621  0.00  0.00     0.016 C 
ATOM      3  C   LIG d   1      -2.323  79.574 113.363  0.00  0.00     0.038 C 
ATOM      4  C   LIG d   1      -1.707  78.469 112.756  0.00  0.00     0.028 C 
ATOM      5  C   LIG d   1      -1.192  77.439 113.755  0.00  0.00    -0.047 C 
ATOM      6  C   LIG d   1      -2.331  77.076 114.735  0.00  0.00     0.091 C 
ENDROOT
BRANCH   1   7
ATOM      7  O   LIG d   1      -4.210  78.049 115.971  0.00  0.00    -0.368 OA
BRANCH   7   8
ATOM      8  C   LIG d   1      -4.402  78.370 117.371  0.00  0.00     0.119 C 
BRANCH   8   9
ATOM      9  C   LIG d   1      -5.049  79.767 117.442  0.00  0.00     0.028 C 
ATOM     10  C   LIG d   1      -6.480  79.723 118.001  0.00  0.00     0.006 C 
ENDBRANCH   8   9
BRANCH   8  11
ATOM     11  C   LIG d   1      -3.062  78.506 118.100  0.00  0.00     0.028 C 
ATOM     12  C   LIG d   1      -2.896  77.484 119.236  0.00  0.00     0.006 C 
ENDBRANCH   8  11
ENDBRANCH   7   8
ENDBRANCH   1   7
BRANCH   6  13
ATOM     13  N   LIG d   1      -1.888  76.136 115.797  0.00  0.00    -0.311 N 
ATOM     14  C   LIG d   1      -2.511  74.991 116.070  0.00  0.00     0.210 C 
ATOM     15  C   LIG d   1      -1.900  74.180 117.217  0.00  0.00     0.109 C 
ATOM     16  O   LIG d   1      -3.492  74.555 115.450  0.00  0.00    -0.276 OA
ATOM     17  H   LIG d   1      -1.080  76.397 116.329  0.00  0.00     0.149 HD
ENDBRANCH   6  13
BRANCH   5  18
ATOM     18  N   LIG d   1      -0.700  76.280 112.986  0.00  0.00     0.381 N 
ATOM     19  H   LIG d   1      -1.346  75.520 113.068  0.00  0.00    -0.090 HD
ATOM     20  H   LIG d   1       0.181  75.987 113.368  0.00  0.00    -0.090 HD
ATOM     21  H   LIG d   1      -0.589  76.529 112.028  0.00  0.00    -0.090 HD
ENDBRANCH   5  18
BRANCH   3  22
ATOM     22  C   LIG d   1      -2.262  80.799 112.717  0.00  0.00     0.382 C 
ATOM     23  O   LIG d   1      -1.388  81.003 111.840  0.00  0.00    -0.241 OA
ATOM     24  O   LIG d   1      -3.043  81.718 113.030  0.00  0.00    -0.241 OA
ENDBRANCH   3  22
TORSDOF 7
ENDMDL
MODEL 5
REMARK VINA RESULT:      -4.9      0.881      1.818
REMARK  7 active torsions:
REMARK  status: ('A' for Active; 'I' for Inactive)
REMARK    1  A    between atoms: C_2  and  C_3 
REMARK    2  A    between atoms: C_3  and  O_6 
REMARK    3  A    between atoms: C_3  and  C_4 
REMARK    4  A    between atoms: C_7  and  O_6 
REMARK    5  A    between atoms: C_9  and  C_10 
REMARK    6  A    between atoms: N_15  and  C_14 
REMARK    7  A    between atoms: N_20  and  C_19 
REMARK       I    between atoms: C_22  and  N_20 
ROOT
ATOM      1  C   LIG d   1      -1.820  75.831 115.094  0.00  0.00     0.161 C 
ATOM      2  C   LIG d   1      -1.341  75.565 116.388  0.00  0.00     0.016 C 
ATOM      3  C   LIG d   1      -0.647  76.515 117.171  0.00  0.00     0.038 C 
ATOM      4  C   LIG d   1      -0.516  77.853 116.770  0.00  0.00     0.028 C 
ATOM      5  C   LIG d   1      -0.541  78.037 115.257  0.00  0.00    -0.047 C 
ATOM      6  C   LIG d   1      -1.784  77.318 114.684  0.00  0.00     0.091 C 
ENDROOT
BRANCH   1   7
ATOM      7  O   LIG d   1      -3.153  75.303 114.948  0.00  0.00    -0.368 OA
BRANCH   7   8
ATOM      8  C   LIG d   1      -4.236  76.248 115.129  0.00  0.00     0.119 C 
BRANCH   8   9
ATOM      9  C   LIG d   1      -4.685  76.162 116.600  0.00  0.00     0.028 C 
ATOM     10  C   LIG d   1      -4.443  77.474 117.366  0.00  0.00     0.006 C 
ENDBRANCH   8   9
BRANCH   8  11
ATOM     11  C   LIG d   1      -5.465  75.851 114.306  0.00  0.00     0.028 C 
ATOM     12  C   LIG d   1      -5.809  74.358 114.430  0.00  0.00     0.006 C 
ENDBRANCH   8  11
ENDBRANCH   7   8
ENDBRANCH   1   7
BRANCH   6  13
ATOM     13  N   LIG d   1      -1.839  77.377 113.200  0.00  0.00    -0.311 N 
ATOM     14  C   LIG d   1      -2.506  78.313 112.528  0.00  0.00     0.210 C 
ATOM     15  C   LIG d   1      -2.450  78.178 111.003  0.00  0.00     0.109 C 
ATOM     16  O   LIG d   1      -3.112  79.261 113.049  0.00  0.00    -0.276 OA
ATOM     17  H   LIG d   1      -1.349  76.663 112.697  0.00  0.00     0.149 HD
ENDBRANCH   6  13
BRANCH   5  18
ATOM     18  N   LIG d   1      -0.534  79.486 114.984  0.00  0.00     0.381 N 
ATOM     19  H   LIG d   1      -1.465  79.799 114.792  0.00  0.00    -0.090 HD
ATOM     20  H   LIG d   1       0.030  79.662 114.171  0.00  0.00    -0.090 HD
ATOM     21  H   LIG d   1      -0.165  79.979 115.766  0.00  0.00    -0.090 HD
ENDBRANCH   5  18
BRANCH   3  22
ATOM     22  C   LIG d   1      -0.041  76.120 118.354  0.00  0.00     0.382 C 
ATOM     23  O   LIG d   1       0.537  76.968 119.076  0.00  0.00    -0.241 OA
ATOM     24  O   LIG d   1      -0.025  74.919 118.685  0.00  0.00    -0.241 OA
ENDBRANCH   3  22
TORSDOF 7
ENDMDL
MODEL 6
REMARK VINA RESULT:      -4.8      2.678      5.198
REMARK  7 active torsions:
REMARK  status: ('A' for Active; 'I' for Inactive)
REMARK    1  A    between atoms: C_2  and  C_3 
REMARK    2  A    between atoms: C_3  and  O_6 
REMARK    3  A    between atoms: C_3  and  C_4 
REMARK    4  A    between atoms: C_7  and  O_6 
REMARK    5  A    between atoms: C_9  and  C_10 
REMARK    6  A    between atoms: N_15  and  C_14 
REMARK    7  A    between atoms: N_20  and  C_19 
REMARK       I    between atoms: C_22  and  N_20 
ROOT
ATOM      1  C   LIG d   1      -1.548  79.566 114.260  0.00  0.00     0.161 C 
ATOM      2  C   LIG d   1      -2.370  78.482 114.610  0.00  0.00     0.016 C 
ATOM      3  C   LIG d   1      -2.855  77.540 113.674  0.00  0.00     0.038 C 
ATOM      4  C   LIG d   1      -2.425  77.531 112.339  0.00  0.00     0.028 C 
ATOM      5  C   LIG d   1      -1.994  78.903 111.833  0.00  0.00    -0.047 C 
ATOM      6  C   LIG d   1      -0.977  79.509 112.827  0.00  0.00     0.091 C 
ENDROOT
BRANCH   1   7
ATOM      7  O   LIG d   1      -0.480  79.699 115.219  0.00  0.00    -0.368 OA
BRANCH   7   8
ATOM      8  C   LIG d   1      -0.659  78.997 116.473  0.00  0.00     0.119 C 
BRANCH   8   9
ATOM      9  C   LIG d   1      -0.247  79.958 117.605  0.00  0.00     0.028 C 
ATOM     10  C   LIG d   1      -1.263  79.975 118.760  0.00  0.00     0.006 C 
ENDBRANCH   8   9
BRANCH   8  11
ATOM     11  C   LIG d   1       0.296  77.805 116.586  0.00  0.00     0.028 C 
ATOM     12  C   LIG d   1      -0.319  76.618 117.345  0.00  0.00     0.006 C 
ENDBRANCH   8  11
ENDBRANCH   7   8
ENDBRANCH   1   7
BRANCH   6  13
ATOM     13  N   LIG d   1      -0.568  80.887 112.451  0.00  0.00    -0.311 N 
ATOM     14  C   LIG d   1      -1.435  81.870 112.212  0.00  0.00     0.210 C 
ATOM     15  C   LIG d   1      -0.803  83.209 111.819  0.00  0.00     0.109 C 
ATOM     16  O   LIG d   1      -2.666  81.769 112.321  0.00  0.00    -0.276 OA
ATOM     17  H   LIG d   1       0.414  81.065 112.370  0.00  0.00     0.149 HD
ENDBRANCH   6  13
BRANCH   5  18
ATOM     18  N   LIG d   1      -1.441  78.724 110.477  0.00  0.00     0.381 N 
ATOM     19  H   LIG d   1      -2.158  78.405 109.858  0.00  0.00    -0.090 HD
ATOM     20  H   LIG d   1      -0.719  78.026 110.510  0.00  0.00    -0.090 HD
ATOM     21  H   LIG d   1      -1.065  79.585 110.146  0.00  0.00    -0.090 HD
ENDBRANCH   5  18
BRANCH   3  22
ATOM     22  C   LIG d   1      -3.813  76.616 114.064  0.00  0.00     0.382 C 
ATOM     23  O   LIG d   1      -3.478  75.608 114.731  0.00  0.00    -0.241 OA
ATOM     24  O   LIG d   1      -5.002  76.754 113.717  0.00  0.00    -0.241 OA
ENDBRANCH   3  22
TORSDOF 7
ENDMDL
MODEL 7
REMARK VINA RESULT:      -4.6      1.876      2.102
REMARK  7 active torsions:
REMARK  status: ('A' for Active; 'I' for Inactive)
REMARK    1  A    between atoms: C_2  and  C_3 
REMARK    2  A    between atoms: C_3  and  O_6 
REMARK    3  A    between atoms: C_3  and  C_4 
REMARK    4  A    between atoms: C_7  and  O_6 
REMARK    5  A    between atoms: C_9  and  C_10 
REMARK    6  A    between atoms: N_15  and  C_14 
REMARK    7  A    between atoms: N_20  and  C_19 
REMARK       I    between atoms: C_22  and  N_20 
ROOT
ATOM      1  C   LIG d   1      -3.279  77.300 115.620  0.00  0.00     0.161 C 
ATOM      2  C   LIG d   1      -3.010  77.275 116.999  0.00  0.00     0.016 C 
ATOM      3  C   LIG d   1      -1.941  77.983 117.596  0.00  0.00     0.038 C 
ATOM      4  C   LIG d   1      -1.156  78.891 116.870  0.00  0.00     0.028 C 
ATOM      5  C   LIG d   1      -1.070  78.563 115.383  0.00  0.00    -0.047 C 
ATOM      6  C   LIG d   1      -2.501  78.372 114.828  0.00  0.00     0.091 C 
ENDROOT
BRANCH   1   7
ATOM      7  O   LIG d   1      -4.696  77.446 115.402  0.00  0.00    -0.368 OA
BRANCH   7   8
ATOM      8  C   LIG d   1      -5.539  76.414 115.971  0.00  0.00     0.119 C 
BRANCH   8   9
ATOM      9  C   LIG d   1      -6.032  75.527 114.812  0.00  0.00     0.028 C 
ATOM     10  C   LIG d   1      -5.291  74.181 114.747  0.00  0.00     0.006 C 
ENDBRANCH   8   9
BRANCH   8  11
ATOM     11  C   LIG d   1      -6.805  77.010 116.594  0.00  0.00     0.028 C 
ATOM     12  C   LIG d   1      -6.561  78.379 117.246  0.00  0.00     0.006 C 
ENDBRANCH   8  11
ENDBRANCH   7   8
ENDBRANCH   1   7
BRANCH   6  13
ATOM     13  N   LIG d   1      -2.505  77.966 113.399  0.00  0.00    -0.311 N 
ATOM     14  C   LIG d   1      -2.711  78.818 112.396  0.00  0.00     0.210 C 
ATOM     15  C   LIG d   1      -2.694  78.188 110.999  0.00  0.00     0.109 C 
ATOM     16  O   LIG d   1      -2.874  80.040 112.528  0.00  0.00    -0.276 OA
ATOM     17  H   LIG d   1      -2.349  76.997 113.199  0.00  0.00     0.149 HD
ENDBRANCH   6  13
BRANCH   5  18
ATOM     18  N   LIG d   1      -0.338  79.662 114.726  0.00  0.00     0.381 N 
ATOM     19  H   LIG d   1      -0.893  80.495 114.739  0.00  0.00    -0.090 HD
ATOM     20  H   LIG d   1      -0.168  79.412 113.768  0.00  0.00    -0.090 HD
ATOM     21  H   LIG d   1       0.527  79.824 115.193  0.00  0.00    -0.090 HD
ENDBRANCH   5  18
BRANCH   3  22
ATOM     22  C   LIG d   1      -1.625  77.756 118.927  0.00  0.00     0.382 C 
ATOM     23  O   LIG d   1      -0.431  77.823 119.308  0.00  0.00    -0.241 OA
ATOM     24  O   LIG d   1      -2.512  77.441 119.742  0.00  0.00    -0.241 OA
ENDBRANCH   3  22
TORSDOF 7
ENDMDL
MODEL 8
REMARK VINA RESULT:      -4.6      1.846      2.465
REMARK  7 active torsions:
REMARK  status: ('A' for Active; 'I' for Inactive)
REMARK    1  A    between atoms: C_2  and  C_3 
REMARK    2  A    between atoms: C_3  and  O_6 
REMARK    3  A    between atoms: C_3  and  C_4 
REMARK    4  A    between atoms: C_7  and  O_6 
REMARK    5  A    between atoms: C_9  and  C_10 
REMARK    6  A    between atoms: N_15  and  C_14 
REMARK    7  A    between atoms: N_20  and  C_19 
REMARK       I    between atoms: C_22  and  N_20 
ROOT
ATOM      1  C   LIG d   1      -3.583  77.003 115.931  0.00  0.00     0.161 C 
ATOM      2  C   LIG d   1      -3.317  76.481 117.207  0.00  0.00     0.016 C 
ATOM      3  C   LIG d   1      -2.027  76.092 117.636  0.00  0.00     0.038 C 
ATOM      4  C   LIG d   1      -0.883  76.341 116.864  0.00  0.00     0.028 C 
ATOM      5  C   LIG d   1      -1.164  76.403 115.366  0.00  0.00    -0.047 C 
ATOM      6  C   LIG d   1      -2.330  77.386 115.115  0.00  0.00     0.091 C 
ENDROOT
BRANCH   1   7
ATOM      7  O   LIG d   1      -4.474  78.131 116.040  0.00  0.00    -0.368 OA
BRANCH   7   8
ATOM      8  C   LIG d   1      -5.102  78.325 117.331  0.00  0.00     0.119 C 
BRANCH   8   9
ATOM      9  C   LIG d   1      -6.625  78.215 117.126  0.00  0.00     0.028 C 
ATOM     10  C   LIG d   1      -7.060  76.801 116.705  0.00  0.00     0.006 C 
ENDBRANCH   8   9
BRANCH   8  11
ATOM     11  C   LIG d   1      -4.865  79.743 117.859  0.00  0.00     0.028 C 
ATOM     12  C   LIG d   1      -6.126  80.619 117.801  0.00  0.00     0.006 C 
ENDBRANCH   8  11
ENDBRANCH   7   8
ENDBRANCH   1   7
BRANCH   6  13
ATOM     13  N   LIG d   1      -2.726  77.443 113.683  0.00  0.00    -0.311 N 
ATOM     14  C   LIG d   1      -2.214  78.313 112.815  0.00  0.00     0.210 C 
ATOM     15  C   LIG d   1      -2.774  78.214 111.393  0.00  0.00     0.109 C 
ATOM     16  O   LIG d   1      -1.326  79.137 113.080  0.00  0.00    -0.276 OA
ATOM     17  H   LIG d   1      -3.418  76.789 113.375  0.00  0.00     0.149 HD
ENDBRANCH   6  13
BRANCH   5  18
ATOM     18  N   LIG d   1       0.086  76.805 114.694  0.00  0.00     0.381 N 
ATOM     19  H   LIG d   1      -0.089  77.583 114.090  0.00  0.00    -0.090 HD
ATOM     20  H   LIG d   1       0.415  76.038 114.134  0.00  0.00    -0.090 HD
ATOM     21  H   LIG d   1       0.774  77.050 115.372  0.00  0.00    -0.090 HD
ENDBRANCH   5  18
BRANCH   3  22
ATOM     22  C   LIG d   1      -1.878  75.409 118.833  0.00  0.00     0.382 C 
ATOM     23  O   LIG d   1      -1.614  74.182 118.827  0.00  0.00    -0.241 OA
ATOM     24  O   LIG d   1      -2.048  75.994 119.920  0.00  0.00    -0.241 OA
ENDBRANCH   3  22
TORSDOF 7
ENDMDL
MODEL 9
REMARK VINA RESULT:      -4.5      2.530      4.813
REMARK  7 active torsions:
REMARK  status: ('A' for Active; 'I' for Inactive)
REMARK    1  A    between atoms: C_2  and  C_3 
REMARK    2  A    between atoms: C_3  and  O_6 
REMARK    3  A    between atoms: C_3  and  C_4 
REMARK    4  A    between atoms: C_7  and  O_6 
REMARK    5  A    between atoms: C_9  and  C_10 
REMARK    6  A    between atoms: N_15  and  C_14 
REMARK    7  A    between atoms: N_20  and  C_19 
REMARK       I    between atoms: C_22  and  N_20 
ROOT
ATOM      1  C   LIG d   1      -2.658  78.724 115.577  0.00  0.00     0.161 C 
ATOM      2  C   LIG d   1      -1.410  79.271 115.919  0.00  0.00     0.016 C 
ATOM      3  C   LIG d   1      -0.469  78.610 116.742  0.00  0.00     0.038 C 
ATOM      4  C   LIG d   1      -0.652  77.284 117.159  0.00  0.00     0.028 C 
ATOM      5  C   LIG d   1      -2.118  76.876 117.258  0.00  0.00    -0.047 C 
ATOM      6  C   LIG d   1      -2.828  77.232 115.931  0.00  0.00     0.091 C 
ENDROOT
BRANCH   1   7
ATOM      7  O   LIG d   1      -2.919  78.940 114.176  0.00  0.00    -0.368 OA
BRANCH   7   8
ATOM      8  C   LIG d   1      -1.777  78.829 113.291  0.00  0.00     0.119 C 
BRANCH   8   9
ATOM      9  C   LIG d   1      -1.754  80.090 112.405  0.00  0.00     0.028 C 
ATOM     10  C   LIG d   1      -2.782  81.142 112.855  0.00  0.00     0.006 C 
ENDBRANCH   8   9
BRANCH   8  11
ATOM     11  C   LIG d   1      -1.937  77.655 112.321  0.00  0.00     0.028 C 
ATOM     12  C   LIG d   1      -2.625  78.057 111.007  0.00  0.00     0.006 C 
ENDBRANCH   8  11
ENDBRANCH   7   8
ENDBRANCH   1   7
BRANCH   6  13
ATOM     13  N   LIG d   1      -4.286  76.943 115.973  0.00  0.00    -0.311 N 
ATOM     14  C   LIG d   1      -4.902  76.155 115.094  0.00  0.00     0.210 C 
ATOM     15  C   LIG d   1      -6.412  76.007 115.307  0.00  0.00     0.109 C 
ATOM     16  O   LIG d   1      -4.337  75.538 114.179  0.00  0.00    -0.276 OA
ATOM     17  H   LIG d   1      -4.816  77.378 116.703  0.00  0.00     0.149 HD
ENDBRANCH   6  13
BRANCH   5  18
ATOM     18  N   LIG d   1      -2.160  75.434 117.567  0.00  0.00     0.381 N 
ATOM     19  H   LIG d   1      -1.829  75.278 118.498  0.00  0.00    -0.090 HD
ATOM     20  H   LIG d   1      -1.554  74.947 116.931  0.00  0.00    -0.090 HD
ATOM     21  H   LIG d   1      -3.092  75.093 117.477  0.00  0.00    -0.090 HD
ENDBRANCH   5  18
BRANCH   3  22
ATOM     22  C   LIG d   1       0.651  79.293 117.190  0.00  0.00     0.382 C 
ATOM     23  O   LIG d   1       0.833  80.488 116.854  0.00  0.00    -0.241 OA
ATOM     24  O   LIG d   1       1.505  78.715 117.889  0.00  0.00    -0.241 OA
ENDBRANCH   3  22
TORSDOF 7
ENDMDL
