MODEL 1
REMARK VINA RESULT:      -5.7      0.000      0.000
REMARK  7 active torsions:
REMARK  status: ('A' for Active; 'I' for Inactive)
REMARK    1  A    between atoms: C_2  and  C_3 
REMARK    2  A    between atoms: C_3  and  O_6 
REMARK    3  A    between atoms: C_3  and  C_4 
REMARK    4  A    between atoms: C_7  and  O_6 
REMARK    5  A    between atoms: C_9  and  C_10 
REMARK    6  A    between atoms: N_15  and  C_14 
REMARK    7  A    between atoms: N_20  and  C_19 
REMARK       I    between atoms: C_22  and  N_20 
ROOT
ATOM      1  C   LIG d   1      -3.179  77.695 114.059  0.00  0.00     0.161 C 
ATOM      2  C   LIG d   1      -3.216  78.926 113.383  0.00  0.00     0.016 C 
ATOM      3  C   LIG d   1      -2.097  79.781 113.260  0.00  0.00     0.038 C 
ATOM      4  C   LIG d   1      -0.816  79.390 113.677  0.00  0.00     0.028 C 
ATOM      5  C   LIG d   1      -0.833  78.373 114.814  0.00  0.00    -0.047 C 
ATOM      6  C   LIG d   1      -1.763  77.201 114.425  0.00  0.00     0.091 C 
ENDROOT
BRANCH   1   7
ATOM      7  O   LIG d   1      -3.876  76.695 113.292  0.00  0.00    -0.368 OA
BRANCH   7   8
ATOM      8  C   LIG d   1      -5.122  76.214 113.853  0.00  0.00     0.119 C 
BRANCH   8   9
ATOM      9  C   LIG d   1      -5.016  74.682 113.973  0.00  0.00     0.028 C 
ATOM     10  C   LIG d   1      -5.316  74.182 115.396  0.00  0.00     0.006 C 
ENDBRANCH   8   9
BRANCH   8  11
ATOM     11  C   LIG d   1      -6.296  76.466 112.902  0.00  0.00     0.028 C 
ATOM     12  C   LIG d   1      -5.847  76.981 111.525  0.00  0.00     0.006 C 
ENDBRANCH   8  11
ENDBRANCH   7   8
ENDBRANCH   1   7
BRANCH   6  13
ATOM     13  N   LIG d   1      -1.903  76.202 115.516  0.00  0.00    -0.311 N 
ATOM     14  C   LIG d   1      -1.184  75.083 115.583  0.00  0.00     0.210 C 
ATOM     15  C   LIG d   1      -1.500  74.182 116.780  0.00  0.00     0.109 C 
ATOM     16  O   LIG d   1      -0.291  74.768 114.782  0.00  0.00    -0.276 OA
ATOM     17  H   LIG d   1      -2.583  76.394 116.226  0.00  0.00     0.149 HD
ENDBRANCH   6  13
BRANCH   5  18
ATOM     18  N   LIG d   1       0.559  77.950 115.055  0.00  0.00     0.381 N 
ATOM     19  H   LIG d   1       0.661  77.642 116.002  0.00  0.00    -0.090 HD
ATOM     20  H   LIG d   1       1.167  78.738 114.913  0.00  0.00    -0.090 HD
ATOM     21  H   LIG d   1       0.806  77.214 114.431  0.00  0.00    -0.090 HD
ENDBRANCH   5  18
BRANCH   3  22
ATOM     22  C   LIG d   1      -2.261  81.059 112.749  0.00  0.00     0.382 C 
ATOM     23  O   LIG d   1      -1.292  81.651 112.215  0.00  0.00    -0.241 OA
ATOM     24  O   LIG d   1      -3.355  81.646 112.854  0.00  0.00    -0.241 OA
ENDBRANCH   3  22
TORSDOF 7
ENDMDL
MODEL 2
REMARK VINA RESULT:      -5.5      3.439      7.011
REMARK  7 active torsions:
REMARK  status: ('A' for Active; 'I' for Inactive)
REMARK    1  A    between atoms: C_2  and  C_3 
REMARK    2  A    between atoms: C_3  and  O_6 
REMARK    3  A    between atoms: C_3  and  C_4 
REMARK    4  A    between atoms: C_7  and  O_6 
REMARK    5  A    between atoms: C_9  and  C_10 
REMARK    6  A    between atoms: N_15  and  C_14 
REMARK    7  A    between atoms: N_20  and  C_19 
REMARK       I    between atoms: C_22  and  N_20 
ROOT
ATOM      1  C   LIG d   1      -0.131  80.189 111.472  0.00  0.00     0.161 C 
ATOM      2  C   LIG d   1      -1.194  79.287 111.295  0.00  0.00     0.016 C 
ATOM      3  C   LIG d   1      -1.965  78.775 112.364  0.00  0.00     0.038 C 
ATOM      4  C   LIG d   1      -1.821  79.250 113.676  0.00  0.00     0.028 C 
ATOM      5  C   LIG d   1      -0.425  79.785 113.977  0.00  0.00    -0.047 C 
ATOM      6  C   LIG d   1      -0.031  80.803 112.884  0.00  0.00     0.091 C 
ENDROOT
BRANCH   1   7
ATOM      7  O   LIG d   1      -0.202  81.229 110.477  0.00  0.00    -0.368 OA
BRANCH   7   8
ATOM      8  C   LIG d   1       0.838  81.219 109.468  0.00  0.00     0.119 C 
BRANCH   8   9
ATOM      9  C   LIG d   1       1.785  80.047 109.792  0.00  0.00     0.028 C 
ATOM     10  C   LIG d   1       3.257  80.487 109.868  0.00  0.00     0.006 C 
ENDBRANCH   8   9
BRANCH   8  11
ATOM     11  C   LIG d   1       1.707  82.478 109.551  0.00  0.00     0.028 C 
ATOM     12  C   LIG d   1       0.892  83.745 109.853  0.00  0.00     0.006 C 
ENDBRANCH   8  11
ENDBRANCH   7   8
ENDBRANCH   1   7
BRANCH   6  13
ATOM     13  N   LIG d   1       1.354  81.313 113.056  0.00  0.00    -0.311 N 
ATOM     14  C   LIG d   1       1.640  82.589 113.305  0.00  0.00     0.210 C 
ATOM     15  C   LIG d   1       3.134  82.905 113.428  0.00  0.00     0.109 C 
ATOM     16  O   LIG d   1       0.797  83.484 113.468  0.00  0.00    -0.276 OA
ATOM     17  H   LIG d   1       2.098  80.648 112.971  0.00  0.00     0.149 HD
ENDBRANCH   6  13
BRANCH   5  18
ATOM     18  N   LIG d   1      -0.456  80.372 115.330  0.00  0.00     0.381 N 
ATOM     19  H   LIG d   1      -0.060  79.729 115.987  0.00  0.00    -0.090 HD
ATOM     20  H   LIG d   1      -1.411  80.540 115.590  0.00  0.00    -0.090 HD
ATOM     21  H   LIG d   1       0.055  81.227 115.343  0.00  0.00    -0.090 HD
ENDBRANCH   5  18
BRANCH   3  22
ATOM     22  C   LIG d   1      -2.865  77.747 112.130  0.00  0.00     0.382 C 
ATOM     23  O   LIG d   1      -3.113  76.913 113.034  0.00  0.00    -0.241 OA
ATOM     24  O   LIG d   1      -3.400  77.617 111.013  0.00  0.00    -0.241 OA
ENDBRANCH   3  22
TORSDOF 7
ENDMDL
MODEL 3
REMARK VINA RESULT:      -5.3      0.497      1.714
REMARK  7 active torsions:
REMARK  status: ('A' for Active; 'I' for Inactive)
REMARK    1  A    between atoms: C_2  and  C_3 
REMARK    2  A    between atoms: C_3  and  O_6 
REMARK    3  A    between atoms: C_3  and  C_4 
REMARK    4  A    between atoms: C_7  and  O_6 
REMARK    5  A    between atoms: C_9  and  C_10 
REMARK    6  A    between atoms: N_15  and  C_14 
REMARK    7  A    between atoms: N_20  and  C_19 
REMARK       I    between atoms: C_22  and  N_20 
ROOT
ATOM      1  C   LIG d   1      -3.235  77.718 113.986  0.00  0.00     0.161 C 
ATOM      2  C   LIG d   1      -3.266  78.961 113.332  0.00  0.00     0.016 C 
ATOM      3  C   LIG d   1      -2.151  79.828 113.255  0.00  0.00     0.038 C 
ATOM      4  C   LIG d   1      -0.879  79.440 113.700  0.00  0.00     0.028 C 
ATOM      5  C   LIG d   1      -0.917  78.402 114.817  0.00  0.00    -0.047 C 
ATOM      6  C   LIG d   1      -1.825  77.230 114.380  0.00  0.00     0.091 C 
ENDROOT
BRANCH   1   7
ATOM      7  O   LIG d   1      -3.902  76.726 113.181  0.00  0.00    -0.368 OA
BRANCH   7   8
ATOM      8  C   LIG d   1      -5.059  76.092 113.779  0.00  0.00     0.119 C 
BRANCH   8   9
ATOM      9  C   LIG d   1      -6.284  76.459 112.920  0.00  0.00     0.028 C 
ATOM     10  C   LIG d   1      -5.897  76.854 111.484  0.00  0.00     0.006 C 
ENDBRANCH   8   9
BRANCH   8  11
ATOM     11  C   LIG d   1      -5.352  76.666 115.169  0.00  0.00     0.028 C 
ATOM     12  C   LIG d   1      -5.682  75.579 116.204  0.00  0.00     0.006 C 
ENDBRANCH   8  11
ENDBRANCH   7   8
ENDBRANCH   1   7
BRANCH   6  13
ATOM     13  N   LIG d   1      -1.986  76.209 115.449  0.00  0.00    -0.311 N 
ATOM     14  C   LIG d   1      -1.233  75.113 115.535  0.00  0.00     0.210 C 
ATOM     15  C   LIG d   1      -1.578  74.182 116.701  0.00  0.00     0.109 C 
ATOM     16  O   LIG d   1      -0.292  74.840 114.774  0.00  0.00    -0.276 OA
ATOM     17  H   LIG d   1      -2.706  76.367 116.126  0.00  0.00     0.149 HD
ENDBRANCH   6  13
BRANCH   5  18
ATOM     18  N   LIG d   1       0.472  77.987 115.088  0.00  0.00     0.381 N 
ATOM     19  H   LIG d   1       0.502  77.005 115.272  0.00  0.00    -0.090 HD
ATOM     20  H   LIG d   1       0.802  78.472 115.904  0.00  0.00    -0.090 HD
ATOM     21  H   LIG d   1       1.051  78.204 114.307  0.00  0.00    -0.090 HD
ENDBRANCH   5  18
BRANCH   3  22
ATOM     22  C   LIG d   1      -2.314  81.114 112.764  0.00  0.00     0.382 C 
ATOM     23  O   LIG d   1      -1.354  81.698 112.205  0.00  0.00    -0.241 OA
ATOM     24  O   LIG d   1      -3.395  81.716 112.913  0.00  0.00    -0.241 OA
ENDBRANCH   3  22
TORSDOF 7
ENDMDL
MODEL 4
REMARK VINA RESULT:      -5.2      2.123      2.534
REMARK  7 active torsions:
REMARK  status: ('A' for Active; 'I' for Inactive)
REMARK    1  A    between atoms: C_2  and  C_3 
REMARK    2  A    between atoms: C_3  and  O_6 
REMARK    3  A    between atoms: C_3  and  C_4 
REMARK    4  A    between atoms: C_7  and  O_6 
REMARK    5  A    between atoms: C_9  and  C_10 
REMARK    6  A    between atoms: N_15  and  C_14 
REMARK    7  A    between atoms: N_20  and  C_19 
REMARK       I    between atoms: C_22  and  N_20 
ROOT
ATOM      1  C   LIG d   1      -3.000  78.348 115.296  0.00  0.00     0.161 C 
ATOM      2  C   LIG d   1      -3.110  79.532 114.548  0.00  0.00     0.016 C 
ATOM      3  C   LIG d   1      -2.267  79.844 113.456  0.00  0.00     0.038 C 
ATOM      4  C   LIG d   1      -1.349  78.918 112.939  0.00  0.00     0.028 C 
ATOM      5  C   LIG d   1      -0.856  77.912 113.974  0.00  0.00    -0.047 C 
ATOM      6  C   LIG d   1      -2.078  77.276 114.678  0.00  0.00     0.091 C 
ENDROOT
BRANCH   1   7
ATOM      7  O   LIG d   1      -4.311  77.801 115.539  0.00  0.00    -0.368 OA
BRANCH   7   8
ATOM      8  C   LIG d   1      -4.775  77.846 116.911  0.00  0.00     0.119 C 
BRANCH   8   9
ATOM      9  C   LIG d   1      -5.498  76.516 117.199  0.00  0.00     0.028 C 
ATOM     10  C   LIG d   1      -5.963  75.811 115.914  0.00  0.00     0.006 C 
ENDBRANCH   8   9
BRANCH   8  11
ATOM     11  C   LIG d   1      -5.835  78.934 117.105  0.00  0.00     0.028 C 
ATOM     12  C   LIG d   1      -5.289  80.176 117.827  0.00  0.00     0.006 C 
ENDBRANCH   8  11
ENDBRANCH   7   8
ENDBRANCH   1   7
BRANCH   6  13
ATOM     13  N   LIG d   1      -1.683  76.342 115.764  0.00  0.00    -0.311 N 
ATOM     14  C   LIG d   1      -2.106  75.081 115.836  0.00  0.00     0.210 C 
ATOM     15  C   LIG d   1      -1.596  74.296 117.049  0.00  0.00     0.109 C 
ATOM     16  O   LIG d   1      -2.830  74.529 114.994  0.00  0.00    -0.276 OA
ATOM     17  H   LIG d   1      -1.072  76.698 116.473  0.00  0.00     0.149 HD
ENDBRANCH   6  13
BRANCH   5  18
ATOM     18  N   LIG d   1      -0.015  76.925 113.272  0.00  0.00     0.381 N 
ATOM     19  H   LIG d   1       0.665  77.398 112.711  0.00  0.00    -0.090 HD
ATOM     20  H   LIG d   1      -0.598  76.376 112.664  0.00  0.00    -0.090 HD
ATOM     21  H   LIG d   1       0.440  76.333 113.931  0.00  0.00    -0.090 HD
ENDBRANCH   5  18
BRANCH   3  22
ATOM     22  C   LIG d   1      -2.312  81.111 112.894  0.00  0.00     0.382 C 
ATOM     23  O   LIG d   1      -1.270  81.620 112.414  0.00  0.00    -0.241 OA
ATOM     24  O   LIG d   1      -3.370  81.768 112.900  0.00  0.00    -0.241 OA
ENDBRANCH   3  22
TORSDOF 7
ENDMDL
MODEL 5
REMARK VINA RESULT:      -4.8      1.739      2.256
REMARK  7 active torsions:
REMARK  status: ('A' for Active; 'I' for Inactive)
REMARK    1  A    between atoms: C_2  and  C_3 
REMARK    2  A    between atoms: C_3  and  O_6 
REMARK    3  A    between atoms: C_3  and  C_4 
REMARK    4  A    between atoms: C_7  and  O_6 
REMARK    5  A    between atoms: C_9  and  C_10 
REMARK    6  A    between atoms: N_15  and  C_14 
REMARK    7  A    between atoms: N_20  and  C_19 
REMARK       I    between atoms: C_22  and  N_20 
ROOT
ATOM      1  C   LIG d   1      -2.698  77.705 116.043  0.00  0.00     0.161 C 
ATOM      2  C   LIG d   1      -2.973  78.670 115.060  0.00  0.00     0.016 C 
ATOM      3  C   LIG d   1      -2.060  79.024 114.040  0.00  0.00     0.038 C 
ATOM      4  C   LIG d   1      -0.861  78.324 113.842  0.00  0.00     0.028 C 
ATOM      5  C   LIG d   1      -0.317  77.683 115.115  0.00  0.00    -0.047 C 
ATOM      6  C   LIG d   1      -1.439  76.852 115.777  0.00  0.00     0.091 C 
ENDROOT
BRANCH   1   7
ATOM      7  O   LIG d   1      -3.848  76.856 116.230  0.00  0.00    -0.368 OA
BRANCH   7   8
ATOM      8  C   LIG d   1      -4.749  76.746 115.101  0.00  0.00     0.119 C 
BRANCH   8   9
ATOM      9  C   LIG d   1      -6.182  76.654 115.660  0.00  0.00     0.028 C 
ATOM     10  C   LIG d   1      -6.396  77.566 116.879  0.00  0.00     0.006 C 
ENDBRANCH   8   9
BRANCH   8  11
ATOM     11  C   LIG d   1      -4.527  75.437 114.337  0.00  0.00     0.028 C 
ATOM     12  C   LIG d   1      -5.451  74.305 114.814  0.00  0.00     0.006 C 
ENDBRANCH   8  11
ENDBRANCH   7   8
ENDBRANCH   1   7
BRANCH   6  13
ATOM     13  N   LIG d   1      -1.016  76.259 117.073  0.00  0.00    -0.311 N 
ATOM     14  C   LIG d   1      -1.292  75.005 117.430  0.00  0.00     0.210 C 
ATOM     15  C   LIG d   1      -0.780  74.601 118.816  0.00  0.00     0.109 C 
ATOM     16  O   LIG d   1      -1.883  74.180 116.717  0.00  0.00    -0.276 OA
ATOM     17  H   LIG d   1      -0.504  76.849 117.699  0.00  0.00     0.149 HD
ENDBRANCH   6  13
BRANCH   5  18
ATOM     18  N   LIG d   1       0.857  76.873 114.739  0.00  0.00     0.381 N 
ATOM     19  H   LIG d   1       0.587  75.916 114.629  0.00  0.00    -0.090 HD
ATOM     20  H   LIG d   1       1.538  76.926 115.476  0.00  0.00    -0.090 HD
ATOM     21  H   LIG d   1       1.249  77.214 113.889  0.00  0.00    -0.090 HD
ENDBRANCH   5  18
BRANCH   3  22
ATOM     22  C   LIG d   1      -2.326  80.116 113.229  0.00  0.00     0.382 C 
ATOM     23  O   LIG d   1      -3.184  80.963 113.578  0.00  0.00    -0.241 OA
ATOM     24  O   LIG d   1      -1.752  80.243 112.131  0.00  0.00    -0.241 OA
ENDBRANCH   3  22
TORSDOF 7
ENDMDL
MODEL 6
REMARK VINA RESULT:      -4.8      2.125      2.796
REMARK  7 active torsions:
REMARK  status: ('A' for Active; 'I' for Inactive)
REMARK    1  A    between atoms: C_2  and  C_3 
REMARK    2  A    between atoms: C_3  and  O_6 
REMARK    3  A    between atoms: C_3  and  C_4 
REMARK    4  A    between atoms: C_7  and  O_6 
REMARK    5  A    between atoms: C_9  and  C_10 
REMARK    6  A    between atoms: N_15  and  C_14 
REMARK    7  A    between atoms: N_20  and  C_19 
REMARK       I    between atoms: C_22  and  N_20 
ROOT
ATOM      1  C   LIG d   1      -3.090  78.065 114.559  0.00  0.00     0.161 C 
ATOM      2  C   LIG d   1      -3.007  78.119 113.157  0.00  0.00     0.016 C 
ATOM      3  C   LIG d   1      -1.801  77.940 112.442  0.00  0.00     0.038 C 
ATOM      4  C   LIG d   1      -0.615  77.542 113.076  0.00  0.00     0.028 C 
ATOM      5  C   LIG d   1      -0.537  77.969 114.538  0.00  0.00    -0.047 C 
ATOM      6  C   LIG d   1      -1.828  77.522 115.261  0.00  0.00     0.091 C 
ENDROOT
BRANCH   1   7
ATOM      7  O   LIG d   1      -4.249  77.302 114.950  0.00  0.00    -0.368 OA
BRANCH   7   8
ATOM      8  C   LIG d   1      -4.605  76.195 114.086  0.00  0.00     0.119 C 
BRANCH   8   9
ATOM      9  C   LIG d   1      -6.123  76.275 113.833  0.00  0.00     0.028 C 
ATOM     10  C   LIG d   1      -6.456  76.665 112.383  0.00  0.00     0.006 C 
ENDBRANCH   8   9
BRANCH   8  11
ATOM     11  C   LIG d   1      -4.381  74.850 114.783  0.00  0.00     0.028 C 
ATOM     12  C   LIG d   1      -5.692  74.183 115.228  0.00  0.00     0.006 C 
ENDBRANCH   8  11
ENDBRANCH   7   8
ENDBRANCH   1   7
BRANCH   6  13
ATOM     13  N   LIG d   1      -1.871  77.974 116.676  0.00  0.00    -0.311 N 
ATOM     14  C   LIG d   1      -2.111  77.156 117.700  0.00  0.00     0.210 C 
ATOM     15  C   LIG d   1      -2.131  77.830 119.075  0.00  0.00     0.109 C 
ATOM     16  O   LIG d   1      -2.277  75.931 117.602  0.00  0.00    -0.276 OA
ATOM     17  H   LIG d   1      -1.716  78.948 116.849  0.00  0.00     0.149 HD
ENDBRANCH   6  13
BRANCH   5  18
ATOM     18  N   LIG d   1       0.684  77.372 115.112  0.00  0.00     0.381 N 
ATOM     19  H   LIG d   1       1.484  77.675 114.595  0.00  0.00    -0.090 HD
ATOM     20  H   LIG d   1       0.621  76.372 115.040  0.00  0.00    -0.090 HD
ATOM     21  H   LIG d   1       0.776  77.638 116.068  0.00  0.00    -0.090 HD
ENDBRANCH   5  18
BRANCH   3  22
ATOM     22  C   LIG d   1      -1.765  78.199 111.080  0.00  0.00     0.382 C 
ATOM     23  O   LIG d   1      -1.001  79.087 110.631  0.00  0.00    -0.241 OA
ATOM     24  O   LIG d   1      -2.519  77.586 110.300  0.00  0.00    -0.241 OA
ENDBRANCH   3  22
TORSDOF 7
ENDMDL
MODEL 7
REMARK VINA RESULT:      -4.7      2.546      3.831
REMARK  7 active torsions:
REMARK  status: ('A' for Active; 'I' for Inactive)
REMARK    1  A    between atoms: C_2  and  C_3 
REMARK    2  A    between atoms: C_3  and  O_6 
REMARK    3  A    between atoms: C_3  and  C_4 
REMARK    4  A    between atoms: C_7  and  O_6 
REMARK    5  A    between atoms: C_9  and  C_10 
REMARK    6  A    between atoms: N_15  and  C_14 
REMARK    7  A    between atoms: N_20  and  C_19 
REMARK       I    between atoms: C_22  and  N_20 
ROOT
ATOM      1  C   LIG d   1      -2.728  78.428 114.736  0.00  0.00     0.161 C 
ATOM      2  C   LIG d   1      -2.858  77.962 113.417  0.00  0.00     0.016 C 
ATOM      3  C   LIG d   1      -1.976  78.326 112.374  0.00  0.00     0.038 C 
ATOM      4  C   LIG d   1      -0.808  79.065 112.613  0.00  0.00     0.028 C 
ATOM      5  C   LIG d   1      -0.908  79.976 113.832  0.00  0.00    -0.047 C 
ATOM      6  C   LIG d   1      -1.397  79.146 115.041  0.00  0.00     0.091 C 
ENDROOT
BRANCH   1   7
ATOM      7  O   LIG d   1      -2.934  77.341 115.661  0.00  0.00    -0.368 OA
BRANCH   7   8
ATOM      8  C   LIG d   1      -2.747  76.007 115.127  0.00  0.00     0.119 C 
BRANCH   8   9
ATOM      9  C   LIG d   1      -3.957  75.159 115.567  0.00  0.00     0.028 C 
ATOM     10  C   LIG d   1      -4.867  74.779 114.386  0.00  0.00     0.006 C 
ENDBRANCH   8   9
BRANCH   8  11
ATOM     11  C   LIG d   1      -1.526  75.323 115.750  0.00  0.00     0.028 C 
ATOM     12  C   LIG d   1      -0.220  75.647 115.008  0.00  0.00     0.006 C 
ENDBRANCH   8  11
ENDBRANCH   7   8
ENDBRANCH   1   7
BRANCH   6  13
ATOM     13  N   LIG d   1      -1.602  79.979 116.255  0.00  0.00    -0.311 N 
ATOM     14  C   LIG d   1      -0.666  80.165 117.183  0.00  0.00     0.210 C 
ATOM     15  C   LIG d   1      -1.092  81.043 118.364  0.00  0.00     0.109 C 
ATOM     16  O   LIG d   1       0.488  79.713 117.125  0.00  0.00    -0.276 OA
ATOM     17  H   LIG d   1      -2.500  80.408 116.366  0.00  0.00     0.149 HD
ENDBRANCH   6  13
BRANCH   5  18
ATOM     18  N   LIG d   1       0.420  80.582 114.046  0.00  0.00     0.381 N 
ATOM     19  H   LIG d   1       0.332  81.576 114.112  0.00  0.00    -0.090 HD
ATOM     20  H   LIG d   1       1.005  80.368 113.257  0.00  0.00    -0.090 HD
ATOM     21  H   LIG d   1       0.829  80.221 114.880  0.00  0.00    -0.090 HD
ENDBRANCH   5  18
BRANCH   3  22
ATOM     22  C   LIG d   1      -2.281  77.982 111.065  0.00  0.00     0.382 C 
ATOM     23  O   LIG d   1      -1.458  78.216 110.148  0.00  0.00    -0.241 OA
ATOM     24  O   LIG d   1      -3.386  77.480 110.785  0.00  0.00    -0.241 OA
ENDBRANCH   3  22
TORSDOF 7
ENDMDL
MODEL 8
REMARK VINA RESULT:      -4.7      2.915      6.122
REMARK  7 active torsions:
REMARK  status: ('A' for Active; 'I' for Inactive)
REMARK    1  A    between atoms: C_2  and  C_3 
REMARK    2  A    between atoms: C_3  and  O_6 
REMARK    3  A    between atoms: C_3  and  C_4 
REMARK    4  A    between atoms: C_7  and  O_6 
REMARK    5  A    between atoms: C_9  and  C_10 
REMARK    6  A    between atoms: N_15  and  C_14 
REMARK    7  A    between atoms: N_20  and  C_19 
REMARK       I    between atoms: C_22  and  N_20 
ROOT
ATOM      1  C   LIG d   1      -0.464  79.962 113.260  0.00  0.00     0.161 C 
ATOM      2  C   LIG d   1      -1.401  79.417 112.366  0.00  0.00     0.016 C 
ATOM      3  C   LIG d   1      -2.436  78.539 112.763  0.00  0.00     0.038 C 
ATOM      4  C   LIG d   1      -2.698  78.264 114.113  0.00  0.00     0.028 C 
ATOM      5  C   LIG d   1      -1.469  78.390 115.007  0.00  0.00    -0.047 C 
ATOM      6  C   LIG d   1      -0.802  79.761 114.753  0.00  0.00     0.091 C 
ENDROOT
BRANCH   1   7
ATOM      7  O   LIG d   1      -0.272  81.361 112.974  0.00  0.00    -0.368 OA
BRANCH   7   8
ATOM      8  C   LIG d   1       0.379  81.671 111.717  0.00  0.00     0.119 C 
BRANCH   8   9
ATOM      9  C   LIG d   1       1.842  82.040 112.033  0.00  0.00     0.028 C 
ATOM     10  C   LIG d   1       2.818  81.546 110.952  0.00  0.00     0.006 C 
ENDBRANCH   8   9
BRANCH   8  11
ATOM     11  C   LIG d   1      -0.224  82.921 111.071  0.00  0.00     0.028 C 
ATOM     12  C   LIG d   1      -0.495  84.045 112.084  0.00  0.00     0.006 C 
ENDBRANCH   8  11
ENDBRANCH   7   8
ENDBRANCH   1   7
BRANCH   6  13
ATOM     13  N   LIG d   1       0.456  79.931 115.525  0.00  0.00    -0.311 N 
ATOM     14  C   LIG d   1       0.520  80.574 116.690  0.00  0.00     0.210 C 
ATOM     15  C   LIG d   1       1.918  80.653 117.310  0.00  0.00     0.109 C 
ATOM     16  O   LIG d   1      -0.455  81.060 117.284  0.00  0.00    -0.276 OA
ATOM     17  H   LIG d   1       1.290  79.541 115.131  0.00  0.00     0.149 HD
ENDBRANCH   6  13
BRANCH   5  18
ATOM     18  N   LIG d   1      -1.912  78.212 116.402  0.00  0.00     0.381 N 
ATOM     19  H   LIG d   1      -1.207  78.549 117.027  0.00  0.00    -0.090 HD
ATOM     20  H   LIG d   1      -2.048  77.232 116.578  0.00  0.00    -0.090 HD
ATOM     21  H   LIG d   1      -2.764  78.705 116.555  0.00  0.00    -0.090 HD
ENDBRANCH   5  18
BRANCH   3  22
ATOM     22  C   LIG d   1      -3.197  77.895 111.799  0.00  0.00     0.382 C 
ATOM     23  O   LIG d   1      -2.698  77.629 110.680  0.00  0.00    -0.241 OA
ATOM     24  O   LIG d   1      -4.391  77.616 112.020  0.00  0.00    -0.241 OA
ENDBRANCH   3  22
TORSDOF 7
ENDMDL
MODEL 9
REMARK VINA RESULT:      -4.6      2.488      3.198
REMARK  7 active torsions:
REMARK  status: ('A' for Active; 'I' for Inactive)
REMARK    1  A    between atoms: C_2  and  C_3 
REMARK    2  A    between atoms: C_3  and  O_6 
REMARK    3  A    between atoms: C_3  and  C_4 
REMARK    4  A    between atoms: C_7  and  O_6 
REMARK    5  A    between atoms: C_9  and  C_10 
REMARK    6  A    between atoms: N_15  and  C_14 
REMARK    7  A    between atoms: N_20  and  C_19 
REMARK       I    between atoms: C_22  and  N_20 
ROOT
ATOM      1  C   LIG d   1      -1.633  77.918 113.241  0.00  0.00     0.161 C 
ATOM      2  C   LIG d   1      -2.264  79.173 113.273  0.00  0.00     0.016 C 
ATOM      3  C   LIG d   1      -1.909  80.245 112.424  0.00  0.00     0.038 C 
ATOM      4  C   LIG d   1      -0.993  80.087 111.373  0.00  0.00     0.028 C 
ATOM      5  C   LIG d   1       0.034  78.988 111.625  0.00  0.00    -0.047 C 
ATOM      6  C   LIG d   1      -0.707  77.692 112.027  0.00  0.00     0.091 C 
ENDROOT
BRANCH   1   7
ATOM      7  O   LIG d   1      -2.620  76.872 113.320  0.00  0.00    -0.368 OA
BRANCH   7   8
ATOM      8  C   LIG d   1      -3.376  76.801 114.554  0.00  0.00     0.119 C 
BRANCH   8   9
ATOM      9  C   LIG d   1      -2.519  76.032 115.578  0.00  0.00     0.028 C 
ATOM     10  C   LIG d   1      -2.258  76.848 116.855  0.00  0.00     0.006 C 
ENDBRANCH   8   9
BRANCH   8  11
ATOM     11  C   LIG d   1      -4.648  75.966 114.381  0.00  0.00     0.028 C 
ATOM     12  C   LIG d   1      -5.739  76.323 115.404  0.00  0.00     0.006 C 
ENDBRANCH   8  11
ENDBRANCH   7   8
ENDBRANCH   1   7
BRANCH   6  13
ATOM     13  N   LIG d   1       0.227  76.589 112.373  0.00  0.00    -0.311 N 
ATOM     14  C   LIG d   1       0.611  75.654 111.505  0.00  0.00     0.210 C 
ATOM     15  C   LIG d   1       1.563  74.597 112.073  0.00  0.00     0.109 C 
ATOM     16  O   LIG d   1       0.280  75.619 110.311  0.00  0.00    -0.276 OA
ATOM     17  H   LIG d   1       0.569  76.559 113.313  0.00  0.00     0.149 HD
ENDBRANCH   6  13
BRANCH   5  18
ATOM     18  N   LIG d   1       0.837  78.837 110.397  0.00  0.00     0.381 N 
ATOM     19  H   LIG d   1       1.802  78.999 110.602  0.00  0.00    -0.090 HD
ATOM     20  H   LIG d   1       0.537  79.524 109.727  0.00  0.00    -0.090 HD
ATOM     21  H   LIG d   1       0.718  77.922 110.022  0.00  0.00    -0.090 HD
ENDBRANCH   5  18
BRANCH   3  22
ATOM     22  C   LIG d   1      -2.443  81.505 112.647  0.00  0.00     0.382 C 
ATOM     23  O   LIG d   1      -3.613  81.621 113.085  0.00  0.00    -0.241 OA
ATOM     24  O   LIG d   1      -1.787  82.528 112.374  0.00  0.00    -0.241 OA
ENDBRANCH   3  22
TORSDOF 7
ENDMDL
