MODEL 1
REMARK VINA RESULT:      -5.3      0.000      0.000
REMARK  7 active torsions:
REMARK  status: ('A' for Active; 'I' for Inactive)
REMARK    1  A    between atoms: C_2  and  C_3 
REMARK    2  A    between atoms: C_3  and  O_6 
REMARK    3  A    between atoms: C_3  and  C_4 
REMARK    4  A    between atoms: C_7  and  O_6 
REMARK    5  A    between atoms: C_9  and  C_10 
REMARK    6  A    between atoms: N_15  and  C_14 
REMARK    7  A    between atoms: N_20  and  C_19 
REMARK       I    between atoms: C_22  and  N_20 
ROOT
ATOM      1  C   LIG d   1      -3.164  76.815 115.239  0.00  0.00     0.161 C 
ATOM      2  C   LIG d   1      -3.300  77.736 114.187  0.00  0.00     0.016 C 
ATOM      3  C   LIG d   1      -2.328  78.715 113.879  0.00  0.00     0.038 C 
ATOM      4  C   LIG d   1      -1.076  78.741 114.511  0.00  0.00     0.028 C 
ATOM      5  C   LIG d   1      -1.095  78.153 115.918  0.00  0.00    -0.047 C 
ATOM      6  C   LIG d   1      -1.757  76.756 115.868  0.00  0.00     0.091 C 
ENDROOT
BRANCH   1   7
ATOM      7  O   LIG d   1      -3.570  75.505 114.796  0.00  0.00    -0.368 OA
BRANCH   7   8
ATOM      8  C   LIG d   1      -4.704  74.923 115.485  0.00  0.00     0.119 C 
BRANCH   8   9
ATOM      9  C   LIG d   1      -5.746  74.536 114.417  0.00  0.00     0.028 C 
ATOM     10  C   LIG d   1      -6.665  75.710 114.041  0.00  0.00     0.006 C 
ENDBRANCH   8   9
BRANCH   8  11
ATOM     11  C   LIG d   1      -5.403  75.953 116.378  0.00  0.00     0.028 C 
ATOM     12  C   LIG d   1      -5.796  75.383 117.750  0.00  0.00     0.006 C 
ENDBRANCH   8  11
ENDBRANCH   7   8
ENDBRANCH   1   7
BRANCH   6  13
ATOM     13  N   LIG d   1      -1.892  76.145 117.216  0.00  0.00    -0.311 N 
ATOM     14  C   LIG d   1      -1.010  75.287 117.724  0.00  0.00     0.210 C 
ATOM     15  C   LIG d   1      -1.350  74.761 119.122  0.00  0.00     0.109 C 
ATOM     16  O   LIG d   1       0.039  74.935 117.163  0.00  0.00    -0.276 OA
ATOM     17  H   LIG d   1      -2.698  76.400 117.753  0.00  0.00     0.149 HD
ENDBRANCH   6  13
BRANCH   5  18
ATOM     18  N   LIG d   1       0.296  78.117 116.405  0.00  0.00     0.381 N 
ATOM     19  H   LIG d   1       0.353  77.548 117.227  0.00  0.00    -0.090 HD
ATOM     20  H   LIG d   1       0.580  79.049 116.648  0.00  0.00    -0.090 HD
ATOM     21  H   LIG d   1       0.896  77.752 115.698  0.00  0.00    -0.090 HD
ENDBRANCH   5  18
BRANCH   3  22
ATOM     22  C   LIG d   1      -2.620  79.707 112.955  0.00  0.00     0.382 C 
ATOM     23  O   LIG d   1      -3.572  80.498 113.164  0.00  0.00    -0.241 OA
ATOM     24  O   LIG d   1      -1.971  79.794 111.895  0.00  0.00    -0.241 OA
ENDBRANCH   3  22
TORSDOF 7
ENDMDL
MODEL 2
REMARK VINA RESULT:      -5.2      1.824      4.635
REMARK  7 active torsions:
REMARK  status: ('A' for Active; 'I' for Inactive)
REMARK    1  A    between atoms: C_2  and  C_3 
REMARK    2  A    between atoms: C_3  and  O_6 
REMARK    3  A    between atoms: C_3  and  C_4 
REMARK    4  A    between atoms: C_7  and  O_6 
REMARK    5  A    between atoms: C_9  and  C_10 
REMARK    6  A    between atoms: N_15  and  C_14 
REMARK    7  A    between atoms: N_20  and  C_19 
REMARK       I    between atoms: C_22  and  N_20 
ROOT
ATOM      1  C   LIG d   1      -2.286  75.638 114.926  0.00  0.00     0.161 C 
ATOM      2  C   LIG d   1      -2.075  75.270 116.266  0.00  0.00     0.016 C 
ATOM      3  C   LIG d   1      -1.362  76.070 117.189  0.00  0.00     0.038 C 
ATOM      4  C   LIG d   1      -0.940  77.370 116.872  0.00  0.00     0.028 C 
ATOM      5  C   LIG d   1      -0.689  77.580 115.383  0.00  0.00    -0.047 C 
ATOM      6  C   LIG d   1      -1.929  77.102 114.593  0.00  0.00     0.091 C 
ENDROOT
BRANCH   1   7
ATOM      7  O   LIG d   1      -3.650  75.357 114.553  0.00  0.00    -0.368 OA
BRANCH   7   8
ATOM      8  C   LIG d   1      -4.613  75.323 115.634  0.00  0.00     0.119 C 
BRANCH   8   9
ATOM      9  C   LIG d   1      -5.603  74.180 115.337  0.00  0.00     0.028 C 
ATOM     10  C   LIG d   1      -6.805  74.180 116.296  0.00  0.00     0.006 C 
ENDBRANCH   8   9
BRANCH   8  11
ATOM     11  C   LIG d   1      -5.462  76.597 115.664  0.00  0.00     0.028 C 
ATOM     12  C   LIG d   1      -4.957  77.626 116.688  0.00  0.00     0.006 C 
ENDBRANCH   8  11
ENDBRANCH   7   8
ENDBRANCH   1   7
BRANCH   6  13
ATOM     13  N   LIG d   1      -1.735  77.193 113.123  0.00  0.00    -0.311 N 
ATOM     14  C   LIG d   1      -2.598  77.796 112.306  0.00  0.00     0.210 C 
ATOM     15  C   LIG d   1      -2.216  77.759 110.822  0.00  0.00     0.109 C 
ATOM     16  O   LIG d   1      -3.626  78.384 112.672  0.00  0.00    -0.276 OA
ATOM     17  H   LIG d   1      -0.911  76.769 112.744  0.00  0.00     0.149 HD
ENDBRANCH   6  13
BRANCH   5  18
ATOM     18  N   LIG d   1      -0.390  79.009 115.178  0.00  0.00     0.381 N 
ATOM     19  H   LIG d   1       0.526  79.217 115.525  0.00  0.00    -0.090 HD
ATOM     20  H   LIG d   1      -1.054  79.558 115.695  0.00  0.00    -0.090 HD
ATOM     21  H   LIG d   1      -0.444  79.234 114.209  0.00  0.00    -0.090 HD
ENDBRANCH   5  18
BRANCH   3  22
ATOM     22  C   LIG d   1      -1.030  75.554 118.432  0.00  0.00     0.382 C 
ATOM     23  O   LIG d   1      -1.815  75.697 119.400  0.00  0.00    -0.241 OA
ATOM     24  O   LIG d   1       0.065  74.987 118.609  0.00  0.00    -0.241 OA
ENDBRANCH   3  22
TORSDOF 7
ENDMDL
MODEL 3
REMARK VINA RESULT:      -4.8      2.199      2.979
REMARK  7 active torsions:
REMARK  status: ('A' for Active; 'I' for Inactive)
REMARK    1  A    between atoms: C_2  and  C_3 
REMARK    2  A    between atoms: C_3  and  O_6 
REMARK    3  A    between atoms: C_3  and  C_4 
REMARK    4  A    between atoms: C_7  and  O_6 
REMARK    5  A    between atoms: C_9  and  C_10 
REMARK    6  A    between atoms: N_15  and  C_14 
REMARK    7  A    between atoms: N_20  and  C_19 
REMARK       I    between atoms: C_22  and  N_20 
ROOT
ATOM      1  C   LIG d   1      -3.228  78.235 115.887  0.00  0.00     0.161 C 
ATOM      2  C   LIG d   1      -3.344  79.363 115.057  0.00  0.00     0.016 C 
ATOM      3  C   LIG d   1      -2.710  79.471 113.798  0.00  0.00     0.038 C 
ATOM      4  C   LIG d   1      -2.036  78.390 113.212  0.00  0.00     0.028 C 
ATOM      5  C   LIG d   1      -1.467  77.407 114.230  0.00  0.00    -0.047 C 
ATOM      6  C   LIG d   1      -2.587  77.002 115.216  0.00  0.00     0.091 C 
ENDROOT
BRANCH   1   7
ATOM      7  O   LIG d   1      -4.518  77.895 116.432  0.00  0.00    -0.368 OA
BRANCH   7   8
ATOM      8  C   LIG d   1      -4.662  78.043 117.866  0.00  0.00     0.119 C 
BRANCH   8   9
ATOM      9  C   LIG d   1      -5.866  77.184 118.301  0.00  0.00     0.028 C 
ATOM     10  C   LIG d   1      -5.570  76.354 119.562  0.00  0.00     0.006 C 
ENDBRANCH   8   9
BRANCH   8  11
ATOM     11  C   LIG d   1      -5.033  79.480 118.244  0.00  0.00     0.028 C 
ATOM     12  C   LIG d   1      -6.414  79.897 117.716  0.00  0.00     0.006 C 
ENDBRANCH   8  11
ENDBRANCH   7   8
ENDBRANCH   1   7
BRANCH   6  13
ATOM     13  N   LIG d   1      -2.095  76.107 116.296  0.00  0.00    -0.311 N 
ATOM     14  C   LIG d   1      -2.700  74.971 116.638  0.00  0.00     0.210 C 
ATOM     15  C   LIG d   1      -2.039  74.209 117.791  0.00  0.00     0.109 C 
ATOM     16  O   LIG d   1      -3.702  74.505 116.075  0.00  0.00    -0.276 OA
ATOM     17  H   LIG d   1      -1.269  76.393 116.784  0.00  0.00     0.149 HD
ENDBRANCH   6  13
BRANCH   5  18
ATOM     18  N   LIG d   1      -0.913  76.262 113.483  0.00  0.00     0.381 N 
ATOM     19  H   LIG d   1      -1.531  75.479 113.555  0.00  0.00    -0.090 HD
ATOM     20  H   LIG d   1      -0.030  76.006 113.889  0.00  0.00    -0.090 HD
ATOM     21  H   LIG d   1      -0.787  76.508 112.526  0.00  0.00    -0.090 HD
ENDBRANCH   5  18
BRANCH   3  22
ATOM     22  C   LIG d   1      -2.715  80.685 113.128  0.00  0.00     0.382 C 
ATOM     23  O   LIG d   1      -1.642  81.315 112.964  0.00  0.00    -0.241 OA
ATOM     24  O   LIG d   1      -3.784  81.181 112.725  0.00  0.00    -0.241 OA
ENDBRANCH   3  22
TORSDOF 7
ENDMDL
MODEL 4
REMARK VINA RESULT:      -4.8      2.070      5.139
REMARK  7 active torsions:
REMARK  status: ('A' for Active; 'I' for Inactive)
REMARK    1  A    between atoms: C_2  and  C_3 
REMARK    2  A    between atoms: C_3  and  O_6 
REMARK    3  A    between atoms: C_3  and  C_4 
REMARK    4  A    between atoms: C_7  and  O_6 
REMARK    5  A    between atoms: C_9  and  C_10 
REMARK    6  A    between atoms: N_15  and  C_14 
REMARK    7  A    between atoms: N_20  and  C_19 
REMARK       I    between atoms: C_22  and  N_20 
ROOT
ATOM      1  C   LIG d   1      -3.204  78.385 115.564  0.00  0.00     0.161 C 
ATOM      2  C   LIG d   1      -1.901  78.737 115.953  0.00  0.00     0.016 C 
ATOM      3  C   LIG d   1      -0.947  77.801 116.413  0.00  0.00     0.038 C 
ATOM      4  C   LIG d   1      -1.184  76.419 116.372  0.00  0.00     0.028 C 
ATOM      5  C   LIG d   1      -2.662  76.055 116.462  0.00  0.00    -0.047 C 
ATOM      6  C   LIG d   1      -3.445  76.869 115.406  0.00  0.00     0.091 C 
ENDROOT
BRANCH   1   7
ATOM      7  O   LIG d   1      -3.554  79.077 114.349  0.00  0.00    -0.368 OA
BRANCH   7   8
ATOM      8  C   LIG d   1      -2.568  79.043 113.289  0.00  0.00     0.119 C 
BRANCH   8   9
ATOM      9  C   LIG d   1      -2.388  80.485 112.777  0.00  0.00     0.028 C 
ATOM     10  C   LIG d   1      -0.932  80.794 112.390  0.00  0.00     0.006 C 
ENDBRANCH   8   9
BRANCH   8  11
ATOM     11  C   LIG d   1      -3.073  78.245 112.083  0.00  0.00     0.028 C 
ATOM     12  C   LIG d   1      -1.975  77.386 111.435  0.00  0.00     0.006 C 
ENDBRANCH   8  11
ENDBRANCH   7   8
ENDBRANCH   1   7
BRANCH   6  13
ATOM     13  N   LIG d   1      -4.911  76.637 115.483  0.00  0.00    -0.311 N 
ATOM     14  C   LIG d   1      -5.544  75.708 114.768  0.00  0.00     0.210 C 
ATOM     15  C   LIG d   1      -7.059  75.648 114.983  0.00  0.00     0.109 C 
ATOM     16  O   LIG d   1      -4.990  74.906 114.001  0.00  0.00    -0.276 OA
ATOM     17  H   LIG d   1      -5.434  77.222 116.105  0.00  0.00     0.149 HD
ENDBRANCH   6  13
BRANCH   5  18
ATOM     18  N   LIG d   1      -2.775  74.597 116.268  0.00  0.00     0.381 N 
ATOM     19  H   LIG d   1      -3.679  74.373 115.902  0.00  0.00    -0.090 HD
ATOM     20  H   LIG d   1      -2.674  74.142 117.158  0.00  0.00    -0.090 HD
ATOM     21  H   LIG d   1      -2.068  74.281 115.642  0.00  0.00    -0.090 HD
ENDBRANCH   5  18
BRANCH   3  22
ATOM     22  C   LIG d   1       0.247  78.248 116.960  0.00  0.00     0.382 C 
ATOM     23  O   LIG d   1       0.551  79.463 116.893  0.00  0.00    -0.241 OA
ATOM     24  O   LIG d   1       1.044  77.444 117.479  0.00  0.00    -0.241 OA
ENDBRANCH   3  22
TORSDOF 7
ENDMDL
MODEL 5
REMARK VINA RESULT:      -4.7      1.612      1.994
REMARK  7 active torsions:
REMARK  status: ('A' for Active; 'I' for Inactive)
REMARK    1  A    between atoms: C_2  and  C_3 
REMARK    2  A    between atoms: C_3  and  O_6 
REMARK    3  A    between atoms: C_3  and  C_4 
REMARK    4  A    between atoms: C_7  and  O_6 
REMARK    5  A    between atoms: C_9  and  C_10 
REMARK    6  A    between atoms: N_15  and  C_14 
REMARK    7  A    between atoms: N_20  and  C_19 
REMARK       I    between atoms: C_22  and  N_20 
ROOT
ATOM      1  C   LIG d   1      -3.459  76.928 115.778  0.00  0.00     0.161 C 
ATOM      2  C   LIG d   1      -3.759  77.325 114.464  0.00  0.00     0.016 C 
ATOM      3  C   LIG d   1      -2.811  77.323 113.415  0.00  0.00     0.038 C 
ATOM      4  C   LIG d   1      -1.530  76.776 113.575  0.00  0.00     0.028 C 
ATOM      5  C   LIG d   1      -1.023  76.829 115.013  0.00  0.00    -0.047 C 
ATOM      6  C   LIG d   1      -2.097  76.223 115.946  0.00  0.00     0.091 C 
ENDROOT
BRANCH   1   7
ATOM      7  O   LIG d   1      -4.520  76.097 116.291  0.00  0.00    -0.368 OA
BRANCH   7   8
ATOM      8  C   LIG d   1      -5.835  76.322 115.727  0.00  0.00     0.119 C 
BRANCH   8   9
ATOM      9  C   LIG d   1      -6.731  76.882 116.850  0.00  0.00     0.028 C 
ATOM     10  C   LIG d   1      -6.393  78.342 117.197  0.00  0.00     0.006 C 
ENDBRANCH   8   9
BRANCH   8  11
ATOM     11  C   LIG d   1      -6.492  75.006 115.303  0.00  0.00     0.028 C 
ATOM     12  C   LIG d   1      -6.998  74.180 116.497  0.00  0.00     0.006 C 
ENDBRANCH   8  11
ENDBRANCH   7   8
ENDBRANCH   1   7
BRANCH   6  13
ATOM     13  N   LIG d   1      -1.718  76.313 117.380  0.00  0.00    -0.311 N 
ATOM     14  C   LIG d   1      -1.078  75.343 118.031  0.00  0.00     0.210 C 
ATOM     15  C   LIG d   1      -0.801  75.631 119.510  0.00  0.00     0.109 C 
ATOM     16  O   LIG d   1      -0.685  74.285 117.516  0.00  0.00    -0.276 OA
ATOM     17  H   LIG d   1      -1.970  77.150 117.867  0.00  0.00     0.149 HD
ENDBRANCH   6  13
BRANCH   5  18
ATOM     18  N   LIG d   1       0.260  76.103 115.061  0.00  0.00     0.381 N 
ATOM     19  H   LIG d   1       1.016  76.744 114.925  0.00  0.00    -0.090 HD
ATOM     20  H   LIG d   1       0.280  75.429 114.316  0.00  0.00    -0.090 HD
ATOM     21  H   LIG d   1       0.359  75.643 115.939  0.00  0.00    -0.090 HD
ENDBRANCH   5  18
BRANCH   3  22
ATOM     22  C   LIG d   1      -3.130  77.909 112.200  0.00  0.00     0.382 C 
ATOM     23  O   LIG d   1      -4.248  77.692 111.673  0.00  0.00    -0.241 OA
ATOM     24  O   LIG d   1      -2.297  78.616 111.601  0.00  0.00    -0.241 OA
ENDBRANCH   3  22
TORSDOF 7
ENDMDL
MODEL 6
REMARK VINA RESULT:      -4.7      2.269      4.562
REMARK  7 active torsions:
REMARK  status: ('A' for Active; 'I' for Inactive)
REMARK    1  A    between atoms: C_2  and  C_3 
REMARK    2  A    between atoms: C_3  and  O_6 
REMARK    3  A    between atoms: C_3  and  C_4 
REMARK    4  A    between atoms: C_7  and  O_6 
REMARK    5  A    between atoms: C_9  and  C_10 
REMARK    6  A    between atoms: N_15  and  C_14 
REMARK    7  A    between atoms: N_20  and  C_19 
REMARK       I    between atoms: C_22  and  N_20 
ROOT
ATOM      1  C   LIG d   1      -3.527  77.077 115.462  0.00  0.00     0.161 C 
ATOM      2  C   LIG d   1      -3.300  77.092 116.848  0.00  0.00     0.016 C 
ATOM      3  C   LIG d   1      -2.226  77.784 117.453  0.00  0.00     0.038 C 
ATOM      4  C   LIG d   1      -1.388  78.638 116.721  0.00  0.00     0.028 C 
ATOM      5  C   LIG d   1      -1.270  78.256 115.249  0.00  0.00    -0.047 C 
ATOM      6  C   LIG d   1      -2.689  78.093 114.658  0.00  0.00     0.091 C 
ENDROOT
BRANCH   1   7
ATOM      7  O   LIG d   1      -4.931  77.263 115.194  0.00  0.00    -0.368 OA
BRANCH   7   8
ATOM      8  C   LIG d   1      -5.846  76.686 116.159  0.00  0.00     0.119 C 
BRANCH   8   9
ATOM      9  C   LIG d   1      -6.868  75.838 115.378  0.00  0.00     0.028 C 
ATOM     10  C   LIG d   1      -6.478  75.661 113.901  0.00  0.00     0.006 C 
ENDBRANCH   8   9
BRANCH   8  11
ATOM     11  C   LIG d   1      -6.669  77.768 116.862  0.00  0.00     0.028 C 
ATOM     12  C   LIG d   1      -6.573  77.690 118.394  0.00  0.00     0.006 C 
ENDBRANCH   8  11
ENDBRANCH   7   8
ENDBRANCH   1   7
BRANCH   6  13
ATOM     13  N   LIG d   1      -2.665  77.637 113.244  0.00  0.00    -0.311 N 
ATOM     14  C   LIG d   1      -2.711  78.469 112.204  0.00  0.00     0.210 C 
ATOM     15  C   LIG d   1      -2.695  77.790 110.831  0.00  0.00     0.109 C 
ATOM     16  O   LIG d   1      -2.731  79.706 112.289  0.00  0.00    -0.276 OA
ATOM     17  H   LIG d   1      -2.617  76.650 113.083  0.00  0.00     0.149 HD
ENDBRANCH   6  13
BRANCH   5  18
ATOM     18  N   LIG d   1      -0.481  79.306 114.578  0.00  0.00     0.381 N 
ATOM     19  H   LIG d   1      -1.044  80.123 114.450  0.00  0.00    -0.090 HD
ATOM     20  H   LIG d   1      -0.199  78.972 113.673  0.00  0.00    -0.090 HD
ATOM     21  H   LIG d   1       0.323  79.529 115.123  0.00  0.00    -0.090 HD
ENDBRANCH   5  18
BRANCH   3  22
ATOM     22  C   LIG d   1      -1.958  77.594 118.800  0.00  0.00     0.382 C 
ATOM     23  O   LIG d   1      -0.799  77.288 119.171  0.00  0.00    -0.241 OA
ATOM     24  O   LIG d   1      -2.869  77.680 119.644  0.00  0.00    -0.241 OA
ENDBRANCH   3  22
TORSDOF 7
ENDMDL
MODEL 7
REMARK VINA RESULT:      -4.7      2.091      4.662
REMARK  7 active torsions:
REMARK  status: ('A' for Active; 'I' for Inactive)
REMARK    1  A    between atoms: C_2  and  C_3 
REMARK    2  A    between atoms: C_3  and  O_6 
REMARK    3  A    between atoms: C_3  and  C_4 
REMARK    4  A    between atoms: C_7  and  O_6 
REMARK    5  A    between atoms: C_9  and  C_10 
REMARK    6  A    between atoms: N_15  and  C_14 
REMARK    7  A    between atoms: N_20  and  C_19 
REMARK       I    between atoms: C_22  and  N_20 
ROOT
ATOM      1  C   LIG d   1      -2.274  76.564 115.038  0.00  0.00     0.161 C 
ATOM      2  C   LIG d   1      -3.486  76.088 114.513  0.00  0.00     0.016 C 
ATOM      3  C   LIG d   1      -4.642  75.868 115.298  0.00  0.00     0.038 C 
ATOM      4  C   LIG d   1      -4.708  76.256 116.644  0.00  0.00     0.028 C 
ATOM      5  C   LIG d   1      -3.350  76.272 117.337  0.00  0.00    -0.047 C 
ATOM      6  C   LIG d   1      -2.360  77.098 116.483  0.00  0.00     0.091 C 
ENDROOT
BRANCH   1   7
ATOM      7  O   LIG d   1      -1.724  77.570 114.164  0.00  0.00    -0.368 OA
BRANCH   7   8
ATOM      8  C   LIG d   1      -2.683  78.354 113.413  0.00  0.00     0.119 C 
BRANCH   8   9
ATOM      9  C   LIG d   1      -2.048  78.678 112.047  0.00  0.00     0.028 C 
ATOM     10  C   LIG d   1      -2.557  77.753 110.929  0.00  0.00     0.006 C 
ENDBRANCH   8   9
BRANCH   8  11
ATOM     11  C   LIG d   1      -2.934  79.712 114.076  0.00  0.00     0.028 C 
ATOM     12  C   LIG d   1      -2.938  80.874 113.070  0.00  0.00     0.006 C 
ENDBRANCH   8  11
ENDBRANCH   7   8
ENDBRANCH   1   7
BRANCH   6  13
ATOM     13  N   LIG d   1      -0.985  77.094 117.047  0.00  0.00    -0.311 N 
ATOM     14  C   LIG d   1      -0.249  78.195 117.191  0.00  0.00     0.210 C 
ATOM     15  C   LIG d   1       1.149  77.966 117.774  0.00  0.00     0.109 C 
ATOM     16  O   LIG d   1      -0.633  79.343 116.921  0.00  0.00    -0.276 OA
ATOM     17  H   LIG d   1      -0.607  76.209 117.321  0.00  0.00     0.149 HD
ENDBRANCH   6  13
BRANCH   5  18
ATOM     18  N   LIG d   1      -3.546  76.826 118.690  0.00  0.00     0.381 N 
ATOM     19  H   LIG d   1      -3.300  77.795 118.699  0.00  0.00    -0.090 HD
ATOM     20  H   LIG d   1      -2.943  76.341 119.331  0.00  0.00    -0.090 HD
ATOM     21  H   LIG d   1      -4.496  76.715 118.969  0.00  0.00    -0.090 HD
ENDBRANCH   5  18
BRANCH   3  22
ATOM     22  C   LIG d   1      -5.734  75.217 114.745  0.00  0.00     0.382 C 
ATOM     23  O   LIG d   1      -5.559  74.280 113.930  0.00  0.00    -0.241 OA
ATOM     24  O   LIG d   1      -6.893  75.585 115.018  0.00  0.00    -0.241 OA
ENDBRANCH   3  22
TORSDOF 7
ENDMDL
MODEL 8
REMARK VINA RESULT:      -4.4      2.723      4.280
REMARK  7 active torsions:
REMARK  status: ('A' for Active; 'I' for Inactive)
REMARK    1  A    between atoms: C_2  and  C_3 
REMARK    2  A    between atoms: C_3  and  O_6 
REMARK    3  A    between atoms: C_3  and  C_4 
REMARK    4  A    between atoms: C_7  and  O_6 
REMARK    5  A    between atoms: C_9  and  C_10 
REMARK    6  A    between atoms: N_15  and  C_14 
REMARK    7  A    between atoms: N_20  and  C_19 
REMARK       I    between atoms: C_22  and  N_20 
ROOT
ATOM      1  C   LIG d   1      -3.767  77.693 116.795  0.00  0.00     0.161 C 
ATOM      2  C   LIG d   1      -2.876  78.622 117.358  0.00  0.00     0.016 C 
ATOM      3  C   LIG d   1      -1.511  78.709 116.998  0.00  0.00     0.038 C 
ATOM      4  C   LIG d   1      -0.976  77.967 115.935  0.00  0.00     0.028 C 
ATOM      5  C   LIG d   1      -1.715  76.658 115.678  0.00  0.00    -0.047 C 
ATOM      6  C   LIG d   1      -3.228  76.951 115.554  0.00  0.00     0.091 C 
ENDROOT
BRANCH   1   7
ATOM      7  O   LIG d   1      -5.018  78.340 116.488  0.00  0.00    -0.368 OA
BRANCH   7   8
ATOM      8  C   LIG d   1      -6.204  77.740 117.065  0.00  0.00     0.119 C 
BRANCH   8   9
ATOM      9  C   LIG d   1      -7.049  78.876 117.672  0.00  0.00     0.028 C 
ATOM     10  C   LIG d   1      -6.297  80.217 117.699  0.00  0.00     0.006 C 
ENDBRANCH   8   9
BRANCH   8  11
ATOM     11  C   LIG d   1      -5.849  76.824 118.240  0.00  0.00     0.028 C 
ATOM     12  C   LIG d   1      -6.371  75.390 118.057  0.00  0.00     0.006 C 
ENDBRANCH   8  11
ENDBRANCH   7   8
ENDBRANCH   1   7
BRANCH   6  13
ATOM     13  N   LIG d   1      -4.033  75.713 115.386  0.00  0.00    -0.311 N 
ATOM     14  C   LIG d   1      -4.961  75.565 114.442  0.00  0.00     0.210 C 
ATOM     15  C   LIG d   1      -5.689  74.218 114.456  0.00  0.00     0.109 C 
ATOM     16  O   LIG d   1      -5.228  76.410 113.574  0.00  0.00    -0.276 OA
ATOM     17  H   LIG d   1      -3.860  74.965 116.028  0.00  0.00     0.149 HD
ENDBRANCH   6  13
BRANCH   5  18
ATOM     18  N   LIG d   1      -1.142  76.054 114.460  0.00  0.00     0.381 N 
ATOM     19  H   LIG d   1      -0.197  75.774 114.633  0.00  0.00    -0.090 HD
ATOM     20  H   LIG d   1      -1.137  76.742 113.727  0.00  0.00    -0.090 HD
ATOM     21  H   LIG d   1      -1.684  75.266 114.182  0.00  0.00    -0.090 HD
ENDBRANCH   5  18
BRANCH   3  22
ATOM     22  C   LIG d   1      -0.657  79.516 117.733  0.00  0.00     0.382 C 
ATOM     23  O   LIG d   1       0.456  79.848 117.258  0.00  0.00    -0.241 OA
ATOM     24  O   LIG d   1      -0.966  79.881 118.884  0.00  0.00    -0.241 OA
ENDBRANCH   3  22
TORSDOF 7
ENDMDL
MODEL 9
REMARK VINA RESULT:      -4.4      2.094      2.214
REMARK  7 active torsions:
REMARK  status: ('A' for Active; 'I' for Inactive)
REMARK    1  A    between atoms: C_2  and  C_3 
REMARK    2  A    between atoms: C_3  and  O_6 
REMARK    3  A    between atoms: C_3  and  C_4 
REMARK    4  A    between atoms: C_7  and  O_6 
REMARK    5  A    between atoms: C_9  and  C_10 
REMARK    6  A    between atoms: N_15  and  C_14 
REMARK    7  A    between atoms: N_20  and  C_19 
REMARK       I    between atoms: C_22  and  N_20 
ROOT
ATOM      1  C   LIG d   1      -3.532  77.327 115.054  0.00  0.00     0.161 C 
ATOM      2  C   LIG d   1      -3.540  77.462 113.656  0.00  0.00     0.016 C 
ATOM      3  C   LIG d   1      -2.404  77.237 112.845  0.00  0.00     0.038 C 
ATOM      4  C   LIG d   1      -1.213  76.711 113.367  0.00  0.00     0.028 C 
ATOM      5  C   LIG d   1      -1.002  77.038 114.841  0.00  0.00    -0.047 C 
ATOM      6  C   LIG d   1      -2.272  76.646 115.630  0.00  0.00     0.091 C 
ENDROOT
BRANCH   1   7
ATOM      7  O   LIG d   1      -4.718  76.631 115.485  0.00  0.00    -0.368 OA
BRANCH   7   8
ATOM      8  C   LIG d   1      -4.688  75.187 115.370  0.00  0.00     0.119 C 
BRANCH   8   9
ATOM      9  C   LIG d   1      -5.806  74.777 114.393  0.00  0.00     0.028 C 
ATOM     10  C   LIG d   1      -6.962  75.791 114.364  0.00  0.00     0.006 C 
ENDBRANCH   8   9
BRANCH   8  11
ATOM     11  C   LIG d   1      -5.044  74.515 116.699  0.00  0.00     0.028 C 
ATOM     12  C   LIG d   1      -5.437  75.523 117.790  0.00  0.00     0.006 C 
ENDBRANCH   8  11
ENDBRANCH   7   8
ENDBRANCH   1   7
BRANCH   6  13
ATOM     13  N   LIG d   1      -2.182  77.010 117.068  0.00  0.00    -0.311 N 
ATOM     14  C   LIG d   1      -1.826  78.220 117.496  0.00  0.00     0.210 C 
ATOM     15  C   LIG d   1      -1.777  78.378 119.019  0.00  0.00     0.109 C 
ATOM     16  O   LIG d   1      -1.578  79.187 116.760  0.00  0.00    -0.276 OA
ATOM     17  H   LIG d   1      -2.396  76.295 117.734  0.00  0.00     0.149 HD
ENDBRANCH   6  13
BRANCH   5  18
ATOM     18  N   LIG d   1       0.203  76.315 115.289  0.00  0.00     0.381 N 
ATOM     19  H   LIG d   1       1.013  76.885 115.145  0.00  0.00    -0.090 HD
ATOM     20  H   LIG d   1       0.304  75.479 114.741  0.00  0.00    -0.090 HD
ATOM     21  H   LIG d   1       0.121  76.081 116.254  0.00  0.00    -0.090 HD
ENDBRANCH   5  18
BRANCH   3  22
ATOM     22  C   LIG d   1      -2.441  77.577 111.501  0.00  0.00     0.382 C 
ATOM     23  O   LIG d   1      -1.425  78.065 110.950  0.00  0.00    -0.241 OA
ATOM     24  O   LIG d   1      -3.491  77.444 110.844  0.00  0.00    -0.241 OA
ENDBRANCH   3  22
TORSDOF 7
ENDMDL
