MODEL 1
REMARK VINA RESULT:      -4.7      0.000      0.000
REMARK  7 active torsions:
REMARK  status: ('A' for Active; 'I' for Inactive)
REMARK    1  A    between atoms: C_2  and  C_3 
REMARK    2  A    between atoms: C_3  and  O_6 
REMARK    3  A    between atoms: C_3  and  C_4 
REMARK    4  A    between atoms: C_7  and  O_6 
REMARK    5  A    between atoms: C_9  and  C_10 
REMARK    6  A    between atoms: N_15  and  C_14 
REMARK    7  A    between atoms: N_20  and  C_19 
REMARK       I    between atoms: C_22  and  N_20 
ROOT
ATOM      1  C   LIG d   1      -3.092  77.275 114.653  0.00  0.00     0.161 C 
ATOM      2  C   LIG d   1      -3.226  78.294 113.696  0.00  0.00     0.016 C 
ATOM      3  C   LIG d   1      -2.189  79.200 113.375  0.00  0.00     0.038 C 
ATOM      4  C   LIG d   1      -0.890  79.052 113.884  0.00  0.00     0.028 C 
ATOM      5  C   LIG d   1      -0.846  78.345 115.235  0.00  0.00    -0.047 C 
ATOM      6  C   LIG d   1      -1.649  77.027 115.138  0.00  0.00     0.091 C 
ENDROOT
BRANCH   1   7
ATOM      7  O   LIG d   1      -3.668  76.053 114.149  0.00  0.00    -0.368 OA
BRANCH   7   8
ATOM      8  C   LIG d   1      -4.581  75.364 115.038  0.00  0.00     0.119 C 
BRANCH   8   9
ATOM      9  C   LIG d   1      -5.689  74.738 114.169  0.00  0.00     0.028 C 
ATOM     10  C   LIG d   1      -6.840  75.719 113.889  0.00  0.00     0.006 C 
ENDBRANCH   8   9
BRANCH   8  11
ATOM     11  C   LIG d   1      -5.300  76.345 115.968  0.00  0.00     0.028 C 
ATOM     12  C   LIG d   1      -5.290  75.891 117.436  0.00  0.00     0.006 C 
ENDBRANCH   8  11
ENDBRANCH   7   8
ENDBRANCH   1   7
BRANCH   6  13
ATOM     13  N   LIG d   1      -1.727  76.314 116.440  0.00  0.00    -0.311 N 
ATOM     14  C   LIG d   1      -1.222  75.099 116.641  0.00  0.00     0.210 C 
ATOM     15  C   LIG d   1      -1.429  74.538 118.052  0.00  0.00     0.109 C 
ATOM     16  O   LIG d   1      -0.593  74.445 115.795  0.00  0.00    -0.276 OA
ATOM     17  H   LIG d   1      -2.193  76.785 117.190  0.00  0.00     0.149 HD
ENDBRANCH   6  13
BRANCH   5  18
ATOM     18  N   LIG d   1       0.572  78.134 115.582  0.00  0.00     0.381 N 
ATOM     19  H   LIG d   1       0.639  77.578 116.410  0.00  0.00    -0.090 HD
ATOM     20  H   LIG d   1       0.998  79.026 115.765  0.00  0.00    -0.090 HD
ATOM     21  H   LIG d   1       1.043  77.681 114.830  0.00  0.00    -0.090 HD
ENDBRANCH   5  18
BRANCH   3  22
ATOM     22  C   LIG d   1      -2.458  80.294 112.566  0.00  0.00     0.382 C 
ATOM     23  O   LIG d   1      -3.620  80.765 112.515  0.00  0.00    -0.241 OA
ATOM     24  O   LIG d   1      -1.564  80.787 111.853  0.00  0.00    -0.241 OA
ENDBRANCH   3  22
TORSDOF 7
ENDMDL
MODEL 2
REMARK VINA RESULT:      -4.5      2.738      5.846
REMARK  7 active torsions:
REMARK  status: ('A' for Active; 'I' for Inactive)
REMARK    1  A    between atoms: C_2  and  C_3 
REMARK    2  A    between atoms: C_3  and  O_6 
REMARK    3  A    between atoms: C_3  and  C_4 
REMARK    4  A    between atoms: C_7  and  O_6 
REMARK    5  A    between atoms: C_9  and  C_10 
REMARK    6  A    between atoms: N_15  and  C_14 
REMARK    7  A    between atoms: N_20  and  C_19 
REMARK       I    between atoms: C_22  and  N_20 
ROOT
ATOM      1  C   LIG d   1      -2.019  79.306 114.354  0.00  0.00     0.161 C 
ATOM      2  C   LIG d   1      -2.821  78.170 114.550  0.00  0.00     0.016 C 
ATOM      3  C   LIG d   1      -3.122  77.243 113.526  0.00  0.00     0.038 C 
ATOM      4  C   LIG d   1      -2.514  77.310 112.263  0.00  0.00     0.028 C 
ATOM      5  C   LIG d   1      -2.094  78.722 111.867  0.00  0.00    -0.047 C 
ATOM      6  C   LIG d   1      -1.257  79.336 113.013  0.00  0.00     0.091 C 
ENDROOT
BRANCH   1   7
ATOM      7  O   LIG d   1      -1.101  79.453 115.455  0.00  0.00    -0.368 OA
BRANCH   7   8
ATOM      8  C   LIG d   1       0.084  78.620 115.413  0.00  0.00     0.119 C 
BRANCH   8   9
ATOM      9  C   LIG d   1      -0.175  77.402 116.321  0.00  0.00     0.028 C 
ATOM     10  C   LIG d   1      -0.181  76.078 115.539  0.00  0.00     0.006 C 
ENDBRANCH   8   9
BRANCH   8  11
ATOM     11  C   LIG d   1       1.290  79.335 116.028  0.00  0.00     0.028 C 
ATOM     12  C   LIG d   1       2.096  80.139 114.995  0.00  0.00     0.006 C 
ENDBRANCH   8  11
ENDBRANCH   7   8
ENDBRANCH   1   7
BRANCH   6  13
ATOM     13  N   LIG d   1      -0.876  80.747 112.743  0.00  0.00    -0.311 N 
ATOM     14  C   LIG d   1       0.212  81.095 112.057  0.00  0.00     0.210 C 
ATOM     15  C   LIG d   1       0.429  82.604 111.910  0.00  0.00     0.109 C 
ATOM     16  O   LIG d   1       0.999  80.296 111.528  0.00  0.00    -0.276 OA
ATOM     17  H   LIG d   1      -1.477  81.460 113.109  0.00  0.00     0.149 HD
ENDBRANCH   6  13
BRANCH   5  18
ATOM     18  N   LIG d   1      -1.352  78.626 110.596  0.00  0.00     0.381 N 
ATOM     19  H   LIG d   1      -1.474  77.715 110.201  0.00  0.00    -0.090 HD
ATOM     20  H   LIG d   1      -0.374  78.762 110.779  0.00  0.00    -0.090 HD
ATOM     21  H   LIG d   1      -1.678  79.319 109.958  0.00  0.00    -0.090 HD
ENDBRANCH   5  18
BRANCH   3  22
ATOM     22  C   LIG d   1      -4.072  76.258 113.748  0.00  0.00     0.382 C 
ATOM     23  O   LIG d   1      -5.121  76.233 113.060  0.00  0.00    -0.241 OA
ATOM     24  O   LIG d   1      -3.914  75.421 114.657  0.00  0.00    -0.241 OA
ENDBRANCH   3  22
TORSDOF 7
ENDMDL
MODEL 3
REMARK VINA RESULT:      -4.4      3.112      5.616
REMARK  7 active torsions:
REMARK  status: ('A' for Active; 'I' for Inactive)
REMARK    1  A    between atoms: C_2  and  C_3 
REMARK    2  A    between atoms: C_3  and  O_6 
REMARK    3  A    between atoms: C_3  and  C_4 
REMARK    4  A    between atoms: C_7  and  O_6 
REMARK    5  A    between atoms: C_9  and  C_10 
REMARK    6  A    between atoms: N_15  and  C_14 
REMARK    7  A    between atoms: N_20  and  C_19 
REMARK       I    between atoms: C_22  and  N_20 
ROOT
ATOM      1  C   LIG d   1      -1.201  79.455 113.934  0.00  0.00     0.161 C 
ATOM      2  C   LIG d   1      -2.199  78.467 113.906  0.00  0.00     0.016 C 
ATOM      3  C   LIG d   1      -2.644  77.844 112.718  0.00  0.00     0.038 C 
ATOM      4  C   LIG d   1      -2.011  78.061 111.485  0.00  0.00     0.028 C 
ATOM      5  C   LIG d   1      -1.335  79.424 111.382  0.00  0.00    -0.047 C 
ATOM      6  C   LIG d   1      -0.421  79.624 112.613  0.00  0.00     0.091 C 
ENDROOT
BRANCH   1   7
ATOM      7  O   LIG d   1      -0.292  79.201 115.023  0.00  0.00    -0.368 OA
BRANCH   7   8
ATOM      8  C   LIG d   1      -0.812  78.404 116.115  0.00  0.00     0.119 C 
BRANCH   8   9
ATOM      9  C   LIG d   1      -0.878  79.309 117.360  0.00  0.00     0.028 C 
ATOM     10  C   LIG d   1      -2.282  79.343 117.987  0.00  0.00     0.006 C 
ENDBRANCH   8   9
BRANCH   8  11
ATOM     11  C   LIG d   1       0.151  77.273 116.487  0.00  0.00     0.028 C 
ATOM     12  C   LIG d   1      -0.178  75.951 115.775  0.00  0.00     0.006 C 
ENDBRANCH   8  11
ENDBRANCH   7   8
ENDBRANCH   1   7
BRANCH   6  13
ATOM     13  N   LIG d   1       0.214  80.968 112.634  0.00  0.00    -0.311 N 
ATOM     14  C   LIG d   1       1.388  81.233 112.064  0.00  0.00     0.210 C 
ATOM     15  C   LIG d   1       1.871  82.678 112.220  0.00  0.00     0.109 C 
ATOM     16  O   LIG d   1       2.060  80.416 111.416  0.00  0.00    -0.276 OA
ATOM     17  H   LIG d   1      -0.278  81.697 113.112  0.00  0.00     0.149 HD
ENDBRANCH   6  13
BRANCH   5  18
ATOM     18  N   LIG d   1      -0.600  79.461 110.104  0.00  0.00     0.381 N 
ATOM     19  H   LIG d   1       0.305  79.051 110.221  0.00  0.00    -0.090 HD
ATOM     20  H   LIG d   1      -0.478  80.420 109.827  0.00  0.00    -0.090 HD
ATOM     21  H   LIG d   1      -1.108  78.968 109.404  0.00  0.00    -0.090 HD
ENDBRANCH   5  18
BRANCH   3  22
ATOM     22  C   LIG d   1      -3.761  77.023 112.749  0.00  0.00     0.382 C 
ATOM     23  O   LIG d   1      -4.689  77.194 111.922  0.00  0.00    -0.241 OA
ATOM     24  O   LIG d   1      -3.873  76.142 113.623  0.00  0.00    -0.241 OA
ENDBRANCH   3  22
TORSDOF 7
ENDMDL
MODEL 4
REMARK VINA RESULT:      -4.3      2.050      4.980
REMARK  7 active torsions:
REMARK  status: ('A' for Active; 'I' for Inactive)
REMARK    1  A    between atoms: C_2  and  C_3 
REMARK    2  A    between atoms: C_3  and  O_6 
REMARK    3  A    between atoms: C_3  and  C_4 
REMARK    4  A    between atoms: C_7  and  O_6 
REMARK    5  A    between atoms: C_9  and  C_10 
REMARK    6  A    between atoms: N_15  and  C_14 
REMARK    7  A    between atoms: N_20  and  C_19 
REMARK       I    between atoms: C_22  and  N_20 
ROOT
ATOM      1  C   LIG d   1      -1.259  75.234 115.192  0.00  0.00     0.161 C 
ATOM      2  C   LIG d   1      -0.753  74.958 116.473  0.00  0.00     0.016 C 
ATOM      3  C   LIG d   1      -0.207  75.946 117.324  0.00  0.00     0.038 C 
ATOM      4  C   LIG d   1      -0.269  77.312 117.009  0.00  0.00     0.028 C 
ATOM      5  C   LIG d   1      -0.313  77.587 115.510  0.00  0.00    -0.047 C 
ATOM      6  C   LIG d   1      -1.436  76.734 114.876  0.00  0.00     0.091 C 
ENDROOT
BRANCH   1   7
ATOM      7  O   LIG d   1      -2.501  74.530 114.995  0.00  0.00    -0.368 OA
BRANCH   7   8
ATOM      8  C   LIG d   1      -3.682  75.152 115.558  0.00  0.00     0.119 C 
BRANCH   8   9
ATOM      9  C   LIG d   1      -4.262  74.181 116.604  0.00  0.00     0.028 C 
ATOM     10  C   LIG d   1      -4.045  74.673 118.045  0.00  0.00     0.006 C 
ENDBRANCH   8   9
BRANCH   8  11
ATOM     11  C   LIG d   1      -4.781  75.317 114.504  0.00  0.00     0.028 C 
ATOM     12  C   LIG d   1      -5.991  74.404 114.757  0.00  0.00     0.006 C 
ENDBRANCH   8  11
ENDBRANCH   7   8
ENDBRANCH   1   7
BRANCH   6  13
ATOM     13  N   LIG d   1      -1.493  76.879 113.398  0.00  0.00    -0.311 N 
ATOM     14  C   LIG d   1      -2.364  77.669 112.772  0.00  0.00     0.210 C 
ATOM     15  C   LIG d   1      -2.265  77.656 111.243  0.00  0.00     0.109 C 
ATOM     16  O   LIG d   1      -3.188  78.402 113.339  0.00  0.00    -0.276 OA
ATOM     17  H   LIG d   1      -0.839  76.344 112.862  0.00  0.00     0.149 HD
ENDBRANCH   6  13
BRANCH   5  18
ATOM     18  N   LIG d   1      -0.515  79.036 115.328  0.00  0.00     0.381 N 
ATOM     19  H   LIG d   1       0.157  79.393 114.678  0.00  0.00    -0.090 HD
ATOM     20  H   LIG d   1      -0.376  79.497 116.210  0.00  0.00    -0.090 HD
ATOM     21  H   LIG d   1      -1.437  79.213 114.994  0.00  0.00    -0.090 HD
ENDBRANCH   5  18
BRANCH   3  22
ATOM     22  C   LIG d   1       0.445  75.567 118.487  0.00  0.00     0.382 C 
ATOM     23  O   LIG d   1       0.954  74.424 118.577  0.00  0.00    -0.241 OA
ATOM     24  O   LIG d   1       0.492  76.338 119.465  0.00  0.00    -0.241 OA
ENDBRANCH   3  22
TORSDOF 7
ENDMDL
MODEL 5
REMARK VINA RESULT:      -4.3      2.100      2.845
REMARK  7 active torsions:
REMARK  status: ('A' for Active; 'I' for Inactive)
REMARK    1  A    between atoms: C_2  and  C_3 
REMARK    2  A    between atoms: C_3  and  O_6 
REMARK    3  A    between atoms: C_3  and  C_4 
REMARK    4  A    between atoms: C_7  and  O_6 
REMARK    5  A    between atoms: C_9  and  C_10 
REMARK    6  A    between atoms: N_15  and  C_14 
REMARK    7  A    between atoms: N_20  and  C_19 
REMARK       I    between atoms: C_22  and  N_20 
ROOT
ATOM      1  C   LIG d   1      -3.024  78.350 115.503  0.00  0.00     0.161 C 
ATOM      2  C   LIG d   1      -3.103  79.407 114.581  0.00  0.00     0.016 C 
ATOM      3  C   LIG d   1      -2.484  79.379 113.310  0.00  0.00     0.038 C 
ATOM      4  C   LIG d   1      -1.866  78.222 112.812  0.00  0.00     0.028 C 
ATOM      5  C   LIG d   1      -1.326  77.306 113.905  0.00  0.00    -0.047 C 
ATOM      6  C   LIG d   1      -2.448  77.037 114.934  0.00  0.00     0.091 C 
ENDROOT
BRANCH   1   7
ATOM      7  O   LIG d   1      -4.320  78.115 116.090  0.00  0.00    -0.368 OA
BRANCH   7   8
ATOM      8  C   LIG d   1      -4.531  78.672 117.411  0.00  0.00     0.119 C 
BRANCH   8   9
ATOM      9  C   LIG d   1      -5.091  77.547 118.303  0.00  0.00     0.028 C 
ATOM     10  C   LIG d   1      -3.987  76.808 119.078  0.00  0.00     0.006 C 
ENDBRANCH   8   9
BRANCH   8  11
ATOM     11  C   LIG d   1      -5.616  79.753 117.393  0.00  0.00     0.028 C 
ATOM     12  C   LIG d   1      -5.628  80.607 118.671  0.00  0.00     0.006 C 
ENDBRANCH   8  11
ENDBRANCH   7   8
ENDBRANCH   1   7
BRANCH   6  13
ATOM     13  N   LIG d   1      -1.980  76.216 116.081  0.00  0.00    -0.311 N 
ATOM     14  C   LIG d   1      -2.092  74.890 116.128  0.00  0.00     0.210 C 
ATOM     15  C   LIG d   1      -1.564  74.241 117.411  0.00  0.00     0.109 C 
ATOM     16  O   LIG d   1      -2.550  74.186 115.215  0.00  0.00    -0.276 OA
ATOM     17  H   LIG d   1      -1.567  76.703 116.852  0.00  0.00     0.149 HD
ENDBRANCH   6  13
BRANCH   5  18
ATOM     18  N   LIG d   1      -0.833  76.078 113.253  0.00  0.00     0.381 N 
ATOM     19  H   LIG d   1      -1.601  75.468 113.054  0.00  0.00    -0.090 HD
ATOM     20  H   LIG d   1      -0.209  75.604 113.881  0.00  0.00    -0.090 HD
ATOM     21  H   LIG d   1      -0.355  76.308 112.409  0.00  0.00    -0.090 HD
ENDBRANCH   5  18
BRANCH   3  22
ATOM     22  C   LIG d   1      -2.446  80.531 112.539  0.00  0.00     0.382 C 
ATOM     23  O   LIG d   1      -1.417  80.807 111.876  0.00  0.00    -0.241 OA
ATOM     24  O   LIG d   1      -3.409  81.320 112.534  0.00  0.00    -0.241 OA
ENDBRANCH   3  22
TORSDOF 7
ENDMDL
MODEL 6
REMARK VINA RESULT:      -4.1      1.754      2.523
REMARK  7 active torsions:
REMARK  status: ('A' for Active; 'I' for Inactive)
REMARK    1  A    between atoms: C_2  and  C_3 
REMARK    2  A    between atoms: C_3  and  O_6 
REMARK    3  A    between atoms: C_3  and  C_4 
REMARK    4  A    between atoms: C_7  and  O_6 
REMARK    5  A    between atoms: C_9  and  C_10 
REMARK    6  A    between atoms: N_15  and  C_14 
REMARK    7  A    between atoms: N_20  and  C_19 
REMARK       I    between atoms: C_22  and  N_20 
ROOT
ATOM      1  C   LIG d   1      -3.064  77.128 116.290  0.00  0.00     0.161 C 
ATOM      2  C   LIG d   1      -3.395  77.482 114.971  0.00  0.00     0.016 C 
ATOM      3  C   LIG d   1      -2.543  77.251 113.866  0.00  0.00     0.038 C 
ATOM      4  C   LIG d   1      -1.359  76.509 113.985  0.00  0.00     0.028 C 
ATOM      5  C   LIG d   1      -0.742  76.572 115.379  0.00  0.00    -0.047 C 
ATOM      6  C   LIG d   1      -1.825  76.217 116.423  0.00  0.00     0.091 C 
ENDROOT
BRANCH   1   7
ATOM      7  O   LIG d   1      -4.202  76.522 116.933  0.00  0.00    -0.368 OA
BRANCH   7   8
ATOM      8  C   LIG d   1      -5.381  76.346 116.110  0.00  0.00     0.119 C 
BRANCH   8   9
ATOM      9  C   LIG d   1      -6.587  76.877 116.908  0.00  0.00     0.028 C 
ATOM     10  C   LIG d   1      -6.454  78.372 117.247  0.00  0.00     0.006 C 
ENDBRANCH   8   9
BRANCH   8  11
ATOM     11  C   LIG d   1      -5.676  74.862 115.869  0.00  0.00     0.028 C 
ATOM     12  C   LIG d   1      -5.636  74.481 114.381  0.00  0.00     0.006 C 
ENDBRANCH   8  11
ENDBRANCH   7   8
ENDBRANCH   1   7
BRANCH   6  13
ATOM     13  N   LIG d   1      -1.327  76.337 117.818  0.00  0.00    -0.311 N 
ATOM     14  C   LIG d   1      -0.801  75.319 118.499  0.00  0.00     0.210 C 
ATOM     15  C   LIG d   1      -0.369  75.653 119.930  0.00  0.00     0.109 C 
ATOM     16  O   LIG d   1      -0.622  74.180 118.042  0.00  0.00    -0.276 OA
ATOM     17  H   LIG d   1      -1.405  77.234 118.255  0.00  0.00     0.149 HD
ENDBRANCH   6  13
BRANCH   5  18
ATOM     18  N   LIG d   1       0.407  75.646 115.400  0.00  0.00     0.381 N 
ATOM     19  H   LIG d   1       0.513  75.218 114.502  0.00  0.00    -0.090 HD
ATOM     20  H   LIG d   1       0.229  74.923 116.074  0.00  0.00    -0.090 HD
ATOM     21  H   LIG d   1       1.238  76.139 115.642  0.00  0.00    -0.090 HD
ENDBRANCH   5  18
BRANCH   3  22
ATOM     22  C   LIG d   1      -2.854  77.801 112.632  0.00  0.00     0.382 C 
ATOM     23  O   LIG d   1      -2.759  79.039 112.455  0.00  0.00    -0.241 OA
ATOM     24  O   LIG d   1      -3.273  77.079 111.707  0.00  0.00    -0.241 OA
ENDBRANCH   3  22
TORSDOF 7
ENDMDL
MODEL 7
REMARK VINA RESULT:      -3.9      2.356      4.174
REMARK  7 active torsions:
REMARK  status: ('A' for Active; 'I' for Inactive)
REMARK    1  A    between atoms: C_2  and  C_3 
REMARK    2  A    between atoms: C_3  and  O_6 
REMARK    3  A    between atoms: C_3  and  C_4 
REMARK    4  A    between atoms: C_7  and  O_6 
REMARK    5  A    between atoms: C_9  and  C_10 
REMARK    6  A    between atoms: N_15  and  C_14 
REMARK    7  A    between atoms: N_20  and  C_19 
REMARK       I    between atoms: C_22  and  N_20 
ROOT
ATOM      1  C   LIG d   1      -2.187  77.668 116.342  0.00  0.00     0.161 C 
ATOM      2  C   LIG d   1      -3.050  77.072 115.407  0.00  0.00     0.016 C 
ATOM      3  C   LIG d   1      -2.955  77.286 114.013  0.00  0.00     0.038 C 
ATOM      4  C   LIG d   1      -1.889  77.997 113.443  0.00  0.00     0.028 C 
ATOM      5  C   LIG d   1      -1.282  79.034 114.381  0.00  0.00    -0.047 C 
ATOM      6  C   LIG d   1      -0.949  78.358 115.730  0.00  0.00     0.091 C 
ENDROOT
BRANCH   1   7
ATOM      7  O   LIG d   1      -1.783  76.694 117.325  0.00  0.00    -0.368 OA
BRANCH   7   8
ATOM      8  C   LIG d   1      -1.732  75.318 116.875  0.00  0.00     0.119 C 
BRANCH   8   9
ATOM      9  C   LIG d   1      -2.464  74.460 117.925  0.00  0.00     0.028 C 
ATOM     10  C   LIG d   1      -2.723  75.227 119.232  0.00  0.00     0.006 C 
ENDBRANCH   8   9
BRANCH   8  11
ATOM     11  C   LIG d   1      -0.293  74.792 116.855  0.00  0.00     0.028 C 
ATOM     12  C   LIG d   1       0.670  75.658 117.682  0.00  0.00     0.006 C 
ENDBRANCH   8  11
ENDBRANCH   7   8
ENDBRANCH   1   7
BRANCH   6  13
ATOM     13  N   LIG d   1      -0.429  79.321 116.735  0.00  0.00    -0.311 N 
ATOM     14  C   LIG d   1       0.869  79.526 116.952  0.00  0.00     0.210 C 
ATOM     15  C   LIG d   1       1.189  80.548 118.047  0.00  0.00     0.109 C 
ATOM     16  O   LIG d   1       1.786  78.980 116.319  0.00  0.00    -0.276 OA
ATOM     17  H   LIG d   1      -1.105  79.830 117.271  0.00  0.00     0.149 HD
ENDBRANCH   6  13
BRANCH   5  18
ATOM     18  N   LIG d   1      -0.097  79.602 113.711  0.00  0.00     0.381 N 
ATOM     19  H   LIG d   1      -0.347  79.926 112.798  0.00  0.00    -0.090 HD
ATOM     20  H   LIG d   1       0.597  78.882 113.612  0.00  0.00    -0.090 HD
ATOM     21  H   LIG d   1       0.270  80.356 114.249  0.00  0.00    -0.090 HD
ENDBRANCH   5  18
BRANCH   3  22
ATOM     22  C   LIG d   1      -3.958  76.819 113.176  0.00  0.00     0.382 C 
ATOM     23  O   LIG d   1      -4.817  76.016 113.615  0.00  0.00    -0.241 OA
ATOM     24  O   LIG d   1      -3.988  77.155 111.978  0.00  0.00    -0.241 OA
ENDBRANCH   3  22
TORSDOF 7
ENDMDL
MODEL 8
REMARK VINA RESULT:      -3.7      2.171      4.779
REMARK  7 active torsions:
REMARK  status: ('A' for Active; 'I' for Inactive)
REMARK    1  A    between atoms: C_2  and  C_3 
REMARK    2  A    between atoms: C_3  and  O_6 
REMARK    3  A    between atoms: C_3  and  C_4 
REMARK    4  A    between atoms: C_7  and  O_6 
REMARK    5  A    between atoms: C_9  and  C_10 
REMARK    6  A    between atoms: N_15  and  C_14 
REMARK    7  A    between atoms: N_20  and  C_19 
REMARK       I    between atoms: C_22  and  N_20 
ROOT
ATOM      1  C   LIG d   1      -1.805  75.828 115.803  0.00  0.00     0.161 C 
ATOM      2  C   LIG d   1      -3.141  75.503 115.514  0.00  0.00     0.016 C 
ATOM      3  C   LIG d   1      -3.866  76.071 114.441  0.00  0.00     0.038 C 
ATOM      4  C   LIG d   1      -3.252  76.894 113.486  0.00  0.00     0.028 C 
ATOM      5  C   LIG d   1      -2.039  77.647 114.023  0.00  0.00    -0.047 C 
ATOM      6  C   LIG d   1      -1.085  76.639 114.705  0.00  0.00     0.091 C 
ENDROOT
BRANCH   1   7
ATOM      7  O   LIG d   1      -1.066  74.628 116.105  0.00  0.00    -0.368 OA
BRANCH   7   8
ATOM      8  C   LIG d   1      -0.800  74.379 117.507  0.00  0.00     0.119 C 
BRANCH   8   9
ATOM      9  C   LIG d   1      -1.182  75.654 118.284  0.00  0.00     0.028 C 
ATOM     10  C   LIG d   1      -2.148  75.366 119.446  0.00  0.00     0.006 C 
ENDBRANCH   8   9
BRANCH   8  11
ATOM     11  C   LIG d   1       0.696  74.180 117.764  0.00  0.00     0.028 C 
ATOM     12  C   LIG d   1       1.403  75.473 118.202  0.00  0.00     0.006 C 
ENDBRANCH   8  11
ENDBRANCH   7   8
ENDBRANCH   1   7
BRANCH   6  13
ATOM     13  N   LIG d   1       0.087  77.303 115.333  0.00  0.00    -0.311 N 
ATOM     14  C   LIG d   1       0.027  78.502 115.910  0.00  0.00     0.210 C 
ATOM     15  C   LIG d   1       1.356  79.012 116.478  0.00  0.00     0.109 C 
ATOM     16  O   LIG d   1      -1.005  79.177 116.035  0.00  0.00    -0.276 OA
ATOM     17  H   LIG d   1       0.958  76.812 115.305  0.00  0.00     0.149 HD
ENDBRANCH   6  13
BRANCH   5  18
ATOM     18  N   LIG d   1      -1.416  78.357 112.890  0.00  0.00     0.381 N 
ATOM     19  H   LIG d   1      -1.885  78.115 112.040  0.00  0.00    -0.090 HD
ATOM     20  H   LIG d   1      -0.457  78.069 112.814  0.00  0.00    -0.090 HD
ATOM     21  H   LIG d   1      -1.465  79.341 113.037  0.00  0.00    -0.090 HD
ENDBRANCH   5  18
BRANCH   3  22
ATOM     22  C   LIG d   1      -5.231  75.848 114.339  0.00  0.00     0.382 C 
ATOM     23  O   LIG d   1      -6.029  76.515 115.041  0.00  0.00    -0.241 OA
ATOM     24  O   LIG d   1      -5.671  74.959 113.587  0.00  0.00    -0.241 OA
ENDBRANCH   3  22
TORSDOF 7
ENDMDL
MODEL 9
REMARK VINA RESULT:      -3.6      2.261      5.149
REMARK  7 active torsions:
REMARK  status: ('A' for Active; 'I' for Inactive)
REMARK    1  A    between atoms: C_2  and  C_3 
REMARK    2  A    between atoms: C_3  and  O_6 
REMARK    3  A    between atoms: C_3  and  C_4 
REMARK    4  A    between atoms: C_7  and  O_6 
REMARK    5  A    between atoms: C_9  and  C_10 
REMARK    6  A    between atoms: N_15  and  C_14 
REMARK    7  A    between atoms: N_20  and  C_19 
REMARK       I    between atoms: C_22  and  N_20 
ROOT
ATOM      1  C   LIG d   1      -1.726  77.404 115.206  0.00  0.00     0.161 C 
ATOM      2  C   LIG d   1      -0.435  77.640 115.709  0.00  0.00     0.016 C 
ATOM      3  C   LIG d   1       0.121  76.921 116.792  0.00  0.00     0.038 C 
ATOM      4  C   LIG d   1      -0.523  75.809 117.353  0.00  0.00     0.028 C 
ATOM      5  C   LIG d   1      -2.041  75.853 117.212  0.00  0.00    -0.047 C 
ATOM      6  C   LIG d   1      -2.400  76.120 115.732  0.00  0.00     0.091 C 
ENDROOT
BRANCH   1   7
ATOM      7  O   LIG d   1      -1.696  77.400 113.765  0.00  0.00    -0.368 OA
BRANCH   7   8
ATOM      8  C   LIG d   1      -1.489  78.684 113.128  0.00  0.00     0.119 C 
BRANCH   8   9
ATOM      9  C   LIG d   1      -2.578  79.641 113.651  0.00  0.00     0.028 C 
ATOM     10  C   LIG d   1      -2.889  80.775 112.659  0.00  0.00     0.006 C 
ENDBRANCH   8   9
BRANCH   8  11
ATOM     11  C   LIG d   1      -1.716  78.599 111.615  0.00  0.00     0.028 C 
ATOM     12  C   LIG d   1      -2.456  77.319 111.195  0.00  0.00     0.006 C 
ENDBRANCH   8  11
ENDBRANCH   7   8
ENDBRANCH   1   7
BRANCH   6  13
ATOM     13  N   LIG d   1      -3.865  76.262 115.521  0.00  0.00    -0.311 N 
ATOM     14  C   LIG d   1      -4.626  75.305 114.993  0.00  0.00     0.210 C 
ATOM     15  C   LIG d   1      -6.107  75.665 114.845  0.00  0.00     0.109 C 
ATOM     16  O   LIG d   1      -4.220  74.180 114.663  0.00  0.00    -0.276 OA
ATOM     17  H   LIG d   1      -4.282  77.132 115.790  0.00  0.00     0.149 HD
ENDBRANCH   6  13
BRANCH   5  18
ATOM     18  N   LIG d   1      -2.573  74.572 117.714  0.00  0.00     0.381 N 
ATOM     19  H   LIG d   1      -3.565  74.637 117.825  0.00  0.00    -0.090 HD
ATOM     20  H   LIG d   1      -2.167  74.381 118.613  0.00  0.00    -0.090 HD
ATOM     21  H   LIG d   1      -2.350  73.838 117.078  0.00  0.00    -0.090 HD
ENDBRANCH   5  18
BRANCH   3  22
ATOM     22  C   LIG d   1       1.318  77.340 117.352  0.00  0.00     0.382 C 
ATOM     23  O   LIG d   1       1.767  78.482 117.090  0.00  0.00    -0.241 OA
ATOM     24  O   LIG d   1       1.977  76.575 118.081  0.00  0.00    -0.241 OA
ENDBRANCH   3  22
TORSDOF 7
ENDMDL
