MODEL 1
REMARK VINA RESULT:      -4.9      0.000      0.000
REMARK  7 active torsions:
REMARK  status: ('A' for Active; 'I' for Inactive)
REMARK    1  A    between atoms: C_2  and  C_3 
REMARK    2  A    between atoms: C_3  and  O_6 
REMARK    3  A    between atoms: C_3  and  C_4 
REMARK    4  A    between atoms: C_7  and  O_6 
REMARK    5  A    between atoms: C_9  and  C_10 
REMARK    6  A    between atoms: N_15  and  C_14 
REMARK    7  A    between atoms: N_20  and  C_19 
REMARK       I    between atoms: C_22  and  N_20 
ROOT
ATOM      1  C   LIG d   1      -2.734  77.107 114.348  0.00  0.00     0.161 C 
ATOM      2  C   LIG d   1      -2.820  78.119 113.378  0.00  0.00     0.016 C 
ATOM      3  C   LIG d   1      -1.983  79.259 113.365  0.00  0.00     0.038 C 
ATOM      4  C   LIG d   1      -0.895  79.389 114.241  0.00  0.00     0.028 C 
ATOM      5  C   LIG d   1      -1.082  78.638 115.555  0.00  0.00    -0.047 C 
ATOM      6  C   LIG d   1      -1.481  77.177 115.246  0.00  0.00     0.091 C 
ENDROOT
BRANCH   1   7
ATOM      7  O   LIG d   1      -2.826  75.815 113.716  0.00  0.00    -0.368 OA
BRANCH   7   8
ATOM      8  C   LIG d   1      -3.969  75.005 114.085  0.00  0.00     0.119 C 
BRANCH   8   9
ATOM      9  C   LIG d   1      -4.837  74.827 112.824  0.00  0.00     0.028 C 
ATOM     10  C   LIG d   1      -5.783  76.017 112.590  0.00  0.00     0.006 C 
ENDBRANCH   8   9
BRANCH   8  11
ATOM     11  C   LIG d   1      -4.864  75.731 115.094  0.00  0.00     0.028 C 
ATOM     12  C   LIG d   1      -5.365  74.809 116.217  0.00  0.00     0.006 C 
ENDBRANCH   8  11
ENDBRANCH   7   8
ENDBRANCH   1   7
BRANCH   6  13
ATOM     13  N   LIG d   1      -1.765  76.394 116.477  0.00  0.00    -0.311 N 
ATOM     14  C   LIG d   1      -1.315  75.157 116.679  0.00  0.00     0.210 C 
ATOM     15  C   LIG d   1      -1.741  74.523 118.007  0.00  0.00     0.109 C 
ATOM     16  O   LIG d   1      -0.578  74.536 115.899  0.00  0.00    -0.276 OA
ATOM     17  H   LIG d   1      -2.331  76.834 117.176  0.00  0.00     0.149 HD
ENDBRANCH   6  13
BRANCH   5  18
ATOM     18  N   LIG d   1       0.179  78.745 116.313  0.00  0.00     0.381 N 
ATOM     19  H   LIG d   1       0.848  78.095 115.950  0.00  0.00    -0.090 HD
ATOM     20  H   LIG d   1       0.002  78.511 117.274  0.00  0.00    -0.090 HD
ATOM     21  H   LIG d   1       0.538  79.672 116.249  0.00  0.00    -0.090 HD
ENDBRANCH   5  18
BRANCH   3  22
ATOM     22  C   LIG d   1      -2.256  80.302 112.494  0.00  0.00     0.382 C 
ATOM     23  O   LIG d   1      -1.370  80.707 111.703  0.00  0.00    -0.241 OA
ATOM     24  O   LIG d   1      -3.362  80.874 112.520  0.00  0.00    -0.241 OA
ENDBRANCH   3  22
TORSDOF 7
ENDMDL
MODEL 2
REMARK VINA RESULT:      -4.9      3.212      4.501
REMARK  7 active torsions:
REMARK  status: ('A' for Active; 'I' for Inactive)
REMARK    1  A    between atoms: C_2  and  C_3 
REMARK    2  A    between atoms: C_3  and  O_6 
REMARK    3  A    between atoms: C_3  and  C_4 
REMARK    4  A    between atoms: C_7  and  O_6 
REMARK    5  A    between atoms: C_9  and  C_10 
REMARK    6  A    between atoms: N_15  and  C_14 
REMARK    7  A    between atoms: N_20  and  C_19 
REMARK       I    between atoms: C_22  and  N_20 
ROOT
ATOM      1  C   LIG d   1      -3.616  77.832 116.745  0.00  0.00     0.161 C 
ATOM      2  C   LIG d   1      -2.867  78.706 117.551  0.00  0.00     0.016 C 
ATOM      3  C   LIG d   1      -1.524  79.056 117.280  0.00  0.00     0.038 C 
ATOM      4  C   LIG d   1      -0.883  78.671 116.093  0.00  0.00     0.028 C 
ATOM      5  C   LIG d   1      -1.431  77.377 115.500  0.00  0.00    -0.047 C 
ATOM      6  C   LIG d   1      -2.969  77.490 115.387  0.00  0.00     0.091 C 
ENDROOT
BRANCH   1   7
ATOM      7  O   LIG d   1      -4.942  78.363 116.549  0.00  0.00    -0.368 OA
BRANCH   7   8
ATOM      8  C   LIG d   1      -5.981  77.811 117.395  0.00  0.00     0.119 C 
BRANCH   8   9
ATOM      9  C   LIG d   1      -6.696  76.709 116.590  0.00  0.00     0.028 C 
ATOM     10  C   LIG d   1      -6.363  75.297 117.102  0.00  0.00     0.006 C 
ENDBRANCH   8   9
BRANCH   8  11
ATOM     11  C   LIG d   1      -7.060  78.853 117.704  0.00  0.00     0.028 C 
ATOM     12  C   LIG d   1      -6.551  80.296 117.565  0.00  0.00     0.006 C 
ENDBRANCH   8  11
ENDBRANCH   7   8
ENDBRANCH   1   7
BRANCH   6  13
ATOM     13  N   LIG d   1      -3.594  76.235 114.894  0.00  0.00    -0.311 N 
ATOM     14  C   LIG d   1      -3.922  76.030 113.620  0.00  0.00     0.210 C 
ATOM     15  C   LIG d   1      -4.574  74.675 113.329  0.00  0.00     0.109 C 
ATOM     16  O   LIG d   1      -3.705  76.830 112.697  0.00  0.00    -0.276 OA
ATOM     17  H   LIG d   1      -3.777  75.520 115.571  0.00  0.00     0.149 HD
ENDBRANCH   6  13
BRANCH   5  18
ATOM     18  N   LIG d   1      -0.769  77.168 114.199  0.00  0.00     0.381 N 
ATOM     19  H   LIG d   1      -1.419  76.772 113.548  0.00  0.00    -0.090 HD
ATOM     20  H   LIG d   1      -0.011  76.520 114.321  0.00  0.00    -0.090 HD
ATOM     21  H   LIG d   1      -0.423  78.034 113.849  0.00  0.00    -0.090 HD
ENDBRANCH   5  18
BRANCH   3  22
ATOM     22  C   LIG d   1      -0.796  79.767 118.221  0.00  0.00     0.382 C 
ATOM     23  O   LIG d   1      -0.310  80.885 117.924  0.00  0.00    -0.241 OA
ATOM     24  O   LIG d   1      -0.582  79.285 119.350  0.00  0.00    -0.241 OA
ENDBRANCH   3  22
TORSDOF 7
ENDMDL
MODEL 3
REMARK VINA RESULT:      -4.8      1.896      5.040
REMARK  7 active torsions:
REMARK  status: ('A' for Active; 'I' for Inactive)
REMARK    1  A    between atoms: C_2  and  C_3 
REMARK    2  A    between atoms: C_3  and  O_6 
REMARK    3  A    between atoms: C_3  and  C_4 
REMARK    4  A    between atoms: C_7  and  O_6 
REMARK    5  A    between atoms: C_9  and  C_10 
REMARK    6  A    between atoms: N_15  and  C_14 
REMARK    7  A    between atoms: N_20  and  C_19 
REMARK       I    between atoms: C_22  and  N_20 
ROOT
ATOM      1  C   LIG d   1      -1.303  75.569 115.436  0.00  0.00     0.161 C 
ATOM      2  C   LIG d   1      -0.784  75.064 116.640  0.00  0.00     0.016 C 
ATOM      3  C   LIG d   1      -0.138  75.869 117.607  0.00  0.00     0.038 C 
ATOM      4  C   LIG d   1      -0.100  77.267 117.502  0.00  0.00     0.028 C 
ATOM      5  C   LIG d   1      -0.164  77.769 116.063  0.00  0.00    -0.047 C 
ATOM      6  C   LIG d   1      -1.369  77.108 115.355  0.00  0.00     0.091 C 
ENDROOT
BRANCH   1   7
ATOM      7  O   LIG d   1      -2.602  74.998 115.186  0.00  0.00    -0.368 OA
BRANCH   7   8
ATOM      8  C   LIG d   1      -3.729  75.700 115.765  0.00  0.00     0.119 C 
BRANCH   8   9
ATOM      9  C   LIG d   1      -4.227  74.868 116.963  0.00  0.00     0.028 C 
ATOM     10  C   LIG d   1      -5.573  74.180 116.681  0.00  0.00     0.006 C 
ENDBRANCH   8   9
BRANCH   8  11
ATOM     11  C   LIG d   1      -4.910  75.757 114.792  0.00  0.00     0.028 C 
ATOM     12  C   LIG d   1      -4.499  75.474 113.338  0.00  0.00     0.006 C 
ENDBRANCH   8  11
ENDBRANCH   7   8
ENDBRANCH   1   7
BRANCH   6  13
ATOM     13  N   LIG d   1      -1.455  77.480 113.919  0.00  0.00    -0.311 N 
ATOM     14  C   LIG d   1      -2.195  78.491 113.466  0.00  0.00     0.210 C 
ATOM     15  C   LIG d   1      -2.158  78.690 111.948  0.00  0.00     0.109 C 
ATOM     16  O   LIG d   1      -2.852  79.263 114.182  0.00  0.00    -0.276 OA
ATOM     17  H   LIG d   1      -0.929  76.926 113.272  0.00  0.00     0.149 HD
ENDBRANCH   6  13
BRANCH   5  18
ATOM     18  N   LIG d   1      -0.255  79.240 116.108  0.00  0.00     0.381 N 
ATOM     19  H   LIG d   1      -0.760  79.573 115.311  0.00  0.00    -0.090 HD
ATOM     20  H   LIG d   1       0.673  79.625 116.076  0.00  0.00    -0.090 HD
ATOM     21  H   LIG d   1      -0.713  79.528 116.945  0.00  0.00    -0.090 HD
ENDBRANCH   5  18
BRANCH   3  22
ATOM     22  C   LIG d   1       0.514  75.270 118.674  0.00  0.00     0.382 C 
ATOM     23  O   LIG d   1       1.655  75.667 119.013  0.00  0.00    -0.241 OA
ATOM     24  O   LIG d   1      -0.005  74.310 119.273  0.00  0.00    -0.241 OA
ENDBRANCH   3  22
TORSDOF 7
ENDMDL
MODEL 4
REMARK VINA RESULT:      -4.8      1.931      2.812
REMARK  7 active torsions:
REMARK  status: ('A' for Active; 'I' for Inactive)
REMARK    1  A    between atoms: C_2  and  C_3 
REMARK    2  A    between atoms: C_3  and  O_6 
REMARK    3  A    between atoms: C_3  and  C_4 
REMARK    4  A    between atoms: C_7  and  O_6 
REMARK    5  A    between atoms: C_9  and  C_10 
REMARK    6  A    between atoms: N_15  and  C_14 
REMARK    7  A    between atoms: N_20  and  C_19 
REMARK       I    between atoms: C_22  and  N_20 
ROOT
ATOM      1  C   LIG d   1      -2.618  76.276 116.404  0.00  0.00     0.161 C 
ATOM      2  C   LIG d   1      -2.833  77.287 115.454  0.00  0.00     0.016 C 
ATOM      3  C   LIG d   1      -2.039  77.449 114.295  0.00  0.00     0.038 C 
ATOM      4  C   LIG d   1      -1.062  76.511 113.930  0.00  0.00     0.028 C 
ATOM      5  C   LIG d   1      -0.473  75.756 115.116  0.00  0.00    -0.047 C 
ATOM      6  C   LIG d   1      -1.627  75.177 115.966  0.00  0.00     0.091 C 
ENDROOT
BRANCH   1   7
ATOM      7  O   LIG d   1      -3.877  75.690 116.789  0.00  0.00    -0.368 OA
BRANCH   7   8
ATOM      8  C   LIG d   1      -4.980  75.889 115.870  0.00  0.00     0.119 C 
BRANCH   8   9
ATOM      9  C   LIG d   1      -6.267  76.003 116.710  0.00  0.00     0.028 C 
ATOM     10  C   LIG d   1      -6.678  74.662 117.340  0.00  0.00     0.006 C 
ENDBRANCH   8   9
BRANCH   8  11
ATOM     11  C   LIG d   1      -5.187  74.664 114.975  0.00  0.00     0.028 C 
ATOM     12  C   LIG d   1      -4.804  74.925 113.510  0.00  0.00     0.006 C 
ENDBRANCH   8  11
ENDBRANCH   7   8
ENDBRANCH   1   7
BRANCH   6  13
ATOM     13  N   LIG d   1      -1.141  74.494 117.193  0.00  0.00    -0.311 N 
ATOM     14  C   LIG d   1      -0.325  75.067 118.076  0.00  0.00     0.210 C 
ATOM     15  C   LIG d   1       0.071  74.180 119.261  0.00  0.00     0.109 C 
ATOM     16  O   LIG d   1       0.083  76.236 118.007  0.00  0.00    -0.276 OA
ATOM     17  H   LIG d   1      -1.448  73.553 117.344  0.00  0.00     0.149 HD
ENDBRANCH   6  13
BRANCH   5  18
ATOM     18  N   LIG d   1       0.428  74.718 114.581  0.00  0.00     0.381 N 
ATOM     19  H   LIG d   1       0.044  73.811 114.759  0.00  0.00    -0.090 HD
ATOM     20  H   LIG d   1       1.314  74.783 115.051  0.00  0.00    -0.090 HD
ATOM     21  H   LIG d   1       0.553  74.847 113.601  0.00  0.00    -0.090 HD
ENDBRANCH   5  18
BRANCH   3  22
ATOM     22  C   LIG d   1      -2.192  78.581 113.509  0.00  0.00     0.382 C 
ATOM     23  O   LIG d   1      -1.485  79.595 113.726  0.00  0.00    -0.241 OA
ATOM     24  O   LIG d   1      -3.058  78.617 112.615  0.00  0.00    -0.241 OA
ENDBRANCH   3  22
TORSDOF 7
ENDMDL
MODEL 5
REMARK VINA RESULT:      -4.7      1.410      4.737
REMARK  7 active torsions:
REMARK  status: ('A' for Active; 'I' for Inactive)
REMARK    1  A    between atoms: C_2  and  C_3 
REMARK    2  A    between atoms: C_3  and  O_6 
REMARK    3  A    between atoms: C_3  and  C_4 
REMARK    4  A    between atoms: C_7  and  O_6 
REMARK    5  A    between atoms: C_9  and  C_10 
REMARK    6  A    between atoms: N_15  and  C_14 
REMARK    7  A    between atoms: N_20  and  C_19 
REMARK       I    between atoms: C_22  and  N_20 
ROOT
ATOM      1  C   LIG d   1      -1.454  76.435 114.658  0.00  0.00     0.161 C 
ATOM      2  C   LIG d   1      -1.455  75.513 115.718  0.00  0.00     0.016 C 
ATOM      3  C   LIG d   1      -1.187  75.869 117.059  0.00  0.00     0.038 C 
ATOM      4  C   LIG d   1      -1.048  77.207 117.457  0.00  0.00     0.028 C 
ATOM      5  C   LIG d   1      -0.539  78.120 116.347  0.00  0.00    -0.047 C 
ATOM      6  C   LIG d   1      -1.414  77.916 115.089  0.00  0.00     0.091 C 
ENDROOT
BRANCH   1   7
ATOM      7  O   LIG d   1      -2.587  76.193 113.800  0.00  0.00    -0.368 OA
BRANCH   7   8
ATOM      8  C   LIG d   1      -3.610  75.313 114.327  0.00  0.00     0.119 C 
BRANCH   8   9
ATOM      9  C   LIG d   1      -4.414  74.769 113.130  0.00  0.00     0.028 C 
ATOM     10  C   LIG d   1      -5.552  75.713 112.710  0.00  0.00     0.006 C 
ENDBRANCH   8   9
BRANCH   8  11
ATOM     11  C   LIG d   1      -4.623  76.084 115.179  0.00  0.00     0.028 C 
ATOM     12  C   LIG d   1      -5.092  75.291 116.409  0.00  0.00     0.006 C 
ENDBRANCH   8  11
ENDBRANCH   7   8
ENDBRANCH   1   7
BRANCH   6  13
ATOM     13  N   LIG d   1      -0.933  78.710 113.928  0.00  0.00    -0.311 N 
ATOM     14  C   LIG d   1      -1.713  79.531 113.228  0.00  0.00     0.210 C 
ATOM     15  C   LIG d   1      -1.022  80.238 112.058  0.00  0.00     0.109 C 
ATOM     16  O   LIG d   1      -2.904  79.765 113.484  0.00  0.00    -0.276 OA
ATOM     17  H   LIG d   1       0.029  78.604 113.671  0.00  0.00     0.149 HD
ENDBRANCH   6  13
BRANCH   5  18
ATOM     18  N   LIG d   1      -0.573  79.504 116.856  0.00  0.00     0.381 N 
ATOM     19  H   LIG d   1       0.177  80.031 116.455  0.00  0.00    -0.090 HD
ATOM     20  H   LIG d   1      -0.447  79.486 117.853  0.00  0.00    -0.090 HD
ATOM     21  H   LIG d   1      -1.445  79.929 116.631  0.00  0.00    -0.090 HD
ENDBRANCH   5  18
BRANCH   3  22
ATOM     22  C   LIG d   1      -1.015  74.877 118.013  0.00  0.00     0.382 C 
ATOM     23  O   LIG d   1      -1.891  74.696 118.893  0.00  0.00    -0.241 OA
ATOM     24  O   LIG d   1       0.024  74.191 118.031  0.00  0.00    -0.241 OA
ENDBRANCH   3  22
TORSDOF 7
ENDMDL
MODEL 6
REMARK VINA RESULT:      -4.5      2.574      4.044
REMARK  7 active torsions:
REMARK  status: ('A' for Active; 'I' for Inactive)
REMARK    1  A    between atoms: C_2  and  C_3 
REMARK    2  A    between atoms: C_3  and  O_6 
REMARK    3  A    between atoms: C_3  and  C_4 
REMARK    4  A    between atoms: C_7  and  O_6 
REMARK    5  A    between atoms: C_9  and  C_10 
REMARK    6  A    between atoms: N_15  and  C_14 
REMARK    7  A    between atoms: N_20  and  C_19 
REMARK       I    between atoms: C_22  and  N_20 
ROOT
ATOM      1  C   LIG d   1      -2.915  76.161 116.774  0.00  0.00     0.161 C 
ATOM      2  C   LIG d   1      -3.658  76.157 115.582  0.00  0.00     0.016 C 
ATOM      3  C   LIG d   1      -3.077  75.996 114.303  0.00  0.00     0.038 C 
ATOM      4  C   LIG d   1      -1.721  75.675 114.140  0.00  0.00     0.028 C 
ATOM      5  C   LIG d   1      -0.840  76.168 115.283  0.00  0.00    -0.047 C 
ATOM      6  C   LIG d   1      -1.450  75.701 116.624  0.00  0.00     0.091 C 
ENDROOT
BRANCH   1   7
ATOM      7  O   LIG d   1      -3.589  75.370 117.773  0.00  0.00    -0.368 OA
BRANCH   7   8
ATOM      8  C   LIG d   1      -4.151  76.100 118.891  0.00  0.00     0.119 C 
BRANCH   8   9
ATOM      9  C   LIG d   1      -5.683  75.953 118.818  0.00  0.00     0.028 C 
ATOM     10  C   LIG d   1      -6.115  74.694 118.047  0.00  0.00     0.006 C 
ENDBRANCH   8   9
BRANCH   8  11
ATOM     11  C   LIG d   1      -3.881  77.602 118.769  0.00  0.00     0.028 C 
ATOM     12  C   LIG d   1      -3.038  78.153 119.930  0.00  0.00     0.006 C 
ENDBRANCH   8  11
ENDBRANCH   7   8
ENDBRANCH   1   7
BRANCH   6  13
ATOM     13  N   LIG d   1      -0.695  76.213 117.798  0.00  0.00    -0.311 N 
ATOM     14  C   LIG d   1      -0.143  75.421 118.716  0.00  0.00     0.210 C 
ATOM     15  C   LIG d   1       0.572  76.154 119.856  0.00  0.00     0.109 C 
ATOM     16  O   LIG d   1      -0.149  74.182 118.677  0.00  0.00    -0.276 OA
ATOM     17  H   LIG d   1      -0.615  77.206 117.891  0.00  0.00     0.149 HD
ENDBRANCH   6  13
BRANCH   5  18
ATOM     18  N   LIG d   1       0.521  75.647 115.054  0.00  0.00     0.381 N 
ATOM     19  H   LIG d   1       0.626  74.763 115.510  0.00  0.00    -0.090 HD
ATOM     20  H   LIG d   1       1.186  76.288 115.450  0.00  0.00    -0.090 HD
ATOM     21  H   LIG d   1       0.687  75.546 114.077  0.00  0.00    -0.090 HD
ENDBRANCH   5  18
BRANCH   3  22
ATOM     22  C   LIG d   1      -3.847  76.196 113.168  0.00  0.00     0.382 C 
ATOM     23  O   LIG d   1      -4.701  75.341 112.831  0.00  0.00    -0.241 OA
ATOM     24  O   LIG d   1      -3.669  77.200 112.452  0.00  0.00    -0.241 OA
ENDBRANCH   3  22
TORSDOF 7
ENDMDL
MODEL 7
REMARK VINA RESULT:      -4.5      2.348      3.159
REMARK  7 active torsions:
REMARK  status: ('A' for Active; 'I' for Inactive)
REMARK    1  A    between atoms: C_2  and  C_3 
REMARK    2  A    between atoms: C_3  and  O_6 
REMARK    3  A    between atoms: C_3  and  C_4 
REMARK    4  A    between atoms: C_7  and  O_6 
REMARK    5  A    between atoms: C_9  and  C_10 
REMARK    6  A    between atoms: N_15  and  C_14 
REMARK    7  A    between atoms: N_20  and  C_19 
REMARK       I    between atoms: C_22  and  N_20 
ROOT
ATOM      1  C   LIG d   1      -1.820  77.336 116.359  0.00  0.00     0.161 C 
ATOM      2  C   LIG d   1      -2.381  77.969 115.237  0.00  0.00     0.016 C 
ATOM      3  C   LIG d   1      -2.117  77.572 113.906  0.00  0.00     0.038 C 
ATOM      4  C   LIG d   1      -1.387  76.412 113.609  0.00  0.00     0.028 C 
ATOM      5  C   LIG d   1      -0.384  76.033 114.694  0.00  0.00    -0.047 C 
ATOM      6  C   LIG d   1      -1.110  75.999 116.059  0.00  0.00     0.091 C 
ENDROOT
BRANCH   1   7
ATOM      7  O   LIG d   1      -2.828  77.151 117.372  0.00  0.00    -0.368 OA
BRANCH   7   8
ATOM      8  C   LIG d   1      -4.198  77.380 116.957  0.00  0.00     0.119 C 
BRANCH   8   9
ATOM      9  C   LIG d   1      -4.869  78.251 118.037  0.00  0.00     0.028 C 
ATOM     10  C   LIG d   1      -5.512  79.520 117.451  0.00  0.00     0.006 C 
ENDBRANCH   8   9
BRANCH   8  11
ATOM     11  C   LIG d   1      -4.999  76.075 116.933  0.00  0.00     0.028 C 
ATOM     12  C   LIG d   1      -5.486  75.701 115.525  0.00  0.00     0.006 C 
ENDBRANCH   8  11
ENDBRANCH   7   8
ENDBRANCH   1   7
BRANCH   6  13
ATOM     13  N   LIG d   1      -0.183  75.719 117.186  0.00  0.00    -0.311 N 
ATOM     14  C   LIG d   1      -0.463  74.868 118.171  0.00  0.00     0.210 C 
ATOM     15  C   LIG d   1       0.622  74.741 119.245  0.00  0.00     0.109 C 
ATOM     16  O   LIG d   1      -1.494  74.181 118.241  0.00  0.00    -0.276 OA
ATOM     17  H   LIG d   1       0.690  76.210 117.192  0.00  0.00     0.149 HD
ENDBRANCH   6  13
BRANCH   5  18
ATOM     18  N   LIG d   1       0.206  74.734 114.321  0.00  0.00     0.381 N 
ATOM     19  H   LIG d   1       0.733  74.368 115.089  0.00  0.00    -0.090 HD
ATOM     20  H   LIG d   1       0.832  74.872 113.546  0.00  0.00    -0.090 HD
ATOM     21  H   LIG d   1      -0.513  74.093 114.067  0.00  0.00    -0.090 HD
ENDBRANCH   5  18
BRANCH   3  22
ATOM     22  C   LIG d   1      -2.553  78.364 112.854  0.00  0.00     0.382 C 
ATOM     23  O   LIG d   1      -2.804  79.578 113.045  0.00  0.00    -0.241 OA
ATOM     24  O   LIG d   1      -2.740  77.868 111.727  0.00  0.00    -0.241 OA
ENDBRANCH   3  22
TORSDOF 7
ENDMDL
MODEL 8
REMARK VINA RESULT:      -4.3      2.371      4.701
REMARK  7 active torsions:
REMARK  status: ('A' for Active; 'I' for Inactive)
REMARK    1  A    between atoms: C_2  and  C_3 
REMARK    2  A    between atoms: C_3  and  O_6 
REMARK    3  A    between atoms: C_3  and  C_4 
REMARK    4  A    between atoms: C_7  and  O_6 
REMARK    5  A    between atoms: C_9  and  C_10 
REMARK    6  A    between atoms: N_15  and  C_14 
REMARK    7  A    between atoms: N_20  and  C_19 
REMARK       I    between atoms: C_22  and  N_20 
ROOT
ATOM      1  C   LIG d   1      -1.129  78.255 115.748  0.00  0.00     0.161 C 
ATOM      2  C   LIG d   1      -1.485  79.169 114.743  0.00  0.00     0.016 C 
ATOM      3  C   LIG d   1      -2.138  78.795 113.546  0.00  0.00     0.038 C 
ATOM      4  C   LIG d   1      -2.617  77.492 113.339  0.00  0.00     0.028 C 
ATOM      5  C   LIG d   1      -1.834  76.431 114.104  0.00  0.00    -0.047 C 
ATOM      6  C   LIG d   1      -1.742  76.848 115.589  0.00  0.00     0.091 C 
ENDROOT
BRANCH   1   7
ATOM      7  O   LIG d   1      -1.453  78.800 117.042  0.00  0.00    -0.368 OA
BRANCH   7   8
ATOM      8  C   LIG d   1      -0.366  79.438 117.756  0.00  0.00     0.119 C 
BRANCH   8   9
ATOM      9  C   LIG d   1       0.199  78.409 118.754  0.00  0.00     0.028 C 
ATOM     10  C   LIG d   1       1.561  77.848 118.310  0.00  0.00     0.006 C 
ENDBRANCH   8   9
BRANCH   8  11
ATOM     11  C   LIG d   1      -0.870  80.602 118.615  0.00  0.00     0.028 C 
ATOM     12  C   LIG d   1       0.063  81.822 118.571  0.00  0.00     0.006 C 
ENDBRANCH   8  11
ENDBRANCH   7   8
ENDBRANCH   1   7
BRANCH   6  13
ATOM     13  N   LIG d   1      -0.920  75.906 116.393  0.00  0.00    -0.311 N 
ATOM     14  C   LIG d   1      -1.386  75.246 117.452  0.00  0.00     0.210 C 
ATOM     15  C   LIG d   1      -0.366  74.340 118.149  0.00  0.00     0.109 C 
ATOM     16  O   LIG d   1      -2.556  75.300 117.860  0.00  0.00    -0.276 OA
ATOM     17  H   LIG d   1       0.033  75.779 116.113  0.00  0.00     0.149 HD
ENDBRANCH   6  13
BRANCH   5  18
ATOM     18  N   LIG d   1      -2.523  75.141 113.907  0.00  0.00     0.381 N 
ATOM     19  H   LIG d   1      -3.503  75.297 113.782  0.00  0.00    -0.090 HD
ATOM     20  H   LIG d   1      -2.396  74.576 114.728  0.00  0.00    -0.090 HD
ATOM     21  H   LIG d   1      -2.149  74.673 113.112  0.00  0.00    -0.090 HD
ENDBRANCH   5  18
BRANCH   3  22
ATOM     22  C   LIG d   1      -2.282  79.720 112.523  0.00  0.00     0.382 C 
ATOM     23  O   LIG d   1      -3.255  80.512 112.526  0.00  0.00    -0.241 OA
ATOM     24  O   LIG d   1      -1.476  79.742 111.573  0.00  0.00    -0.241 OA
ENDBRANCH   3  22
TORSDOF 7
ENDMDL
MODEL 9
REMARK VINA RESULT:      -4.2      2.718      4.525
REMARK  7 active torsions:
REMARK  status: ('A' for Active; 'I' for Inactive)
REMARK    1  A    between atoms: C_2  and  C_3 
REMARK    2  A    between atoms: C_3  and  O_6 
REMARK    3  A    between atoms: C_3  and  C_4 
REMARK    4  A    between atoms: C_7  and  O_6 
REMARK    5  A    between atoms: C_9  and  C_10 
REMARK    6  A    between atoms: N_15  and  C_14 
REMARK    7  A    between atoms: N_20  and  C_19 
REMARK       I    between atoms: C_22  and  N_20 
ROOT
ATOM      1  C   LIG d   1      -1.286  77.574 116.615  0.00  0.00     0.161 C 
ATOM      2  C   LIG d   1      -1.889  78.200 115.512  0.00  0.00     0.016 C 
ATOM      3  C   LIG d   1      -1.900  77.645 114.212  0.00  0.00     0.038 C 
ATOM      4  C   LIG d   1      -1.436  76.346 113.957  0.00  0.00     0.028 C 
ATOM      5  C   LIG d   1      -0.365  75.882 114.937  0.00  0.00    -0.047 C 
ATOM      6  C   LIG d   1      -0.873  76.106 116.380  0.00  0.00     0.091 C 
ENDROOT
BRANCH   1   7
ATOM      7  O   LIG d   1      -2.149  77.673 117.765  0.00  0.00    -0.368 OA
BRANCH   7   8
ATOM      8  C   LIG d   1      -1.723  78.588 118.805  0.00  0.00     0.119 C 
BRANCH   8   9
ATOM      9  C   LIG d   1      -2.718  79.764 118.823  0.00  0.00     0.028 C 
ATOM     10  C   LIG d   1      -3.776  79.621 119.930  0.00  0.00     0.006 C 
ENDBRANCH   8   9
BRANCH   8  11
ATOM     11  C   LIG d   1      -0.364  79.211 118.476  0.00  0.00     0.028 C 
ATOM     12  C   LIG d   1      -0.393  80.748 118.491  0.00  0.00     0.006 C 
ENDBRANCH   8  11
ENDBRANCH   7   8
ENDBRANCH   1   7
BRANCH   6  13
ATOM     13  N   LIG d   1       0.148  75.757 117.402  0.00  0.00    -0.311 N 
ATOM     14  C   LIG d   1      -0.055  74.858 118.363  0.00  0.00     0.210 C 
ATOM     15  C   LIG d   1       1.121  74.663 119.325  0.00  0.00     0.109 C 
ATOM     16  O   LIG d   1      -1.086  74.181 118.492  0.00  0.00    -0.276 OA
ATOM     17  H   LIG d   1       1.025  76.236 117.352  0.00  0.00     0.149 HD
ENDBRANCH   6  13
BRANCH   5  18
ATOM     18  N   LIG d   1      -0.072  74.467 114.641  0.00  0.00     0.381 N 
ATOM     19  H   LIG d   1       0.651  74.407 113.952  0.00  0.00    -0.090 HD
ATOM     20  H   LIG d   1      -0.899  74.035 114.268  0.00  0.00    -0.090 HD
ATOM     21  H   LIG d   1       0.212  73.996 115.472  0.00  0.00    -0.090 HD
ENDBRANCH   5  18
BRANCH   3  22
ATOM     22  C   LIG d   1      -2.343  78.408 113.142  0.00  0.00     0.382 C 
ATOM     23  O   LIG d   1      -2.695  79.599 113.324  0.00  0.00    -0.241 OA
ATOM     24  O   LIG d   1      -2.436  77.908 112.005  0.00  0.00    -0.241 OA
ENDBRANCH   3  22
TORSDOF 7
ENDMDL
