MODEL 1
REMARK VINA RESULT:      -5.1      0.000      0.000
REMARK  7 active torsions:
REMARK  status: ('A' for Active; 'I' for Inactive)
REMARK    1  A    between atoms: C_2  and  C_3 
REMARK    2  A    between atoms: C_3  and  O_6 
REMARK    3  A    between atoms: C_3  and  C_4 
REMARK    4  A    between atoms: C_7  and  O_6 
REMARK    5  A    between atoms: C_9  and  C_10 
REMARK    6  A    between atoms: N_15  and  C_14 
REMARK    7  A    between atoms: N_20  and  C_19 
REMARK       I    between atoms: C_22  and  N_20 
ROOT
ATOM      1  C   LIG d   1      -3.118  78.058 116.582  0.00  0.00     0.161 C 
ATOM      2  C   LIG d   1      -3.339  78.900 115.480  0.00  0.00     0.016 C 
ATOM      3  C   LIG d   1      -2.598  78.820 114.278  0.00  0.00     0.038 C 
ATOM      4  C   LIG d   1      -1.681  77.786 114.041  0.00  0.00     0.028 C 
ATOM      5  C   LIG d   1      -1.065  77.218 115.315  0.00  0.00    -0.047 C 
ATOM      6  C   LIG d   1      -2.198  76.852 116.300  0.00  0.00     0.091 C 
ENDROOT
BRANCH   1   7
ATOM      7  O   LIG d   1      -4.380  77.611 117.116  0.00  0.00    -0.368 OA
BRANCH   7   8
ATOM      8  C   LIG d   1      -5.486  77.559 116.181  0.00  0.00     0.119 C 
BRANCH   8   9
ATOM      9  C   LIG d   1      -6.748  78.029 116.930  0.00  0.00     0.028 C 
ATOM     10  C   LIG d   1      -6.588  79.440 117.520  0.00  0.00     0.006 C 
ENDBRANCH   8   9
BRANCH   8  11
ATOM     11  C   LIG d   1      -5.783  76.120 115.750  0.00  0.00     0.028 C 
ATOM     12  C   LIG d   1      -5.191  75.776 114.373  0.00  0.00     0.006 C 
ENDBRANCH   8  11
ENDBRANCH   7   8
ENDBRANCH   1   7
BRANCH   6  13
ATOM     13  N   LIG d   1      -1.679  76.368 117.606  0.00  0.00    -0.311 N 
ATOM     14  C   LIG d   1      -1.376  75.093 117.847  0.00  0.00     0.210 C 
ATOM     15  C   LIG d   1      -0.875  74.805 119.266  0.00  0.00     0.109 C 
ATOM     16  O   LIG d   1      -1.443  74.180 117.011  0.00  0.00    -0.276 OA
ATOM     17  H   LIG d   1      -1.564  77.048 118.332  0.00  0.00     0.149 HD
ENDBRANCH   6  13
BRANCH   5  18
ATOM     18  N   LIG d   1      -0.235  76.060 114.931  0.00  0.00     0.381 N 
ATOM     19  H   LIG d   1      -0.791  75.397 114.430  0.00  0.00    -0.090 HD
ATOM     20  H   LIG d   1       0.110  75.617 115.765  0.00  0.00    -0.090 HD
ATOM     21  H   LIG d   1       0.528  76.360 114.366  0.00  0.00    -0.090 HD
ENDBRANCH   5  18
BRANCH   3  22
ATOM     22  C   LIG d   1      -2.743  79.806 113.314  0.00  0.00     0.382 C 
ATOM     23  O   LIG d   1      -3.310  80.888 113.604  0.00  0.00    -0.241 OA
ATOM     24  O   LIG d   1      -2.354  79.611 112.147  0.00  0.00    -0.241 OA
ENDBRANCH   3  22
TORSDOF 7
ENDMDL
MODEL 2
REMARK VINA RESULT:      -4.8      1.538      2.293
REMARK  7 active torsions:
REMARK  status: ('A' for Active; 'I' for Inactive)
REMARK    1  A    between atoms: C_2  and  C_3 
REMARK    2  A    between atoms: C_3  and  O_6 
REMARK    3  A    between atoms: C_3  and  C_4 
REMARK    4  A    between atoms: C_7  and  O_6 
REMARK    5  A    between atoms: C_9  and  C_10 
REMARK    6  A    between atoms: N_15  and  C_14 
REMARK    7  A    between atoms: N_20  and  C_19 
REMARK       I    between atoms: C_22  and  N_20 
ROOT
ATOM      1  C   LIG d   1      -3.061  79.193 116.298  0.00  0.00     0.161 C 
ATOM      2  C   LIG d   1      -3.207  80.067 115.208  0.00  0.00     0.016 C 
ATOM      3  C   LIG d   1      -2.645  79.822 113.933  0.00  0.00     0.038 C 
ATOM      4  C   LIG d   1      -2.022  78.605 113.619  0.00  0.00     0.028 C 
ATOM      5  C   LIG d   1      -1.412  77.907 114.830  0.00  0.00    -0.047 C 
ATOM      6  C   LIG d   1      -2.480  77.809 115.943  0.00  0.00     0.091 C 
ENDROOT
BRANCH   1   7
ATOM      7  O   LIG d   1      -4.323  79.047 116.979  0.00  0.00    -0.368 OA
BRANCH   7   8
ATOM      8  C   LIG d   1      -4.924  80.268 117.476  0.00  0.00     0.119 C 
BRANCH   8   9
ATOM      9  C   LIG d   1      -4.362  80.519 118.889  0.00  0.00     0.028 C 
ATOM     10  C   LIG d   1      -4.714  81.918 119.421  0.00  0.00     0.006 C 
ENDBRANCH   8   9
BRANCH   8  11
ATOM     11  C   LIG d   1      -6.435  80.110 117.663  0.00  0.00     0.028 C 
ATOM     12  C   LIG d   1      -6.939  78.708 117.283  0.00  0.00     0.006 C 
ENDBRANCH   8  11
ENDBRANCH   7   8
ENDBRANCH   1   7
BRANCH   6  13
ATOM     13  N   LIG d   1      -1.941  77.213 117.194  0.00  0.00    -0.311 N 
ATOM     14  C   LIG d   1      -1.993  75.911 117.468  0.00  0.00     0.210 C 
ATOM     15  C   LIG d   1      -1.397  75.511 118.822  0.00  0.00     0.109 C 
ATOM     16  O   LIG d   1      -2.446  75.045 116.704  0.00  0.00    -0.276 OA
ATOM     17  H   LIG d   1      -1.527  77.840 117.856  0.00  0.00     0.149 HD
ENDBRANCH   6  13
BRANCH   5  18
ATOM     18  N   LIG d   1      -0.919  76.590 114.383  0.00  0.00     0.381 N 
ATOM     19  H   LIG d   1      -0.096  76.707 113.828  0.00  0.00    -0.090 HD
ATOM     20  H   LIG d   1      -1.624  76.155 113.815  0.00  0.00    -0.090 HD
ATOM     21  H   LIG d   1      -0.718  76.016 115.172  0.00  0.00    -0.090 HD
ENDBRANCH   5  18
BRANCH   3  22
ATOM     22  C   LIG d   1      -2.669  80.818 112.969  0.00  0.00     0.382 C 
ATOM     23  O   LIG d   1      -1.665  81.009 112.240  0.00  0.00    -0.241 OA
ATOM     24  O   LIG d   1      -3.664  81.557 112.848  0.00  0.00    -0.241 OA
ENDBRANCH   3  22
TORSDOF 7
ENDMDL
MODEL 3
REMARK VINA RESULT:      -4.8      3.098      5.639
REMARK  7 active torsions:
REMARK  status: ('A' for Active; 'I' for Inactive)
REMARK    1  A    between atoms: C_2  and  C_3 
REMARK    2  A    between atoms: C_3  and  O_6 
REMARK    3  A    between atoms: C_3  and  C_4 
REMARK    4  A    between atoms: C_7  and  O_6 
REMARK    5  A    between atoms: C_9  and  C_10 
REMARK    6  A    between atoms: N_15  and  C_14 
REMARK    7  A    between atoms: N_20  and  C_19 
REMARK       I    between atoms: C_22  and  N_20 
ROOT
ATOM      1  C   LIG d   1      -2.173  79.854 114.561  0.00  0.00     0.161 C 
ATOM      2  C   LIG d   1      -2.837  78.670 114.923  0.00  0.00     0.016 C 
ATOM      3  C   LIG d   1      -3.091  77.613 114.019  0.00  0.00     0.038 C 
ATOM      4  C   LIG d   1      -2.562  77.605 112.720  0.00  0.00     0.028 C 
ATOM      5  C   LIG d   1      -2.318  79.001 112.157  0.00  0.00    -0.047 C 
ATOM      6  C   LIG d   1      -1.491  79.816 113.178  0.00  0.00     0.091 C 
ENDROOT
BRANCH   1   7
ATOM      7  O   LIG d   1      -1.219  80.211 115.581  0.00  0.00    -0.368 OA
BRANCH   7   8
ATOM      8  C   LIG d   1      -1.322  79.487 116.831  0.00  0.00     0.119 C 
BRANCH   8   9
ATOM      9  C   LIG d   1      -1.520  80.525 117.953  0.00  0.00     0.028 C 
ATOM     10  C   LIG d   1      -2.949  80.508 118.522  0.00  0.00     0.006 C 
ENDBRANCH   8   9
BRANCH   8  11
ATOM     11  C   LIG d   1      -0.011  78.770 117.170  0.00  0.00     0.028 C 
ATOM     12  C   LIG d   1      -0.106  77.245 117.003  0.00  0.00     0.006 C 
ENDBRANCH   8  11
ENDBRANCH   7   8
ENDBRANCH   1   7
BRANCH   6  13
ATOM     13  N   LIG d   1      -1.279  81.221 112.742  0.00  0.00    -0.311 N 
ATOM     14  C   LIG d   1      -0.225  81.616 112.030  0.00  0.00     0.210 C 
ATOM     15  C   LIG d   1      -0.190  83.113 111.703  0.00  0.00     0.109 C 
ATOM     16  O   LIG d   1       0.667  80.865 111.610  0.00  0.00    -0.276 OA
ATOM     17  H   LIG d   1      -1.971  81.892 113.013  0.00  0.00     0.149 HD
ENDBRANCH   6  13
BRANCH   5  18
ATOM     18  N   LIG d   1      -1.639  78.844 110.857  0.00  0.00     0.381 N 
ATOM     19  H   LIG d   1      -1.843  77.943 110.474  0.00  0.00    -0.090 HD
ATOM     20  H   LIG d   1      -0.646  78.909 110.999  0.00  0.00    -0.090 HD
ATOM     21  H   LIG d   1      -1.939  79.556 110.228  0.00  0.00    -0.090 HD
ENDBRANCH   5  18
BRANCH   3  22
ATOM     22  C   LIG d   1      -3.917  76.567 114.401  0.00  0.00     0.382 C 
ATOM     23  O   LIG d   1      -4.657  76.011 113.553  0.00  0.00    -0.241 OA
ATOM     24  O   LIG d   1      -3.965  76.201 115.590  0.00  0.00    -0.241 OA
ENDBRANCH   3  22
TORSDOF 7
ENDMDL
MODEL 4
REMARK VINA RESULT:      -4.7      2.595      3.730
REMARK  7 active torsions:
REMARK  status: ('A' for Active; 'I' for Inactive)
REMARK    1  A    between atoms: C_2  and  C_3 
REMARK    2  A    between atoms: C_3  and  O_6 
REMARK    3  A    between atoms: C_3  and  C_4 
REMARK    4  A    between atoms: C_7  and  O_6 
REMARK    5  A    between atoms: C_9  and  C_10 
REMARK    6  A    between atoms: N_15  and  C_14 
REMARK    7  A    between atoms: N_20  and  C_19 
REMARK       I    between atoms: C_22  and  N_20 
ROOT
ATOM      1  C   LIG d   1      -3.952  78.841 116.932  0.00  0.00     0.161 C 
ATOM      2  C   LIG d   1      -3.106  79.792 117.526  0.00  0.00     0.016 C 
ATOM      3  C   LIG d   1      -1.740  79.936 117.191  0.00  0.00     0.038 C 
ATOM      4  C   LIG d   1      -1.161  79.235 116.122  0.00  0.00     0.028 C 
ATOM      5  C   LIG d   1      -1.846  77.905 115.829  0.00  0.00    -0.047 C 
ATOM      6  C   LIG d   1      -3.367  78.144 115.687  0.00  0.00     0.091 C 
ENDROOT
BRANCH   1   7
ATOM      7  O   LIG d   1      -5.222  79.447 116.617  0.00  0.00    -0.368 OA
BRANCH   7   8
ATOM      8  C   LIG d   1      -6.378  78.890 117.290  0.00  0.00     0.119 C 
BRANCH   8   9
ATOM      9  C   LIG d   1      -7.049  80.031 118.078  0.00  0.00     0.028 C 
ATOM     10  C   LIG d   1      -6.515  81.416 117.675  0.00  0.00     0.006 C 
ENDBRANCH   8   9
BRANCH   8  11
ATOM     11  C   LIG d   1      -5.966  77.857 118.343  0.00  0.00     0.028 C 
ATOM     12  C   LIG d   1      -6.633  76.489 118.129  0.00  0.00     0.006 C 
ENDBRANCH   8  11
ENDBRANCH   7   8
ENDBRANCH   1   7
BRANCH   6  13
ATOM     13  N   LIG d   1      -4.123  76.880 115.482  0.00  0.00    -0.311 N 
ATOM     14  C   LIG d   1      -4.381  76.367 114.281  0.00  0.00     0.210 C 
ATOM     15  C   LIG d   1      -5.192  75.068 114.294  0.00  0.00     0.109 C 
ATOM     16  O   LIG d   1      -3.989  76.848 113.207  0.00  0.00    -0.276 OA
ATOM     17  H   LIG d   1      -4.452  76.408 116.301  0.00  0.00     0.149 HD
ENDBRANCH   6  13
BRANCH   5  18
ATOM     18  N   LIG d   1      -1.232  77.346 114.610  0.00  0.00     0.381 N 
ATOM     19  H   LIG d   1      -1.249  76.347 114.649  0.00  0.00    -0.090 HD
ATOM     20  H   LIG d   1      -0.273  77.644 114.563  0.00  0.00    -0.090 HD
ATOM     21  H   LIG d   1      -1.725  77.662 113.804  0.00  0.00    -0.090 HD
ENDBRANCH   5  18
BRANCH   3  22
ATOM     22  C   LIG d   1      -0.928  80.761 117.954  0.00  0.00     0.382 C 
ATOM     23  O   LIG d   1      -1.257  81.051 119.130  0.00  0.00    -0.241 OA
ATOM     24  O   LIG d   1       0.107  81.254 117.468  0.00  0.00    -0.241 OA
ENDBRANCH   3  22
TORSDOF 7
ENDMDL
MODEL 5
REMARK VINA RESULT:      -4.7      2.396      4.681
REMARK  7 active torsions:
REMARK  status: ('A' for Active; 'I' for Inactive)
REMARK    1  A    between atoms: C_2  and  C_3 
REMARK    2  A    between atoms: C_3  and  O_6 
REMARK    3  A    between atoms: C_3  and  C_4 
REMARK    4  A    between atoms: C_7  and  O_6 
REMARK    5  A    between atoms: C_9  and  C_10 
REMARK    6  A    between atoms: N_15  and  C_14 
REMARK    7  A    between atoms: N_20  and  C_19 
REMARK       I    between atoms: C_22  and  N_20 
ROOT
ATOM      1  C   LIG d   1      -2.360  76.845 114.808  0.00  0.00     0.161 C 
ATOM      2  C   LIG d   1      -3.658  76.602 114.329  0.00  0.00     0.016 C 
ATOM      3  C   LIG d   1      -4.796  76.537 115.165  0.00  0.00     0.038 C 
ATOM      4  C   LIG d   1      -4.735  76.864 116.528  0.00  0.00     0.028 C 
ATOM      5  C   LIG d   1      -3.363  76.621 117.148  0.00  0.00    -0.047 C 
ATOM      6  C   LIG d   1      -2.290  77.313 116.277  0.00  0.00     0.091 C 
ENDROOT
BRANCH   1   7
ATOM      7  O   LIG d   1      -1.690  77.788 113.949  0.00  0.00    -0.368 OA
BRANCH   7   8
ATOM      8  C   LIG d   1      -2.542  78.727 113.247  0.00  0.00     0.119 C 
BRANCH   8   9
ATOM      9  C   LIG d   1      -1.902  78.993 111.870  0.00  0.00     0.028 C 
ATOM     10  C   LIG d   1      -2.293  77.933 110.826  0.00  0.00     0.006 C 
ENDBRANCH   8   9
BRANCH   8  11
ATOM     11  C   LIG d   1      -2.571  80.087 113.950  0.00  0.00     0.028 C 
ATOM     12  C   LIG d   1      -2.917  81.243 112.998  0.00  0.00     0.006 C 
ENDBRANCH   8  11
ENDBRANCH   7   8
ENDBRANCH   1   7
BRANCH   6  13
ATOM     13  N   LIG d   1      -0.910  77.055 116.766  0.00  0.00    -0.311 N 
ATOM     14  C   LIG d   1      -0.252  77.883 117.575  0.00  0.00     0.210 C 
ATOM     15  C   LIG d   1       1.166  77.437 117.943  0.00  0.00     0.109 C 
ATOM     16  O   LIG d   1      -0.720  78.929 118.049  0.00  0.00    -0.276 OA
ATOM     17  H   LIG d   1      -0.466  76.213 116.456  0.00  0.00     0.149 HD
ENDBRANCH   6  13
BRANCH   5  18
ATOM     18  N   LIG d   1      -3.403  77.132 118.531  0.00  0.00     0.381 N 
ATOM     19  H   LIG d   1      -3.742  76.419 119.145  0.00  0.00    -0.090 HD
ATOM     20  H   LIG d   1      -4.035  77.911 118.572  0.00  0.00    -0.090 HD
ATOM     21  H   LIG d   1      -2.492  77.419 118.815  0.00  0.00    -0.090 HD
ENDBRANCH   5  18
BRANCH   3  22
ATOM     22  C   LIG d   1      -6.006  76.104 114.645  0.00  0.00     0.382 C 
ATOM     23  O   LIG d   1      -6.628  76.819 113.822  0.00  0.00    -0.241 OA
ATOM     24  O   LIG d   1      -6.506  75.027 115.022  0.00  0.00    -0.241 OA
ENDBRANCH   3  22
TORSDOF 7
ENDMDL
MODEL 6
REMARK VINA RESULT:      -4.6      2.689      3.931
REMARK  7 active torsions:
REMARK  status: ('A' for Active; 'I' for Inactive)
REMARK    1  A    between atoms: C_2  and  C_3 
REMARK    2  A    between atoms: C_3  and  O_6 
REMARK    3  A    between atoms: C_3  and  C_4 
REMARK    4  A    between atoms: C_7  and  O_6 
REMARK    5  A    between atoms: C_9  and  C_10 
REMARK    6  A    between atoms: N_15  and  C_14 
REMARK    7  A    between atoms: N_20  and  C_19 
REMARK       I    between atoms: C_22  and  N_20 
ROOT
ATOM      1  C   LIG d   1      -1.529  77.755 115.590  0.00  0.00     0.161 C 
ATOM      2  C   LIG d   1      -2.788  77.478 115.032  0.00  0.00     0.016 C 
ATOM      3  C   LIG d   1      -3.409  76.210 115.106  0.00  0.00     0.038 C 
ATOM      4  C   LIG d   1      -2.877  75.167 115.878  0.00  0.00     0.028 C 
ATOM      5  C   LIG d   1      -1.363  75.246 116.040  0.00  0.00    -0.047 C 
ATOM      6  C   LIG d   1      -0.983  76.661 116.531  0.00  0.00     0.091 C 
ENDROOT
BRANCH   1   7
ATOM      7  O   LIG d   1      -1.564  79.027 116.267  0.00  0.00    -0.368 OA
BRANCH   7   8
ATOM      8  C   LIG d   1      -2.131  79.024 117.600  0.00  0.00     0.119 C 
BRANCH   8   9
ATOM      9  C   LIG d   1      -3.323  80.001 117.597  0.00  0.00     0.028 C 
ATOM     10  C   LIG d   1      -4.663  79.290 117.337  0.00  0.00     0.006 C 
ENDBRANCH   8   9
BRANCH   8  11
ATOM     11  C   LIG d   1      -1.145  79.591 118.626  0.00  0.00     0.028 C 
ATOM     12  C   LIG d   1       0.026  80.344 117.975  0.00  0.00     0.006 C 
ENDBRANCH   8  11
ENDBRANCH   7   8
ENDBRANCH   1   7
BRANCH   6  13
ATOM     13  N   LIG d   1       0.487  76.850 116.635  0.00  0.00    -0.311 N 
ATOM     14  C   LIG d   1       1.157  76.769 117.784  0.00  0.00     0.210 C 
ATOM     15  C   LIG d   1       2.665  77.017 117.672  0.00  0.00     0.109 C 
ATOM     16  O   LIG d   1       0.651  76.485 118.880  0.00  0.00    -0.276 OA
ATOM     17  H   LIG d   1       0.982  77.054 115.789  0.00  0.00     0.149 HD
ENDBRANCH   6  13
BRANCH   5  18
ATOM     18  N   LIG d   1      -0.959  74.181 116.978  0.00  0.00     0.381 N 
ATOM     19  H   LIG d   1      -1.463  74.277 117.837  0.00  0.00    -0.090 HD
ATOM     20  H   LIG d   1       0.022  74.276 117.175  0.00  0.00    -0.090 HD
ATOM     21  H   LIG d   1      -1.139  73.287 116.577  0.00  0.00    -0.090 HD
ENDBRANCH   5  18
BRANCH   3  22
ATOM     22  C   LIG d   1      -4.558  75.964 114.369  0.00  0.00     0.382 C 
ATOM     23  O   LIG d   1      -5.423  76.863 114.236  0.00  0.00    -0.241 OA
ATOM     24  O   LIG d   1      -4.760  74.840 113.871  0.00  0.00    -0.241 OA
ENDBRANCH   3  22
TORSDOF 7
ENDMDL
MODEL 7
REMARK VINA RESULT:      -4.6      1.721      2.441
REMARK  7 active torsions:
REMARK  status: ('A' for Active; 'I' for Inactive)
REMARK    1  A    between atoms: C_2  and  C_3 
REMARK    2  A    between atoms: C_3  and  O_6 
REMARK    3  A    between atoms: C_3  and  C_4 
REMARK    4  A    between atoms: C_7  and  O_6 
REMARK    5  A    between atoms: C_9  and  C_10 
REMARK    6  A    between atoms: N_15  and  C_14 
REMARK    7  A    between atoms: N_20  and  C_19 
REMARK       I    between atoms: C_22  and  N_20 
ROOT
ATOM      1  C   LIG d   1      -2.951  77.833 115.379  0.00  0.00     0.161 C 
ATOM      2  C   LIG d   1      -3.082  78.632 114.232  0.00  0.00     0.016 C 
ATOM      3  C   LIG d   1      -2.151  79.633 113.870  0.00  0.00     0.038 C 
ATOM      4  C   LIG d   1      -0.939  79.801 114.555  0.00  0.00     0.028 C 
ATOM      5  C   LIG d   1      -1.001  79.358 116.013  0.00  0.00    -0.047 C 
ATOM      6  C   LIG d   1      -1.578  77.925 116.078  0.00  0.00     0.091 C 
ENDROOT
BRANCH   1   7
ATOM      7  O   LIG d   1      -3.258  76.462 115.057  0.00  0.00    -0.368 OA
BRANCH   7   8
ATOM      8  C   LIG d   1      -4.346  75.861 115.801  0.00  0.00     0.119 C 
BRANCH   8   9
ATOM      9  C   LIG d   1      -5.281  75.179 114.784  0.00  0.00     0.028 C 
ATOM     10  C   LIG d   1      -5.973  76.189 113.853  0.00  0.00     0.006 C 
ENDBRANCH   8   9
BRANCH   8  11
ATOM     11  C   LIG d   1      -5.204  76.925 116.491  0.00  0.00     0.028 C 
ATOM     12  C   LIG d   1      -6.151  76.334 117.548  0.00  0.00     0.006 C 
ENDBRANCH   8  11
ENDBRANCH   7   8
ENDBRANCH   1   7
BRANCH   6  13
ATOM     13  N   LIG d   1      -1.752  77.447 117.475  0.00  0.00    -0.311 N 
ATOM     14  C   LIG d   1      -0.852  76.699 118.111  0.00  0.00     0.210 C 
ATOM     15  C   LIG d   1      -1.237  76.298 119.538  0.00  0.00     0.109 C 
ATOM     16  O   LIG d   1       0.243  76.357 117.640  0.00  0.00    -0.276 OA
ATOM     17  H   LIG d   1      -2.598  77.705 117.943  0.00  0.00     0.149 HD
ENDBRANCH   6  13
BRANCH   5  18
ATOM     18  N   LIG d   1       0.362  79.458 116.568  0.00  0.00     0.381 N 
ATOM     19  H   LIG d   1       0.361  80.065 117.362  0.00  0.00    -0.090 HD
ATOM     20  H   LIG d   1       0.969  79.851 115.870  0.00  0.00    -0.090 HD
ATOM     21  H   LIG d   1       0.690  78.554 116.832  0.00  0.00    -0.090 HD
ENDBRANCH   5  18
BRANCH   3  22
ATOM     22  C   LIG d   1      -2.448  80.506 112.834  0.00  0.00     0.382 C 
ATOM     23  O   LIG d   1      -1.664  80.614 111.861  0.00  0.00    -0.241 OA
ATOM     24  O   LIG d   1      -3.468  81.220 112.883  0.00  0.00    -0.241 OA
ENDBRANCH   3  22
TORSDOF 7
ENDMDL
MODEL 8
REMARK VINA RESULT:      -4.5      2.622      3.695
REMARK  7 active torsions:
REMARK  status: ('A' for Active; 'I' for Inactive)
REMARK    1  A    between atoms: C_2  and  C_3 
REMARK    2  A    between atoms: C_3  and  O_6 
REMARK    3  A    between atoms: C_3  and  C_4 
REMARK    4  A    between atoms: C_7  and  O_6 
REMARK    5  A    between atoms: C_9  and  C_10 
REMARK    6  A    between atoms: N_15  and  C_14 
REMARK    7  A    between atoms: N_20  and  C_19 
REMARK       I    between atoms: C_22  and  N_20 
ROOT
ATOM      1  C   LIG d   1      -3.030  78.203 115.389  0.00  0.00     0.161 C 
ATOM      2  C   LIG d   1      -3.472  77.756 114.132  0.00  0.00     0.016 C 
ATOM      3  C   LIG d   1      -2.879  78.154 112.912  0.00  0.00     0.038 C 
ATOM      4  C   LIG d   1      -1.700  78.913 112.874  0.00  0.00     0.028 C 
ATOM      5  C   LIG d   1      -1.512  79.802 114.098  0.00  0.00    -0.047 C 
ATOM      6  C   LIG d   1      -1.676  78.943 115.373  0.00  0.00     0.091 C 
ENDROOT
BRANCH   1   7
ATOM      7  O   LIG d   1      -2.986  77.097 116.312  0.00  0.00    -0.368 OA
BRANCH   7   8
ATOM      8  C   LIG d   1      -3.074  75.774 115.728  0.00  0.00     0.119 C 
BRANCH   8   9
ATOM      9  C   LIG d   1      -4.191  75.014 116.469  0.00  0.00     0.028 C 
ATOM     10  C   LIG d   1      -5.587  75.329 115.907  0.00  0.00     0.006 C 
ENDBRANCH   8   9
BRANCH   8  11
ATOM     11  C   LIG d   1      -1.797  74.967 115.981  0.00  0.00     0.028 C 
ATOM     12  C   LIG d   1      -1.602  74.610 117.463  0.00  0.00     0.006 C 
ENDBRANCH   8  11
ENDBRANCH   7   8
ENDBRANCH   1   7
BRANCH   6  13
ATOM     13  N   LIG d   1      -1.591  79.751 116.617  0.00  0.00    -0.311 N 
ATOM     14  C   LIG d   1      -0.468  79.905 117.316  0.00  0.00     0.210 C 
ATOM     15  C   LIG d   1      -0.604  80.762 118.578  0.00  0.00     0.109 C 
ATOM     16  O   LIG d   1       0.635  79.439 116.993  0.00  0.00    -0.276 OA
ATOM     17  H   LIG d   1      -2.433  80.190 116.934  0.00  0.00     0.149 HD
ENDBRANCH   6  13
BRANCH   5  18
ATOM     18  N   LIG d   1      -0.181  80.431 113.993  0.00  0.00     0.381 N 
ATOM     19  H   LIG d   1       0.363  79.958 113.299  0.00  0.00    -0.090 HD
ATOM     20  H   LIG d   1       0.290  80.345 114.876  0.00  0.00    -0.090 HD
ATOM     21  H   LIG d   1      -0.277  81.393 113.752  0.00  0.00    -0.090 HD
ENDBRANCH   5  18
BRANCH   3  22
ATOM     22  C   LIG d   1      -3.489  77.825 111.711  0.00  0.00     0.382 C 
ATOM     23  O   LIG d   1      -2.810  77.768 110.658  0.00  0.00    -0.241 OA
ATOM     24  O   LIG d   1      -4.718  77.629 111.661  0.00  0.00    -0.241 OA
ENDBRANCH   3  22
TORSDOF 7
ENDMDL
MODEL 9
REMARK VINA RESULT:      -4.5      2.451      4.292
REMARK  7 active torsions:
REMARK  status: ('A' for Active; 'I' for Inactive)
REMARK    1  A    between atoms: C_2  and  C_3 
REMARK    2  A    between atoms: C_3  and  O_6 
REMARK    3  A    between atoms: C_3  and  C_4 
REMARK    4  A    between atoms: C_7  and  O_6 
REMARK    5  A    between atoms: C_9  and  C_10 
REMARK    6  A    between atoms: N_15  and  C_14 
REMARK    7  A    between atoms: N_20  and  C_19 
REMARK       I    between atoms: C_22  and  N_20 
ROOT
ATOM      1  C   LIG d   1      -1.481  77.029 115.287  0.00  0.00     0.161 C 
ATOM      2  C   LIG d   1      -2.768  76.666 114.859  0.00  0.00     0.016 C 
ATOM      3  C   LIG d   1      -3.485  75.570 115.391  0.00  0.00     0.038 C 
ATOM      4  C   LIG d   1      -3.021  74.849 116.502  0.00  0.00     0.028 C 
ATOM      5  C   LIG d   1      -1.503  74.861 116.640  0.00  0.00    -0.047 C 
ATOM      6  C   LIG d   1      -1.005  76.323 116.574  0.00  0.00     0.091 C 
ENDROOT
BRANCH   1   7
ATOM      7  O   LIG d   1      -1.403  78.460 115.443  0.00  0.00    -0.368 OA
BRANCH   7   8
ATOM      8  C   LIG d   1      -2.618  79.198 115.164  0.00  0.00     0.119 C 
BRANCH   8   9
ATOM      9  C   LIG d   1      -2.295  80.221 114.058  0.00  0.00     0.028 C 
ATOM     10  C   LIG d   1      -2.621  79.688 112.653  0.00  0.00     0.006 C 
ENDBRANCH   8   9
BRANCH   8  11
ATOM     11  C   LIG d   1      -3.053  80.032 116.373  0.00  0.00     0.028 C 
ATOM     12  C   LIG d   1      -3.273  79.183 117.635  0.00  0.00     0.006 C 
ENDBRANCH   8  11
ENDBRANCH   7   8
ENDBRANCH   1   7
BRANCH   6  13
ATOM     13  N   LIG d   1       0.478  76.419 116.618  0.00  0.00    -0.311 N 
ATOM     14  C   LIG d   1       1.147  76.983 117.622  0.00  0.00     0.210 C 
ATOM     15  C   LIG d   1       2.670  76.994 117.458  0.00  0.00     0.109 C 
ATOM     16  O   LIG d   1       0.625  77.446 118.647  0.00  0.00    -0.276 OA
ATOM     17  H   LIG d   1       0.982  76.040 115.840  0.00  0.00     0.149 HD
ENDBRANCH   6  13
BRANCH   5  18
ATOM     18  N   LIG d   1      -1.166  74.192 117.911  0.00  0.00     0.381 N 
ATOM     19  H   LIG d   1      -1.702  73.352 118.004  0.00  0.00    -0.090 HD
ATOM     20  H   LIG d   1      -1.402  74.803 118.673  0.00  0.00    -0.090 HD
ATOM     21  H   LIG d   1      -0.193  73.978 117.936  0.00  0.00    -0.090 HD
ENDBRANCH   5  18
BRANCH   3  22
ATOM     22  C   LIG d   1      -4.663  75.159 114.785  0.00  0.00     0.382 C 
ATOM     23  O   LIG d   1      -4.884  75.449 113.584  0.00  0.00    -0.241 OA
ATOM     24  O   LIG d   1      -5.527  74.542 115.436  0.00  0.00    -0.241 OA
ENDBRANCH   3  22
TORSDOF 7
ENDMDL
