MODEL 1
REMARK VINA RESULT:      -4.9      0.000      0.000
REMARK  7 active torsions:
REMARK  status: ('A' for Active; 'I' for Inactive)
REMARK    1  A    between atoms: C_2  and  C_3 
REMARK    2  A    between atoms: C_3  and  O_6 
REMARK    3  A    between atoms: C_3  and  C_4 
REMARK    4  A    between atoms: C_7  and  O_6 
REMARK    5  A    between atoms: C_9  and  C_10 
REMARK    6  A    between atoms: N_15  and  C_14 
REMARK    7  A    between atoms: N_20  and  C_19 
REMARK       I    between atoms: C_22  and  N_20 
ROOT
ATOM      1  C   LIG d   1      -3.350  76.642 115.731  0.00  0.00     0.161 C 
ATOM      2  C   LIG d   1      -3.476  77.223 114.459  0.00  0.00     0.016 C 
ATOM      3  C   LIG d   1      -2.379  77.457 113.598  0.00  0.00     0.038 C 
ATOM      4  C   LIG d   1      -1.092  76.984 113.892  0.00  0.00     0.028 C 
ATOM      5  C   LIG d   1      -0.826  76.841 115.387  0.00  0.00    -0.047 C 
ATOM      6  C   LIG d   1      -1.969  76.018 116.024  0.00  0.00     0.091 C 
ENDROOT
BRANCH   1   7
ATOM      7  O   LIG d   1      -4.392  75.665 115.929  0.00  0.00    -0.368 OA
BRANCH   7   8
ATOM      8  C   LIG d   1      -5.620  75.887 115.193  0.00  0.00     0.119 C 
BRANCH   8   9
ATOM      9  C   LIG d   1      -6.718  76.229 116.219  0.00  0.00     0.028 C 
ATOM     10  C   LIG d   1      -6.840  75.166 117.324  0.00  0.00     0.006 C 
ENDBRANCH   8   9
BRANCH   8  11
ATOM     11  C   LIG d   1      -6.095  74.606 114.502  0.00  0.00     0.028 C 
ATOM     12  C   LIG d   1      -5.181  74.180 113.343  0.00  0.00     0.006 C 
ENDBRANCH   8  11
ENDBRANCH   7   8
ENDBRANCH   1   7
BRANCH   6  13
ATOM     13  N   LIG d   1      -1.830  75.903 117.499  0.00  0.00    -0.311 N 
ATOM     14  C   LIG d   1      -1.059  74.995 118.094  0.00  0.00     0.210 C 
ATOM     15  C   LIG d   1      -1.075  75.036 119.625  0.00  0.00     0.109 C 
ATOM     16  O   LIG d   1      -0.338  74.180 117.499  0.00  0.00    -0.276 OA
ATOM     17  H   LIG d   1      -2.357  76.545 118.058  0.00  0.00     0.149 HD
ENDBRANCH   6  13
BRANCH   5  18
ATOM     18  N   LIG d   1       0.499  76.211 115.546  0.00  0.00     0.381 N 
ATOM     19  H   LIG d   1       0.455  75.506 116.254  0.00  0.00    -0.090 HD
ATOM     20  H   LIG d   1       1.159  76.911 115.837  0.00  0.00    -0.090 HD
ATOM     21  H   LIG d   1       0.790  75.808 114.683  0.00  0.00    -0.090 HD
ENDBRANCH   5  18
BRANCH   3  22
ATOM     22  C   LIG d   1      -2.558  78.206 112.445  0.00  0.00     0.382 C 
ATOM     23  O   LIG d   1      -3.529  77.968 111.687  0.00  0.00    -0.241 OA
ATOM     24  O   LIG d   1      -1.736  79.089 112.131  0.00  0.00    -0.241 OA
ENDBRANCH   3  22
TORSDOF 7
ENDMDL
MODEL 2
REMARK VINA RESULT:      -4.9      4.887      7.837
REMARK  7 active torsions:
REMARK  status: ('A' for Active; 'I' for Inactive)
REMARK    1  A    between atoms: C_2  and  C_3 
REMARK    2  A    between atoms: C_3  and  O_6 
REMARK    3  A    between atoms: C_3  and  C_4 
REMARK    4  A    between atoms: C_7  and  O_6 
REMARK    5  A    between atoms: C_9  and  C_10 
REMARK    6  A    between atoms: N_15  and  C_14 
REMARK    7  A    between atoms: N_20  and  C_19 
REMARK       I    between atoms: C_22  and  N_20 
ROOT
ATOM      1  C   LIG d   1      -2.298  81.922 112.353  0.00  0.00     0.161 C 
ATOM      2  C   LIG d   1      -2.864  80.759 112.901  0.00  0.00     0.016 C 
ATOM      3  C   LIG d   1      -2.397  79.456 112.613  0.00  0.00     0.038 C 
ATOM      4  C   LIG d   1      -1.227  79.235 111.871  0.00  0.00     0.028 C 
ATOM      5  C   LIG d   1      -0.916  80.354 110.883  0.00  0.00    -0.047 C 
ATOM      6  C   LIG d   1      -0.952  81.707 111.630  0.00  0.00     0.091 C 
ENDROOT
BRANCH   1   7
ATOM      7  O   LIG d   1      -2.162  82.928 113.376  0.00  0.00    -0.368 OA
BRANCH   7   8
ATOM      8  C   LIG d   1      -2.113  82.446 114.742  0.00  0.00     0.119 C 
BRANCH   8   9
ATOM      9  C   LIG d   1      -2.958  83.406 115.602  0.00  0.00     0.028 C 
ATOM     10  C   LIG d   1      -2.145  84.608 116.111  0.00  0.00     0.006 C 
ENDBRANCH   8   9
BRANCH   8  11
ATOM     11  C   LIG d   1      -0.695  82.532 115.313  0.00  0.00     0.028 C 
ATOM     12  C   LIG d   1       0.051  81.189 115.261  0.00  0.00     0.006 C 
ENDBRANCH   8  11
ENDBRANCH   7   8
ENDBRANCH   1   7
BRANCH   6  13
ATOM     13  N   LIG d   1      -0.741  82.863 110.719  0.00  0.00    -0.311 N 
ATOM     14  C   LIG d   1       0.453  83.407 110.489  0.00  0.00     0.210 C 
ATOM     15  C   LIG d   1       0.445  84.603 109.532  0.00  0.00     0.109 C 
ATOM     16  O   LIG d   1       1.522  82.992 110.961  0.00  0.00    -0.276 OA
ATOM     17  H   LIG d   1      -1.551  83.243 110.269  0.00  0.00     0.149 HD
ENDBRANCH   6  13
BRANCH   5  18
ATOM     18  N   LIG d   1       0.398  80.062 110.278  0.00  0.00     0.381 N 
ATOM     19  H   LIG d   1       0.274  79.531 109.440  0.00  0.00    -0.090 HD
ATOM     20  H   LIG d   1       0.938  79.513 110.923  0.00  0.00    -0.090 HD
ATOM     21  H   LIG d   1       0.876  80.913 110.074  0.00  0.00    -0.090 HD
ENDBRANCH   5  18
BRANCH   3  22
ATOM     22  C   LIG d   1      -3.125  78.356 113.037  0.00  0.00     0.382 C 
ATOM     23  O   LIG d   1      -3.288  78.146 114.263  0.00  0.00    -0.241 OA
ATOM     24  O   LIG d   1      -3.585  77.545 112.210  0.00  0.00    -0.241 OA
ENDBRANCH   3  22
TORSDOF 7
ENDMDL
MODEL 3
REMARK VINA RESULT:      -4.9      3.884      5.293
REMARK  7 active torsions:
REMARK  status: ('A' for Active; 'I' for Inactive)
REMARK    1  A    between atoms: C_2  and  C_3 
REMARK    2  A    between atoms: C_3  and  O_6 
REMARK    3  A    between atoms: C_3  and  C_4 
REMARK    4  A    between atoms: C_7  and  O_6 
REMARK    5  A    between atoms: C_9  and  C_10 
REMARK    6  A    between atoms: N_15  and  C_14 
REMARK    7  A    between atoms: N_20  and  C_19 
REMARK       I    between atoms: C_22  and  N_20 
ROOT
ATOM      1  C   LIG d   1      -2.820  80.810 114.681  0.00  0.00     0.161 C 
ATOM      2  C   LIG d   1      -2.509  81.878 113.824  0.00  0.00     0.016 C 
ATOM      3  C   LIG d   1      -1.852  81.713 112.582  0.00  0.00     0.038 C 
ATOM      4  C   LIG d   1      -1.596  80.444 112.042  0.00  0.00     0.028 C 
ATOM      5  C   LIG d   1      -1.438  79.356 113.099  0.00  0.00    -0.047 C 
ATOM      6  C   LIG d   1      -2.648  79.408 114.058  0.00  0.00     0.091 C 
ENDROOT
BRANCH   1   7
ATOM      7  O   LIG d   1      -4.157  80.969 115.195  0.00  0.00    -0.368 OA
BRANCH   7   8
ATOM      8  C   LIG d   1      -4.282  81.719 116.428  0.00  0.00     0.119 C 
BRANCH   8   9
ATOM      9  C   LIG d   1      -3.211  81.189 117.402  0.00  0.00     0.028 C 
ATOM     10  C   LIG d   1      -2.664  82.289 118.327  0.00  0.00     0.006 C 
ENDBRANCH   8   9
BRANCH   8  11
ATOM     11  C   LIG d   1      -5.624  81.447 117.113  0.00  0.00     0.028 C 
ATOM     12  C   LIG d   1      -5.943  79.947 117.223  0.00  0.00     0.006 C 
ENDBRANCH   8  11
ENDBRANCH   7   8
ENDBRANCH   1   7
BRANCH   6  13
ATOM     13  N   LIG d   1      -2.531  78.432 115.173  0.00  0.00    -0.311 N 
ATOM     14  C   LIG d   1      -3.488  77.560 115.487  0.00  0.00     0.210 C 
ATOM     15  C   LIG d   1      -3.171  76.657 116.683  0.00  0.00     0.109 C 
ATOM     16  O   LIG d   1      -4.555  77.427 114.869  0.00  0.00    -0.276 OA
ATOM     17  H   LIG d   1      -1.685  78.450 115.707  0.00  0.00     0.149 HD
ENDBRANCH   6  13
BRANCH   5  18
ATOM     18  N   LIG d   1      -1.313  78.066 112.395  0.00  0.00     0.381 N 
ATOM     19  H   LIG d   1      -0.373  77.943 112.077  0.00  0.00    -0.090 HD
ATOM     20  H   LIG d   1      -1.919  78.073 111.593  0.00  0.00    -0.090 HD
ATOM     21  H   LIG d   1      -1.566  77.319 113.004  0.00  0.00    -0.090 HD
ENDBRANCH   5  18
BRANCH   3  22
ATOM     22  C   LIG d   1      -1.409  82.827 111.886  0.00  0.00     0.382 C 
ATOM     23  O   LIG d   1      -1.206  83.906 112.493  0.00  0.00    -0.241 OA
ATOM     24  O   LIG d   1      -1.252  82.779 110.651  0.00  0.00    -0.241 OA
ENDBRANCH   3  22
TORSDOF 7
ENDMDL
MODEL 4
REMARK VINA RESULT:      -4.8      1.547      2.202
REMARK  7 active torsions:
REMARK  status: ('A' for Active; 'I' for Inactive)
REMARK    1  A    between atoms: C_2  and  C_3 
REMARK    2  A    between atoms: C_3  and  O_6 
REMARK    3  A    between atoms: C_3  and  C_4 
REMARK    4  A    between atoms: C_7  and  O_6 
REMARK    5  A    between atoms: C_9  and  C_10 
REMARK    6  A    between atoms: N_15  and  C_14 
REMARK    7  A    between atoms: N_20  and  C_19 
REMARK       I    between atoms: C_22  and  N_20 
ROOT
ATOM      1  C   LIG d   1      -2.894  76.767 114.376  0.00  0.00     0.161 C 
ATOM      2  C   LIG d   1      -3.073  77.725 113.365  0.00  0.00     0.016 C 
ATOM      3  C   LIG d   1      -2.229  78.847 113.197  0.00  0.00     0.038 C 
ATOM      4  C   LIG d   1      -1.051  79.007 113.942  0.00  0.00     0.028 C 
ATOM      5  C   LIG d   1      -1.103  78.333 115.309  0.00  0.00    -0.047 C 
ATOM      6  C   LIG d   1      -1.550  76.865 115.129  0.00  0.00     0.091 C 
ENDROOT
BRANCH   1   7
ATOM      7  O   LIG d   1      -3.068  75.443 113.833  0.00  0.00    -0.368 OA
BRANCH   7   8
ATOM      8  C   LIG d   1      -4.213  74.701 114.319  0.00  0.00     0.119 C 
BRANCH   8   9
ATOM      9  C   LIG d   1      -5.254  74.659 113.184  0.00  0.00     0.028 C 
ATOM     10  C   LIG d   1      -6.311  75.769 113.317  0.00  0.00     0.006 C 
ENDBRANCH   8   9
BRANCH   8  11
ATOM     11  C   LIG d   1      -4.902  75.432 115.475  0.00  0.00     0.028 C 
ATOM     12  C   LIG d   1      -5.112  74.537 116.706  0.00  0.00     0.006 C 
ENDBRANCH   8  11
ENDBRANCH   7   8
ENDBRANCH   1   7
BRANCH   6  13
ATOM     13  N   LIG d   1      -1.709  76.157 116.426  0.00  0.00    -0.311 N 
ATOM     14  C   LIG d   1      -1.334  74.894 116.623  0.00  0.00     0.210 C 
ATOM     15  C   LIG d   1      -1.606  74.350 118.029  0.00  0.00     0.109 C 
ATOM     16  O   LIG d   1      -0.773  74.182 115.775  0.00  0.00    -0.276 OA
ATOM     17  H   LIG d   1      -2.126  76.670 117.178  0.00  0.00     0.149 HD
ENDBRANCH   6  13
BRANCH   5  18
ATOM     18  N   LIG d   1       0.233  78.460 115.920  0.00  0.00     0.381 N 
ATOM     19  H   LIG d   1       0.936  78.408 115.210  0.00  0.00    -0.090 HD
ATOM     20  H   LIG d   1       0.373  77.697 116.559  0.00  0.00    -0.090 HD
ATOM     21  H   LIG d   1       0.305  79.327 116.406  0.00  0.00    -0.090 HD
ENDBRANCH   5  18
BRANCH   3  22
ATOM     22  C   LIG d   1      -2.582  79.845 112.302  0.00  0.00     0.382 C 
ATOM     23  O   LIG d   1      -3.478  80.670 112.604  0.00  0.00    -0.241 OA
ATOM     24  O   LIG d   1      -2.048  79.904 111.178  0.00  0.00    -0.241 OA
ENDBRANCH   3  22
TORSDOF 7
ENDMDL
MODEL 5
REMARK VINA RESULT:      -4.8      2.285      3.142
REMARK  7 active torsions:
REMARK  status: ('A' for Active; 'I' for Inactive)
REMARK    1  A    between atoms: C_2  and  C_3 
REMARK    2  A    between atoms: C_3  and  O_6 
REMARK    3  A    between atoms: C_3  and  C_4 
REMARK    4  A    between atoms: C_7  and  O_6 
REMARK    5  A    between atoms: C_9  and  C_10 
REMARK    6  A    between atoms: N_15  and  C_14 
REMARK    7  A    between atoms: N_20  and  C_19 
REMARK       I    between atoms: C_22  and  N_20 
ROOT
ATOM      1  C   LIG d   1      -2.388  77.976 114.099  0.00  0.00     0.161 C 
ATOM      2  C   LIG d   1      -2.560  78.950 113.101  0.00  0.00     0.016 C 
ATOM      3  C   LIG d   1      -1.778  80.124 113.017  0.00  0.00     0.038 C 
ATOM      4  C   LIG d   1      -0.663  80.334 113.843  0.00  0.00     0.028 C 
ATOM      5  C   LIG d   1      -0.763  79.621 115.187  0.00  0.00    -0.047 C 
ATOM      6  C   LIG d   1      -1.105  78.133 114.942  0.00  0.00     0.091 C 
ENDROOT
BRANCH   1   7
ATOM      7  O   LIG d   1      -2.445  76.661 113.514  0.00  0.00    -0.368 OA
BRANCH   7   8
ATOM      8  C   LIG d   1      -3.293  75.699 114.189  0.00  0.00     0.119 C 
BRANCH   8   9
ATOM      9  C   LIG d   1      -2.665  74.306 113.986  0.00  0.00     0.028 C 
ATOM     10  C   LIG d   1      -1.144  74.310 114.209  0.00  0.00     0.006 C 
ENDBRANCH   8   9
BRANCH   8  11
ATOM     11  C   LIG d   1      -4.676  75.619 113.535  0.00  0.00     0.028 C 
ATOM     12  C   LIG d   1      -5.206  74.180 113.436  0.00  0.00     0.006 C 
ENDBRANCH   8  11
ENDBRANCH   7   8
ENDBRANCH   1   7
BRANCH   6  13
ATOM     13  N   LIG d   1      -1.304  77.381 116.209  0.00  0.00    -0.311 N 
ATOM     14  C   LIG d   1      -0.328  76.724 116.832  0.00  0.00     0.210 C 
ATOM     15  C   LIG d   1      -0.752  75.999 118.113  0.00  0.00     0.109 C 
ATOM     16  O   LIG d   1       0.856  76.700 116.464  0.00  0.00    -0.276 OA
ATOM     17  H   LIG d   1      -2.228  77.374 116.595  0.00  0.00     0.149 HD
ENDBRANCH   6  13
BRANCH   5  18
ATOM     18  N   LIG d   1       0.521  79.810 115.889  0.00  0.00     0.381 N 
ATOM     19  H   LIG d   1       1.159  79.084 115.630  0.00  0.00    -0.090 HD
ATOM     20  H   LIG d   1       0.361  79.752 116.879  0.00  0.00    -0.090 HD
ATOM     21  H   LIG d   1       0.907  80.700 115.659  0.00  0.00    -0.090 HD
ENDBRANCH   5  18
BRANCH   3  22
ATOM     22  C   LIG d   1      -2.133  81.124 112.124  0.00  0.00     0.382 C 
ATOM     23  O   LIG d   1      -3.253  81.681 112.220  0.00  0.00    -0.241 OA
ATOM     24  O   LIG d   1      -1.365  81.445 111.197  0.00  0.00    -0.241 OA
ENDBRANCH   3  22
TORSDOF 7
ENDMDL
MODEL 6
REMARK VINA RESULT:      -4.8      3.924      5.437
REMARK  7 active torsions:
REMARK  status: ('A' for Active; 'I' for Inactive)
REMARK    1  A    between atoms: C_2  and  C_3 
REMARK    2  A    between atoms: C_3  and  O_6 
REMARK    3  A    between atoms: C_3  and  C_4 
REMARK    4  A    between atoms: C_7  and  O_6 
REMARK    5  A    between atoms: C_9  and  C_10 
REMARK    6  A    between atoms: N_15  and  C_14 
REMARK    7  A    between atoms: N_20  and  C_19 
REMARK       I    between atoms: C_22  and  N_20 
ROOT
ATOM      1  C   LIG d   1      -2.705  80.574 114.746  0.00  0.00     0.161 C 
ATOM      2  C   LIG d   1      -2.321  81.882 114.409  0.00  0.00     0.016 C 
ATOM      3  C   LIG d   1      -1.648  82.212 113.209  0.00  0.00     0.038 C 
ATOM      4  C   LIG d   1      -1.447  81.269 112.190  0.00  0.00     0.028 C 
ATOM      5  C   LIG d   1      -1.367  79.834 112.698  0.00  0.00    -0.047 C 
ATOM      6  C   LIG d   1      -2.593  79.551 113.596  0.00  0.00     0.091 C 
ENDROOT
BRANCH   1   7
ATOM      7  O   LIG d   1      -4.042  80.580 115.283  0.00  0.00    -0.368 OA
BRANCH   7   8
ATOM      8  C   LIG d   1      -4.164  80.280 116.695  0.00  0.00     0.119 C 
BRANCH   8   9
ATOM      9  C   LIG d   1      -5.490  79.521 116.894  0.00  0.00     0.028 C 
ATOM     10  C   LIG d   1      -5.362  78.022 116.572  0.00  0.00     0.006 C 
ENDBRANCH   8   9
BRANCH   8  11
ATOM     11  C   LIG d   1      -4.300  81.559 117.527  0.00  0.00     0.028 C 
ATOM     12  C   LIG d   1      -3.003  81.932 118.263  0.00  0.00     0.006 C 
ENDBRANCH   8  11
ENDBRANCH   7   8
ENDBRANCH   1   7
BRANCH   6  13
ATOM     13  N   LIG d   1      -2.550  78.195 114.204  0.00  0.00    -0.311 N 
ATOM     14  C   LIG d   1      -3.151  77.133 113.670  0.00  0.00     0.210 C 
ATOM     15  C   LIG d   1      -2.998  75.834 114.468  0.00  0.00     0.109 C 
ATOM     16  O   LIG d   1      -3.770  77.136 112.595  0.00  0.00    -0.276 OA
ATOM     17  H   LIG d   1      -2.043  78.095 115.061  0.00  0.00     0.149 HD
ENDBRANCH   6  13
BRANCH   5  18
ATOM     18  N   LIG d   1      -1.295  78.947 111.522  0.00  0.00     0.381 N 
ATOM     19  H   LIG d   1      -1.457  78.000 111.801  0.00  0.00    -0.090 HD
ATOM     20  H   LIG d   1      -0.373  79.006 111.126  0.00  0.00    -0.090 HD
ATOM     21  H   LIG d   1      -1.973  79.223 110.845  0.00  0.00    -0.090 HD
ENDBRANCH   5  18
BRANCH   3  22
ATOM     22  C   LIG d   1      -1.133  83.488 113.038  0.00  0.00     0.382 C 
ATOM     23  O   LIG d   1      -1.289  84.085 111.946  0.00  0.00    -0.241 OA
ATOM     24  O   LIG d   1      -0.477  84.031 113.947  0.00  0.00    -0.241 OA
ENDBRANCH   3  22
TORSDOF 7
ENDMDL
MODEL 7
REMARK VINA RESULT:      -4.6      2.102      4.273
REMARK  7 active torsions:
REMARK  status: ('A' for Active; 'I' for Inactive)
REMARK    1  A    between atoms: C_2  and  C_3 
REMARK    2  A    between atoms: C_3  and  O_6 
REMARK    3  A    between atoms: C_3  and  C_4 
REMARK    4  A    between atoms: C_7  and  O_6 
REMARK    5  A    between atoms: C_9  and  C_10 
REMARK    6  A    between atoms: N_15  and  C_14 
REMARK    7  A    between atoms: N_20  and  C_19 
REMARK       I    between atoms: C_22  and  N_20 
ROOT
ATOM      1  C   LIG d   1      -1.870  76.715 114.466  0.00  0.00     0.161 C 
ATOM      2  C   LIG d   1      -3.076  76.511 113.776  0.00  0.00     0.016 C 
ATOM      3  C   LIG d   1      -4.090  75.634 114.224  0.00  0.00     0.038 C 
ATOM      4  C   LIG d   1      -4.030  75.010 115.479  0.00  0.00     0.028 C 
ATOM      5  C   LIG d   1      -2.606  74.792 115.979  0.00  0.00    -0.047 C 
ATOM      6  C   LIG d   1      -1.834  76.129 115.893  0.00  0.00     0.091 C 
ENDROOT
BRANCH   1   7
ATOM      7  O   LIG d   1      -1.555  78.121 114.494  0.00  0.00    -0.368 OA
BRANCH   7   8
ATOM      8  C   LIG d   1      -2.641  79.025 114.173  0.00  0.00     0.119 C 
BRANCH   8   9
ATOM      9  C   LIG d   1      -2.108  80.044 113.148  0.00  0.00     0.028 C 
ATOM     10  C   LIG d   1      -2.315  79.578 111.696  0.00  0.00     0.006 C 
ENDBRANCH   8   9
BRANCH   8  11
ATOM     11  C   LIG d   1      -3.054  79.855 115.392  0.00  0.00     0.028 C 
ATOM     12  C   LIG d   1      -4.131  79.165 116.245  0.00  0.00     0.006 C 
ENDBRANCH   8  11
ENDBRANCH   7   8
ENDBRANCH   1   7
BRANCH   6  13
ATOM     13  N   LIG d   1      -0.407  75.985 116.284  0.00  0.00    -0.311 N 
ATOM     14  C   LIG d   1       0.038  76.194 117.522  0.00  0.00     0.210 C 
ATOM     15  C   LIG d   1       1.548  76.011 117.706  0.00  0.00     0.109 C 
ATOM     16  O   LIG d   1      -0.679  76.482 118.492  0.00  0.00    -0.276 OA
ATOM     17  H   LIG d   1       0.239  75.724 115.566  0.00  0.00     0.149 HD
ENDBRANCH   6  13
BRANCH   5  18
ATOM     18  N   LIG d   1      -2.692  74.262 117.353  0.00  0.00     0.381 N 
ATOM     19  H   LIG d   1      -3.531  74.589 117.790  0.00  0.00    -0.090 HD
ATOM     20  H   LIG d   1      -1.908  74.601 117.882  0.00  0.00    -0.090 HD
ATOM     21  H   LIG d   1      -2.685  73.266 117.335  0.00  0.00    -0.090 HD
ENDBRANCH   5  18
BRANCH   3  22
ATOM     22  C   LIG d   1      -5.162  75.341 113.394  0.00  0.00     0.382 C 
ATOM     23  O   LIG d   1      -6.080  76.181 113.236  0.00  0.00    -0.241 OA
ATOM     24  O   LIG d   1      -5.244  74.231 112.836  0.00  0.00    -0.241 OA
ENDBRANCH   3  22
TORSDOF 7
ENDMDL
MODEL 8
REMARK VINA RESULT:      -4.6      4.752      7.451
REMARK  7 active torsions:
REMARK  status: ('A' for Active; 'I' for Inactive)
REMARK    1  A    between atoms: C_2  and  C_3 
REMARK    2  A    between atoms: C_3  and  O_6 
REMARK    3  A    between atoms: C_3  and  C_4 
REMARK    4  A    between atoms: C_7  and  O_6 
REMARK    5  A    between atoms: C_9  and  C_10 
REMARK    6  A    between atoms: N_15  and  C_14 
REMARK    7  A    between atoms: N_20  and  C_19 
REMARK       I    between atoms: C_22  and  N_20 
ROOT
ATOM      1  C   LIG d   1      -2.470  81.207 113.721  0.00  0.00     0.161 C 
ATOM      2  C   LIG d   1      -2.848  79.938 114.191  0.00  0.00     0.016 C 
ATOM      3  C   LIG d   1      -2.497  78.732 113.541  0.00  0.00     0.038 C 
ATOM      4  C   LIG d   1      -1.612  78.706 112.454  0.00  0.00     0.028 C 
ATOM      5  C   LIG d   1      -1.612  79.996 111.641  0.00  0.00    -0.047 C 
ATOM      6  C   LIG d   1      -1.411  81.193 112.599  0.00  0.00     0.091 C 
ENDROOT
BRANCH   1   7
ATOM      7  O   LIG d   1      -2.022  82.022 114.822  0.00  0.00    -0.368 OA
BRANCH   7   8
ATOM      8  C   LIG d   1      -3.056  82.715 115.564  0.00  0.00     0.119 C 
BRANCH   8   9
ATOM      9  C   LIG d   1      -2.600  84.176 115.740  0.00  0.00     0.028 C 
ATOM     10  C   LIG d   1      -1.423  84.538 114.818  0.00  0.00     0.006 C 
ENDBRANCH   8   9
BRANCH   8  11
ATOM     11  C   LIG d   1      -3.191  82.159 116.985  0.00  0.00     0.028 C 
ATOM     12  C   LIG d   1      -2.187  82.783 117.967  0.00  0.00     0.006 C 
ENDBRANCH   8  11
ENDBRANCH   7   8
ENDBRANCH   1   7
BRANCH   6  13
ATOM     13  N   LIG d   1      -1.483  82.500 111.896  0.00  0.00    -0.311 N 
ATOM     14  C   LIG d   1      -0.414  83.134 111.416  0.00  0.00     0.210 C 
ATOM     15  C   LIG d   1      -0.708  84.479 110.744  0.00  0.00     0.109 C 
ATOM     16  O   LIG d   1       0.745  82.695 111.455  0.00  0.00    -0.276 OA
ATOM     17  H   LIG d   1      -2.389  82.913 111.793  0.00  0.00     0.149 HD
ENDBRANCH   6  13
BRANCH   5  18
ATOM     18  N   LIG d   1      -0.548  79.884 110.626  0.00  0.00     0.381 N 
ATOM     19  H   LIG d   1      -0.637  79.016 110.136  0.00  0.00    -0.090 HD
ATOM     20  H   LIG d   1       0.345  79.895 111.087  0.00  0.00    -0.090 HD
ATOM     21  H   LIG d   1      -0.608  80.643 109.983  0.00  0.00    -0.090 HD
ENDBRANCH   5  18
BRANCH   3  22
ATOM     22  C   LIG d   1      -3.067  77.538 113.956  0.00  0.00     0.382 C 
ATOM     23  O   LIG d   1      -4.004  77.546 114.789  0.00  0.00    -0.241 OA
ATOM     24  O   LIG d   1      -2.626  76.450 113.540  0.00  0.00    -0.241 OA
ENDBRANCH   3  22
TORSDOF 7
ENDMDL
MODEL 9
REMARK VINA RESULT:      -4.5      2.574      3.518
REMARK  7 active torsions:
REMARK  status: ('A' for Active; 'I' for Inactive)
REMARK    1  A    between atoms: C_2  and  C_3 
REMARK    2  A    between atoms: C_3  and  O_6 
REMARK    3  A    between atoms: C_3  and  C_4 
REMARK    4  A    between atoms: C_7  and  O_6 
REMARK    5  A    between atoms: C_9  and  C_10 
REMARK    6  A    between atoms: N_15  and  C_14 
REMARK    7  A    between atoms: N_20  and  C_19 
REMARK       I    between atoms: C_22  and  N_20 
ROOT
ATOM      1  C   LIG d   1      -2.904  77.736 114.677  0.00  0.00     0.161 C 
ATOM      2  C   LIG d   1      -2.710  78.505 113.518  0.00  0.00     0.016 C 
ATOM      3  C   LIG d   1      -2.776  79.918 113.502  0.00  0.00     0.038 C 
ATOM      4  C   LIG d   1      -2.891  80.668 114.681  0.00  0.00     0.028 C 
ATOM      5  C   LIG d   1      -3.594  79.920 115.809  0.00  0.00    -0.047 C 
ATOM      6  C   LIG d   1      -2.920  78.541 115.993  0.00  0.00     0.091 C 
ENDROOT
BRANCH   1   7
ATOM      7  O   LIG d   1      -1.912  76.691 114.741  0.00  0.00    -0.368 OA
BRANCH   7   8
ATOM      8  C   LIG d   1      -2.295  75.413 114.175  0.00  0.00     0.119 C 
BRANCH   8   9
ATOM      9  C   LIG d   1      -3.691  75.063 114.727  0.00  0.00     0.028 C 
ATOM     10  C   LIG d   1      -4.655  74.591 113.626  0.00  0.00     0.006 C 
ENDBRANCH   8   9
BRANCH   8  11
ATOM     11  C   LIG d   1      -1.374  74.291 114.660  0.00  0.00     0.028 C 
ATOM     12  C   LIG d   1      -1.311  74.191 116.193  0.00  0.00     0.006 C 
ENDBRANCH   8  11
ENDBRANCH   7   8
ENDBRANCH   1   7
BRANCH   6  13
ATOM     13  N   LIG d   1      -3.600  77.710 117.020  0.00  0.00    -0.311 N 
ATOM     14  C   LIG d   1      -2.953  77.079 117.999  0.00  0.00     0.210 C 
ATOM     15  C   LIG d   1      -3.843  76.260 118.939  0.00  0.00     0.109 C 
ATOM     16  O   LIG d   1      -1.731  77.146 118.196  0.00  0.00    -0.276 OA
ATOM     17  H   LIG d   1      -4.596  77.627 116.954  0.00  0.00     0.149 HD
ENDBRANCH   6  13
BRANCH   5  18
ATOM     18  N   LIG d   1      -3.522  80.764 117.016  0.00  0.00     0.381 N 
ATOM     19  H   LIG d   1      -3.712  81.717 116.775  0.00  0.00    -0.090 HD
ATOM     20  H   LIG d   1      -2.593  80.713 117.394  0.00  0.00    -0.090 HD
ATOM     21  H   LIG d   1      -4.182  80.448 117.693  0.00  0.00    -0.090 HD
ENDBRANCH   5  18
BRANCH   3  22
ATOM     22  C   LIG d   1      -2.766  80.592 112.290  0.00  0.00     0.382 C 
ATOM     23  O   LIG d   1      -3.467  81.622 112.141  0.00  0.00    -0.241 OA
ATOM     24  O   LIG d   1      -2.101  80.158 111.331  0.00  0.00    -0.241 OA
ENDBRANCH   3  22
TORSDOF 7
ENDMDL
