MODEL 1
REMARK VINA RESULT:      -4.8      0.000      0.000
REMARK  7 active torsions:
REMARK  status: ('A' for Active; 'I' for Inactive)
REMARK    1  A    between atoms: C_2  and  C_3 
REMARK    2  A    between atoms: C_3  and  O_6 
REMARK    3  A    between atoms: C_3  and  C_4 
REMARK    4  A    between atoms: C_7  and  O_6 
REMARK    5  A    between atoms: C_9  and  C_10 
REMARK    6  A    between atoms: N_15  and  C_14 
REMARK    7  A    between atoms: N_20  and  C_19 
REMARK       I    between atoms: C_22  and  N_20 
ROOT
ATOM      1  C   LIG d   1      -2.219  75.790 115.646  0.00  0.00     0.161 C 
ATOM      2  C   LIG d   1      -2.093  75.102 116.864  0.00  0.00     0.016 C 
ATOM      3  C   LIG d   1      -1.288  75.555 117.935  0.00  0.00     0.038 C 
ATOM      4  C   LIG d   1      -0.669  76.814 117.915  0.00  0.00     0.028 C 
ATOM      5  C   LIG d   1      -0.359  77.315 116.509  0.00  0.00    -0.047 C 
ATOM      6  C   LIG d   1      -1.640  77.220 115.648  0.00  0.00     0.091 C 
ENDROOT
BRANCH   1   7
ATOM      7  O   LIG d   1      -3.601  75.809 115.237  0.00  0.00    -0.368 OA
BRANCH   7   8
ATOM      8  C   LIG d   1      -4.581  75.823 116.303  0.00  0.00     0.119 C 
BRANCH   8   9
ATOM      9  C   LIG d   1      -5.847  75.119 115.778  0.00  0.00     0.028 C 
ATOM     10  C   LIG d   1      -5.549  74.181 114.596  0.00  0.00     0.006 C 
ENDBRANCH   8   9
BRANCH   8  11
ATOM     11  C   LIG d   1      -5.021  77.252 116.637  0.00  0.00     0.028 C 
ATOM     12  C   LIG d   1      -4.683  77.657 118.081  0.00  0.00     0.006 C 
ENDBRANCH   8  11
ENDBRANCH   7   8
ENDBRANCH   1   7
BRANCH   6  13
ATOM     13  N   LIG d   1      -1.403  77.611 114.234  0.00  0.00    -0.311 N 
ATOM     14  C   LIG d   1      -2.093  78.566 113.612  0.00  0.00     0.210 C 
ATOM     15  C   LIG d   1      -1.703  78.797 112.149  0.00  0.00     0.109 C 
ATOM     16  O   LIG d   1      -2.970  79.264 114.143  0.00  0.00    -0.276 OA
ATOM     17  H   LIG d   1      -0.688  77.117 113.738  0.00  0.00     0.149 HD
ENDBRANCH   6  13
BRANCH   5  18
ATOM     18  N   LIG d   1       0.156  78.692 116.629  0.00  0.00     0.381 N 
ATOM     19  H   LIG d   1      -0.549  79.284 117.021  0.00  0.00    -0.090 HD
ATOM     20  H   LIG d   1       0.383  79.036 115.713  0.00  0.00    -0.090 HD
ATOM     21  H   LIG d   1       0.968  78.703 117.207  0.00  0.00    -0.090 HD
ENDBRANCH   5  18
BRANCH   3  22
ATOM     22  C   LIG d   1      -1.064  74.728 119.024  0.00  0.00     0.382 C 
ATOM     23  O   LIG d   1      -2.035  74.259 119.666  0.00  0.00    -0.241 OA
ATOM     24  O   LIG d   1       0.097  74.480 119.401  0.00  0.00    -0.241 OA
ENDBRANCH   3  22
TORSDOF 7
ENDMDL
MODEL 2
REMARK VINA RESULT:      -4.8      2.330      4.338
REMARK  7 active torsions:
REMARK  status: ('A' for Active; 'I' for Inactive)
REMARK    1  A    between atoms: C_2  and  C_3 
REMARK    2  A    between atoms: C_3  and  O_6 
REMARK    3  A    between atoms: C_3  and  C_4 
REMARK    4  A    between atoms: C_7  and  O_6 
REMARK    5  A    between atoms: C_9  and  C_10 
REMARK    6  A    between atoms: N_15  and  C_14 
REMARK    7  A    between atoms: N_20  and  C_19 
REMARK       I    between atoms: C_22  and  N_20 
ROOT
ATOM      1  C   LIG d   1      -2.733  77.946 116.407  0.00  0.00     0.161 C 
ATOM      2  C   LIG d   1      -3.792  77.123 115.990  0.00  0.00     0.016 C 
ATOM      3  C   LIG d   1      -3.604  75.838 115.430  0.00  0.00     0.038 C 
ATOM      4  C   LIG d   1      -2.344  75.224 115.389  0.00  0.00     0.028 C 
ATOM      5  C   LIG d   1      -1.188  76.217 115.334  0.00  0.00    -0.047 C 
ATOM      6  C   LIG d   1      -1.358  77.249 116.473  0.00  0.00     0.091 C 
ENDROOT
BRANCH   1   7
ATOM      7  O   LIG d   1      -3.052  78.545 117.679  0.00  0.00    -0.368 OA
BRANCH   7   8
ATOM      8  C   LIG d   1      -3.889  77.759 118.562  0.00  0.00     0.119 C 
BRANCH   8   9
ATOM      9  C   LIG d   1      -4.968  78.698 119.135  0.00  0.00     0.028 C 
ATOM     10  C   LIG d   1      -6.057  79.039 118.104  0.00  0.00     0.006 C 
ENDBRANCH   8   9
BRANCH   8  11
ATOM     11  C   LIG d   1      -3.101  77.258 119.776  0.00  0.00     0.028 C 
ATOM     12  C   LIG d   1      -2.499  75.860 119.561  0.00  0.00     0.006 C 
ENDBRANCH   8  11
ENDBRANCH   7   8
ENDBRANCH   1   7
BRANCH   6  13
ATOM     13  N   LIG d   1      -0.315  78.307 116.440  0.00  0.00    -0.311 N 
ATOM     14  C   LIG d   1       0.453  78.612 117.484  0.00  0.00     0.210 C 
ATOM     15  C   LIG d   1       1.452  79.748 117.242  0.00  0.00     0.109 C 
ATOM     16  O   LIG d   1       0.425  78.027 118.578  0.00  0.00    -0.276 OA
ATOM     17  H   LIG d   1      -0.203  78.810 115.581  0.00  0.00     0.149 HD
ENDBRANCH   6  13
BRANCH   5  18
ATOM     18  N   LIG d   1       0.066  75.447 115.434  0.00  0.00     0.381 N 
ATOM     19  H   LIG d   1       0.548  75.468 114.558  0.00  0.00    -0.090 HD
ATOM     20  H   LIG d   1      -0.155  74.491 115.650  0.00  0.00    -0.090 HD
ATOM     21  H   LIG d   1       0.646  75.830 116.149  0.00  0.00    -0.090 HD
ENDBRANCH   5  18
BRANCH   3  22
ATOM     22  C   LIG d   1      -4.681  75.170 114.868  0.00  0.00     0.382 C 
ATOM     23  O   LIG d   1      -5.181  74.180 115.455  0.00  0.00    -0.241 OA
ATOM     24  O   LIG d   1      -5.131  75.517 113.759  0.00  0.00    -0.241 OA
ENDBRANCH   3  22
TORSDOF 7
ENDMDL
MODEL 3
REMARK VINA RESULT:      -4.7      1.906      4.929
REMARK  7 active torsions:
REMARK  status: ('A' for Active; 'I' for Inactive)
REMARK    1  A    between atoms: C_2  and  C_3 
REMARK    2  A    between atoms: C_3  and  O_6 
REMARK    3  A    between atoms: C_3  and  C_4 
REMARK    4  A    between atoms: C_7  and  O_6 
REMARK    5  A    between atoms: C_9  and  C_10 
REMARK    6  A    between atoms: N_15  and  C_14 
REMARK    7  A    between atoms: N_20  and  C_19 
REMARK       I    between atoms: C_22  and  N_20 
ROOT
ATOM      1  C   LIG d   1      -2.734  76.396 116.795  0.00  0.00     0.161 C 
ATOM      2  C   LIG d   1      -2.802  77.356 115.772  0.00  0.00     0.016 C 
ATOM      3  C   LIG d   1      -1.996  77.314 114.611  0.00  0.00     0.038 C 
ATOM      4  C   LIG d   1      -1.168  76.219 114.323  0.00  0.00     0.028 C 
ATOM      5  C   LIG d   1      -0.692  75.475 115.566  0.00  0.00    -0.047 C 
ATOM      6  C   LIG d   1      -1.916  75.135 116.446  0.00  0.00     0.091 C 
ENDROOT
BRANCH   1   7
ATOM      7  O   LIG d   1      -4.065  76.031 117.212  0.00  0.00    -0.368 OA
BRANCH   7   8
ATOM      8  C   LIG d   1      -5.149  76.523 116.386  0.00  0.00     0.119 C 
BRANCH   8   9
ATOM      9  C   LIG d   1      -6.134  77.265 117.310  0.00  0.00     0.028 C 
ATOM     10  C   LIG d   1      -5.643  78.675 117.680  0.00  0.00     0.006 C 
ENDBRANCH   8   9
BRANCH   8  11
ATOM     11  C   LIG d   1      -5.953  75.370 115.778  0.00  0.00     0.028 C 
ATOM     12  C   LIG d   1      -5.183  74.620 114.680  0.00  0.00     0.006 C 
ENDBRANCH   8  11
ENDBRANCH   7   8
ENDBRANCH   1   7
BRANCH   6  13
ATOM     13  N   LIG d   1      -1.532  74.481 117.724  0.00  0.00    -0.311 N 
ATOM     14  C   LIG d   1      -0.705  75.033 118.611  0.00  0.00     0.210 C 
ATOM     15  C   LIG d   1      -0.426  74.180 119.852  0.00  0.00     0.109 C 
ATOM     16  O   LIG d   1      -0.203  76.161 118.502  0.00  0.00    -0.276 OA
ATOM     17  H   LIG d   1      -1.918  73.575 117.907  0.00  0.00     0.149 HD
ENDBRANCH   6  13
BRANCH   5  18
ATOM     18  N   LIG d   1       0.046  74.281 115.116  0.00  0.00     0.381 N 
ATOM     19  H   LIG d   1      -0.307  73.978 114.230  0.00  0.00    -0.090 HD
ATOM     20  H   LIG d   1      -0.095  73.541 115.781  0.00  0.00    -0.090 HD
ATOM     21  H   LIG d   1       1.018  74.488 115.041  0.00  0.00    -0.090 HD
ENDBRANCH   5  18
BRANCH   3  22
ATOM     22  C   LIG d   1      -1.984  78.395 113.744  0.00  0.00     0.382 C 
ATOM     23  O   LIG d   1      -1.030  79.210 113.770  0.00  0.00    -0.241 OA
ATOM     24  O   LIG d   1      -2.936  78.592 112.965  0.00  0.00    -0.241 OA
ENDBRANCH   3  22
TORSDOF 7
ENDMDL
MODEL 4
REMARK VINA RESULT:      -4.3      2.324      5.204
REMARK  7 active torsions:
REMARK  status: ('A' for Active; 'I' for Inactive)
REMARK    1  A    between atoms: C_2  and  C_3 
REMARK    2  A    between atoms: C_3  and  O_6 
REMARK    3  A    between atoms: C_3  and  C_4 
REMARK    4  A    between atoms: C_7  and  O_6 
REMARK    5  A    between atoms: C_9  and  C_10 
REMARK    6  A    between atoms: N_15  and  C_14 
REMARK    7  A    between atoms: N_20  and  C_19 
REMARK       I    between atoms: C_22  and  N_20 
ROOT
ATOM      1  C   LIG d   1      -2.423  77.505 114.965  0.00  0.00     0.161 C 
ATOM      2  C   LIG d   1      -3.542  76.730 114.615  0.00  0.00     0.016 C 
ATOM      3  C   LIG d   1      -4.283  75.969 115.548  0.00  0.00     0.038 C 
ATOM      4  C   LIG d   1      -4.046  76.051 116.928  0.00  0.00     0.028 C 
ATOM      5  C   LIG d   1      -2.609  76.426 117.274  0.00  0.00    -0.047 C 
ATOM      6  C   LIG d   1      -2.217  77.695 116.482  0.00  0.00     0.091 C 
ENDROOT
BRANCH   1   7
ATOM      7  O   LIG d   1      -2.489  78.784 114.304  0.00  0.00    -0.368 OA
BRANCH   7   8
ATOM      8  C   LIG d   1      -1.799  78.882 113.034  0.00  0.00     0.119 C 
BRANCH   8   9
ATOM      9  C   LIG d   1      -1.640  80.379 112.707  0.00  0.00     0.028 C 
ATOM     10  C   LIG d   1      -0.177  80.768 112.432  0.00  0.00     0.006 C 
ENDBRANCH   8   9
BRANCH   8  11
ATOM     11  C   LIG d   1      -2.646  78.306 111.894  0.00  0.00     0.028 C 
ATOM     12  C   LIG d   1      -1.795  77.791 110.722  0.00  0.00     0.006 C 
ENDBRANCH   8  11
ENDBRANCH   7   8
ENDBRANCH   1   7
BRANCH   6  13
ATOM     13  N   LIG d   1      -0.798  78.082 116.698  0.00  0.00    -0.311 N 
ATOM     14  C   LIG d   1      -0.410  78.953 117.628  0.00  0.00     0.210 C 
ATOM     15  C   LIG d   1       1.097  79.226 117.668  0.00  0.00     0.109 C 
ATOM     16  O   LIG d   1      -1.166  79.501 118.444  0.00  0.00    -0.276 OA
ATOM     17  H   LIG d   1      -0.115  77.661 116.100  0.00  0.00     0.149 HD
ENDBRANCH   6  13
BRANCH   5  18
ATOM     18  N   LIG d   1      -2.536  76.611 118.735  0.00  0.00     0.381 N 
ATOM     19  H   LIG d   1      -2.060  77.466 118.945  0.00  0.00    -0.090 HD
ATOM     20  H   LIG d   1      -2.012  75.852 119.133  0.00  0.00    -0.090 HD
ATOM     21  H   LIG d   1      -3.454  76.630 119.123  0.00  0.00    -0.090 HD
ENDBRANCH   5  18
BRANCH   3  22
ATOM     22  C   LIG d   1      -5.250  75.083 115.097  0.00  0.00     0.382 C 
ATOM     23  O   LIG d   1      -5.185  74.623 113.932  0.00  0.00    -0.241 OA
ATOM     24  O   LIG d   1      -6.211  74.771 115.827  0.00  0.00    -0.241 OA
ENDBRANCH   3  22
TORSDOF 7
ENDMDL
MODEL 5
REMARK VINA RESULT:      -4.1      2.430      6.143
REMARK  7 active torsions:
REMARK  status: ('A' for Active; 'I' for Inactive)
REMARK    1  A    between atoms: C_2  and  C_3 
REMARK    2  A    between atoms: C_3  and  O_6 
REMARK    3  A    between atoms: C_3  and  C_4 
REMARK    4  A    between atoms: C_7  and  O_6 
REMARK    5  A    between atoms: C_9  and  C_10 
REMARK    6  A    between atoms: N_15  and  C_14 
REMARK    7  A    between atoms: N_20  and  C_19 
REMARK       I    between atoms: C_22  and  N_20 
ROOT
ATOM      1  C   LIG d   1      -1.224  77.421 115.898  0.00  0.00     0.161 C 
ATOM      2  C   LIG d   1      -1.448  78.030 114.652  0.00  0.00     0.016 C 
ATOM      3  C   LIG d   1      -2.522  77.686 113.799  0.00  0.00     0.038 C 
ATOM      4  C   LIG d   1      -3.539  76.809 114.204  0.00  0.00     0.028 C 
ATOM      5  C   LIG d   1      -3.083  75.793 115.246  0.00  0.00    -0.047 C 
ATOM      6  C   LIG d   1      -2.386  76.541 116.405  0.00  0.00     0.091 C 
ENDROOT
BRANCH   1   7
ATOM      7  O   LIG d   1      -0.889  78.423 116.879  0.00  0.00    -0.368 OA
BRANCH   7   8
ATOM      8  C   LIG d   1       0.442  78.340 117.445  0.00  0.00     0.119 C 
BRANCH   8   9
ATOM      9  C   LIG d   1       0.288  78.212 118.972  0.00  0.00     0.028 C 
ATOM     10  C   LIG d   1       1.254  77.177 119.574  0.00  0.00     0.006 C 
ENDBRANCH   8   9
BRANCH   8  11
ATOM     11  C   LIG d   1       1.223  79.639 117.223  0.00  0.00     0.028 C 
ATOM     12  C   LIG d   1       0.873  80.727 118.251  0.00  0.00     0.006 C 
ENDBRANCH   8  11
ENDBRANCH   7   8
ENDBRANCH   1   7
BRANCH   6  13
ATOM     13  N   LIG d   1      -1.835  75.614 117.428  0.00  0.00    -0.311 N 
ATOM     14  C   LIG d   1      -2.224  75.613 118.702  0.00  0.00     0.210 C 
ATOM     15  C   LIG d   1      -1.515  74.590 119.594  0.00  0.00     0.109 C 
ATOM     16  O   LIG d   1      -3.113  76.340 119.171  0.00  0.00    -0.276 OA
ATOM     17  H   LIG d   1      -1.131  74.969 117.127  0.00  0.00     0.149 HD
ENDBRANCH   6  13
BRANCH   5  18
ATOM     18  N   LIG d   1      -4.272  75.035 115.679  0.00  0.00     0.381 N 
ATOM     19  H   LIG d   1      -4.926  74.971 114.925  0.00  0.00    -0.090 HD
ATOM     20  H   LIG d   1      -4.712  75.525 116.437  0.00  0.00    -0.090 HD
ATOM     21  H   LIG d   1      -4.005  74.121 115.975  0.00  0.00    -0.090 HD
ENDBRANCH   5  18
BRANCH   3  22
ATOM     22  C   LIG d   1      -2.563  78.192 112.509  0.00  0.00     0.382 C 
ATOM     23  O   LIG d   1      -2.396  79.419 112.311  0.00  0.00    -0.241 OA
ATOM     24  O   LIG d   1      -2.811  77.443 111.544  0.00  0.00    -0.241 OA
ENDBRANCH   3  22
TORSDOF 7
ENDMDL
MODEL 6
REMARK VINA RESULT:      -4.1      2.117      5.043
REMARK  7 active torsions:
REMARK  status: ('A' for Active; 'I' for Inactive)
REMARK    1  A    between atoms: C_2  and  C_3 
REMARK    2  A    between atoms: C_3  and  O_6 
REMARK    3  A    between atoms: C_3  and  C_4 
REMARK    4  A    between atoms: C_7  and  O_6 
REMARK    5  A    between atoms: C_9  and  C_10 
REMARK    6  A    between atoms: N_15  and  C_14 
REMARK    7  A    between atoms: N_20  and  C_19 
REMARK       I    between atoms: C_22  and  N_20 
ROOT
ATOM      1  C   LIG d   1      -3.225  77.321 115.776  0.00  0.00     0.161 C 
ATOM      2  C   LIG d   1      -3.261  78.359 114.830  0.00  0.00     0.016 C 
ATOM      3  C   LIG d   1      -2.393  78.427 113.717  0.00  0.00     0.038 C 
ATOM      4  C   LIG d   1      -1.524  77.376 113.388  0.00  0.00     0.028 C 
ATOM      5  C   LIG d   1      -1.098  76.543 114.592  0.00  0.00    -0.047 C 
ATOM      6  C   LIG d   1      -2.360  76.108 115.373  0.00  0.00     0.091 C 
ENDROOT
BRANCH   1   7
ATOM      7  O   LIG d   1      -4.567  76.897 116.088  0.00  0.00    -0.368 OA
BRANCH   7   8
ATOM      8  C   LIG d   1      -4.991  77.082 117.461  0.00  0.00     0.119 C 
BRANCH   8   9
ATOM      9  C   LIG d   1      -6.311  77.875 117.435  0.00  0.00     0.028 C 
ATOM     10  C   LIG d   1      -6.157  79.291 118.016  0.00  0.00     0.006 C 
ENDBRANCH   8   9
BRANCH   8  11
ATOM     11  C   LIG d   1      -4.005  77.961 118.235  0.00  0.00     0.028 C 
ATOM     12  C   LIG d   1      -3.503  77.299 119.528  0.00  0.00     0.006 C 
ENDBRANCH   8  11
ENDBRANCH   7   8
ENDBRANCH   1   7
BRANCH   6  13
ATOM     13  N   LIG d   1      -2.028  75.360 116.613  0.00  0.00    -0.311 N 
ATOM     14  C   LIG d   1      -1.000  75.667 117.402  0.00  0.00     0.210 C 
ATOM     15  C   LIG d   1      -0.825  74.755 118.621  0.00  0.00     0.109 C 
ATOM     16  O   LIG d   1      -0.236  76.628 117.227  0.00  0.00    -0.276 OA
ATOM     17  H   LIG d   1      -2.616  74.584 116.848  0.00  0.00     0.149 HD
ENDBRANCH   6  13
BRANCH   5  18
ATOM     18  N   LIG d   1      -0.309  75.403 114.089  0.00  0.00     0.381 N 
ATOM     19  H   LIG d   1       0.371  75.727 113.430  0.00  0.00    -0.090 HD
ATOM     20  H   LIG d   1      -0.925  74.764 113.618  0.00  0.00    -0.090 HD
ATOM     21  H   LIG d   1       0.145  74.941 114.846  0.00  0.00    -0.090 HD
ENDBRANCH   5  18
BRANCH   3  22
ATOM     22  C   LIG d   1      -2.360  79.576 112.940  0.00  0.00     0.382 C 
ATOM     23  O   LIG d   1      -1.582  79.647 111.958  0.00  0.00    -0.241 OA
ATOM     24  O   LIG d   1      -3.066  80.558 113.236  0.00  0.00    -0.241 OA
ENDBRANCH   3  22
TORSDOF 7
ENDMDL
MODEL 7
REMARK VINA RESULT:      -4.1      2.730      5.409
REMARK  7 active torsions:
REMARK  status: ('A' for Active; 'I' for Inactive)
REMARK    1  A    between atoms: C_2  and  C_3 
REMARK    2  A    between atoms: C_3  and  O_6 
REMARK    3  A    between atoms: C_3  and  C_4 
REMARK    4  A    between atoms: C_7  and  O_6 
REMARK    5  A    between atoms: C_9  and  C_10 
REMARK    6  A    between atoms: N_15  and  C_14 
REMARK    7  A    between atoms: N_20  and  C_19 
REMARK       I    between atoms: C_22  and  N_20 
ROOT
ATOM      1  C   LIG d   1      -2.780  77.387 116.899  0.00  0.00     0.161 C 
ATOM      2  C   LIG d   1      -3.862  78.034 117.519  0.00  0.00     0.016 C 
ATOM      3  C   LIG d   1      -5.211  77.672 117.304  0.00  0.00     0.038 C 
ATOM      4  C   LIG d   1      -5.565  76.533 116.566  0.00  0.00     0.028 C 
ATOM      5  C   LIG d   1      -4.532  76.150 115.511  0.00  0.00    -0.047 C 
ATOM      6  C   LIG d   1      -3.140  76.072 116.178  0.00  0.00     0.091 C 
ENDROOT
BRANCH   1   7
ATOM      7  O   LIG d   1      -1.730  77.161 117.860  0.00  0.00    -0.368 OA
BRANCH   7   8
ATOM      8  C   LIG d   1      -0.692  78.170 117.921  0.00  0.00     0.119 C 
BRANCH   8   9
ATOM      9  C   LIG d   1       0.661  77.453 117.755  0.00  0.00     0.028 C 
ATOM     10  C   LIG d   1       1.430  77.335 119.082  0.00  0.00     0.006 C 
ENDBRANCH   8   9
BRANCH   8  11
ATOM     11  C   LIG d   1      -0.636  78.828 119.303  0.00  0.00     0.028 C 
ATOM     12  C   LIG d   1      -1.149  80.277 119.295  0.00  0.00     0.006 C 
ENDBRANCH   8  11
ENDBRANCH   7   8
ENDBRANCH   1   7
BRANCH   6  13
ATOM     13  N   LIG d   1      -2.058  75.785 115.199  0.00  0.00    -0.311 N 
ATOM     14  C   LIG d   1      -1.089  74.898 115.417  0.00  0.00     0.210 C 
ATOM     15  C   LIG d   1      -0.063  74.770 114.287  0.00  0.00     0.109 C 
ATOM     16  O   LIG d   1      -0.999  74.182 116.426  0.00  0.00    -0.276 OA
ATOM     17  H   LIG d   1      -2.073  76.299 114.340  0.00  0.00     0.149 HD
ENDBRANCH   6  13
BRANCH   5  18
ATOM     18  N   LIG d   1      -4.960  74.871 114.913  0.00  0.00     0.381 N 
ATOM     19  H   LIG d   1      -5.639  74.432 115.502  0.00  0.00    -0.090 HD
ATOM     20  H   LIG d   1      -4.163  74.263 114.843  0.00  0.00    -0.090 HD
ATOM     21  H   LIG d   1      -5.346  75.030 114.009  0.00  0.00    -0.090 HD
ENDBRANCH   5  18
BRANCH   3  22
ATOM     22  C   LIG d   1      -6.226  78.478 117.798  0.00  0.00     0.382 C 
ATOM     23  O   LIG d   1      -6.370  79.645 117.359  0.00  0.00    -0.241 OA
ATOM     24  O   LIG d   1      -6.971  78.069 118.709  0.00  0.00    -0.241 OA
ENDBRANCH   3  22
TORSDOF 7
ENDMDL
MODEL 8
REMARK VINA RESULT:      -4.0      2.177      3.773
REMARK  7 active torsions:
REMARK  status: ('A' for Active; 'I' for Inactive)
REMARK    1  A    between atoms: C_2  and  C_3 
REMARK    2  A    between atoms: C_3  and  O_6 
REMARK    3  A    between atoms: C_3  and  C_4 
REMARK    4  A    between atoms: C_7  and  O_6 
REMARK    5  A    between atoms: C_9  and  C_10 
REMARK    6  A    between atoms: N_15  and  C_14 
REMARK    7  A    between atoms: N_20  and  C_19 
REMARK       I    between atoms: C_22  and  N_20 
ROOT
ATOM      1  C   LIG d   1      -2.534  76.207 118.281  0.00  0.00     0.161 C 
ATOM      2  C   LIG d   1      -1.415  76.688 118.981  0.00  0.00     0.016 C 
ATOM      3  C   LIG d   1      -0.200  77.046 118.354  0.00  0.00     0.038 C 
ATOM      4  C   LIG d   1      -0.071  77.091 116.958  0.00  0.00     0.028 C 
ATOM      5  C   LIG d   1      -1.009  76.133 116.232  0.00  0.00    -0.047 C 
ATOM      6  C   LIG d   1      -2.450  76.354 116.747  0.00  0.00     0.091 C 
ENDROOT
BRANCH   1   7
ATOM      7  O   LIG d   1      -3.730  76.837 118.780  0.00  0.00    -0.368 OA
BRANCH   7   8
ATOM      8  C   LIG d   1      -3.954  78.205 118.357  0.00  0.00     0.119 C 
BRANCH   8   9
ATOM      9  C   LIG d   1      -4.156  79.054 119.627  0.00  0.00     0.028 C 
ATOM     10  C   LIG d   1      -2.947  79.954 119.930  0.00  0.00     0.006 C 
ENDBRANCH   8   9
BRANCH   8  11
ATOM     11  C   LIG d   1      -5.260  78.338 117.568  0.00  0.00     0.028 C 
ATOM     12  C   LIG d   1      -6.264  79.292 118.234  0.00  0.00     0.006 C 
ENDBRANCH   8  11
ENDBRANCH   7   8
ENDBRANCH   1   7
BRANCH   6  13
ATOM     13  N   LIG d   1      -3.419  75.399 116.150  0.00  0.00    -0.311 N 
ATOM     14  C   LIG d   1      -4.208  75.702 115.120  0.00  0.00     0.210 C 
ATOM     15  C   LIG d   1      -5.147  74.579 114.672  0.00  0.00     0.109 C 
ATOM     16  O   LIG d   1      -4.195  76.785 114.515  0.00  0.00    -0.276 OA
ATOM     17  H   LIG d   1      -3.472  74.487 116.559  0.00  0.00     0.149 HD
ENDBRANCH   6  13
BRANCH   5  18
ATOM     18  N   LIG d   1      -0.868  76.382 114.785  0.00  0.00     0.381 N 
ATOM     19  H   LIG d   1      -0.290  75.676 114.374  0.00  0.00    -0.090 HD
ATOM     20  H   LIG d   1      -0.423  77.272 114.650  0.00  0.00    -0.090 HD
ATOM     21  H   LIG d   1      -1.765  76.381 114.350  0.00  0.00    -0.090 HD
ENDBRANCH   5  18
BRANCH   3  22
ATOM     22  C   LIG d   1       0.916  77.326 119.127  0.00  0.00     0.382 C 
ATOM     23  O   LIG d   1       1.429  78.471 119.096  0.00  0.00    -0.241 OA
ATOM     24  O   LIG d   1       1.443  76.437 119.822  0.00  0.00    -0.241 OA
ENDBRANCH   3  22
TORSDOF 7
ENDMDL
MODEL 9
REMARK VINA RESULT:      -4.0      2.384      4.664
REMARK  7 active torsions:
REMARK  status: ('A' for Active; 'I' for Inactive)
REMARK    1  A    between atoms: C_2  and  C_3 
REMARK    2  A    between atoms: C_3  and  O_6 
REMARK    3  A    between atoms: C_3  and  C_4 
REMARK    4  A    between atoms: C_7  and  O_6 
REMARK    5  A    between atoms: C_9  and  C_10 
REMARK    6  A    between atoms: N_15  and  C_14 
REMARK    7  A    between atoms: N_20  and  C_19 
REMARK       I    between atoms: C_22  and  N_20 
ROOT
ATOM      1  C   LIG d   1      -2.345  75.655 116.406  0.00  0.00     0.161 C 
ATOM      2  C   LIG d   1      -1.323  74.998 115.700  0.00  0.00     0.016 C 
ATOM      3  C   LIG d   1      -0.752  75.501 114.509  0.00  0.00     0.038 C 
ATOM      4  C   LIG d   1      -1.060  76.780 114.021  0.00  0.00     0.028 C 
ATOM      5  C   LIG d   1      -2.451  77.261 114.421  0.00  0.00    -0.047 C 
ATOM      6  C   LIG d   1      -2.617  77.104 115.950  0.00  0.00     0.091 C 
ENDROOT
BRANCH   1   7
ATOM      7  O   LIG d   1      -2.064  75.619 117.819  0.00  0.00    -0.368 OA
BRANCH   7   8
ATOM      8  C   LIG d   1      -0.665  75.667 118.192  0.00  0.00     0.119 C 
BRANCH   8   9
ATOM      9  C   LIG d   1      -0.505  74.853 119.491  0.00  0.00     0.028 C 
ATOM     10  C   LIG d   1      -1.817  74.180 119.928  0.00  0.00     0.006 C 
ENDBRANCH   8   9
BRANCH   8  11
ATOM     11  C   LIG d   1      -0.232  77.092 118.550  0.00  0.00     0.028 C 
ATOM     12  C   LIG d   1       1.151  77.453 117.987  0.00  0.00     0.006 C 
ENDBRANCH   8  11
ENDBRANCH   7   8
ENDBRANCH   1   7
BRANCH   6  13
ATOM     13  N   LIG d   1      -3.979  77.474 116.413  0.00  0.00    -0.311 N 
ATOM     14  C   LIG d   1      -4.209  78.329 117.408  0.00  0.00     0.210 C 
ATOM     15  C   LIG d   1      -5.687  78.555 117.739  0.00  0.00     0.109 C 
ATOM     16  O   LIG d   1      -3.329  78.948 118.026  0.00  0.00    -0.276 OA
ATOM     17  H   LIG d   1      -4.753  77.042 115.946  0.00  0.00     0.149 HD
ENDBRANCH   6  13
BRANCH   5  18
ATOM     18  N   LIG d   1      -2.588  78.657 113.965  0.00  0.00     0.381 N 
ATOM     19  H   LIG d   1      -3.224  79.148 114.561  0.00  0.00    -0.090 HD
ATOM     20  H   LIG d   1      -2.964  78.659 113.033  0.00  0.00    -0.090 HD
ATOM     21  H   LIG d   1      -1.699  79.107 113.973  0.00  0.00    -0.090 HD
ENDBRANCH   5  18
BRANCH   3  22
ATOM     22  C   LIG d   1       0.111  74.705 113.771  0.00  0.00     0.382 C 
ATOM     23  O   LIG d   1       1.107  74.180 114.324  0.00  0.00    -0.241 OA
ATOM     24  O   LIG d   1      -0.070  74.541 112.550  0.00  0.00    -0.241 OA
ENDBRANCH   3  22
TORSDOF 7
ENDMDL
