MODEL 1
REMARK VINA RESULT:      -5.1      0.000      0.000
REMARK  7 active torsions:
REMARK  status: ('A' for Active; 'I' for Inactive)
REMARK    1  A    between atoms: C_2  and  C_3 
REMARK    2  A    between atoms: C_3  and  O_6 
REMARK    3  A    between atoms: C_3  and  C_4 
REMARK    4  A    between atoms: C_7  and  O_6 
REMARK    5  A    between atoms: C_9  and  C_10 
REMARK    6  A    between atoms: N_15  and  C_14 
REMARK    7  A    between atoms: N_20  and  C_19 
REMARK       I    between atoms: C_22  and  N_20 
ROOT
ATOM      1  C   LIG d   1      -2.738  78.253 116.230  0.00  0.00     0.161 C 
ATOM      2  C   LIG d   1      -2.974  79.045 115.095  0.00  0.00     0.016 C 
ATOM      3  C   LIG d   1      -2.439  78.756 113.818  0.00  0.00     0.038 C 
ATOM      4  C   LIG d   1      -1.749  77.563 113.557  0.00  0.00     0.028 C 
ATOM      5  C   LIG d   1      -1.057  76.982 114.785  0.00  0.00    -0.047 C 
ATOM      6  C   LIG d   1      -2.080  76.888 115.940  0.00  0.00     0.091 C 
ENDROOT
BRANCH   1   7
ATOM      7  O   LIG d   1      -3.965  78.072 116.964  0.00  0.00    -0.368 OA
BRANCH   7   8
ATOM      8  C   LIG d   1      -5.167  77.925 116.168  0.00  0.00     0.119 C 
BRANCH   8   9
ATOM      9  C   LIG d   1      -6.326  78.563 116.959  0.00  0.00     0.028 C 
ATOM     10  C   LIG d   1      -5.970  79.957 117.501  0.00  0.00     0.006 C 
ENDBRANCH   8   9
BRANCH   8  11
ATOM     11  C   LIG d   1      -5.551  76.451 116.005  0.00  0.00     0.028 C 
ATOM     12  C   LIG d   1      -6.666  76.237 114.970  0.00  0.00     0.006 C 
ENDBRANCH   8  11
ENDBRANCH   7   8
ENDBRANCH   1   7
BRANCH   6  13
ATOM     13  N   LIG d   1      -1.464  76.407 117.205  0.00  0.00    -0.311 N 
ATOM     14  C   LIG d   1      -1.395  75.121 117.544  0.00  0.00     0.210 C 
ATOM     15  C   LIG d   1      -0.738  74.845 118.900  0.00  0.00     0.109 C 
ATOM     16  O   LIG d   1      -1.786  74.181 116.837  0.00  0.00    -0.276 OA
ATOM     17  H   LIG d   1      -1.094  77.101 117.824  0.00  0.00     0.149 HD
ENDBRANCH   6  13
BRANCH   5  18
ATOM     18  N   LIG d   1      -0.495  75.673 114.402  0.00  0.00     0.381 N 
ATOM     19  H   LIG d   1       0.177  75.380 115.083  0.00  0.00    -0.090 HD
ATOM     20  H   LIG d   1      -0.027  75.766 113.518  0.00  0.00    -0.090 HD
ATOM     21  H   LIG d   1      -1.223  74.996 114.332  0.00  0.00    -0.090 HD
ENDBRANCH   5  18
BRANCH   3  22
ATOM     22  C   LIG d   1      -2.557  79.686 112.797  0.00  0.00     0.382 C 
ATOM     23  O   LIG d   1      -2.151  79.405 111.643  0.00  0.00    -0.241 OA
ATOM     24  O   LIG d   1      -3.025  80.818 113.024  0.00  0.00    -0.241 OA
ENDBRANCH   3  22
TORSDOF 7
ENDMDL
MODEL 2
REMARK VINA RESULT:      -5.0      2.059      5.140
REMARK  7 active torsions:
REMARK  status: ('A' for Active; 'I' for Inactive)
REMARK    1  A    between atoms: C_2  and  C_3 
REMARK    2  A    between atoms: C_3  and  O_6 
REMARK    3  A    between atoms: C_3  and  C_4 
REMARK    4  A    between atoms: C_7  and  O_6 
REMARK    5  A    between atoms: C_9  and  C_10 
REMARK    6  A    between atoms: N_15  and  C_14 
REMARK    7  A    between atoms: N_20  and  C_19 
REMARK       I    between atoms: C_22  and  N_20 
ROOT
ATOM      1  C   LIG d   1      -1.703  75.763 115.078  0.00  0.00     0.161 C 
ATOM      2  C   LIG d   1      -1.390  75.074 116.262  0.00  0.00     0.016 C 
ATOM      3  C   LIG d   1      -0.909  75.711 117.428  0.00  0.00     0.038 C 
ATOM      4  C   LIG d   1      -0.851  77.108 117.540  0.00  0.00     0.028 C 
ATOM      5  C   LIG d   1      -0.678  77.817 116.201  0.00  0.00    -0.047 C 
ATOM      6  C   LIG d   1      -1.752  77.299 115.217  0.00  0.00     0.091 C 
ENDROOT
BRANCH   1   7
ATOM      7  O   LIG d   1      -2.945  75.269 114.539  0.00  0.00    -0.368 OA
BRANCH   7   8
ATOM      8  C   LIG d   1      -4.115  76.089 114.779  0.00  0.00     0.119 C 
BRANCH   8   9
ATOM      9  C   LIG d   1      -4.888  75.461 115.955  0.00  0.00     0.028 C 
ATOM     10  C   LIG d   1      -4.806  76.312 117.233  0.00  0.00     0.006 C 
ENDBRANCH   8   9
BRANCH   8  11
ATOM     11  C   LIG d   1      -5.080  76.045 113.590  0.00  0.00     0.028 C 
ATOM     12  C   LIG d   1      -6.550  76.203 114.009  0.00  0.00     0.006 C 
ENDBRANCH   8  11
ENDBRANCH   7   8
ENDBRANCH   1   7
BRANCH   6  13
ATOM     13  N   LIG d   1      -1.602  77.879 113.857  0.00  0.00    -0.311 N 
ATOM     14  C   LIG d   1      -2.247  78.970 113.450  0.00  0.00     0.210 C 
ATOM     15  C   LIG d   1      -1.964  79.387 112.003  0.00  0.00     0.109 C 
ATOM     16  O   LIG d   1      -3.003  79.651 114.160  0.00  0.00    -0.276 OA
ATOM     17  H   LIG d   1      -0.984  77.407 113.226  0.00  0.00     0.149 HD
ENDBRANCH   6  13
BRANCH   5  18
ATOM     18  N   LIG d   1      -0.772  79.268 116.449  0.00  0.00     0.381 N 
ATOM     19  H   LIG d   1      -0.261  79.765 115.747  0.00  0.00    -0.090 HD
ATOM     20  H   LIG d   1      -0.361  79.472 117.342  0.00  0.00    -0.090 HD
ATOM     21  H   LIG d   1      -1.726  79.554 116.440  0.00  0.00    -0.090 HD
ENDBRANCH   5  18
BRANCH   3  22
ATOM     22  C   LIG d   1      -0.441  74.946 118.486  0.00  0.00     0.382 C 
ATOM     23  O   LIG d   1      -0.978  75.044 119.616  0.00  0.00    -0.241 OA
ATOM     24  O   LIG d   1       0.539  74.192 118.335  0.00  0.00    -0.241 OA
ENDBRANCH   3  22
TORSDOF 7
ENDMDL
MODEL 3
REMARK VINA RESULT:      -4.9      1.913      2.521
REMARK  7 active torsions:
REMARK  status: ('A' for Active; 'I' for Inactive)
REMARK    1  A    between atoms: C_2  and  C_3 
REMARK    2  A    between atoms: C_3  and  O_6 
REMARK    3  A    between atoms: C_3  and  C_4 
REMARK    4  A    between atoms: C_7  and  O_6 
REMARK    5  A    between atoms: C_9  and  C_10 
REMARK    6  A    between atoms: N_15  and  C_14 
REMARK    7  A    between atoms: N_20  and  C_19 
REMARK       I    between atoms: C_22  and  N_20 
ROOT
ATOM      1  C   LIG d   1      -2.676  76.871 115.074  0.00  0.00     0.161 C 
ATOM      2  C   LIG d   1      -2.839  77.736 113.979  0.00  0.00     0.016 C 
ATOM      3  C   LIG d   1      -1.913  78.751 113.645  0.00  0.00     0.038 C 
ATOM      4  C   LIG d   1      -0.677  78.872 114.298  0.00  0.00     0.028 C 
ATOM      5  C   LIG d   1      -0.695  78.346 115.729  0.00  0.00    -0.047 C 
ATOM      6  C   LIG d   1      -1.280  76.915 115.731  0.00  0.00     0.091 C 
ENDROOT
BRANCH   1   7
ATOM      7  O   LIG d   1      -3.003  75.522 114.684  0.00  0.00    -0.368 OA
BRANCH   7   8
ATOM      8  C   LIG d   1      -4.274  75.013 115.158  0.00  0.00     0.119 C 
BRANCH   8   9
ATOM      9  C   LIG d   1      -5.174  74.796 113.926  0.00  0.00     0.028 C 
ATOM     10  C   LIG d   1      -5.971  76.057 113.551  0.00  0.00     0.006 C 
ENDBRANCH   8   9
BRANCH   8  11
ATOM     11  C   LIG d   1      -5.005  76.049 116.016  0.00  0.00     0.028 C 
ATOM     12  C   LIG d   1      -6.096  75.427 116.901  0.00  0.00     0.006 C 
ENDBRANCH   8  11
ENDBRANCH   7   8
ENDBRANCH   1   7
BRANCH   6  13
ATOM     13  N   LIG d   1      -1.411  76.358 117.102  0.00  0.00    -0.311 N 
ATOM     14  C   LIG d   1      -0.484  75.592 117.674  0.00  0.00     0.210 C 
ATOM     15  C   LIG d   1      -0.826  75.106 119.086  0.00  0.00     0.109 C 
ATOM     16  O   LIG d   1       0.604  75.294 117.158  0.00  0.00    -0.276 OA
ATOM     17  H   LIG d   1      -2.249  76.575 117.605  0.00  0.00     0.149 HD
ENDBRANCH   6  13
BRANCH   5  18
ATOM     18  N   LIG d   1       0.687  78.406 116.243  0.00  0.00     0.381 N 
ATOM     19  H   LIG d   1       0.675  78.458 117.242  0.00  0.00    -0.090 HD
ATOM     20  H   LIG d   1       1.129  79.236 115.889  0.00  0.00    -0.090 HD
ATOM     21  H   LIG d   1       1.194  77.600 115.951  0.00  0.00    -0.090 HD
ENDBRANCH   5  18
BRANCH   3  22
ATOM     22  C   LIG d   1      -2.238  79.684 112.672  0.00  0.00     0.382 C 
ATOM     23  O   LIG d   1      -2.954  80.672 112.965  0.00  0.00    -0.241 OA
ATOM     24  O   LIG d   1      -1.861  79.527 111.495  0.00  0.00    -0.241 OA
ENDBRANCH   3  22
TORSDOF 7
ENDMDL
MODEL 4
REMARK VINA RESULT:      -4.8      0.978      1.653
REMARK  7 active torsions:
REMARK  status: ('A' for Active; 'I' for Inactive)
REMARK    1  A    between atoms: C_2  and  C_3 
REMARK    2  A    between atoms: C_3  and  O_6 
REMARK    3  A    between atoms: C_3  and  C_4 
REMARK    4  A    between atoms: C_7  and  O_6 
REMARK    5  A    between atoms: C_9  and  C_10 
REMARK    6  A    between atoms: N_15  and  C_14 
REMARK    7  A    between atoms: N_20  and  C_19 
REMARK       I    between atoms: C_22  and  N_20 
ROOT
ATOM      1  C   LIG d   1      -2.928  78.261 116.077  0.00  0.00     0.161 C 
ATOM      2  C   LIG d   1      -3.091  79.044 114.922  0.00  0.00     0.016 C 
ATOM      3  C   LIG d   1      -2.455  78.757 113.692  0.00  0.00     0.038 C 
ATOM      4  C   LIG d   1      -1.728  77.574 113.491  0.00  0.00     0.028 C 
ATOM      5  C   LIG d   1      -1.121  77.012 114.773  0.00  0.00    -0.047 C 
ATOM      6  C   LIG d   1      -2.227  76.906 115.847  0.00  0.00     0.091 C 
ENDROOT
BRANCH   1   7
ATOM      7  O   LIG d   1      -4.205  78.063 116.717  0.00  0.00    -0.368 OA
BRANCH   7   8
ATOM      8  C   LIG d   1      -4.835  76.777 116.497  0.00  0.00     0.119 C 
BRANCH   8   9
ATOM      9  C   LIG d   1      -5.940  76.978 115.442  0.00  0.00     0.028 C 
ATOM     10  C   LIG d   1      -5.733  76.095 114.200  0.00  0.00     0.006 C 
ENDBRANCH   8   9
BRANCH   8  11
ATOM     11  C   LIG d   1      -5.559  76.289 117.755  0.00  0.00     0.028 C 
ATOM     12  C   LIG d   1      -5.350  77.218 118.961  0.00  0.00     0.006 C 
ENDBRANCH   8  11
ENDBRANCH   7   8
ENDBRANCH   1   7
BRANCH   6  13
ATOM     13  N   LIG d   1      -1.701  76.444 117.158  0.00  0.00    -0.311 N 
ATOM     14  C   LIG d   1      -1.563  75.159 117.480  0.00  0.00     0.210 C 
ATOM     15  C   LIG d   1      -1.022  74.901 118.890  0.00  0.00     0.109 C 
ATOM     16  O   LIG d   1      -1.807  74.209 116.721  0.00  0.00    -0.276 OA
ATOM     17  H   LIG d   1      -1.449  77.149 117.823  0.00  0.00     0.149 HD
ENDBRANCH   6  13
BRANCH   5  18
ATOM     18  N   LIG d   1      -0.510  75.711 114.442  0.00  0.00     0.381 N 
ATOM     19  H   LIG d   1       0.142  75.823 113.692  0.00  0.00    -0.090 HD
ATOM     20  H   LIG d   1      -1.231  75.079 114.141  0.00  0.00    -0.090 HD
ATOM     21  H   LIG d   1      -0.046  75.339 115.242  0.00  0.00    -0.090 HD
ENDBRANCH   5  18
BRANCH   3  22
ATOM     22  C   LIG d   1      -2.512  79.679 112.658  0.00  0.00     0.382 C 
ATOM     23  O   LIG d   1      -2.045  79.386 111.530  0.00  0.00    -0.241 OA
ATOM     24  O   LIG d   1      -2.983  80.815 112.850  0.00  0.00    -0.241 OA
ENDBRANCH   3  22
TORSDOF 7
ENDMDL
MODEL 5
REMARK VINA RESULT:      -4.5      2.526      3.795
REMARK  7 active torsions:
REMARK  status: ('A' for Active; 'I' for Inactive)
REMARK    1  A    between atoms: C_2  and  C_3 
REMARK    2  A    between atoms: C_3  and  O_6 
REMARK    3  A    between atoms: C_3  and  C_4 
REMARK    4  A    between atoms: C_7  and  O_6 
REMARK    5  A    between atoms: C_9  and  C_10 
REMARK    6  A    between atoms: N_15  and  C_14 
REMARK    7  A    between atoms: N_20  and  C_19 
REMARK       I    between atoms: C_22  and  N_20 
ROOT
ATOM      1  C   LIG d   1      -3.460  78.261 116.736  0.00  0.00     0.161 C 
ATOM      2  C   LIG d   1      -2.490  78.988 117.445  0.00  0.00     0.016 C 
ATOM      3  C   LIG d   1      -1.115  78.979 117.115  0.00  0.00     0.038 C 
ATOM      4  C   LIG d   1      -0.636  78.356 115.953  0.00  0.00     0.028 C 
ATOM      5  C   LIG d   1      -1.504  77.192 115.487  0.00  0.00    -0.047 C 
ATOM      6  C   LIG d   1      -2.973  77.665 115.398  0.00  0.00     0.091 C 
ENDROOT
BRANCH   1   7
ATOM      7  O   LIG d   1      -4.626  79.081 116.524  0.00  0.00    -0.368 OA
BRANCH   7   8
ATOM      8  C   LIG d   1      -5.888  78.520 116.963  0.00  0.00     0.119 C 
BRANCH   8   9
ATOM      9  C   LIG d   1      -6.697  79.657 117.617  0.00  0.00     0.028 C 
ATOM     10  C   LIG d   1      -5.915  80.366 118.735  0.00  0.00     0.006 C 
ENDBRANCH   8   9
BRANCH   8  11
ATOM     11  C   LIG d   1      -5.681  77.482 118.070  0.00  0.00     0.028 C 
ATOM     12  C   LIG d   1      -6.330  76.127 117.745  0.00  0.00     0.006 C 
ENDBRANCH   8  11
ENDBRANCH   7   8
ENDBRANCH   1   7
BRANCH   6  13
ATOM     13  N   LIG d   1      -3.901  76.565 115.031  0.00  0.00    -0.311 N 
ATOM     14  C   LIG d   1      -4.314  76.339 113.785  0.00  0.00     0.210 C 
ATOM     15  C   LIG d   1      -5.286  75.166 113.628  0.00  0.00     0.109 C 
ATOM     16  O   LIG d   1      -3.941  76.979 112.790  0.00  0.00    -0.276 OA
ATOM     17  H   LIG d   1      -4.229  75.978 115.773  0.00  0.00     0.149 HD
ENDBRANCH   6  13
BRANCH   5  18
ATOM     18  N   LIG d   1      -0.968  76.726 114.195  0.00  0.00     0.381 N 
ATOM     19  H   LIG d   1      -0.793  77.509 113.598  0.00  0.00    -0.090 HD
ATOM     20  H   LIG d   1      -1.652  76.138 113.752  0.00  0.00    -0.090 HD
ATOM     21  H   LIG d   1      -0.125  76.214 114.339  0.00  0.00    -0.090 HD
ENDBRANCH   5  18
BRANCH   3  22
ATOM     22  C   LIG d   1      -0.198  79.564 117.975  0.00  0.00     0.382 C 
ATOM     23  O   LIG d   1       0.139  78.973 119.029  0.00  0.00    -0.241 OA
ATOM     24  O   LIG d   1       0.264  80.695 117.732  0.00  0.00    -0.241 OA
ENDBRANCH   3  22
TORSDOF 7
ENDMDL
MODEL 6
REMARK VINA RESULT:      -4.5      2.662      4.312
REMARK  7 active torsions:
REMARK  status: ('A' for Active; 'I' for Inactive)
REMARK    1  A    between atoms: C_2  and  C_3 
REMARK    2  A    between atoms: C_3  and  O_6 
REMARK    3  A    between atoms: C_3  and  C_4 
REMARK    4  A    between atoms: C_7  and  O_6 
REMARK    5  A    between atoms: C_9  and  C_10 
REMARK    6  A    between atoms: N_15  and  C_14 
REMARK    7  A    between atoms: N_20  and  C_19 
REMARK       I    between atoms: C_22  and  N_20 
ROOT
ATOM      1  C   LIG d   1      -1.628  77.756 114.523  0.00  0.00     0.161 C 
ATOM      2  C   LIG d   1      -0.822  78.778 113.995  0.00  0.00     0.016 C 
ATOM      3  C   LIG d   1      -1.092  79.424 112.766  0.00  0.00     0.038 C 
ATOM      4  C   LIG d   1      -2.277  79.195 112.052  0.00  0.00     0.028 C 
ATOM      5  C   LIG d   1      -2.869  77.810 112.291  0.00  0.00    -0.047 C 
ATOM      6  C   LIG d   1      -2.985  77.569 113.813  0.00  0.00     0.091 C 
ENDROOT
BRANCH   1   7
ATOM      7  O   LIG d   1      -1.826  77.971 115.935  0.00  0.00    -0.368 OA
BRANCH   7   8
ATOM      8  C   LIG d   1      -1.017  77.160 116.823  0.00  0.00     0.119 C 
BRANCH   8   9
ATOM      9  C   LIG d   1      -1.921  76.045 117.383  0.00  0.00     0.028 C 
ATOM     10  C   LIG d   1      -1.577  74.663 116.803  0.00  0.00     0.006 C 
ENDBRANCH   8   9
BRANCH   8  11
ATOM     11  C   LIG d   1      -0.557  77.961 118.044  0.00  0.00     0.028 C 
ATOM     12  C   LIG d   1      -0.665  79.480 117.836  0.00  0.00     0.006 C 
ENDBRANCH   8  11
ENDBRANCH   7   8
ENDBRANCH   1   7
BRANCH   6  13
ATOM     13  N   LIG d   1      -3.477  76.204 114.136  0.00  0.00    -0.311 N 
ATOM     14  C   LIG d   1      -4.763  75.915 114.329  0.00  0.00     0.210 C 
ATOM     15  C   LIG d   1      -5.052  74.450 114.670  0.00  0.00     0.109 C 
ATOM     16  O   LIG d   1      -5.694  76.726 114.218  0.00  0.00    -0.276 OA
ATOM     17  H   LIG d   1      -2.792  75.479 114.214  0.00  0.00     0.149 HD
ENDBRANCH   6  13
BRANCH   5  18
ATOM     18  N   LIG d   1      -4.170  77.755 111.597  0.00  0.00     0.381 N 
ATOM     19  H   LIG d   1      -4.043  77.953 110.624  0.00  0.00    -0.090 HD
ATOM     20  H   LIG d   1      -4.775  78.457 111.985  0.00  0.00    -0.090 HD
ATOM     21  H   LIG d   1      -4.579  76.854 111.709  0.00  0.00    -0.090 HD
ENDBRANCH   5  18
BRANCH   3  22
ATOM     22  C   LIG d   1      -0.150  80.283 112.220  0.00  0.00     0.382 C 
ATOM     23  O   LIG d   1      -0.194  80.568 110.999  0.00  0.00    -0.241 OA
ATOM     24  O   LIG d   1       0.770  80.742 112.924  0.00  0.00    -0.241 OA
ENDBRANCH   3  22
TORSDOF 7
ENDMDL
MODEL 7
REMARK VINA RESULT:      -4.5      3.131      5.575
REMARK  7 active torsions:
REMARK  status: ('A' for Active; 'I' for Inactive)
REMARK    1  A    between atoms: C_2  and  C_3 
REMARK    2  A    between atoms: C_3  and  O_6 
REMARK    3  A    between atoms: C_3  and  C_4 
REMARK    4  A    between atoms: C_7  and  O_6 
REMARK    5  A    between atoms: C_9  and  C_10 
REMARK    6  A    between atoms: N_15  and  C_14 
REMARK    7  A    between atoms: N_20  and  C_19 
REMARK       I    between atoms: C_22  and  N_20 
ROOT
ATOM      1  C   LIG d   1      -1.021  78.701 113.523  0.00  0.00     0.161 C 
ATOM      2  C   LIG d   1      -2.196  78.108 113.033  0.00  0.00     0.016 C 
ATOM      3  C   LIG d   1      -3.084  77.359 113.839  0.00  0.00     0.038 C 
ATOM      4  C   LIG d   1      -2.934  77.280 115.232  0.00  0.00     0.028 C 
ATOM      5  C   LIG d   1      -1.490  77.441 115.695  0.00  0.00    -0.047 C 
ATOM      6  C   LIG d   1      -0.898  78.720 115.061  0.00  0.00     0.091 C 
ENDROOT
BRANCH   1   7
ATOM      7  O   LIG d   1      -0.891  80.036 112.993  0.00  0.00    -0.368 OA
BRANCH   7   8
ATOM      8  C   LIG d   1       0.305  80.300 112.218  0.00  0.00     0.119 C 
BRANCH   8   9
ATOM      9  C   LIG d   1       0.638  81.796 112.377  0.00  0.00     0.028 C 
ATOM     10  C   LIG d   1      -0.466  82.707 111.813  0.00  0.00     0.006 C 
ENDBRANCH   8   9
BRANCH   8  11
ATOM     11  C   LIG d   1       0.054  80.097 110.721  0.00  0.00     0.028 C 
ATOM     12  C   LIG d   1       1.351  79.897 109.921  0.00  0.00     0.006 C 
ENDBRANCH   8  11
ENDBRANCH   7   8
ENDBRANCH   1   7
BRANCH   6  13
ATOM     13  N   LIG d   1       0.538  78.907 115.395  0.00  0.00    -0.311 N 
ATOM     14  C   LIG d   1       0.960  79.598 116.453  0.00  0.00     0.210 C 
ATOM     15  C   LIG d   1       2.483  79.684 116.602  0.00  0.00     0.109 C 
ATOM     16  O   LIG d   1       0.219  80.119 117.299  0.00  0.00    -0.276 OA
ATOM     17  H   LIG d   1       1.208  78.490 114.778  0.00  0.00     0.149 HD
ENDBRANCH   6  13
BRANCH   5  18
ATOM     18  N   LIG d   1      -1.496  77.477 117.170  0.00  0.00     0.381 N 
ATOM     19  H   LIG d   1      -0.825  76.827 117.527  0.00  0.00    -0.090 HD
ATOM     20  H   LIG d   1      -2.406  77.202 117.497  0.00  0.00    -0.090 HD
ATOM     21  H   LIG d   1      -1.283  78.396 117.489  0.00  0.00    -0.090 HD
ENDBRANCH   5  18
BRANCH   3  22
ATOM     22  C   LIG d   1      -4.115  76.646 113.247  0.00  0.00     0.382 C 
ATOM     23  O   LIG d   1      -4.819  77.183 112.358  0.00  0.00    -0.241 OA
ATOM     24  O   LIG d   1      -4.378  75.487 113.621  0.00  0.00    -0.241 OA
ENDBRANCH   3  22
TORSDOF 7
ENDMDL
MODEL 8
REMARK VINA RESULT:      -4.4      2.264      3.304
REMARK  7 active torsions:
REMARK  status: ('A' for Active; 'I' for Inactive)
REMARK    1  A    between atoms: C_2  and  C_3 
REMARK    2  A    between atoms: C_3  and  O_6 
REMARK    3  A    between atoms: C_3  and  C_4 
REMARK    4  A    between atoms: C_7  and  O_6 
REMARK    5  A    between atoms: C_9  and  C_10 
REMARK    6  A    between atoms: N_15  and  C_14 
REMARK    7  A    between atoms: N_20  and  C_19 
REMARK       I    between atoms: C_22  and  N_20 
ROOT
ATOM      1  C   LIG d   1      -2.882  77.826 115.861  0.00  0.00     0.161 C 
ATOM      2  C   LIG d   1      -3.167  77.894 114.487  0.00  0.00     0.016 C 
ATOM      3  C   LIG d   1      -2.240  78.347 113.521  0.00  0.00     0.038 C 
ATOM      4  C   LIG d   1      -0.903  78.621 113.848  0.00  0.00     0.028 C 
ATOM      5  C   LIG d   1      -0.710  79.049 115.298  0.00  0.00    -0.047 C 
ATOM      6  C   LIG d   1      -1.394  78.016 116.222  0.00  0.00     0.091 C 
ENDROOT
BRANCH   1   7
ATOM      7  O   LIG d   1      -3.375  76.584 116.402  0.00  0.00    -0.368 OA
BRANCH   7   8
ATOM      8  C   LIG d   1      -2.958  75.380 115.713  0.00  0.00     0.119 C 
BRANCH   8   9
ATOM      9  C   LIG d   1      -4.199  74.478 115.565  0.00  0.00     0.028 C 
ATOM     10  C   LIG d   1      -4.884  74.642 114.198  0.00  0.00     0.006 C 
ENDBRANCH   8   9
BRANCH   8  11
ATOM     11  C   LIG d   1      -1.967  74.571 116.556  0.00  0.00     0.028 C 
ATOM     12  C   LIG d   1      -0.542  74.590 115.981  0.00  0.00     0.006 C 
ENDBRANCH   8  11
ENDBRANCH   7   8
ENDBRANCH   1   7
BRANCH   6  13
ATOM     13  N   LIG d   1      -1.325  78.403 117.655  0.00  0.00    -0.311 N 
ATOM     14  C   LIG d   1      -0.383  77.965 118.489  0.00  0.00     0.210 C 
ATOM     15  C   LIG d   1      -0.508  78.471 119.929  0.00  0.00     0.109 C 
ATOM     16  O   LIG d   1       0.562  77.230 118.165  0.00  0.00    -0.276 OA
ATOM     17  H   LIG d   1      -2.035  79.022 117.995  0.00  0.00     0.149 HD
ENDBRANCH   6  13
BRANCH   5  18
ATOM     18  N   LIG d   1       0.741  79.169 115.538  0.00  0.00     0.381 N 
ATOM     19  H   LIG d   1       1.000  78.612 116.328  0.00  0.00    -0.090 HD
ATOM     20  H   LIG d   1       0.958  80.128 115.744  0.00  0.00    -0.090 HD
ATOM     21  H   LIG d   1       1.245  78.872 114.732  0.00  0.00    -0.090 HD
ENDBRANCH   5  18
BRANCH   3  22
ATOM     22  C   LIG d   1      -2.657  78.567 112.217  0.00  0.00     0.382 C 
ATOM     23  O   LIG d   1      -3.656  77.955 111.767  0.00  0.00    -0.241 OA
ATOM     24  O   LIG d   1      -2.023  79.337 111.472  0.00  0.00    -0.241 OA
ENDBRANCH   3  22
TORSDOF 7
ENDMDL
MODEL 9
REMARK VINA RESULT:      -4.3      2.384      5.134
REMARK  7 active torsions:
REMARK  status: ('A' for Active; 'I' for Inactive)
REMARK    1  A    between atoms: C_2  and  C_3 
REMARK    2  A    between atoms: C_3  and  O_6 
REMARK    3  A    between atoms: C_3  and  C_4 
REMARK    4  A    between atoms: C_7  and  O_6 
REMARK    5  A    between atoms: C_9  and  C_10 
REMARK    6  A    between atoms: N_15  and  C_14 
REMARK    7  A    between atoms: N_20  and  C_19 
REMARK       I    between atoms: C_22  and  N_20 
ROOT
ATOM      1  C   LIG d   1      -2.955  78.477 115.972  0.00  0.00     0.161 C 
ATOM      2  C   LIG d   1      -1.851  77.609 115.992  0.00  0.00     0.016 C 
ATOM      3  C   LIG d   1      -1.602  76.690 117.037  0.00  0.00     0.038 C 
ATOM      4  C   LIG d   1      -2.528  76.470 118.068  0.00  0.00     0.028 C 
ATOM      5  C   LIG d   1      -3.410  77.680 118.357  0.00  0.00    -0.047 C 
ATOM      6  C   LIG d   1      -4.035  78.174 117.032  0.00  0.00     0.091 C 
ENDROOT
BRANCH   1   7
ATOM      7  O   LIG d   1      -3.538  78.496 114.654  0.00  0.00    -0.368 OA
BRANCH   7   8
ATOM      8  C   LIG d   1      -3.218  77.372 113.799  0.00  0.00     0.119 C 
BRANCH   8   9
ATOM      9  C   LIG d   1      -2.904  77.931 112.398  0.00  0.00     0.028 C 
ATOM     10  C   LIG d   1      -2.453  79.401 112.440  0.00  0.00     0.006 C 
ENDBRANCH   8   9
BRANCH   8  11
ATOM     11  C   LIG d   1      -4.429  76.454 113.608  0.00  0.00     0.028 C 
ATOM     12  C   LIG d   1      -4.401  75.230 114.536  0.00  0.00     0.006 C 
ENDBRANCH   8  11
ENDBRANCH   7   8
ENDBRANCH   1   7
BRANCH   6  13
ATOM     13  N   LIG d   1      -4.846  79.406 117.213  0.00  0.00    -0.311 N 
ATOM     14  C   LIG d   1      -6.161  79.393 117.425  0.00  0.00     0.210 C 
ATOM     15  C   LIG d   1      -6.807  80.775 117.564  0.00  0.00     0.109 C 
ATOM     16  O   LIG d   1      -6.849  78.367 117.543  0.00  0.00    -0.276 OA
ATOM     17  H   LIG d   1      -4.364  80.281 117.163  0.00  0.00     0.149 HD
ENDBRANCH   6  13
BRANCH   5  18
ATOM     18  N   LIG d   1      -4.417  77.269 119.353  0.00  0.00     0.381 N 
ATOM     19  H   LIG d   1      -5.267  77.776 119.206  0.00  0.00    -0.090 HD
ATOM     20  H   LIG d   1      -4.075  77.488 120.272  0.00  0.00    -0.090 HD
ATOM     21  H   LIG d   1      -4.590  76.290 119.280  0.00  0.00    -0.090 HD
ENDBRANCH   5  18
BRANCH   3  22
ATOM     22  C   LIG d   1      -0.395  76.008 117.080  0.00  0.00     0.382 C 
ATOM     23  O   LIG d   1      -0.361  74.779 116.832  0.00  0.00    -0.241 OA
ATOM     24  O   LIG d   1       0.653  76.598 117.405  0.00  0.00    -0.241 OA
ENDBRANCH   3  22
TORSDOF 7
ENDMDL
