MODEL 1
REMARK VINA RESULT:      -5.3      0.000      0.000
REMARK  7 active torsions:
REMARK  status: ('A' for Active; 'I' for Inactive)
REMARK    1  A    between atoms: C_2  and  C_3 
REMARK    2  A    between atoms: C_3  and  O_6 
REMARK    3  A    between atoms: C_3  and  C_4 
REMARK    4  A    between atoms: C_7  and  O_6 
REMARK    5  A    between atoms: C_9  and  C_10 
REMARK    6  A    between atoms: N_15  and  C_14 
REMARK    7  A    between atoms: N_20  and  C_19 
REMARK       I    between atoms: C_22  and  N_20 
ROOT
ATOM      1  C   LIG d   1      -2.526  78.244 114.958  0.00  0.00     0.161 C 
ATOM      2  C   LIG d   1      -2.801  79.419 114.238  0.00  0.00     0.016 C 
ATOM      3  C   LIG d   1      -2.432  79.608 112.887  0.00  0.00     0.038 C 
ATOM      4  C   LIG d   1      -1.892  78.570 112.113  0.00  0.00     0.028 C 
ATOM      5  C   LIG d   1      -1.135  77.533 112.936  0.00  0.00    -0.047 C 
ATOM      6  C   LIG d   1      -2.037  77.059 114.099  0.00  0.00     0.091 C 
ENDROOT
BRANCH   1   7
ATOM      7  O   LIG d   1      -3.682  77.861 115.729  0.00  0.00    -0.368 OA
BRANCH   7   8
ATOM      8  C   LIG d   1      -3.956  78.659 116.906  0.00  0.00     0.119 C 
BRANCH   8   9
ATOM      9  C   LIG d   1      -3.302  77.951 118.108  0.00  0.00     0.028 C 
ATOM     10  C   LIG d   1      -3.832  76.521 118.307  0.00  0.00     0.006 C 
ENDBRANCH   8   9
BRANCH   8  11
ATOM     11  C   LIG d   1      -5.455  78.691 117.221  0.00  0.00     0.028 C 
ATOM     12  C   LIG d   1      -5.927  80.061 117.732  0.00  0.00     0.006 C 
ENDBRANCH   8  11
ENDBRANCH   7   8
ENDBRANCH   1   7
BRANCH   6  13
ATOM     13  N   LIG d   1      -1.342  76.105 115.002  0.00  0.00    -0.311 N 
ATOM     14  C   LIG d   1      -1.923  75.017 115.506  0.00  0.00     0.210 C 
ATOM     15  C   LIG d   1      -1.035  74.180 116.431  0.00  0.00     0.109 C 
ATOM     16  O   LIG d   1      -3.079  74.649 115.247  0.00  0.00    -0.276 OA
ATOM     17  H   LIG d   1      -0.392  76.311 115.239  0.00  0.00     0.149 HD
ENDBRANCH   6  13
BRANCH   5  18
ATOM     18  N   LIG d   1      -0.745  76.440 112.025  0.00  0.00     0.381 N 
ATOM     19  H   LIG d   1      -0.306  76.818 111.210  0.00  0.00    -0.090 HD
ATOM     20  H   LIG d   1      -1.572  75.946 111.737  0.00  0.00    -0.090 HD
ATOM     21  H   LIG d   1      -0.122  75.816 112.488  0.00  0.00    -0.090 HD
ENDBRANCH   5  18
BRANCH   3  22
ATOM     22  C   LIG d   1      -2.566  80.861 112.307  0.00  0.00     0.382 C 
ATOM     23  O   LIG d   1      -1.545  81.535 112.030  0.00  0.00    -0.241 OA
ATOM     24  O   LIG d   1      -3.695  81.343 112.098  0.00  0.00    -0.241 OA
ENDBRANCH   3  22
TORSDOF 7
ENDMDL
MODEL 2
REMARK VINA RESULT:      -5.1      2.247      3.048
REMARK  7 active torsions:
REMARK  status: ('A' for Active; 'I' for Inactive)
REMARK    1  A    between atoms: C_2  and  C_3 
REMARK    2  A    between atoms: C_3  and  O_6 
REMARK    3  A    between atoms: C_3  and  C_4 
REMARK    4  A    between atoms: C_7  and  O_6 
REMARK    5  A    between atoms: C_9  and  C_10 
REMARK    6  A    between atoms: N_15  and  C_14 
REMARK    7  A    between atoms: N_20  and  C_19 
REMARK       I    between atoms: C_22  and  N_20 
ROOT
ATOM      1  C   LIG d   1      -2.823  76.678 115.107  0.00  0.00     0.161 C 
ATOM      2  C   LIG d   1      -3.031  77.536 114.015  0.00  0.00     0.016 C 
ATOM      3  C   LIG d   1      -2.077  78.482 113.575  0.00  0.00     0.038 C 
ATOM      4  C   LIG d   1      -0.780  78.530 114.108  0.00  0.00     0.028 C 
ATOM      5  C   LIG d   1      -0.698  78.027 115.546  0.00  0.00    -0.047 C 
ATOM      6  C   LIG d   1      -1.372  76.639 115.631  0.00  0.00     0.091 C 
ENDROOT
BRANCH   1   7
ATOM      7  O   LIG d   1      -3.273  75.349 114.778  0.00  0.00    -0.368 OA
BRANCH   7   8
ATOM      8  C   LIG d   1      -4.367  74.831 115.573  0.00  0.00     0.119 C 
BRANCH   8   9
ATOM      9  C   LIG d   1      -5.524  74.502 114.610  0.00  0.00     0.028 C 
ATOM     10  C   LIG d   1      -6.344  75.747 114.232  0.00  0.00     0.006 C 
ENDBRANCH   8   9
BRANCH   8  11
ATOM     11  C   LIG d   1      -4.920  75.898 116.523  0.00  0.00     0.028 C 
ATOM     12  C   LIG d   1      -4.912  75.449 117.993  0.00  0.00     0.006 C 
ENDBRANCH   8  11
ENDBRANCH   7   8
ENDBRANCH   1   7
BRANCH   6  13
ATOM     13  N   LIG d   1      -1.410  76.112 117.021  0.00  0.00    -0.311 N 
ATOM     14  C   LIG d   1      -0.884  74.940 117.375  0.00  0.00     0.210 C 
ATOM     15  C   LIG d   1      -1.050  74.578 118.854  0.00  0.00     0.109 C 
ATOM     16  O   LIG d   1      -0.268  74.182 116.611  0.00  0.00    -0.276 OA
ATOM     17  H   LIG d   1      -1.864  76.677 117.711  0.00  0.00     0.149 HD
ENDBRANCH   6  13
BRANCH   5  18
ATOM     18  N   LIG d   1       0.727  78.002 115.928  0.00  0.00     0.381 N 
ATOM     19  H   LIG d   1       0.953  78.828 116.446  0.00  0.00    -0.090 HD
ATOM     20  H   LIG d   1       1.287  77.990 115.094  0.00  0.00    -0.090 HD
ATOM     21  H   LIG d   1       0.918  77.194 116.478  0.00  0.00    -0.090 HD
ENDBRANCH   5  18
BRANCH   3  22
ATOM     22  C   LIG d   1      -2.430  79.421 112.617  0.00  0.00     0.382 C 
ATOM     23  O   LIG d   1      -2.165  79.213 111.409  0.00  0.00    -0.241 OA
ATOM     24  O   LIG d   1      -2.970  80.492 112.952  0.00  0.00    -0.241 OA
ENDBRANCH   3  22
TORSDOF 7
ENDMDL
MODEL 3
REMARK VINA RESULT:      -4.6      2.999      4.515
REMARK  7 active torsions:
REMARK  status: ('A' for Active; 'I' for Inactive)
REMARK    1  A    between atoms: C_2  and  C_3 
REMARK    2  A    between atoms: C_3  and  O_6 
REMARK    3  A    between atoms: C_3  and  C_4 
REMARK    4  A    between atoms: C_7  and  O_6 
REMARK    5  A    between atoms: C_9  and  C_10 
REMARK    6  A    between atoms: N_15  and  C_14 
REMARK    7  A    between atoms: N_20  and  C_19 
REMARK       I    between atoms: C_22  and  N_20 
ROOT
ATOM      1  C   LIG d   1      -1.465  78.105 116.034  0.00  0.00     0.161 C 
ATOM      2  C   LIG d   1      -2.442  77.506 115.222  0.00  0.00     0.016 C 
ATOM      3  C   LIG d   1      -2.424  77.568 113.809  0.00  0.00     0.038 C 
ATOM      4  C   LIG d   1      -1.339  78.109 113.105  0.00  0.00     0.028 C 
ATOM      5  C   LIG d   1      -0.576  79.171 113.889  0.00  0.00    -0.047 C 
ATOM      6  C   LIG d   1      -0.214  78.604 115.281  0.00  0.00     0.091 C 
ENDROOT
BRANCH   1   7
ATOM      7  O   LIG d   1      -1.086  77.200 117.090  0.00  0.00    -0.368 OA
BRANCH   7   8
ATOM      8  C   LIG d   1      -1.484  75.817 116.918  0.00  0.00     0.119 C 
BRANCH   8   9
ATOM      9  C   LIG d   1      -1.943  75.294 118.293  0.00  0.00     0.028 C 
ATOM     10  C   LIG d   1      -3.291  75.893 118.729  0.00  0.00     0.006 C 
ENDBRANCH   8   9
BRANCH   8  11
ATOM     11  C   LIG d   1      -0.292  74.939 116.527  0.00  0.00     0.028 C 
ATOM     12  C   LIG d   1      -0.407  74.378 115.101  0.00  0.00     0.006 C 
ENDBRANCH   8  11
ENDBRANCH   7   8
ENDBRANCH   1   7
BRANCH   6  13
ATOM     13  N   LIG d   1       0.461  79.608 116.144  0.00  0.00    -0.311 N 
ATOM     14  C   LIG d   1       1.779  79.793 116.160  0.00  0.00     0.210 C 
ATOM     15  C   LIG d   1       2.270  80.865 117.138  0.00  0.00     0.109 C 
ATOM     16  O   LIG d   1       2.587  79.194 115.433  0.00  0.00    -0.276 OA
ATOM     17  H   LIG d   1      -0.122  80.159 116.743  0.00  0.00     0.149 HD
ENDBRANCH   6  13
BRANCH   5  18
ATOM     18  N   LIG d   1       0.607  79.549 113.093  0.00  0.00     0.381 N 
ATOM     19  H   LIG d   1       1.125  80.259 113.572  0.00  0.00    -0.090 HD
ATOM     20  H   LIG d   1       0.301  79.922 112.212  0.00  0.00    -0.090 HD
ATOM     21  H   LIG d   1       1.185  78.752 112.942  0.00  0.00    -0.090 HD
ENDBRANCH   5  18
BRANCH   3  22
ATOM     22  C   LIG d   1      -3.521  77.121 113.088  0.00  0.00     0.382 C 
ATOM     23  O   LIG d   1      -3.720  77.544 111.924  0.00  0.00    -0.241 OA
ATOM     24  O   LIG d   1      -4.337  76.334 113.603  0.00  0.00    -0.241 OA
ENDBRANCH   3  22
TORSDOF 7
ENDMDL
MODEL 4
REMARK VINA RESULT:      -4.6      2.823      5.529
REMARK  7 active torsions:
REMARK  status: ('A' for Active; 'I' for Inactive)
REMARK    1  A    between atoms: C_2  and  C_3 
REMARK    2  A    between atoms: C_3  and  O_6 
REMARK    3  A    between atoms: C_3  and  C_4 
REMARK    4  A    between atoms: C_7  and  O_6 
REMARK    5  A    between atoms: C_9  and  C_10 
REMARK    6  A    between atoms: N_15  and  C_14 
REMARK    7  A    between atoms: N_20  and  C_19 
REMARK       I    between atoms: C_22  and  N_20 
ROOT
ATOM      1  C   LIG d   1      -1.115  75.734 115.300  0.00  0.00     0.161 C 
ATOM      2  C   LIG d   1      -0.672  75.177 116.511  0.00  0.00     0.016 C 
ATOM      3  C   LIG d   1      -0.070  75.934 117.543  0.00  0.00     0.038 C 
ATOM      4  C   LIG d   1      -0.007  77.334 117.494  0.00  0.00     0.028 C 
ATOM      5  C   LIG d   1       0.017  77.890 116.074  0.00  0.00    -0.047 C 
ATOM      6  C   LIG d   1      -1.155  77.277 115.275  0.00  0.00     0.091 C 
ENDROOT
BRANCH   1   7
ATOM      7  O   LIG d   1      -2.406  75.194 114.957  0.00  0.00    -0.368 OA
BRANCH   7   8
ATOM      8  C   LIG d   1      -3.553  75.877 115.518  0.00  0.00     0.119 C 
BRANCH   8   9
ATOM      9  C   LIG d   1      -4.150  74.963 116.606  0.00  0.00     0.028 C 
ATOM     10  C   LIG d   1      -4.076  75.593 118.007  0.00  0.00     0.006 C 
ENDBRANCH   8   9
BRANCH   8  11
ATOM     11  C   LIG d   1      -4.665  76.048 114.478  0.00  0.00     0.028 C 
ATOM     12  C   LIG d   1      -5.742  74.956 114.573  0.00  0.00     0.006 C 
ENDBRANCH   8  11
ENDBRANCH   7   8
ENDBRANCH   1   7
BRANCH   6  13
ATOM     13  N   LIG d   1      -1.155  77.703 113.851  0.00  0.00    -0.311 N 
ATOM     14  C   LIG d   1      -1.886  78.717 113.390  0.00  0.00     0.210 C 
ATOM     15  C   LIG d   1      -1.754  78.977 111.886  0.00  0.00     0.109 C 
ATOM     16  O   LIG d   1      -2.605  79.446 114.089  0.00  0.00    -0.276 OA
ATOM     17  H   LIG d   1      -0.575  77.186 113.220  0.00  0.00     0.149 HD
ENDBRANCH   6  13
BRANCH   5  18
ATOM     18  N   LIG d   1      -0.056  79.361 116.170  0.00  0.00     0.381 N 
ATOM     19  H   LIG d   1      -0.431  79.624 117.060  0.00  0.00    -0.090 HD
ATOM     20  H   LIG d   1      -0.672  79.703 115.455  0.00  0.00    -0.090 HD
ATOM     21  H   LIG d   1       0.852  79.755 116.054  0.00  0.00    -0.090 HD
ENDBRANCH   5  18
BRANCH   3  22
ATOM     22  C   LIG d   1       0.513  75.285 118.621  0.00  0.00     0.382 C 
ATOM     23  O   LIG d   1       1.689  75.562 118.958  0.00  0.00    -0.241 OA
ATOM     24  O   LIG d   1      -0.107  74.395 119.233  0.00  0.00    -0.241 OA
ENDBRANCH   3  22
TORSDOF 7
ENDMDL
MODEL 5
REMARK VINA RESULT:      -4.5      2.809      5.519
REMARK  7 active torsions:
REMARK  status: ('A' for Active; 'I' for Inactive)
REMARK    1  A    between atoms: C_2  and  C_3 
REMARK    2  A    between atoms: C_3  and  O_6 
REMARK    3  A    between atoms: C_3  and  C_4 
REMARK    4  A    between atoms: C_7  and  O_6 
REMARK    5  A    between atoms: C_9  and  C_10 
REMARK    6  A    between atoms: N_15  and  C_14 
REMARK    7  A    between atoms: N_20  and  C_19 
REMARK       I    between atoms: C_22  and  N_20 
ROOT
ATOM      1  C   LIG d   1      -1.408  77.709 114.586  0.00  0.00     0.161 C 
ATOM      2  C   LIG d   1      -2.719  77.288 114.310  0.00  0.00     0.016 C 
ATOM      3  C   LIG d   1      -3.544  76.640 115.258  0.00  0.00     0.038 C 
ATOM      4  C   LIG d   1      -3.165  76.505 116.601  0.00  0.00     0.028 C 
ATOM      5  C   LIG d   1      -1.654  76.463 116.803  0.00  0.00    -0.047 C 
ATOM      6  C   LIG d   1      -1.017  77.670 116.079  0.00  0.00     0.091 C 
ENDROOT
BRANCH   1   7
ATOM      7  O   LIG d   1      -1.195  79.029 114.047  0.00  0.00    -0.368 OA
BRANCH   7   8
ATOM      8  C   LIG d   1      -0.602  79.090 112.727  0.00  0.00     0.119 C 
BRANCH   8   9
ATOM      9  C   LIG d   1       0.639  79.999 112.818  0.00  0.00     0.028 C 
ATOM     10  C   LIG d   1       1.014  80.618 111.461  0.00  0.00     0.006 C 
ENDBRANCH   8   9
BRANCH   8  11
ATOM     11  C   LIG d   1      -1.536  79.778 111.727  0.00  0.00     0.028 C 
ATOM     12  C   LIG d   1      -2.614  80.634 112.412  0.00  0.00     0.006 C 
ENDBRANCH   8  11
ENDBRANCH   7   8
ENDBRANCH   1   7
BRANCH   6  13
ATOM     13  N   LIG d   1       0.467  77.659 116.155  0.00  0.00    -0.311 N 
ATOM     14  C   LIG d   1       1.199  78.752 116.363  0.00  0.00     0.210 C 
ATOM     15  C   LIG d   1       2.713  78.521 116.387  0.00  0.00     0.109 C 
ATOM     16  O   LIG d   1       0.737  79.885 116.563  0.00  0.00    -0.276 OA
ATOM     17  H   LIG d   1       0.923  76.775 116.035  0.00  0.00     0.149 HD
ENDBRANCH   6  13
BRANCH   5  18
ATOM     18  N   LIG d   1      -1.399  76.459 118.256  0.00  0.00     0.381 N 
ATOM     19  H   LIG d   1      -0.455  76.178 118.433  0.00  0.00    -0.090 HD
ATOM     20  H   LIG d   1      -2.013  75.795 118.693  0.00  0.00    -0.090 HD
ATOM     21  H   LIG d   1      -1.559  77.368 118.633  0.00  0.00    -0.090 HD
ENDBRANCH   5  18
BRANCH   3  22
ATOM     22  C   LIG d   1      -4.749  76.084 114.854  0.00  0.00     0.382 C 
ATOM     23  O   LIG d   1      -5.822  76.702 115.053  0.00  0.00    -0.241 OA
ATOM     24  O   LIG d   1      -4.779  74.953 114.333  0.00  0.00    -0.241 OA
ENDBRANCH   3  22
TORSDOF 7
ENDMDL
MODEL 6
REMARK VINA RESULT:      -4.5      2.935      3.916
REMARK  7 active torsions:
REMARK  status: ('A' for Active; 'I' for Inactive)
REMARK    1  A    between atoms: C_2  and  C_3 
REMARK    2  A    between atoms: C_3  and  O_6 
REMARK    3  A    between atoms: C_3  and  C_4 
REMARK    4  A    between atoms: C_7  and  O_6 
REMARK    5  A    between atoms: C_9  and  C_10 
REMARK    6  A    between atoms: N_15  and  C_14 
REMARK    7  A    between atoms: N_20  and  C_19 
REMARK       I    between atoms: C_22  and  N_20 
ROOT
ATOM      1  C   LIG d   1      -3.630  77.831 116.842  0.00  0.00     0.161 C 
ATOM      2  C   LIG d   1      -2.702  78.775 117.311  0.00  0.00     0.016 C 
ATOM      3  C   LIG d   1      -1.340  78.781 116.932  0.00  0.00     0.038 C 
ATOM      4  C   LIG d   1      -0.844  77.929 115.934  0.00  0.00     0.028 C 
ATOM      5  C   LIG d   1      -1.629  76.629 115.802  0.00  0.00    -0.047 C 
ATOM      6  C   LIG d   1      -3.133  76.962 115.668  0.00  0.00     0.091 C 
ENDROOT
BRANCH   1   7
ATOM      7  O   LIG d   1      -4.863  78.490 116.490  0.00  0.00    -0.368 OA
BRANCH   7   8
ATOM      8  C   LIG d   1      -6.064  77.967 117.108  0.00  0.00     0.119 C 
BRANCH   8   9
ATOM      9  C   LIG d   1      -6.921  79.171 117.545  0.00  0.00     0.028 C 
ATOM     10  C   LIG d   1      -6.127  80.488 117.545  0.00  0.00     0.006 C 
ENDBRANCH   8   9
BRANCH   8  11
ATOM     11  C   LIG d   1      -5.742  77.208 118.399  0.00  0.00     0.028 C 
ATOM     12  C   LIG d   1      -6.323  75.786 118.415  0.00  0.00     0.006 C 
ENDBRANCH   8  11
ENDBRANCH   7   8
ENDBRANCH   1   7
BRANCH   6  13
ATOM     13  N   LIG d   1      -3.981  75.743 115.618  0.00  0.00    -0.311 N 
ATOM     14  C   LIG d   1      -4.834  75.483 114.629  0.00  0.00     0.210 C 
ATOM     15  C   LIG d   1      -5.626  74.181 114.784  0.00  0.00     0.109 C 
ATOM     16  O   LIG d   1      -4.985  76.190 113.621  0.00  0.00    -0.276 OA
ATOM     17  H   LIG d   1      -3.899  75.099 116.381  0.00  0.00     0.149 HD
ENDBRANCH   6  13
BRANCH   5  18
ATOM     18  N   LIG d   1      -1.092  75.899 114.638  0.00  0.00     0.381 N 
ATOM     19  H   LIG d   1      -1.123  74.915 114.812  0.00  0.00    -0.090 HD
ATOM     20  H   LIG d   1      -0.133  76.166 114.502  0.00  0.00    -0.090 HD
ATOM     21  H   LIG d   1      -1.623  76.117 113.824  0.00  0.00    -0.090 HD
ENDBRANCH   5  18
BRANCH   3  22
ATOM     22  C   LIG d   1      -0.449  79.621 117.583  0.00  0.00     0.382 C 
ATOM     23  O   LIG d   1       0.391  80.278 116.922  0.00  0.00    -0.241 OA
ATOM     24  O   LIG d   1      -0.447  79.698 118.826  0.00  0.00    -0.241 OA
ENDBRANCH   3  22
TORSDOF 7
ENDMDL
MODEL 7
REMARK VINA RESULT:      -4.5      3.282      5.565
REMARK  7 active torsions:
REMARK  status: ('A' for Active; 'I' for Inactive)
REMARK    1  A    between atoms: C_2  and  C_3 
REMARK    2  A    between atoms: C_3  and  O_6 
REMARK    3  A    between atoms: C_3  and  C_4 
REMARK    4  A    between atoms: C_7  and  O_6 
REMARK    5  A    between atoms: C_9  and  C_10 
REMARK    6  A    between atoms: N_15  and  C_14 
REMARK    7  A    between atoms: N_20  and  C_19 
REMARK       I    between atoms: C_22  and  N_20 
ROOT
ATOM      1  C   LIG d   1      -0.428  79.355 114.238  0.00  0.00     0.161 C 
ATOM      2  C   LIG d   1      -1.250  78.260 114.552  0.00  0.00     0.016 C 
ATOM      3  C   LIG d   1      -1.914  77.480 113.576  0.00  0.00     0.038 C 
ATOM      4  C   LIG d   1      -1.677  77.652 112.204  0.00  0.00     0.028 C 
ATOM      5  C   LIG d   1      -1.249  79.068 111.835  0.00  0.00    -0.047 C 
ATOM      6  C   LIG d   1      -0.070  79.488 112.743  0.00  0.00     0.091 C 
ENDROOT
BRANCH   1   7
ATOM      7  O   LIG d   1       0.770  79.311 115.038  0.00  0.00    -0.368 OA
BRANCH   7   8
ATOM      8  C   LIG d   1       0.623  78.778 116.377  0.00  0.00     0.119 C 
BRANCH   8   9
ATOM      9  C   LIG d   1       0.623  79.970 117.353  0.00  0.00     0.028 C 
ATOM     10  C   LIG d   1      -0.662  80.038 118.196  0.00  0.00     0.006 C 
ENDBRANCH   8   9
BRANCH   8  11
ATOM     11  C   LIG d   1       1.834  77.928 116.774  0.00  0.00     0.028 C 
ATOM     12  C   LIG d   1       1.445  76.514 117.234  0.00  0.00     0.006 C 
ENDBRANCH   8  11
ENDBRANCH   7   8
ENDBRANCH   1   7
BRANCH   6  13
ATOM     13  N   LIG d   1       0.356  80.892 112.506  0.00  0.00    -0.311 N 
ATOM     14  C   LIG d   1       1.388  81.224 111.733  0.00  0.00     0.210 C 
ATOM     15  C   LIG d   1       1.669  82.727 111.640  0.00  0.00     0.109 C 
ATOM     16  O   LIG d   1       2.079  80.419 111.091  0.00  0.00    -0.276 OA
ATOM     17  H   LIG d   1      -0.169  81.611 112.964  0.00  0.00     0.149 HD
ENDBRANCH   6  13
BRANCH   5  18
ATOM     18  N   LIG d   1      -0.903  79.070 110.401  0.00  0.00     0.381 N 
ATOM     19  H   LIG d   1      -1.718  79.274 109.857  0.00  0.00    -0.090 HD
ATOM     20  H   LIG d   1      -0.574  78.156 110.145  0.00  0.00    -0.090 HD
ATOM     21  H   LIG d   1      -0.196  79.749 110.222  0.00  0.00    -0.090 HD
ENDBRANCH   5  18
BRANCH   3  22
ATOM     22  C   LIG d   1      -2.856  76.542 113.970  0.00  0.00     0.382 C 
ATOM     23  O   LIG d   1      -4.010  76.569 113.479  0.00  0.00    -0.241 OA
ATOM     24  O   LIG d   1      -2.579  75.697 114.843  0.00  0.00    -0.241 OA
ENDBRANCH   3  22
TORSDOF 7
ENDMDL
MODEL 8
REMARK VINA RESULT:      -4.5      2.660      5.498
REMARK  7 active torsions:
REMARK  status: ('A' for Active; 'I' for Inactive)
REMARK    1  A    between atoms: C_2  and  C_3 
REMARK    2  A    between atoms: C_3  and  O_6 
REMARK    3  A    between atoms: C_3  and  C_4 
REMARK    4  A    between atoms: C_7  and  O_6 
REMARK    5  A    between atoms: C_9  and  C_10 
REMARK    6  A    between atoms: N_15  and  C_14 
REMARK    7  A    between atoms: N_20  and  C_19 
REMARK       I    between atoms: C_22  and  N_20 
ROOT
ATOM      1  C   LIG d   1      -1.886  75.712 115.173  0.00  0.00     0.161 C 
ATOM      2  C   LIG d   1      -1.704  75.090 116.420  0.00  0.00     0.016 C 
ATOM      3  C   LIG d   1      -1.077  75.720 117.519  0.00  0.00     0.038 C 
ATOM      4  C   LIG d   1      -0.722  77.077 117.493  0.00  0.00     0.028 C 
ATOM      5  C   LIG d   1      -0.427  77.598 116.090  0.00  0.00    -0.047 C 
ATOM      6  C   LIG d   1      -1.605  77.229 115.160  0.00  0.00     0.091 C 
ENDROOT
BRANCH   1   7
ATOM      7  O   LIG d   1      -3.214  75.444 114.682  0.00  0.00    -0.368 OA
BRANCH   7   8
ATOM      8  C   LIG d   1      -4.231  75.212 115.688  0.00  0.00     0.119 C 
BRANCH   8   9
ATOM      9  C   LIG d   1      -5.222  74.180 115.116  0.00  0.00     0.028 C 
ATOM     10  C   LIG d   1      -6.566  74.180 115.863  0.00  0.00     0.006 C 
ENDBRANCH   8   9
BRANCH   8  11
ATOM     11  C   LIG d   1      -5.061  76.474 115.943  0.00  0.00     0.028 C 
ATOM     12  C   LIG d   1      -4.798  77.091 117.325  0.00  0.00     0.006 C 
ENDBRANCH   8  11
ENDBRANCH   7   8
ENDBRANCH   1   7
BRANCH   6  13
ATOM     13  N   LIG d   1      -1.359  77.629 113.749  0.00  0.00    -0.311 N 
ATOM     14  C   LIG d   1      -1.853  78.740 113.206  0.00  0.00     0.210 C 
ATOM     15  C   LIG d   1      -1.496  78.952 111.731  0.00  0.00     0.109 C 
ATOM     16  O   LIG d   1      -2.526  79.586 113.813  0.00  0.00    -0.276 OA
ATOM     17  H   LIG d   1      -0.797  77.015 113.193  0.00  0.00     0.149 HD
ENDBRANCH   6  13
BRANCH   5  18
ATOM     18  N   LIG d   1      -0.206  79.053 116.193  0.00  0.00     0.381 N 
ATOM     19  H   LIG d   1      -0.075  79.309 117.152  0.00  0.00    -0.090 HD
ATOM     20  H   LIG d   1      -1.020  79.531 115.848  0.00  0.00    -0.090 HD
ATOM     21  H   LIG d   1       0.594  79.315 115.660  0.00  0.00    -0.090 HD
ENDBRANCH   5  18
BRANCH   3  22
ATOM     22  C   LIG d   1      -0.764  74.979 118.648  0.00  0.00     0.382 C 
ATOM     23  O   LIG d   1      -1.529  74.996 119.642  0.00  0.00    -0.241 OA
ATOM     24  O   LIG d   1       0.297  74.328 118.703  0.00  0.00    -0.241 OA
ENDBRANCH   3  22
TORSDOF 7
ENDMDL
MODEL 9
REMARK VINA RESULT:      -4.4      2.608      3.392
REMARK  7 active torsions:
REMARK  status: ('A' for Active; 'I' for Inactive)
REMARK    1  A    between atoms: C_2  and  C_3 
REMARK    2  A    between atoms: C_3  and  O_6 
REMARK    3  A    between atoms: C_3  and  C_4 
REMARK    4  A    between atoms: C_7  and  O_6 
REMARK    5  A    between atoms: C_9  and  C_10 
REMARK    6  A    between atoms: N_15  and  C_14 
REMARK    7  A    between atoms: N_20  and  C_19 
REMARK       I    between atoms: C_22  and  N_20 
ROOT
ATOM      1  C   LIG d   1      -0.831  78.519 114.335  0.00  0.00     0.161 C 
ATOM      2  C   LIG d   1      -0.063  79.358 113.510  0.00  0.00     0.016 C 
ATOM      3  C   LIG d   1      -0.391  79.638 112.164  0.00  0.00     0.038 C 
ATOM      4  C   LIG d   1      -1.600  79.216 111.592  0.00  0.00     0.028 C 
ATOM      5  C   LIG d   1      -2.161  77.949 112.229  0.00  0.00    -0.047 C 
ATOM      6  C   LIG d   1      -2.212  78.138 113.762  0.00  0.00     0.091 C 
ENDROOT
BRANCH   1   7
ATOM      7  O   LIG d   1      -0.976  79.116 115.639  0.00  0.00    -0.368 OA
BRANCH   7   8
ATOM      8  C   LIG d   1       0.136  78.935 116.549  0.00  0.00     0.119 C 
BRANCH   8   9
ATOM      9  C   LIG d   1       0.278  77.424 116.813  0.00  0.00     0.028 C 
ATOM     10  C   LIG d   1      -0.778  76.899 117.800  0.00  0.00     0.006 C 
ENDBRANCH   8   9
BRANCH   8  11
ATOM     11  C   LIG d   1      -0.156  79.560 117.917  0.00  0.00     0.028 C 
ATOM     12  C   LIG d   1       0.466  80.956 118.079  0.00  0.00     0.006 C 
ENDBRANCH   8  11
ENDBRANCH   7   8
ENDBRANCH   1   7
BRANCH   6  13
ATOM     13  N   LIG d   1      -2.670  76.914 114.470  0.00  0.00    -0.311 N 
ATOM     14  C   LIG d   1      -3.635  76.916 115.388  0.00  0.00     0.210 C 
ATOM     15  C   LIG d   1      -3.939  75.549 116.009  0.00  0.00     0.109 C 
ATOM     16  O   LIG d   1      -4.290  77.914 115.724  0.00  0.00    -0.276 OA
ATOM     17  H   LIG d   1      -2.214  76.054 114.236  0.00  0.00     0.149 HD
ENDBRANCH   6  13
BRANCH   5  18
ATOM     18  N   LIG d   1      -3.487  77.700 111.633  0.00  0.00     0.381 N 
ATOM     19  H   LIG d   1      -4.203  77.913 112.298  0.00  0.00    -0.090 HD
ATOM     20  H   LIG d   1      -3.559  76.726 111.394  0.00  0.00    -0.090 HD
ATOM     21  H   LIG d   1      -3.605  78.259 110.817  0.00  0.00    -0.090 HD
ENDBRANCH   5  18
BRANCH   3  22
ATOM     22  C   LIG d   1       0.515  80.316 111.362  0.00  0.00     0.382 C 
ATOM     23  O   LIG d   1       0.142  80.804 110.268  0.00  0.00    -0.241 OA
ATOM     24  O   LIG d   1       1.711  80.407 111.698  0.00  0.00    -0.241 OA
ENDBRANCH   3  22
TORSDOF 7
ENDMDL
