MODEL 1
REMARK VINA RESULT:      -5.1      0.000      0.000
REMARK  7 active torsions:
REMARK  status: ('A' for Active; 'I' for Inactive)
REMARK    1  A    between atoms: C_2  and  C_3 
REMARK    2  A    between atoms: C_3  and  O_6 
REMARK    3  A    between atoms: C_3  and  C_4 
REMARK    4  A    between atoms: C_7  and  O_6 
REMARK    5  A    between atoms: C_9  and  C_10 
REMARK    6  A    between atoms: N_15  and  C_14 
REMARK    7  A    between atoms: N_20  and  C_19 
REMARK       I    between atoms: C_22  and  N_20 
ROOT
ATOM      1  C   LIG d   1      -3.035  77.126 116.612  0.00  0.00     0.161 C 
ATOM      2  C   LIG d   1      -3.776  78.249 117.015  0.00  0.00     0.016 C 
ATOM      3  C   LIG d   1      -3.479  79.568 116.601  0.00  0.00     0.038 C 
ATOM      4  C   LIG d   1      -2.505  79.837 115.628  0.00  0.00     0.028 C 
ATOM      5  C   LIG d   1      -1.398  78.791 115.573  0.00  0.00    -0.047 C 
ATOM      6  C   LIG d   1      -2.038  77.388 115.463  0.00  0.00     0.091 C 
ENDROOT
BRANCH   1   7
ATOM      7  O   LIG d   1      -3.928  76.050 116.265  0.00  0.00    -0.368 OA
BRANCH   7   8
ATOM      8  C   LIG d   1      -5.142  76.428 115.570  0.00  0.00     0.119 C 
BRANCH   8   9
ATOM      9  C   LIG d   1      -6.318  75.728 116.278  0.00  0.00     0.028 C 
ATOM     10  C   LIG d   1      -7.019  76.644 117.295  0.00  0.00     0.006 C 
ENDBRANCH   8   9
BRANCH   8  11
ATOM     11  C   LIG d   1      -5.154  75.889 114.136  0.00  0.00     0.028 C 
ATOM     12  C   LIG d   1      -5.160  74.353 114.076  0.00  0.00     0.006 C 
ENDBRANCH   8  11
ENDBRANCH   7   8
ENDBRANCH   1   7
BRANCH   6  13
ATOM     13  N   LIG d   1      -1.026  76.300 115.489  0.00  0.00    -0.311 N 
ATOM     14  C   LIG d   1      -0.476  75.785 114.391  0.00  0.00     0.210 C 
ATOM     15  C   LIG d   1       0.530  74.657 114.640  0.00  0.00     0.109 C 
ATOM     16  O   LIG d   1      -0.700  76.177 113.236  0.00  0.00    -0.276 OA
ATOM     17  H   LIG d   1      -0.762  75.943 116.387  0.00  0.00     0.149 HD
ENDBRANCH   6  13
BRANCH   5  18
ATOM     18  N   LIG d   1      -0.529  79.121 114.428  0.00  0.00     0.381 N 
ATOM     19  H   LIG d   1       0.334  78.621 114.502  0.00  0.00    -0.090 HD
ATOM     20  H   LIG d   1      -0.326  80.105 114.447  0.00  0.00    -0.090 HD
ATOM     21  H   LIG d   1      -0.985  78.885 113.574  0.00  0.00    -0.090 HD
ENDBRANCH   5  18
BRANCH   3  22
ATOM     22  C   LIG d   1      -4.134  80.638 117.192  0.00  0.00     0.382 C 
ATOM     23  O   LIG d   1      -5.382  80.619 117.314  0.00  0.00    -0.241 OA
ATOM     24  O   LIG d   1      -3.496  81.641 117.565  0.00  0.00    -0.241 OA
ENDBRANCH   3  22
TORSDOF 7
ENDMDL
MODEL 2
REMARK VINA RESULT:      -5.0      5.510      7.747
REMARK  7 active torsions:
REMARK  status: ('A' for Active; 'I' for Inactive)
REMARK    1  A    between atoms: C_2  and  C_3 
REMARK    2  A    between atoms: C_3  and  O_6 
REMARK    3  A    between atoms: C_3  and  C_4 
REMARK    4  A    between atoms: C_7  and  O_6 
REMARK    5  A    between atoms: C_9  and  C_10 
REMARK    6  A    between atoms: N_15  and  C_14 
REMARK    7  A    between atoms: N_20  and  C_19 
REMARK       I    between atoms: C_22  and  N_20 
ROOT
ATOM      1  C   LIG d   1       0.558  81.837 113.056  0.00  0.00     0.161 C 
ATOM      2  C   LIG d   1       1.457  82.823 112.616  0.00  0.00     0.016 C 
ATOM      3  C   LIG d   1       1.874  82.951 111.271  0.00  0.00     0.038 C 
ATOM      4  C   LIG d   1       1.300  82.191 110.241  0.00  0.00     0.028 C 
ATOM      5  C   LIG d   1       0.762  80.843 110.711  0.00  0.00    -0.047 C 
ATOM      6  C   LIG d   1      -0.163  81.070 111.929  0.00  0.00     0.091 C 
ENDROOT
BRANCH   1   7
ATOM      7  O   LIG d   1      -0.402  82.420 113.960  0.00  0.00    -0.368 OA
BRANCH   7   8
ATOM      8  C   LIG d   1      -0.159  82.207 115.372  0.00  0.00     0.119 C 
BRANCH   8   9
ATOM      9  C   LIG d   1      -1.522  81.953 116.043  0.00  0.00     0.028 C 
ATOM     10  C   LIG d   1      -2.638  82.836 115.458  0.00  0.00     0.006 C 
ENDBRANCH   8   9
BRANCH   8  11
ATOM     11  C   LIG d   1       0.393  83.470 116.039  0.00  0.00     0.028 C 
ATOM     12  C   LIG d   1       1.673  83.207 116.848  0.00  0.00     0.006 C 
ENDBRANCH   8  11
ENDBRANCH   7   8
ENDBRANCH   1   7
BRANCH   6  13
ATOM     13  N   LIG d   1      -0.666  79.795 112.503  0.00  0.00    -0.311 N 
ATOM     14  C   LIG d   1      -1.955  79.554 112.736  0.00  0.00     0.210 C 
ATOM     15  C   LIG d   1      -2.256  78.183 113.351  0.00  0.00     0.109 C 
ATOM     16  O   LIG d   1      -2.881  80.332 112.462  0.00  0.00    -0.276 OA
ATOM     17  H   LIG d   1       0.014  79.095 112.726  0.00  0.00     0.149 HD
ENDBRANCH   6  13
BRANCH   5  18
ATOM     18  N   LIG d   1       0.071  80.217 109.568  0.00  0.00     0.381 N 
ATOM     19  H   LIG d   1      -0.046  80.887 108.834  0.00  0.00    -0.090 HD
ATOM     20  H   LIG d   1      -0.840  79.913 109.866  0.00  0.00    -0.090 HD
ATOM     21  H   LIG d   1       0.596  79.438 109.237  0.00  0.00    -0.090 HD
ENDBRANCH   5  18
BRANCH   3  22
ATOM     22  C   LIG d   1       2.906  83.821 110.951  0.00  0.00     0.382 C 
ATOM     23  O   LIG d   1       3.337  83.876 109.774  0.00  0.00    -0.241 OA
ATOM     24  O   LIG d   1       3.440  84.519 111.834  0.00  0.00    -0.241 OA
ENDBRANCH   3  22
TORSDOF 7
ENDMDL
MODEL 3
REMARK VINA RESULT:      -5.0      4.741      7.764
REMARK  7 active torsions:
REMARK  status: ('A' for Active; 'I' for Inactive)
REMARK    1  A    between atoms: C_2  and  C_3 
REMARK    2  A    between atoms: C_3  and  O_6 
REMARK    3  A    between atoms: C_3  and  C_4 
REMARK    4  A    between atoms: C_7  and  O_6 
REMARK    5  A    between atoms: C_9  and  C_10 
REMARK    6  A    between atoms: N_15  and  C_14 
REMARK    7  A    between atoms: N_20  and  C_19 
REMARK       I    between atoms: C_22  and  N_20 
ROOT
ATOM      1  C   LIG d   1      -0.590  80.953 112.461  0.00  0.00     0.161 C 
ATOM      2  C   LIG d   1      -1.264  79.754 112.171  0.00  0.00     0.016 C 
ATOM      3  C   LIG d   1      -2.112  79.096 113.091  0.00  0.00     0.038 C 
ATOM      4  C   LIG d   1      -2.466  79.675 114.318  0.00  0.00     0.028 C 
ATOM      5  C   LIG d   1      -1.415  80.639 114.859  0.00  0.00    -0.047 C 
ATOM      6  C   LIG d   1      -1.051  81.657 113.754  0.00  0.00     0.091 C 
ENDROOT
BRANCH   1   7
ATOM      7  O   LIG d   1      -0.688  81.852 111.339  0.00  0.00    -0.368 OA
BRANCH   7   8
ATOM      8  C   LIG d   1       0.507  81.997 110.533  0.00  0.00     0.119 C 
BRANCH   8   9
ATOM      9  C   LIG d   1       1.663  81.317 111.291  0.00  0.00     0.028 C 
ATOM     10  C   LIG d   1       2.988  81.371 110.513  0.00  0.00     0.006 C 
ENDBRANCH   8   9
BRANCH   8  11
ATOM     11  C   LIG d   1       0.917  83.467 110.403  0.00  0.00     0.028 C 
ATOM     12  C   LIG d   1      -0.289  84.417 110.323  0.00  0.00     0.006 C 
ENDBRANCH   8  11
ENDBRANCH   7   8
ENDBRANCH   1   7
BRANCH   6  13
ATOM     13  N   LIG d   1       0.032  82.584 114.172  0.00  0.00    -0.311 N 
ATOM     14  C   LIG d   1      -0.072  83.910 114.107  0.00  0.00     0.210 C 
ATOM     15  C   LIG d   1       1.169  84.680 114.569  0.00  0.00     0.109 C 
ATOM     16  O   LIG d   1      -1.086  84.523 113.741  0.00  0.00    -0.276 OA
ATOM     17  H   LIG d   1       0.879  82.172 114.512  0.00  0.00     0.149 HD
ENDBRANCH   6  13
BRANCH   5  18
ATOM     18  N   LIG d   1      -1.971  81.272 116.069  0.00  0.00     0.381 N 
ATOM     19  H   LIG d   1      -2.876  80.893 116.265  0.00  0.00    -0.090 HD
ATOM     20  H   LIG d   1      -2.073  82.258 115.903  0.00  0.00    -0.090 HD
ATOM     21  H   LIG d   1      -1.364  81.120 116.844  0.00  0.00    -0.090 HD
ENDBRANCH   5  18
BRANCH   3  22
ATOM     22  C   LIG d   1      -2.585  77.825 112.801  0.00  0.00     0.382 C 
ATOM     23  O   LIG d   1      -3.648  77.685 112.150  0.00  0.00    -0.241 OA
ATOM     24  O   LIG d   1      -1.985  76.818 113.222  0.00  0.00    -0.241 OA
ENDBRANCH   3  22
TORSDOF 7
ENDMDL
MODEL 4
REMARK VINA RESULT:      -5.0      2.944      4.585
REMARK  7 active torsions:
REMARK  status: ('A' for Active; 'I' for Inactive)
REMARK    1  A    between atoms: C_2  and  C_3 
REMARK    2  A    between atoms: C_3  and  O_6 
REMARK    3  A    between atoms: C_3  and  C_4 
REMARK    4  A    between atoms: C_7  and  O_6 
REMARK    5  A    between atoms: C_9  and  C_10 
REMARK    6  A    between atoms: N_15  and  C_14 
REMARK    7  A    between atoms: N_20  and  C_19 
REMARK       I    between atoms: C_22  and  N_20 
ROOT
ATOM      1  C   LIG d   1      -0.801  80.615 115.329  0.00  0.00     0.161 C 
ATOM      2  C   LIG d   1      -0.838  81.998 115.082  0.00  0.00     0.016 C 
ATOM      3  C   LIG d   1      -0.944  82.554 113.786  0.00  0.00     0.038 C 
ATOM      4  C   LIG d   1      -1.172  81.759 112.654  0.00  0.00     0.028 C 
ATOM      5  C   LIG d   1      -0.636  80.338 112.794  0.00  0.00    -0.047 C 
ATOM      6  C   LIG d   1      -1.161  79.732 114.116  0.00  0.00     0.091 C 
ENDROOT
BRANCH   1   7
ATOM      7  O   LIG d   1      -1.648  80.296 116.450  0.00  0.00    -0.368 OA
BRANCH   7   8
ATOM      8  C   LIG d   1      -3.074  80.315 116.197  0.00  0.00     0.119 C 
BRANCH   8   9
ATOM      9  C   LIG d   1      -3.694  81.383 117.119  0.00  0.00     0.028 C 
ATOM     10  C   LIG d   1      -2.800  81.704 118.328  0.00  0.00     0.006 C 
ENDBRANCH   8   9
BRANCH   8  11
ATOM     11  C   LIG d   1      -3.731  78.994 116.608  0.00  0.00     0.028 C 
ATOM     12  C   LIG d   1      -2.762  78.047 117.333  0.00  0.00     0.006 C 
ENDBRANCH   8  11
ENDBRANCH   7   8
ENDBRANCH   1   7
BRANCH   6  13
ATOM     13  N   LIG d   1      -0.616  78.373 114.372  0.00  0.00    -0.311 N 
ATOM     14  C   LIG d   1      -1.244  77.253 114.019  0.00  0.00     0.210 C 
ATOM     15  C   LIG d   1      -0.517  75.958 114.395  0.00  0.00     0.109 C 
ATOM     16  O   LIG d   1      -2.319  77.209 113.402  0.00  0.00    -0.276 OA
ATOM     17  H   LIG d   1       0.267  78.316 114.840  0.00  0.00     0.149 HD
ENDBRANCH   6  13
BRANCH   5  18
ATOM     18  N   LIG d   1      -1.063  79.581 111.602  0.00  0.00     0.381 N 
ATOM     19  H   LIG d   1      -2.042  79.384 111.658  0.00  0.00    -0.090 HD
ATOM     20  H   LIG d   1      -0.567  78.708 111.576  0.00  0.00    -0.090 HD
ATOM     21  H   LIG d   1      -0.870  80.106 110.777  0.00  0.00    -0.090 HD
ENDBRANCH   5  18
BRANCH   3  22
ATOM     22  C   LIG d   1      -0.780  83.920 113.610  0.00  0.00     0.382 C 
ATOM     23  O   LIG d   1      -0.810  84.411 112.456  0.00  0.00    -0.241 OA
ATOM     24  O   LIG d   1      -0.559  84.661 114.586  0.00  0.00    -0.241 OA
ENDBRANCH   3  22
TORSDOF 7
ENDMDL
MODEL 5
REMARK VINA RESULT:      -5.0      2.491      4.897
REMARK  7 active torsions:
REMARK  status: ('A' for Active; 'I' for Inactive)
REMARK    1  A    between atoms: C_2  and  C_3 
REMARK    2  A    between atoms: C_3  and  O_6 
REMARK    3  A    between atoms: C_3  and  C_4 
REMARK    4  A    between atoms: C_7  and  O_6 
REMARK    5  A    between atoms: C_9  and  C_10 
REMARK    6  A    between atoms: N_15  and  C_14 
REMARK    7  A    between atoms: N_20  and  C_19 
REMARK       I    between atoms: C_22  and  N_20 
ROOT
ATOM      1  C   LIG d   1      -1.308  77.465 114.624  0.00  0.00     0.161 C 
ATOM      2  C   LIG d   1      -2.642  77.238 114.247  0.00  0.00     0.016 C 
ATOM      3  C   LIG d   1      -3.404  76.140 114.708  0.00  0.00     0.038 C 
ATOM      4  C   LIG d   1      -2.929  75.271 115.701  0.00  0.00     0.028 C 
ATOM      5  C   LIG d   1      -1.408  75.167 115.736  0.00  0.00    -0.047 C 
ATOM      6  C   LIG d   1      -0.808  76.590 115.793  0.00  0.00     0.091 C 
ENDROOT
BRANCH   1   7
ATOM      7  O   LIG d   1      -1.116  78.861 114.925  0.00  0.00    -0.368 OA
BRANCH   7   8
ATOM      8  C   LIG d   1      -2.317  79.667 115.008  0.00  0.00     0.119 C 
BRANCH   8   9
ATOM      9  C   LIG d   1      -2.028  81.004 114.300  0.00  0.00     0.028 C 
ATOM     10  C   LIG d   1      -2.587  81.044 112.868  0.00  0.00     0.006 C 
ENDBRANCH   8   9
BRANCH   8  11
ATOM     11  C   LIG d   1      -2.641  80.037 116.458  0.00  0.00     0.028 C 
ATOM     12  C   LIG d   1      -3.924  79.365 116.973  0.00  0.00     0.006 C 
ENDBRANCH   8  11
ENDBRANCH   7   8
ENDBRANCH   1   7
BRANCH   6  13
ATOM     13  N   LIG d   1       0.677  76.582 115.745  0.00  0.00    -0.311 N 
ATOM     14  C   LIG d   1       1.446  76.542 116.832  0.00  0.00     0.210 C 
ATOM     15  C   LIG d   1       2.953  76.561 116.560  0.00  0.00     0.109 C 
ATOM     16  O   LIG d   1       1.022  76.459 117.995  0.00  0.00    -0.276 OA
ATOM     17  H   LIG d   1       1.105  76.616 114.840  0.00  0.00     0.149 HD
ENDBRANCH   6  13
BRANCH   5  18
ATOM     18  N   LIG d   1      -1.045  74.340 116.903  0.00  0.00     0.381 N 
ATOM     19  H   LIG d   1      -1.194  73.373 116.692  0.00  0.00    -0.090 HD
ATOM     20  H   LIG d   1      -1.637  74.590 117.675  0.00  0.00    -0.090 HD
ATOM     21  H   LIG d   1      -0.090  74.492 117.144  0.00  0.00    -0.090 HD
ENDBRANCH   5  18
BRANCH   3  22
ATOM     22  C   LIG d   1      -4.644  75.879 114.143  0.00  0.00     0.382 C 
ATOM     23  O   LIG d   1      -4.858  74.776 113.584  0.00  0.00    -0.241 OA
ATOM     24  O   LIG d   1      -5.535  76.749 114.147  0.00  0.00    -0.241 OA
ENDBRANCH   3  22
TORSDOF 7
ENDMDL
MODEL 6
REMARK VINA RESULT:      -4.9      2.613      3.366
REMARK  7 active torsions:
REMARK  status: ('A' for Active; 'I' for Inactive)
REMARK    1  A    between atoms: C_2  and  C_3 
REMARK    2  A    between atoms: C_3  and  O_6 
REMARK    3  A    between atoms: C_3  and  C_4 
REMARK    4  A    between atoms: C_7  and  O_6 
REMARK    5  A    between atoms: C_9  and  C_10 
REMARK    6  A    between atoms: N_15  and  C_14 
REMARK    7  A    between atoms: N_20  and  C_19 
REMARK       I    between atoms: C_22  and  N_20 
ROOT
ATOM      1  C   LIG d   1      -2.452  78.429 115.034  0.00  0.00     0.161 C 
ATOM      2  C   LIG d   1      -2.742  79.316 113.985  0.00  0.00     0.016 C 
ATOM      3  C   LIG d   1      -1.918  80.413 113.643  0.00  0.00     0.038 C 
ATOM      4  C   LIG d   1      -0.662  80.610 114.235  0.00  0.00     0.028 C 
ATOM      5  C   LIG d   1      -0.559  80.034 115.644  0.00  0.00    -0.047 C 
ATOM      6  C   LIG d   1      -1.030  78.562 115.619  0.00  0.00     0.091 C 
ENDROOT
BRANCH   1   7
ATOM      7  O   LIG d   1      -2.694  77.073 114.609  0.00  0.00    -0.368 OA
BRANCH   7   8
ATOM      8  C   LIG d   1      -3.754  76.367 115.300  0.00  0.00     0.119 C 
BRANCH   8   9
ATOM      9  C   LIG d   1      -4.830  76.012 114.256  0.00  0.00     0.028 C 
ATOM     10  C   LIG d   1      -5.051  74.495 114.134  0.00  0.00     0.006 C 
ENDBRANCH   8   9
BRANCH   8  11
ATOM     11  C   LIG d   1      -4.456  77.273 116.315  0.00  0.00     0.028 C 
ATOM     12  C   LIG d   1      -5.900  76.834 116.607  0.00  0.00     0.006 C 
ENDBRANCH   8  11
ENDBRANCH   7   8
ENDBRANCH   1   7
BRANCH   6  13
ATOM     13  N   LIG d   1      -1.041  77.947 116.972  0.00  0.00    -0.311 N 
ATOM     14  C   LIG d   1      -0.489  76.767 117.246  0.00  0.00     0.210 C 
ATOM     15  C   LIG d   1      -0.631  76.308 118.701  0.00  0.00     0.109 C 
ATOM     16  O   LIG d   1       0.132  76.070 116.430  0.00  0.00    -0.276 OA
ATOM     17  H   LIG d   1      -1.497  78.460 117.702  0.00  0.00     0.149 HD
ENDBRANCH   6  13
BRANCH   5  18
ATOM     18  N   LIG d   1       0.839  80.186 116.087  0.00  0.00     0.381 N 
ATOM     19  H   LIG d   1       0.899  80.042 117.075  0.00  0.00    -0.090 HD
ATOM     20  H   LIG d   1       1.144  81.123 115.886  0.00  0.00    -0.090 HD
ATOM     21  H   LIG d   1       1.421  79.531 115.612  0.00  0.00    -0.090 HD
ENDBRANCH   5  18
BRANCH   3  22
ATOM     22  C   LIG d   1      -2.368  81.351 112.726  0.00  0.00     0.382 C 
ATOM     23  O   LIG d   1      -3.588  81.411 112.438  0.00  0.00    -0.241 OA
ATOM     24  O   LIG d   1      -1.564  82.109 112.152  0.00  0.00    -0.241 OA
ENDBRANCH   3  22
TORSDOF 7
ENDMDL
MODEL 7
REMARK VINA RESULT:      -4.9      2.039      2.952
REMARK  7 active torsions:
REMARK  status: ('A' for Active; 'I' for Inactive)
REMARK    1  A    between atoms: C_2  and  C_3 
REMARK    2  A    between atoms: C_3  and  O_6 
REMARK    3  A    between atoms: C_3  and  C_4 
REMARK    4  A    between atoms: C_7  and  O_6 
REMARK    5  A    between atoms: C_9  and  C_10 
REMARK    6  A    between atoms: N_15  and  C_14 
REMARK    7  A    between atoms: N_20  and  C_19 
REMARK       I    between atoms: C_22  and  N_20 
ROOT
ATOM      1  C   LIG d   1      -1.450  79.426 115.938  0.00  0.00     0.161 C 
ATOM      2  C   LIG d   1      -1.981  80.727 115.922  0.00  0.00     0.016 C 
ATOM      3  C   LIG d   1      -2.214  81.457 114.734  0.00  0.00     0.038 C 
ATOM      4  C   LIG d   1      -2.070  80.875 113.465  0.00  0.00     0.028 C 
ATOM      5  C   LIG d   1      -1.057  79.736 113.432  0.00  0.00    -0.047 C 
ATOM      6  C   LIG d   1      -1.391  78.734 114.560  0.00  0.00     0.091 C 
ENDROOT
BRANCH   1   7
ATOM      7  O   LIG d   1      -2.179  78.612 116.878  0.00  0.00    -0.368 OA
BRANCH   7   8
ATOM      8  C   LIG d   1      -3.620  78.596 116.723  0.00  0.00     0.119 C 
BRANCH   8   9
ATOM      9  C   LIG d   1      -4.237  78.909 118.100  0.00  0.00     0.028 C 
ATOM     10  C   LIG d   1      -3.400  78.343 119.260  0.00  0.00     0.006 C 
ENDBRANCH   8   9
BRANCH   8  11
ATOM     11  C   LIG d   1      -4.125  77.196 116.361  0.00  0.00     0.028 C 
ATOM     12  C   LIG d   1      -5.648  77.056 116.511  0.00  0.00     0.006 C 
ENDBRANCH   8  11
ENDBRANCH   7   8
ENDBRANCH   1   7
BRANCH   6  13
ATOM     13  N   LIG d   1      -0.398  77.632 114.653  0.00  0.00    -0.311 N 
ATOM     14  C   LIG d   1      -0.703  76.351 114.450  0.00  0.00     0.210 C 
ATOM     15  C   LIG d   1       0.465  75.375 114.614  0.00  0.00     0.109 C 
ATOM     16  O   LIG d   1      -1.824  75.935 114.119  0.00  0.00    -0.276 OA
ATOM     17  H   LIG d   1       0.542  77.884 114.886  0.00  0.00     0.149 HD
ENDBRANCH   6  13
BRANCH   5  18
ATOM     18  N   LIG d   1      -1.108  79.132 112.088  0.00  0.00     0.381 N 
ATOM     19  H   LIG d   1      -0.283  78.590 111.928  0.00  0.00    -0.090 HD
ATOM     20  H   LIG d   1      -1.141  79.867 111.403  0.00  0.00    -0.090 HD
ATOM     21  H   LIG d   1      -1.916  78.555 112.004  0.00  0.00    -0.090 HD
ENDBRANCH   5  18
BRANCH   3  22
ATOM     22  C   LIG d   1      -2.557  82.799 114.808  0.00  0.00     0.382 C 
ATOM     23  O   LIG d   1      -3.693  83.134 115.222  0.00  0.00    -0.241 OA
ATOM     24  O   LIG d   1      -1.760  83.676 114.424  0.00  0.00    -0.241 OA
ENDBRANCH   3  22
TORSDOF 7
ENDMDL
MODEL 8
REMARK VINA RESULT:      -4.8      3.859      6.669
REMARK  7 active torsions:
REMARK  status: ('A' for Active; 'I' for Inactive)
REMARK    1  A    between atoms: C_2  and  C_3 
REMARK    2  A    between atoms: C_3  and  O_6 
REMARK    3  A    between atoms: C_3  and  C_4 
REMARK    4  A    between atoms: C_7  and  O_6 
REMARK    5  A    between atoms: C_9  and  C_10 
REMARK    6  A    between atoms: N_15  and  C_14 
REMARK    7  A    between atoms: N_20  and  C_19 
REMARK       I    between atoms: C_22  and  N_20 
ROOT
ATOM      1  C   LIG d   1      -2.260  81.321 113.909  0.00  0.00     0.161 C 
ATOM      2  C   LIG d   1      -2.634  80.100 114.494  0.00  0.00     0.016 C 
ATOM      3  C   LIG d   1      -2.271  78.840 113.965  0.00  0.00     0.038 C 
ATOM      4  C   LIG d   1      -1.375  78.716 112.893  0.00  0.00     0.028 C 
ATOM      5  C   LIG d   1      -1.376  79.923 111.961  0.00  0.00    -0.047 C 
ATOM      6  C   LIG d   1      -1.191  81.207 112.802  0.00  0.00     0.091 C 
ENDROOT
BRANCH   1   7
ATOM      7  O   LIG d   1      -1.827  82.240 114.931  0.00  0.00    -0.368 OA
BRANCH   7   8
ATOM      8  C   LIG d   1      -0.422  82.190 115.280  0.00  0.00     0.119 C 
BRANCH   8   9
ATOM      9  C   LIG d   1      -0.327  81.774 116.761  0.00  0.00     0.028 C 
ATOM     10  C   LIG d   1      -1.664  81.939 117.503  0.00  0.00     0.006 C 
ENDBRANCH   8   9
BRANCH   8  11
ATOM     11  C   LIG d   1       0.221  83.578 115.206  0.00  0.00     0.028 C 
ATOM     12  C   LIG d   1      -0.781  84.679 114.823  0.00  0.00     0.006 C 
ENDBRANCH   8  11
ENDBRANCH   7   8
ENDBRANCH   1   7
BRANCH   6  13
ATOM     13  N   LIG d   1      -1.264  82.441 111.977  0.00  0.00    -0.311 N 
ATOM     14  C   LIG d   1      -0.193  83.047 111.469  0.00  0.00     0.210 C 
ATOM     15  C   LIG d   1      -0.490  84.317 110.665  0.00  0.00     0.109 C 
ATOM     16  O   LIG d   1       0.972  82.637 111.580  0.00  0.00    -0.276 OA
ATOM     17  H   LIG d   1      -2.174  82.825 111.811  0.00  0.00     0.149 HD
ENDBRANCH   6  13
BRANCH   5  18
ATOM     18  N   LIG d   1      -0.302  79.722 110.970  0.00  0.00     0.381 N 
ATOM     19  H   LIG d   1       0.542  79.452 111.435  0.00  0.00    -0.090 HD
ATOM     20  H   LIG d   1      -0.134  80.589 110.491  0.00  0.00    -0.090 HD
ATOM     21  H   LIG d   1      -0.569  79.019 110.316  0.00  0.00    -0.090 HD
ENDBRANCH   5  18
BRANCH   3  22
ATOM     22  C   LIG d   1      -2.837  77.686 114.487  0.00  0.00     0.382 C 
ATOM     23  O   LIG d   1      -3.768  77.768 115.323  0.00  0.00    -0.241 OA
ATOM     24  O   LIG d   1      -2.399  76.566 114.164  0.00  0.00    -0.241 OA
ENDBRANCH   3  22
TORSDOF 7
ENDMDL
MODEL 9
REMARK VINA RESULT:      -4.8      2.857      4.560
REMARK  7 active torsions:
REMARK  status: ('A' for Active; 'I' for Inactive)
REMARK    1  A    between atoms: C_2  and  C_3 
REMARK    2  A    between atoms: C_3  and  O_6 
REMARK    3  A    between atoms: C_3  and  C_4 
REMARK    4  A    between atoms: C_7  and  O_6 
REMARK    5  A    between atoms: C_9  and  C_10 
REMARK    6  A    between atoms: N_15  and  C_14 
REMARK    7  A    between atoms: N_20  and  C_19 
REMARK       I    between atoms: C_22  and  N_20 
ROOT
ATOM      1  C   LIG d   1      -2.361  80.580 115.255  0.00  0.00     0.161 C 
ATOM      2  C   LIG d   1      -1.942  81.880 114.924  0.00  0.00     0.016 C 
ATOM      3  C   LIG d   1      -1.285  82.201 113.714  0.00  0.00     0.038 C 
ATOM      4  C   LIG d   1      -1.136  81.265 112.680  0.00  0.00     0.028 C 
ATOM      5  C   LIG d   1      -1.091  79.822 113.171  0.00  0.00    -0.047 C 
ATOM      6  C   LIG d   1      -2.306  79.568 114.092  0.00  0.00     0.091 C 
ENDROOT
BRANCH   1   7
ATOM      7  O   LIG d   1      -3.686  80.623 115.821  0.00  0.00    -0.368 OA
BRANCH   7   8
ATOM      8  C   LIG d   1      -3.785  80.320 117.234  0.00  0.00     0.119 C 
BRANCH   8   9
ATOM      9  C   LIG d   1      -4.666  79.064 117.377  0.00  0.00     0.028 C 
ATOM     10  C   LIG d   1      -3.890  77.865 117.946  0.00  0.00     0.006 C 
ENDBRANCH   8   9
BRANCH   8  11
ATOM     11  C   LIG d   1      -4.530  81.425 117.989  0.00  0.00     0.028 C 
ATOM     12  C   LIG d   1      -6.036  81.150 118.116  0.00  0.00     0.006 C 
ENDBRANCH   8  11
ENDBRANCH   7   8
ENDBRANCH   1   7
BRANCH   6  13
ATOM     13  N   LIG d   1      -2.294  78.204 114.683  0.00  0.00    -0.311 N 
ATOM     14  C   LIG d   1      -2.917  77.162 114.136  0.00  0.00     0.210 C 
ATOM     15  C   LIG d   1      -2.794  75.851 114.919  0.00  0.00     0.109 C 
ATOM     16  O   LIG d   1      -3.533  77.192 113.060  0.00  0.00    -0.276 OA
ATOM     17  H   LIG d   1      -1.791  78.084 115.541  0.00  0.00     0.149 HD
ENDBRANCH   6  13
BRANCH   5  18
ATOM     18  N   LIG d   1      -1.073  78.948 111.983  0.00  0.00     0.381 N 
ATOM     19  H   LIG d   1      -2.009  78.780 111.671  0.00  0.00    -0.090 HD
ATOM     20  H   LIG d   1      -0.662  78.066 112.235  0.00  0.00    -0.090 HD
ATOM     21  H   LIG d   1      -0.543  79.373 111.255  0.00  0.00    -0.090 HD
ENDBRANCH   5  18
BRANCH   3  22
ATOM     22  C   LIG d   1      -0.733  83.462 113.546  0.00  0.00     0.382 C 
ATOM     23  O   LIG d   1      -0.832  84.048 112.441  0.00  0.00    -0.241 OA
ATOM     24  O   LIG d   1      -0.098  84.003 114.471  0.00  0.00    -0.241 OA
ENDBRANCH   3  22
TORSDOF 7
ENDMDL
