MODEL 1
REMARK VINA RESULT:      -5.4      0.000      0.000
REMARK  7 active torsions:
REMARK  status: ('A' for Active; 'I' for Inactive)
REMARK    1  A    between atoms: C_2  and  C_3 
REMARK    2  A    between atoms: C_3  and  O_6 
REMARK    3  A    between atoms: C_3  and  C_4 
REMARK    4  A    between atoms: C_7  and  O_6 
REMARK    5  A    between atoms: C_9  and  C_10 
REMARK    6  A    between atoms: N_15  and  C_14 
REMARK    7  A    between atoms: N_20  and  C_19 
REMARK       I    between atoms: C_22  and  N_20 
ROOT
ATOM      1  C   LIG d   1      -3.351  77.465 114.645  0.00  0.00     0.161 C 
ATOM      2  C   LIG d   1      -3.303  77.872 113.302  0.00  0.00     0.016 C 
ATOM      3  C   LIG d   1      -2.201  77.622 112.452  0.00  0.00     0.038 C 
ATOM      4  C   LIG d   1      -1.128  76.809 112.849  0.00  0.00     0.028 C 
ATOM      5  C   LIG d   1      -0.901  76.800 114.357  0.00  0.00    -0.047 C 
ATOM      6  C   LIG d   1      -2.238  76.481 115.063  0.00  0.00     0.091 C 
ENDROOT
BRANCH   1   7
ATOM      7  O   LIG d   1      -4.648  76.910 114.941  0.00  0.00    -0.368 OA
BRANCH   7   8
ATOM      8  C   LIG d   1      -4.732  75.464 114.963  0.00  0.00     0.119 C 
BRANCH   8   9
ATOM      9  C   LIG d   1      -5.589  75.031 113.758  0.00  0.00     0.028 C 
ATOM     10  C   LIG d   1      -6.849  75.898 113.593  0.00  0.00     0.006 C 
ENDBRANCH   8   9
BRANCH   8  11
ATOM     11  C   LIG d   1      -5.490  74.968 116.198  0.00  0.00     0.028 C 
ATOM     12  C   LIG d   1      -5.696  76.068 117.251  0.00  0.00     0.006 C 
ENDBRANCH   8  11
ENDBRANCH   7   8
ENDBRANCH   1   7
BRANCH   6  13
ATOM     13  N   LIG d   1      -2.124  76.535 116.544  0.00  0.00    -0.311 N 
ATOM     14  C   LIG d   1      -1.942  75.457 117.305  0.00  0.00     0.210 C 
ATOM     15  C   LIG d   1      -1.870  75.732 118.810  0.00  0.00     0.109 C 
ATOM     16  O   LIG d   1      -1.800  74.303 116.874  0.00  0.00    -0.276 OA
ATOM     17  H   LIG d   1      -2.196  77.436 116.975  0.00  0.00     0.149 HD
ENDBRANCH   6  13
BRANCH   5  18
ATOM     18  N   LIG d   1       0.154  75.809 114.642  0.00  0.00     0.381 N 
ATOM     19  H   LIG d   1      -0.201  75.104 115.257  0.00  0.00    -0.090 HD
ATOM     20  H   LIG d   1       0.919  76.272 115.101  0.00  0.00    -0.090 HD
ATOM     21  H   LIG d   1       0.469  75.392 113.794  0.00  0.00    -0.090 HD
ENDBRANCH   5  18
BRANCH   3  22
ATOM     22  C   LIG d   1      -2.146  78.221 111.203  0.00  0.00     0.382 C 
ATOM     23  O   LIG d   1      -2.777  77.722 110.240  0.00  0.00    -0.241 OA
ATOM     24  O   LIG d   1      -1.439  79.229 111.016  0.00  0.00    -0.241 OA
ENDBRANCH   3  22
TORSDOF 7
ENDMDL
MODEL 2
REMARK VINA RESULT:      -5.3      1.865      2.499
REMARK  7 active torsions:
REMARK  status: ('A' for Active; 'I' for Inactive)
REMARK    1  A    between atoms: C_2  and  C_3 
REMARK    2  A    between atoms: C_3  and  O_6 
REMARK    3  A    between atoms: C_3  and  C_4 
REMARK    4  A    between atoms: C_7  and  O_6 
REMARK    5  A    between atoms: C_9  and  C_10 
REMARK    6  A    between atoms: N_15  and  C_14 
REMARK    7  A    between atoms: N_20  and  C_19 
REMARK       I    between atoms: C_22  and  N_20 
ROOT
ATOM      1  C   LIG d   1      -2.526  78.444 116.343  0.00  0.00     0.161 C 
ATOM      2  C   LIG d   1      -2.950  79.047 115.148  0.00  0.00     0.016 C 
ATOM      3  C   LIG d   1      -2.396  78.743 113.883  0.00  0.00     0.038 C 
ATOM      4  C   LIG d   1      -1.477  77.697 113.708  0.00  0.00     0.028 C 
ATOM      5  C   LIG d   1      -0.650  77.404 114.955  0.00  0.00    -0.047 C 
ATOM      6  C   LIG d   1      -1.602  77.222 116.158  0.00  0.00     0.091 C 
ENDROOT
BRANCH   1   7
ATOM      7  O   LIG d   1      -3.670  78.091 117.146  0.00  0.00    -0.368 OA
BRANCH   7   8
ATOM      8  C   LIG d   1      -4.886  77.785 116.421  0.00  0.00     0.119 C 
BRANCH   8   9
ATOM      9  C   LIG d   1      -6.065  78.360 117.231  0.00  0.00     0.028 C 
ATOM     10  C   LIG d   1      -5.894  79.859 117.531  0.00  0.00     0.006 C 
ENDBRANCH   8   9
BRANCH   8  11
ATOM     11  C   LIG d   1      -5.134  76.275 116.361  0.00  0.00     0.028 C 
ATOM     12  C   LIG d   1      -4.832  75.675 114.979  0.00  0.00     0.006 C 
ENDBRANCH   8  11
ENDBRANCH   7   8
ENDBRANCH   1   7
BRANCH   6  13
ATOM     13  N   LIG d   1      -0.870  77.015 117.435  0.00  0.00    -0.311 N 
ATOM     14  C   LIG d   1      -1.202  76.084 118.328  0.00  0.00     0.210 C 
ATOM     15  C   LIG d   1      -0.327  76.053 119.585  0.00  0.00     0.109 C 
ATOM     16  O   LIG d   1      -2.118  75.260 118.184  0.00  0.00    -0.276 OA
ATOM     17  H   LIG d   1      -0.093  77.619 117.618  0.00  0.00     0.149 HD
ENDBRANCH   6  13
BRANCH   5  18
ATOM     18  N   LIG d   1       0.166  76.207 114.676  0.00  0.00     0.381 N 
ATOM     19  H   LIG d   1       0.282  75.674 115.515  0.00  0.00    -0.090 HD
ATOM     20  H   LIG d   1       1.074  76.498 114.360  0.00  0.00    -0.090 HD
ATOM     21  H   LIG d   1      -0.274  75.649 113.978  0.00  0.00    -0.090 HD
ENDBRANCH   5  18
BRANCH   3  22
ATOM     22  C   LIG d   1      -2.732  79.516 112.782  0.00  0.00     0.382 C 
ATOM     23  O   LIG d   1      -2.200  79.286 111.669  0.00  0.00    -0.241 OA
ATOM     24  O   LIG d   1      -3.527  80.468 112.897  0.00  0.00    -0.241 OA
ENDBRANCH   3  22
TORSDOF 7
ENDMDL
MODEL 3
REMARK VINA RESULT:      -5.3      1.879      4.870
REMARK  7 active torsions:
REMARK  status: ('A' for Active; 'I' for Inactive)
REMARK    1  A    between atoms: C_2  and  C_3 
REMARK    2  A    between atoms: C_3  and  O_6 
REMARK    3  A    between atoms: C_3  and  C_4 
REMARK    4  A    between atoms: C_7  and  O_6 
REMARK    5  A    between atoms: C_9  and  C_10 
REMARK    6  A    between atoms: N_15  and  C_14 
REMARK    7  A    between atoms: N_20  and  C_19 
REMARK       I    between atoms: C_22  and  N_20 
ROOT
ATOM      1  C   LIG d   1      -2.295  75.836 114.927  0.00  0.00     0.161 C 
ATOM      2  C   LIG d   1      -2.115  75.547 116.290  0.00  0.00     0.016 C 
ATOM      3  C   LIG d   1      -1.447  76.412 117.187  0.00  0.00     0.038 C 
ATOM      4  C   LIG d   1      -1.043  77.702 116.811  0.00  0.00     0.028 C 
ATOM      5  C   LIG d   1      -0.753  77.835 115.320  0.00  0.00    -0.047 C 
ATOM      6  C   LIG d   1      -1.959  77.287 114.523  0.00  0.00     0.091 C 
ENDROOT
BRANCH   1   7
ATOM      7  O   LIG d   1      -3.640  75.504 114.531  0.00  0.00    -0.368 OA
BRANCH   7   8
ATOM      8  C   LIG d   1      -4.627  75.472 115.591  0.00  0.00     0.119 C 
BRANCH   8   9
ATOM      9  C   LIG d   1      -5.594  74.310 115.289  0.00  0.00     0.028 C 
ATOM     10  C   LIG d   1      -6.722  74.200 116.329  0.00  0.00     0.006 C 
ENDBRANCH   8   9
BRANCH   8  11
ATOM     11  C   LIG d   1      -5.495  76.734 115.583  0.00  0.00     0.028 C 
ATOM     12  C   LIG d   1      -5.124  77.720 116.702  0.00  0.00     0.006 C 
ENDBRANCH   8  11
ENDBRANCH   7   8
ENDBRANCH   1   7
BRANCH   6  13
ATOM     13  N   LIG d   1      -1.724  77.302 113.056  0.00  0.00    -0.311 N 
ATOM     14  C   LIG d   1      -2.485  77.980 112.198  0.00  0.00     0.210 C 
ATOM     15  C   LIG d   1      -2.080  77.844 110.727  0.00  0.00     0.109 C 
ATOM     16  O   LIG d   1      -3.438  78.706 112.519  0.00  0.00    -0.276 OA
ATOM     17  H   LIG d   1      -0.952  76.764 112.712  0.00  0.00     0.149 HD
ENDBRANCH   6  13
BRANCH   5  18
ATOM     18  N   LIG d   1      -0.478  79.258 115.045  0.00  0.00     0.381 N 
ATOM     19  H   LIG d   1      -1.145  79.611 114.388  0.00  0.00    -0.090 HD
ATOM     20  H   LIG d   1       0.438  79.340 114.639  0.00  0.00    -0.090 HD
ATOM     21  H   LIG d   1      -0.523  79.784 115.890  0.00  0.00    -0.090 HD
ENDBRANCH   5  18
BRANCH   3  22
ATOM     22  C   LIG d   1      -1.141  75.973 118.466  0.00  0.00     0.382 C 
ATOM     23  O   LIG d   1      -1.901  75.163 119.049  0.00  0.00    -0.241 OA
ATOM     24  O   LIG d   1      -0.138  76.410 119.061  0.00  0.00    -0.241 OA
ENDBRANCH   3  22
TORSDOF 7
ENDMDL
MODEL 4
REMARK VINA RESULT:      -5.1      1.360      1.576
REMARK  7 active torsions:
REMARK  status: ('A' for Active; 'I' for Inactive)
REMARK    1  A    between atoms: C_2  and  C_3 
REMARK    2  A    between atoms: C_3  and  O_6 
REMARK    3  A    between atoms: C_3  and  C_4 
REMARK    4  A    between atoms: C_7  and  O_6 
REMARK    5  A    between atoms: C_9  and  C_10 
REMARK    6  A    between atoms: N_15  and  C_14 
REMARK    7  A    between atoms: N_20  and  C_19 
REMARK       I    between atoms: C_22  and  N_20 
ROOT
ATOM      1  C   LIG d   1      -3.212  76.905 115.007  0.00  0.00     0.161 C 
ATOM      2  C   LIG d   1      -3.138  77.154 113.627  0.00  0.00     0.016 C 
ATOM      3  C   LIG d   1      -2.144  77.966 113.035  0.00  0.00     0.038 C 
ATOM      4  C   LIG d   1      -1.060  78.467 113.771  0.00  0.00     0.028 C 
ATOM      5  C   LIG d   1      -1.371  78.661 115.252  0.00  0.00    -0.047 C 
ATOM      6  C   LIG d   1      -1.974  77.352 115.813  0.00  0.00     0.091 C 
ENDROOT
BRANCH   1   7
ATOM      7  O   LIG d   1      -3.483  75.509 115.239  0.00  0.00    -0.368 OA
BRANCH   7   8
ATOM      8  C   LIG d   1      -4.814  75.187 115.711  0.00  0.00     0.119 C 
BRANCH   8   9
ATOM      9  C   LIG d   1      -5.613  74.643 114.511  0.00  0.00     0.028 C 
ATOM     10  C   LIG d   1      -6.594  75.680 113.940  0.00  0.00     0.006 C 
ENDBRANCH   8   9
BRANCH   8  11
ATOM     11  C   LIG d   1      -5.565  76.444 116.161  0.00  0.00     0.028 C 
ATOM     12  C   LIG d   1      -5.907  76.430 117.659  0.00  0.00     0.006 C 
ENDBRANCH   8  11
ENDBRANCH   7   8
ENDBRANCH   1   7
BRANCH   6  13
ATOM     13  N   LIG d   1      -2.385  77.482 117.235  0.00  0.00    -0.311 N 
ATOM     14  C   LIG d   1      -2.104  76.571 118.165  0.00  0.00     0.210 C 
ATOM     15  C   LIG d   1      -2.639  76.891 119.565  0.00  0.00     0.109 C 
ATOM     16  O   LIG d   1      -1.435  75.545 117.971  0.00  0.00    -0.276 OA
ATOM     17  H   LIG d   1      -2.905  78.300 117.487  0.00  0.00     0.149 HD
ENDBRANCH   6  13
BRANCH   5  18
ATOM     18  N   LIG d   1      -0.118  79.054 115.923  0.00  0.00     0.381 N 
ATOM     19  H   LIG d   1       0.622  78.441 115.645  0.00  0.00    -0.090 HD
ATOM     20  H   LIG d   1      -0.241  78.969 116.917  0.00  0.00    -0.090 HD
ATOM     21  H   LIG d   1       0.113  79.994 115.689  0.00  0.00    -0.090 HD
ENDBRANCH   5  18
BRANCH   3  22
ATOM     22  C   LIG d   1      -2.251  78.319 111.698  0.00  0.00     0.382 C 
ATOM     23  O   LIG d   1      -1.741  79.390 111.289  0.00  0.00    -0.241 OA
ATOM     24  O   LIG d   1      -2.888  77.601 110.904  0.00  0.00    -0.241 OA
ENDBRANCH   3  22
TORSDOF 7
ENDMDL
MODEL 5
REMARK VINA RESULT:      -5.0      2.517      5.087
REMARK  7 active torsions:
REMARK  status: ('A' for Active; 'I' for Inactive)
REMARK    1  A    between atoms: C_2  and  C_3 
REMARK    2  A    between atoms: C_3  and  O_6 
REMARK    3  A    between atoms: C_3  and  C_4 
REMARK    4  A    between atoms: C_7  and  O_6 
REMARK    5  A    between atoms: C_9  and  C_10 
REMARK    6  A    between atoms: N_15  and  C_14 
REMARK    7  A    between atoms: N_20  and  C_19 
REMARK       I    between atoms: C_22  and  N_20 
ROOT
ATOM      1  C   LIG d   1      -3.207  78.333 115.568  0.00  0.00     0.161 C 
ATOM      2  C   LIG d   1      -1.967  78.754 116.077  0.00  0.00     0.016 C 
ATOM      3  C   LIG d   1      -1.050  77.885 116.711  0.00  0.00     0.038 C 
ATOM      4  C   LIG d   1      -1.247  76.496 116.746  0.00  0.00     0.028 C 
ATOM      5  C   LIG d   1      -2.717  76.092 116.694  0.00  0.00    -0.047 C 
ATOM      6  C   LIG d   1      -3.390  76.802 115.498  0.00  0.00     0.091 C 
ENDROOT
BRANCH   1   7
ATOM      7  O   LIG d   1      -3.430  78.924 114.273  0.00  0.00    -0.368 OA
BRANCH   7   8
ATOM      8  C   LIG d   1      -2.445  78.620 113.255  0.00  0.00     0.119 C 
BRANCH   8   9
ATOM      9  C   LIG d   1      -1.930  79.959 112.694  0.00  0.00     0.028 C 
ATOM     10  C   LIG d   1      -2.989  81.072 112.764  0.00  0.00     0.006 C 
ENDBRANCH   8   9
BRANCH   8  11
ATOM     11  C   LIG d   1      -3.081  77.899 112.062  0.00  0.00     0.028 C 
ATOM     12  C   LIG d   1      -2.195  77.928 110.807  0.00  0.00     0.006 C 
ENDBRANCH   8  11
ENDBRANCH   7   8
ENDBRANCH   1   7
BRANCH   6  13
ATOM     13  N   LIG d   1      -4.849  76.527 115.424  0.00  0.00    -0.311 N 
ATOM     14  C   LIG d   1      -5.406  75.772 114.478  0.00  0.00     0.210 C 
ATOM     15  C   LIG d   1      -6.928  75.634 114.574  0.00  0.00     0.109 C 
ATOM     16  O   LIG d   1      -4.779  75.178 113.588  0.00  0.00    -0.276 OA
ATOM     17  H   LIG d   1      -5.428  76.945 116.125  0.00  0.00     0.149 HD
ENDBRANCH   6  13
BRANCH   5  18
ATOM     18  N   LIG d   1      -2.771  74.621 116.597  0.00  0.00     0.381 N 
ATOM     19  H   LIG d   1      -3.573  74.345 116.067  0.00  0.00    -0.090 HD
ATOM     20  H   LIG d   1      -2.858  74.237 117.522  0.00  0.00    -0.090 HD
ATOM     21  H   LIG d   1      -1.942  74.277 116.164  0.00  0.00    -0.090 HD
ENDBRANCH   5  18
BRANCH   3  22
ATOM     22  C   LIG d   1       0.061  78.408 117.356  0.00  0.00     0.382 C 
ATOM     23  O   LIG d   1       0.369  78.004 118.503  0.00  0.00    -0.241 OA
ATOM     24  O   LIG d   1       0.732  79.312 116.823  0.00  0.00    -0.241 OA
ENDBRANCH   3  22
TORSDOF 7
ENDMDL
MODEL 6
REMARK VINA RESULT:      -4.7      2.422      5.195
REMARK  7 active torsions:
REMARK  status: ('A' for Active; 'I' for Inactive)
REMARK    1  A    between atoms: C_2  and  C_3 
REMARK    2  A    between atoms: C_3  and  O_6 
REMARK    3  A    between atoms: C_3  and  C_4 
REMARK    4  A    between atoms: C_7  and  O_6 
REMARK    5  A    between atoms: C_9  and  C_10 
REMARK    6  A    between atoms: N_15  and  C_14 
REMARK    7  A    between atoms: N_20  and  C_19 
REMARK       I    between atoms: C_22  and  N_20 
ROOT
ATOM      1  C   LIG d   1      -1.940  77.184 114.329  0.00  0.00     0.161 C 
ATOM      2  C   LIG d   1      -1.037  77.987 115.044  0.00  0.00     0.016 C 
ATOM      3  C   LIG d   1      -0.631  77.712 116.370  0.00  0.00     0.038 C 
ATOM      4  C   LIG d   1      -0.987  76.522 117.022  0.00  0.00     0.028 C 
ATOM      5  C   LIG d   1      -2.301  75.928 116.525  0.00  0.00    -0.047 C 
ATOM      6  C   LIG d   1      -2.252  75.822 114.984  0.00  0.00     0.091 C 
ENDROOT
BRANCH   1   7
ATOM      7  O   LIG d   1      -1.464  76.994 112.981  0.00  0.00    -0.368 OA
BRANCH   7   8
ATOM      8  C   LIG d   1      -1.621  78.122 112.086  0.00  0.00     0.119 C 
BRANCH   8   9
ATOM      9  C   LIG d   1      -2.997  78.753 112.373  0.00  0.00     0.028 C 
ATOM     10  C   LIG d   1      -2.894  80.241 112.747  0.00  0.00     0.006 C 
ENDBRANCH   8   9
BRANCH   8  11
ATOM     11  C   LIG d   1      -1.681  77.668 110.624  0.00  0.00     0.028 C 
ATOM     12  C   LIG d   1      -0.778  78.504 109.703  0.00  0.00     0.006 C 
ENDBRANCH   8  11
ENDBRANCH   7   8
ENDBRANCH   1   7
BRANCH   6  13
ATOM     13  N   LIG d   1      -3.531  75.329 114.409  0.00  0.00    -0.311 N 
ATOM     14  C   LIG d   1      -4.680  75.996 114.499  0.00  0.00     0.210 C 
ATOM     15  C   LIG d   1      -5.884  75.301 113.855  0.00  0.00     0.109 C 
ATOM     16  O   LIG d   1      -4.811  77.113 115.023  0.00  0.00    -0.276 OA
ATOM     17  H   LIG d   1      -3.510  74.445 113.939  0.00  0.00     0.149 HD
ENDBRANCH   6  13
BRANCH   5  18
ATOM     18  N   LIG d   1      -2.480  74.624 117.190  0.00  0.00     0.381 N 
ATOM     19  H   LIG d   1      -3.063  74.732 117.996  0.00  0.00    -0.090 HD
ATOM     20  H   LIG d   1      -1.583  74.287 117.491  0.00  0.00    -0.090 HD
ATOM     21  H   LIG d   1      -2.893  73.973 116.558  0.00  0.00    -0.090 HD
ENDBRANCH   5  18
BRANCH   3  22
ATOM     22  C   LIG d   1       0.108  78.652 117.072  0.00  0.00     0.382 C 
ATOM     23  O   LIG d   1       0.227  79.818 116.624  0.00  0.00    -0.241 OA
ATOM     24  O   LIG d   1       0.694  78.336 118.125  0.00  0.00    -0.241 OA
ENDBRANCH   3  22
TORSDOF 7
ENDMDL
MODEL 7
REMARK VINA RESULT:      -4.7      2.761      4.175
REMARK  7 active torsions:
REMARK  status: ('A' for Active; 'I' for Inactive)
REMARK    1  A    between atoms: C_2  and  C_3 
REMARK    2  A    between atoms: C_3  and  O_6 
REMARK    3  A    between atoms: C_3  and  C_4 
REMARK    4  A    between atoms: C_7  and  O_6 
REMARK    5  A    between atoms: C_9  and  C_10 
REMARK    6  A    between atoms: N_15  and  C_14 
REMARK    7  A    between atoms: N_20  and  C_19 
REMARK       I    between atoms: C_22  and  N_20 
ROOT
ATOM      1  C   LIG d   1      -2.592  78.658 115.934  0.00  0.00     0.161 C 
ATOM      2  C   LIG d   1      -3.629  77.837 115.462  0.00  0.00     0.016 C 
ATOM      3  C   LIG d   1      -3.408  76.616 114.784  0.00  0.00     0.038 C 
ATOM      4  C   LIG d   1      -2.127  76.056 114.664  0.00  0.00     0.028 C 
ATOM      5  C   LIG d   1      -1.009  77.093 114.680  0.00  0.00    -0.047 C 
ATOM      6  C   LIG d   1      -1.192  78.010 115.911  0.00  0.00     0.091 C 
ENDROOT
BRANCH   1   7
ATOM      7  O   LIG d   1      -2.905  79.126 117.261  0.00  0.00    -0.368 OA
BRANCH   7   8
ATOM      8  C   LIG d   1      -3.668  78.219 118.094  0.00  0.00     0.119 C 
BRANCH   8   9
ATOM      9  C   LIG d   1      -4.736  79.052 118.830  0.00  0.00     0.028 C 
ATOM     10  C   LIG d   1      -5.577  79.908 117.868  0.00  0.00     0.006 C 
ENDBRANCH   8   9
BRANCH   8  11
ATOM     11  C   LIG d   1      -2.798  77.610 119.197  0.00  0.00     0.028 C 
ATOM     12  C   LIG d   1      -2.351  76.174 118.879  0.00  0.00     0.006 C 
ENDBRANCH   8  11
ENDBRANCH   7   8
ENDBRANCH   1   7
BRANCH   6  13
ATOM     13  N   LIG d   1      -0.189  79.105 115.957  0.00  0.00    -0.311 N 
ATOM     14  C   LIG d   1       0.600  79.333 117.005  0.00  0.00     0.210 C 
ATOM     15  C   LIG d   1       1.550  80.525 116.853  0.00  0.00     0.109 C 
ATOM     16  O   LIG d   1       0.626  78.641 118.035  0.00  0.00    -0.276 OA
ATOM     17  H   LIG d   1      -0.121  79.695 115.151  0.00  0.00     0.149 HD
ENDBRANCH   6  13
BRANCH   5  18
ATOM     18  N   LIG d   1       0.274  76.365 114.687  0.00  0.00     0.381 N 
ATOM     19  H   LIG d   1       0.738  76.504 115.562  0.00  0.00    -0.090 HD
ATOM     20  H   LIG d   1       0.860  76.732 113.957  0.00  0.00    -0.090 HD
ATOM     21  H   LIG d   1       0.115  75.393 114.538  0.00  0.00    -0.090 HD
ENDBRANCH   5  18
BRANCH   3  22
ATOM     22  C   LIG d   1      -4.472  75.962 114.181  0.00  0.00     0.382 C 
ATOM     23  O   LIG d   1      -4.870  76.324 113.048  0.00  0.00    -0.241 OA
ATOM     24  O   LIG d   1      -5.067  75.043 114.776  0.00  0.00    -0.241 OA
ENDBRANCH   3  22
TORSDOF 7
ENDMDL
MODEL 8
REMARK VINA RESULT:      -4.7      2.425      4.741
REMARK  7 active torsions:
REMARK  status: ('A' for Active; 'I' for Inactive)
REMARK    1  A    between atoms: C_2  and  C_3 
REMARK    2  A    between atoms: C_3  and  O_6 
REMARK    3  A    between atoms: C_3  and  C_4 
REMARK    4  A    between atoms: C_7  and  O_6 
REMARK    5  A    between atoms: C_9  and  C_10 
REMARK    6  A    between atoms: N_15  and  C_14 
REMARK    7  A    between atoms: N_20  and  C_19 
REMARK       I    between atoms: C_22  and  N_20 
ROOT
ATOM      1  C   LIG d   1      -1.893  76.774 114.668  0.00  0.00     0.161 C 
ATOM      2  C   LIG d   1      -3.083  76.285 114.104  0.00  0.00     0.016 C 
ATOM      3  C   LIG d   1      -4.348  76.412 114.723  0.00  0.00     0.038 C 
ATOM      4  C   LIG d   1      -4.531  77.175 115.886  0.00  0.00     0.028 C 
ATOM      5  C   LIG d   1      -3.282  77.260 116.757  0.00  0.00    -0.047 C 
ATOM      6  C   LIG d   1      -2.089  77.707 115.882  0.00  0.00     0.091 C 
ENDROOT
BRANCH   1   7
ATOM      7  O   LIG d   1      -1.105  77.429 113.655  0.00  0.00    -0.368 OA
BRANCH   7   8
ATOM      8  C   LIG d   1      -1.845  78.054 112.577  0.00  0.00     0.119 C 
BRANCH   8   9
ATOM      9  C   LIG d   1      -1.219  77.581 111.251  0.00  0.00     0.028 C 
ATOM     10  C   LIG d   1      -2.162  77.779 110.052  0.00  0.00     0.006 C 
ENDBRANCH   8   9
BRANCH   8  11
ATOM     11  C   LIG d   1      -1.668  79.575 112.588  0.00  0.00     0.028 C 
ATOM     12  C   LIG d   1      -2.969  80.323 112.920  0.00  0.00     0.006 C 
ENDBRANCH   8  11
ENDBRANCH   7   8
ENDBRANCH   1   7
BRANCH   6  13
ATOM     13  N   LIG d   1      -0.810  77.734 116.638  0.00  0.00    -0.311 N 
ATOM     14  C   LIG d   1      -0.331  78.828 117.229  0.00  0.00     0.210 C 
ATOM     15  C   LIG d   1       1.014  78.643 117.939  0.00  0.00     0.109 C 
ATOM     16  O   LIG d   1      -0.907  79.926 117.259  0.00  0.00    -0.276 OA
ATOM     17  H   LIG d   1      -0.292  76.879 116.691  0.00  0.00     0.149 HD
ENDBRANCH   6  13
BRANCH   5  18
ATOM     18  N   LIG d   1      -3.572  78.195 117.860  0.00  0.00     0.381 N 
ATOM     19  H   LIG d   1      -3.841  79.084 117.489  0.00  0.00    -0.090 HD
ATOM     20  H   LIG d   1      -2.738  78.322 118.407  0.00  0.00    -0.090 HD
ATOM     21  H   LIG d   1      -4.301  77.832 118.433  0.00  0.00    -0.090 HD
ENDBRANCH   5  18
BRANCH   3  22
ATOM     22  C   LIG d   1      -5.440  75.737 114.200  0.00  0.00     0.382 C 
ATOM     23  O   LIG d   1      -6.603  76.100 114.497  0.00  0.00    -0.241 OA
ATOM     24  O   LIG d   1      -5.277  74.741 113.469  0.00  0.00    -0.241 OA
ENDBRANCH   3  22
TORSDOF 7
ENDMDL
MODEL 9
REMARK VINA RESULT:      -4.6      3.052      4.680
REMARK  7 active torsions:
REMARK  status: ('A' for Active; 'I' for Inactive)
REMARK    1  A    between atoms: C_2  and  C_3 
REMARK    2  A    between atoms: C_3  and  O_6 
REMARK    3  A    between atoms: C_3  and  C_4 
REMARK    4  A    between atoms: C_7  and  O_6 
REMARK    5  A    between atoms: C_9  and  C_10 
REMARK    6  A    between atoms: N_15  and  C_14 
REMARK    7  A    between atoms: N_20  and  C_19 
REMARK       I    between atoms: C_22  and  N_20 
ROOT
ATOM      1  C   LIG d   1      -3.207  78.168 116.497  0.00  0.00     0.161 C 
ATOM      2  C   LIG d   1      -2.226  78.984 117.086  0.00  0.00     0.016 C 
ATOM      3  C   LIG d   1      -0.849  78.888 116.782  0.00  0.00     0.038 C 
ATOM      4  C   LIG d   1      -0.373  78.067 115.749  0.00  0.00     0.028 C 
ATOM      5  C   LIG d   1      -1.264  76.860 115.475  0.00  0.00    -0.047 C 
ATOM      6  C   LIG d   1      -2.720  77.343 115.287  0.00  0.00     0.091 C 
ENDROOT
BRANCH   1   7
ATOM      7  O   LIG d   1      -4.351  78.965 116.133  0.00  0.00    -0.368 OA
BRANCH   7   8
ATOM      8  C   LIG d   1      -5.558  78.737 116.902  0.00  0.00     0.119 C 
BRANCH   8   9
ATOM      9  C   LIG d   1      -5.835  80.015 117.717  0.00  0.00     0.028 C 
ATOM     10  C   LIG d   1      -5.227  79.954 119.128  0.00  0.00     0.006 C 
ENDBRANCH   8   9
BRANCH   8  11
ATOM     11  C   LIG d   1      -5.356  77.629 117.940  0.00  0.00     0.028 C 
ATOM     12  C   LIG d   1      -6.258  76.410 117.694  0.00  0.00     0.006 C 
ENDBRANCH   8  11
ENDBRANCH   7   8
ENDBRANCH   1   7
BRANCH   6  13
ATOM     13  N   LIG d   1      -3.671  76.217 115.099  0.00  0.00    -0.311 N 
ATOM     14  C   LIG d   1      -4.398  76.047 113.995  0.00  0.00     0.210 C 
ATOM     15  C   LIG d   1      -5.330  74.832 114.016  0.00  0.00     0.109 C 
ATOM     16  O   LIG d   1      -4.334  76.770 112.989  0.00  0.00    -0.276 OA
ATOM     17  H   LIG d   1      -3.762  75.566 115.854  0.00  0.00     0.149 HD
ENDBRANCH   6  13
BRANCH   5  18
ATOM     18  N   LIG d   1      -0.726  76.169 114.288  0.00  0.00     0.381 N 
ATOM     19  H   LIG d   1      -0.977  75.201 114.317  0.00  0.00    -0.090 HD
ATOM     20  H   LIG d   1       0.276  76.236 114.300  0.00  0.00    -0.090 HD
ATOM     21  H   LIG d   1      -1.085  76.588 113.458  0.00  0.00    -0.090 HD
ENDBRANCH   5  18
BRANCH   3  22
ATOM     22  C   LIG d   1       0.073  79.591 117.542  0.00  0.00     0.382 C 
ATOM     23  O   LIG d   1       0.973  78.975 118.163  0.00  0.00    -0.241 OA
ATOM     24  O   LIG d   1      -0.011  80.829 117.652  0.00  0.00    -0.241 OA
ENDBRANCH   3  22
TORSDOF 7
ENDMDL
