MODEL 1
REMARK VINA RESULT:      -5.5      0.000      0.000
REMARK  7 active torsions:
REMARK  status: ('A' for Active; 'I' for Inactive)
REMARK    1  A    between atoms: C_2  and  C_3 
REMARK    2  A    between atoms: C_3  and  O_6 
REMARK    3  A    between atoms: C_3  and  C_4 
REMARK    4  A    between atoms: C_7  and  O_6 
REMARK    5  A    between atoms: C_9  and  C_10 
REMARK    6  A    between atoms: N_15  and  C_14 
REMARK    7  A    between atoms: N_20  and  C_19 
REMARK       I    between atoms: C_22  and  N_20 
ROOT
ATOM      1  C   LIG d   1      -3.294  77.659 114.402  0.00  0.00     0.161 C 
ATOM      2  C   LIG d   1      -3.290  77.827 113.008  0.00  0.00     0.016 C 
ATOM      3  C   LIG d   1      -2.214  77.433 112.180  0.00  0.00     0.038 C 
ATOM      4  C   LIG d   1      -1.124  76.703 112.677  0.00  0.00     0.028 C 
ATOM      5  C   LIG d   1      -0.850  76.956 114.156  0.00  0.00    -0.047 C 
ATOM      6  C   LIG d   1      -2.162  76.765 114.950  0.00  0.00     0.091 C 
ENDROOT
BRANCH   1   7
ATOM      7  O   LIG d   1      -4.577  77.163 114.831  0.00  0.00    -0.368 OA
BRANCH   7   8
ATOM      8  C   LIG d   1      -5.176  76.140 113.998  0.00  0.00     0.119 C 
BRANCH   8   9
ATOM      9  C   LIG d   1      -6.672  76.479 113.853  0.00  0.00     0.028 C 
ATOM     10  C   LIG d   1      -7.043  76.899 112.421  0.00  0.00     0.006 C 
ENDBRANCH   8   9
BRANCH   8  11
ATOM     11  C   LIG d   1      -5.135  74.770 114.680  0.00  0.00     0.028 C 
ATOM     12  C   LIG d   1      -5.209  74.865 116.213  0.00  0.00     0.006 C 
ENDBRANCH   8  11
ENDBRANCH   7   8
ENDBRANCH   1   7
BRANCH   6  13
ATOM     13  N   LIG d   1      -2.001  77.075 116.394  0.00  0.00    -0.311 N 
ATOM     14  C   LIG d   1      -1.807  76.145 117.327  0.00  0.00     0.210 C 
ATOM     15  C   LIG d   1      -1.687  76.679 118.758  0.00  0.00     0.109 C 
ATOM     16  O   LIG d   1      -1.690  74.931 117.101  0.00  0.00    -0.276 OA
ATOM     17  H   LIG d   1      -2.051  78.039 116.662  0.00  0.00     0.149 HD
ENDBRANCH   6  13
BRANCH   5  18
ATOM     18  N   LIG d   1       0.220  76.031 114.575  0.00  0.00     0.381 N 
ATOM     19  H   LIG d   1       0.593  76.323 115.457  0.00  0.00    -0.090 HD
ATOM     20  H   LIG d   1       0.959  76.059 113.895  0.00  0.00    -0.090 HD
ATOM     21  H   LIG d   1      -0.139  75.105 114.648  0.00  0.00    -0.090 HD
ENDBRANCH   5  18
BRANCH   3  22
ATOM     22  C   LIG d   1      -2.202  77.805 110.844  0.00  0.00     0.382 C 
ATOM     23  O   LIG d   1      -3.026  77.299 110.045  0.00  0.00    -0.241 OA
ATOM     24  O   LIG d   1      -1.350  78.608 110.419  0.00  0.00    -0.241 OA
ENDBRANCH   3  22
TORSDOF 7
ENDMDL
MODEL 2
REMARK VINA RESULT:      -5.2      1.937      5.102
REMARK  7 active torsions:
REMARK  status: ('A' for Active; 'I' for Inactive)
REMARK    1  A    between atoms: C_2  and  C_3 
REMARK    2  A    between atoms: C_3  and  O_6 
REMARK    3  A    between atoms: C_3  and  C_4 
REMARK    4  A    between atoms: C_7  and  O_6 
REMARK    5  A    between atoms: C_9  and  C_10 
REMARK    6  A    between atoms: N_15  and  C_14 
REMARK    7  A    between atoms: N_20  and  C_19 
REMARK       I    between atoms: C_22  and  N_20 
ROOT
ATOM      1  C   LIG d   1      -2.325  75.465 114.978  0.00  0.00     0.161 C 
ATOM      2  C   LIG d   1      -2.077  75.084 116.307  0.00  0.00     0.016 C 
ATOM      3  C   LIG d   1      -1.361  75.885 117.226  0.00  0.00     0.038 C 
ATOM      4  C   LIG d   1      -0.972  77.197 116.918  0.00  0.00     0.028 C 
ATOM      5  C   LIG d   1      -0.758  77.432 115.427  0.00  0.00    -0.047 C 
ATOM      6  C   LIG d   1      -2.005  76.940 114.657  0.00  0.00     0.091 C 
ENDROOT
BRANCH   1   7
ATOM      7  O   LIG d   1      -3.691  75.162 114.629  0.00  0.00    -0.368 OA
BRANCH   7   8
ATOM      8  C   LIG d   1      -4.673  75.348 115.678  0.00  0.00     0.119 C 
BRANCH   8   9
ATOM      9  C   LIG d   1      -5.692  74.197 115.567  0.00  0.00     0.028 C 
ATOM     10  C   LIG d   1      -6.688  74.180 116.739  0.00  0.00     0.006 C 
ENDBRANCH   8   9
BRANCH   8  11
ATOM     11  C   LIG d   1      -5.483  76.629 115.462  0.00  0.00     0.028 C 
ATOM     12  C   LIG d   1      -5.186  77.707 116.517  0.00  0.00     0.006 C 
ENDBRANCH   8  11
ENDBRANCH   7   8
ENDBRANCH   1   7
BRANCH   6  13
ATOM     13  N   LIG d   1      -1.844  77.055 113.184  0.00  0.00    -0.311 N 
ATOM     14  C   LIG d   1      -2.728  77.665 112.396  0.00  0.00     0.210 C 
ATOM     15  C   LIG d   1      -2.380  77.654 110.904  0.00  0.00     0.109 C 
ATOM     16  O   LIG d   1      -3.751  78.242 112.795  0.00  0.00    -0.276 OA
ATOM     17  H   LIG d   1      -1.026  76.642 112.781  0.00  0.00     0.149 HD
ENDBRANCH   6  13
BRANCH   5  18
ATOM     18  N   LIG d   1      -0.491  78.870 115.236  0.00  0.00     0.381 N 
ATOM     19  H   LIG d   1       0.180  79.183 115.909  0.00  0.00    -0.090 HD
ATOM     20  H   LIG d   1      -1.344  79.381 115.380  0.00  0.00    -0.090 HD
ATOM     21  H   LIG d   1      -0.149  79.034 114.315  0.00  0.00    -0.090 HD
ENDBRANCH   5  18
BRANCH   3  22
ATOM     22  C   LIG d   1      -0.992  75.359 118.455  0.00  0.00     0.382 C 
ATOM     23  O   LIG d   1      -1.009  76.085 119.478  0.00  0.00    -0.241 OA
ATOM     24  O   LIG d   1      -0.601  74.181 118.545  0.00  0.00    -0.241 OA
ENDBRANCH   3  22
TORSDOF 7
ENDMDL
MODEL 3
REMARK VINA RESULT:      -4.9      1.720      5.051
REMARK  7 active torsions:
REMARK  status: ('A' for Active; 'I' for Inactive)
REMARK    1  A    between atoms: C_2  and  C_3 
REMARK    2  A    between atoms: C_3  and  O_6 
REMARK    3  A    between atoms: C_3  and  C_4 
REMARK    4  A    between atoms: C_7  and  O_6 
REMARK    5  A    between atoms: C_9  and  C_10 
REMARK    6  A    between atoms: N_15  and  C_14 
REMARK    7  A    between atoms: N_20  and  C_19 
REMARK       I    between atoms: C_22  and  N_20 
ROOT
ATOM      1  C   LIG d   1      -2.130  75.572 115.072  0.00  0.00     0.161 C 
ATOM      2  C   LIG d   1      -2.287  75.704 116.461  0.00  0.00     0.016 C 
ATOM      3  C   LIG d   1      -1.935  76.872 117.177  0.00  0.00     0.038 C 
ATOM      4  C   LIG d   1      -1.541  78.050 116.525  0.00  0.00     0.028 C 
ATOM      5  C   LIG d   1      -0.888  77.803 115.169  0.00  0.00    -0.047 C 
ATOM      6  C   LIG d   1      -1.806  76.886 114.330  0.00  0.00     0.091 C 
ENDROOT
BRANCH   1   7
ATOM      7  O   LIG d   1      -3.302  74.953 114.505  0.00  0.00    -0.368 OA
BRANCH   7   8
ATOM      8  C   LIG d   1      -4.574  75.543 114.868  0.00  0.00     0.119 C 
BRANCH   8   9
ATOM      9  C   LIG d   1      -5.536  74.391 115.217  0.00  0.00     0.028 C 
ATOM     10  C   LIG d   1      -5.992  74.431 116.685  0.00  0.00     0.006 C 
ENDBRANCH   8   9
BRANCH   8  11
ATOM     11  C   LIG d   1      -5.216  76.261 113.677  0.00  0.00     0.028 C 
ATOM     12  C   LIG d   1      -6.710  76.550 113.890  0.00  0.00     0.006 C 
ENDBRANCH   8  11
ENDBRANCH   7   8
ENDBRANCH   1   7
BRANCH   6  13
ATOM     13  N   LIG d   1      -1.203  76.526 113.020  0.00  0.00    -0.311 N 
ATOM     14  C   LIG d   1      -1.512  77.137 111.878  0.00  0.00     0.210 C 
ATOM     15  C   LIG d   1      -0.790  76.597 110.639  0.00  0.00     0.109 C 
ATOM     16  O   LIG d   1      -2.291  78.097 111.777  0.00  0.00    -0.276 OA
ATOM     17  H   LIG d   1      -0.537  75.778 113.015  0.00  0.00     0.149 HD
ENDBRANCH   6  13
BRANCH   5  18
ATOM     18  N   LIG d   1      -0.653  79.117 114.541  0.00  0.00     0.381 N 
ATOM     19  H   LIG d   1      -1.512  79.629 114.496  0.00  0.00    -0.090 HD
ATOM     20  H   LIG d   1      -0.320  78.975 113.604  0.00  0.00    -0.090 HD
ATOM     21  H   LIG d   1       0.020  79.630 115.066  0.00  0.00    -0.090 HD
ENDBRANCH   5  18
BRANCH   3  22
ATOM     22  C   LIG d   1      -1.938  76.856 118.563  0.00  0.00     0.382 C 
ATOM     23  O   LIG d   1      -2.516  77.770 119.200  0.00  0.00    -0.241 OA
ATOM     24  O   LIG d   1      -1.332  75.963 119.186  0.00  0.00    -0.241 OA
ENDBRANCH   3  22
TORSDOF 7
ENDMDL
MODEL 4
REMARK VINA RESULT:      -4.9      1.977      2.365
REMARK  7 active torsions:
REMARK  status: ('A' for Active; 'I' for Inactive)
REMARK    1  A    between atoms: C_2  and  C_3 
REMARK    2  A    between atoms: C_3  and  O_6 
REMARK    3  A    between atoms: C_3  and  C_4 
REMARK    4  A    between atoms: C_7  and  O_6 
REMARK    5  A    between atoms: C_9  and  C_10 
REMARK    6  A    between atoms: N_15  and  C_14 
REMARK    7  A    between atoms: N_20  and  C_19 
REMARK       I    between atoms: C_22  and  N_20 
ROOT
ATOM      1  C   LIG d   1      -2.765  77.042 115.784  0.00  0.00     0.161 C 
ATOM      2  C   LIG d   1      -3.027  78.162 114.979  0.00  0.00     0.016 C 
ATOM      3  C   LIG d   1      -2.354  78.422 113.763  0.00  0.00     0.038 C 
ATOM      4  C   LIG d   1      -1.472  77.494 113.191  0.00  0.00     0.028 C 
ATOM      5  C   LIG d   1      -0.800  76.586 114.215  0.00  0.00    -0.047 C 
ATOM      6  C   LIG d   1      -1.886  75.961 115.121  0.00  0.00     0.091 C 
ENDROOT
BRANCH   1   7
ATOM      7  O   LIG d   1      -4.005  76.467 116.241  0.00  0.00    -0.368 OA
BRANCH   7   8
ATOM      8  C   LIG d   1      -5.188  76.815 115.480  0.00  0.00     0.119 C 
BRANCH   8   9
ATOM      9  C   LIG d   1      -6.283  77.219 116.486  0.00  0.00     0.028 C 
ATOM     10  C   LIG d   1      -5.976  78.555 117.183  0.00  0.00     0.006 C 
ENDBRANCH   8   9
BRANCH   8  11
ATOM     11  C   LIG d   1      -5.749  75.600 114.736  0.00  0.00     0.028 C 
ATOM     12  C   LIG d   1      -5.677  74.308 115.565  0.00  0.00     0.006 C 
ENDBRANCH   8  11
ENDBRANCH   7   8
ENDBRANCH   1   7
BRANCH   6  13
ATOM     13  N   LIG d   1      -1.308  75.124 116.204  0.00  0.00    -0.311 N 
ATOM     14  C   LIG d   1      -0.444  75.587 117.107  0.00  0.00     0.210 C 
ATOM     15  C   LIG d   1       0.044  74.552 118.125  0.00  0.00     0.109 C 
ATOM     16  O   LIG d   1      -0.062  76.764 117.180  0.00  0.00    -0.276 OA
ATOM     17  H   LIG d   1      -1.588  74.163 116.238  0.00  0.00     0.149 HD
ENDBRANCH   6  13
BRANCH   5  18
ATOM     18  N   LIG d   1      -0.016  75.580 113.473  0.00  0.00     0.381 N 
ATOM     19  H   LIG d   1      -0.630  74.893 113.082  0.00  0.00    -0.090 HD
ATOM     20  H   LIG d   1       0.607  75.118 114.112  0.00  0.00    -0.090 HD
ATOM     21  H   LIG d   1       0.506  76.021 112.749  0.00  0.00    -0.090 HD
ENDBRANCH   5  18
BRANCH   3  22
ATOM     22  C   LIG d   1      -2.530  79.642 113.127  0.00  0.00     0.382 C 
ATOM     23  O   LIG d   1      -3.334  80.483 113.596  0.00  0.00    -0.241 OA
ATOM     24  O   LIG d   1      -1.928  79.894 112.066  0.00  0.00    -0.241 OA
ENDBRANCH   3  22
TORSDOF 7
ENDMDL
MODEL 5
REMARK VINA RESULT:      -4.9      1.862      2.353
REMARK  7 active torsions:
REMARK  status: ('A' for Active; 'I' for Inactive)
REMARK    1  A    between atoms: C_2  and  C_3 
REMARK    2  A    between atoms: C_3  and  O_6 
REMARK    3  A    between atoms: C_3  and  C_4 
REMARK    4  A    between atoms: C_7  and  O_6 
REMARK    5  A    between atoms: C_9  and  C_10 
REMARK    6  A    between atoms: N_15  and  C_14 
REMARK    7  A    between atoms: N_20  and  C_19 
REMARK       I    between atoms: C_22  and  N_20 
ROOT
ATOM      1  C   LIG d   1      -3.652  77.628 114.719  0.00  0.00     0.161 C 
ATOM      2  C   LIG d   1      -3.377  77.208 113.407  0.00  0.00     0.016 C 
ATOM      3  C   LIG d   1      -2.110  77.344 112.795  0.00  0.00     0.038 C 
ATOM      4  C   LIG d   1      -0.983  77.774 113.512  0.00  0.00     0.028 C 
ATOM      5  C   LIG d   1      -1.324  78.682 114.688  0.00  0.00    -0.047 C 
ATOM      6  C   LIG d   1      -2.407  77.997 115.553  0.00  0.00     0.091 C 
ENDROOT
BRANCH   1   7
ATOM      7  O   LIG d   1      -4.432  76.625 115.400  0.00  0.00    -0.368 OA
BRANCH   7   8
ATOM      8  C   LIG d   1      -4.125  75.248 115.071  0.00  0.00     0.119 C 
BRANCH   8   9
ATOM      9  C   LIG d   1      -5.441  74.450 115.148  0.00  0.00     0.028 C 
ATOM     10  C   LIG d   1      -6.072  74.491 116.549  0.00  0.00     0.006 C 
ENDBRANCH   8   9
BRANCH   8  11
ATOM     11  C   LIG d   1      -3.206  74.616 116.121  0.00  0.00     0.028 C 
ATOM     12  C   LIG d   1      -1.750  74.497 115.645  0.00  0.00     0.006 C 
ENDBRANCH   8  11
ENDBRANCH   7   8
ENDBRANCH   1   7
BRANCH   6  13
ATOM     13  N   LIG d   1      -2.859  78.855 116.680  0.00  0.00    -0.311 N 
ATOM     14  C   LIG d   1      -2.901  78.442 117.945  0.00  0.00     0.210 C 
ATOM     15  C   LIG d   1      -3.418  79.478 118.947  0.00  0.00     0.109 C 
ATOM     16  O   LIG d   1      -2.530  77.325 118.337  0.00  0.00    -0.276 OA
ATOM     17  H   LIG d   1      -3.150  79.787 116.455  0.00  0.00     0.149 HD
ENDBRANCH   6  13
BRANCH   5  18
ATOM     18  N   LIG d   1      -0.074  78.943 115.427  0.00  0.00     0.381 N 
ATOM     19  H   LIG d   1      -0.215  79.689 116.079  0.00  0.00    -0.090 HD
ATOM     20  H   LIG d   1       0.636  79.224 114.774  0.00  0.00    -0.090 HD
ATOM     21  H   LIG d   1       0.214  78.121 115.910  0.00  0.00    -0.090 HD
ENDBRANCH   5  18
BRANCH   3  22
ATOM     22  C   LIG d   1      -1.969  77.085 111.440  0.00  0.00     0.382 C 
ATOM     23  O   LIG d   1      -0.965  76.461 111.022  0.00  0.00    -0.241 OA
ATOM     24  O   LIG d   1      -2.813  77.507 110.626  0.00  0.00    -0.241 OA
ENDBRANCH   3  22
TORSDOF 7
ENDMDL
MODEL 6
REMARK VINA RESULT:      -4.8      1.979      2.800
REMARK  7 active torsions:
REMARK  status: ('A' for Active; 'I' for Inactive)
REMARK    1  A    between atoms: C_2  and  C_3 
REMARK    2  A    between atoms: C_3  and  O_6 
REMARK    3  A    between atoms: C_3  and  C_4 
REMARK    4  A    between atoms: C_7  and  O_6 
REMARK    5  A    between atoms: C_9  and  C_10 
REMARK    6  A    between atoms: N_15  and  C_14 
REMARK    7  A    between atoms: N_20  and  C_19 
REMARK       I    between atoms: C_22  and  N_20 
ROOT
ATOM      1  C   LIG d   1      -1.930  76.764 114.120  0.00  0.00     0.161 C 
ATOM      2  C   LIG d   1      -2.077  76.796 112.723  0.00  0.00     0.016 C 
ATOM      3  C   LIG d   1      -1.568  77.835 111.910  0.00  0.00     0.038 C 
ATOM      4  C   LIG d   1      -0.742  78.844 112.428  0.00  0.00     0.028 C 
ATOM      5  C   LIG d   1      -0.987  79.129 113.906  0.00  0.00    -0.047 C 
ATOM      6  C   LIG d   1      -0.936  77.798 114.689  0.00  0.00     0.091 C 
ENDROOT
BRANCH   1   7
ATOM      7  O   LIG d   1      -1.567  75.434 114.543  0.00  0.00    -0.368 OA
BRANCH   7   8
ATOM      8  C   LIG d   1      -2.524  74.752 115.390  0.00  0.00     0.119 C 
BRANCH   8   9
ATOM      9  C   LIG d   1      -3.815  75.593 115.400  0.00  0.00     0.028 C 
ATOM     10  C   LIG d   1      -5.009  74.842 114.786  0.00  0.00     0.006 C 
ENDBRANCH   8   9
BRANCH   8  11
ATOM     11  C   LIG d   1      -2.052  74.716 116.846  0.00  0.00     0.028 C 
ATOM     12  C   LIG d   1      -0.563  74.361 116.982  0.00  0.00     0.006 C 
ENDBRANCH   8  11
ENDBRANCH   7   8
ENDBRANCH   1   7
BRANCH   6  13
ATOM     13  N   LIG d   1      -1.249  77.976 116.131  0.00  0.00    -0.311 N 
ATOM     14  C   LIG d   1      -0.316  78.090 117.075  0.00  0.00     0.210 C 
ATOM     15  C   LIG d   1      -0.855  78.246 118.500  0.00  0.00     0.109 C 
ATOM     16  O   LIG d   1       0.906  78.109 116.863  0.00  0.00    -0.276 OA
ATOM     17  H   LIG d   1      -2.216  78.003 116.388  0.00  0.00     0.149 HD
ENDBRANCH   6  13
BRANCH   5  18
ATOM     18  N   LIG d   1       0.033  80.099 114.347  0.00  0.00     0.381 N 
ATOM     19  H   LIG d   1       0.696  80.252 113.613  0.00  0.00    -0.090 HD
ATOM     20  H   LIG d   1       0.521  79.720 115.140  0.00  0.00    -0.090 HD
ATOM     21  H   LIG d   1      -0.402  80.961 114.596  0.00  0.00    -0.090 HD
ENDBRANCH   5  18
BRANCH   3  22
ATOM     22  C   LIG d   1      -1.920  77.894 110.570  0.00  0.00     0.382 C 
ATOM     23  O   LIG d   1      -1.219  78.556 109.767  0.00  0.00    -0.241 OA
ATOM     24  O   LIG d   1      -2.953  77.331 110.163  0.00  0.00    -0.241 OA
ENDBRANCH   3  22
TORSDOF 7
ENDMDL
MODEL 7
REMARK VINA RESULT:      -4.6      3.565      5.521
REMARK  7 active torsions:
REMARK  status: ('A' for Active; 'I' for Inactive)
REMARK    1  A    between atoms: C_2  and  C_3 
REMARK    2  A    between atoms: C_3  and  O_6 
REMARK    3  A    between atoms: C_3  and  C_4 
REMARK    4  A    between atoms: C_7  and  O_6 
REMARK    5  A    between atoms: C_9  and  C_10 
REMARK    6  A    between atoms: N_15  and  C_14 
REMARK    7  A    between atoms: N_20  and  C_19 
REMARK       I    between atoms: C_22  and  N_20 
ROOT
ATOM      1  C   LIG d   1      -0.517  79.450 113.222  0.00  0.00     0.161 C 
ATOM      2  C   LIG d   1      -1.020  78.876 112.043  0.00  0.00     0.016 C 
ATOM      3  C   LIG d   1      -1.633  77.603 111.998  0.00  0.00     0.038 C 
ATOM      4  C   LIG d   1      -1.924  76.878 113.163  0.00  0.00     0.028 C 
ATOM      5  C   LIG d   1      -0.984  77.191 114.322  0.00  0.00    -0.047 C 
ATOM      6  C   LIG d   1      -0.925  78.723 114.521  0.00  0.00     0.091 C 
ENDROOT
BRANCH   1   7
ATOM      7  O   LIG d   1      -0.893  80.840 113.287  0.00  0.00    -0.368 OA
BRANCH   7   8
ATOM      8  C   LIG d   1      -0.081  81.757 112.513  0.00  0.00     0.119 C 
BRANCH   8   9
ATOM      9  C   LIG d   1       1.331  81.758 113.129  0.00  0.00     0.028 C 
ATOM     10  C   LIG d   1       2.424  81.452 112.092  0.00  0.00     0.006 C 
ENDBRANCH   8   9
BRANCH   8  11
ATOM     11  C   LIG d   1      -0.584  83.197 112.649  0.00  0.00     0.028 C 
ATOM     12  C   LIG d   1      -0.522  83.977 111.326  0.00  0.00     0.006 C 
ENDBRANCH   8  11
ENDBRANCH   7   8
ENDBRANCH   1   7
BRANCH   6  13
ATOM     13  N   LIG d   1       0.038  79.120 115.581  0.00  0.00    -0.311 N 
ATOM     14  C   LIG d   1      -0.305  79.292 116.856  0.00  0.00     0.210 C 
ATOM     15  C   LIG d   1       0.838  79.722 117.781  0.00  0.00     0.109 C 
ATOM     16  O   LIG d   1      -1.441  79.098 117.315  0.00  0.00    -0.276 OA
ATOM     17  H   LIG d   1       0.988  79.268 115.301  0.00  0.00     0.149 HD
ENDBRANCH   6  13
BRANCH   5  18
ATOM     18  N   LIG d   1      -1.484  76.472 115.509  0.00  0.00     0.381 N 
ATOM     19  H   LIG d   1      -2.389  76.819 115.758  0.00  0.00    -0.090 HD
ATOM     20  H   LIG d   1      -0.859  76.640 116.277  0.00  0.00    -0.090 HD
ATOM     21  H   LIG d   1      -1.535  75.496 115.319  0.00  0.00    -0.090 HD
ENDBRANCH   5  18
BRANCH   3  22
ATOM     22  C   LIG d   1      -1.927  77.025 110.772  0.00  0.00     0.382 C 
ATOM     23  O   LIG d   1      -2.961  77.367 110.149  0.00  0.00    -0.241 OA
ATOM     24  O   LIG d   1      -1.195  76.134 110.302  0.00  0.00    -0.241 OA
ENDBRANCH   3  22
TORSDOF 7
ENDMDL
MODEL 8
REMARK VINA RESULT:      -4.5      2.879      5.245
REMARK  7 active torsions:
REMARK  status: ('A' for Active; 'I' for Inactive)
REMARK    1  A    between atoms: C_2  and  C_3 
REMARK    2  A    between atoms: C_3  and  O_6 
REMARK    3  A    between atoms: C_3  and  C_4 
REMARK    4  A    between atoms: C_7  and  O_6 
REMARK    5  A    between atoms: C_9  and  C_10 
REMARK    6  A    between atoms: N_15  and  C_14 
REMARK    7  A    between atoms: N_20  and  C_19 
REMARK       I    between atoms: C_22  and  N_20 
ROOT
ATOM      1  C   LIG d   1      -1.492  78.637 114.096  0.00  0.00     0.161 C 
ATOM      2  C   LIG d   1      -2.641  77.829 114.077  0.00  0.00     0.016 C 
ATOM      3  C   LIG d   1      -3.220  77.327 112.888  0.00  0.00     0.038 C 
ATOM      4  C   LIG d   1      -2.597  77.476 111.640  0.00  0.00     0.028 C 
ATOM      5  C   LIG d   1      -1.708  78.711 111.551  0.00  0.00    -0.047 C 
ATOM      6  C   LIG d   1      -0.736  78.718 112.753  0.00  0.00     0.091 C 
ENDROOT
BRANCH   1   7
ATOM      7  O   LIG d   1      -0.605  78.201 115.145  0.00  0.00    -0.368 OA
BRANCH   7   8
ATOM      8  C   LIG d   1      -0.985  76.987 115.837  0.00  0.00     0.119 C 
BRANCH   8   9
ATOM      9  C   LIG d   1      -0.989  77.296 117.347  0.00  0.00     0.028 C 
ATOM     10  C   LIG d   1       0.347  77.886 117.828  0.00  0.00     0.006 C 
ENDBRANCH   8   9
BRANCH   8  11
ATOM     11  C   LIG d   1       0.064  75.887 115.651  0.00  0.00     0.028 C 
ATOM     12  C   LIG d   1       0.080  75.314 114.225  0.00  0.00     0.006 C 
ENDBRANCH   8  11
ENDBRANCH   7   8
ENDBRANCH   1   7
BRANCH   6  13
ATOM     13  N   LIG d   1       0.113  79.937 112.788  0.00  0.00    -0.311 N 
ATOM     14  C   LIG d   1      -0.375  81.174 112.711  0.00  0.00     0.210 C 
ATOM     15  C   LIG d   1       0.676  82.287 112.746  0.00  0.00     0.109 C 
ATOM     16  O   LIG d   1      -1.581  81.455 112.650  0.00  0.00    -0.276 OA
ATOM     17  H   LIG d   1       1.102  79.801 112.868  0.00  0.00     0.149 HD
ENDBRANCH   6  13
BRANCH   5  18
ATOM     18  N   LIG d   1      -1.016  78.669 110.249  0.00  0.00     0.381 N 
ATOM     19  H   LIG d   1      -1.474  79.278 109.601  0.00  0.00    -0.090 HD
ATOM     20  H   LIG d   1      -1.062  77.732 109.887  0.00  0.00    -0.090 HD
ATOM     21  H   LIG d   1      -0.065  78.944 110.359  0.00  0.00    -0.090 HD
ENDBRANCH   5  18
BRANCH   3  22
ATOM     22  C   LIG d   1      -4.456  76.701 112.937  0.00  0.00     0.382 C 
ATOM     23  O   LIG d   1      -4.593  75.632 113.580  0.00  0.00    -0.241 OA
ATOM     24  O   LIG d   1      -5.426  77.168 112.310  0.00  0.00    -0.241 OA
ENDBRANCH   3  22
TORSDOF 7
ENDMDL
MODEL 9
REMARK VINA RESULT:      -4.4      2.301      4.637
REMARK  7 active torsions:
REMARK  status: ('A' for Active; 'I' for Inactive)
REMARK    1  A    between atoms: C_2  and  C_3 
REMARK    2  A    between atoms: C_3  and  O_6 
REMARK    3  A    between atoms: C_3  and  C_4 
REMARK    4  A    between atoms: C_7  and  O_6 
REMARK    5  A    between atoms: C_9  and  C_10 
REMARK    6  A    between atoms: N_15  and  C_14 
REMARK    7  A    between atoms: N_20  and  C_19 
REMARK       I    between atoms: C_22  and  N_20 
ROOT
ATOM      1  C   LIG d   1      -1.930  76.545 114.744  0.00  0.00     0.161 C 
ATOM      2  C   LIG d   1      -3.238  76.250 114.324  0.00  0.00     0.016 C 
ATOM      3  C   LIG d   1      -4.393  76.711 114.996  0.00  0.00     0.038 C 
ATOM      4  C   LIG d   1      -4.320  77.629 116.053  0.00  0.00     0.028 C 
ATOM      5  C   LIG d   1      -3.008  77.557 116.828  0.00  0.00    -0.047 C 
ATOM      6  C   LIG d   1      -1.831  77.637 115.830  0.00  0.00     0.091 C 
ENDROOT
BRANCH   1   7
ATOM      7  O   LIG d   1      -1.118  76.895 113.606  0.00  0.00    -0.368 OA
BRANCH   7   8
ATOM      8  C   LIG d   1      -1.807  77.540 112.506  0.00  0.00     0.119 C 
BRANCH   8   9
ATOM      9  C   LIG d   1      -1.206  76.990 111.198  0.00  0.00     0.028 C 
ATOM     10  C   LIG d   1      -1.085  78.070 110.109  0.00  0.00     0.006 C 
ENDBRANCH   8   9
BRANCH   8  11
ATOM     11  C   LIG d   1      -1.528  79.046 112.480  0.00  0.00     0.028 C 
ATOM     12  C   LIG d   1      -2.712  79.880 112.994  0.00  0.00     0.006 C 
ENDBRANCH   8  11
ENDBRANCH   7   8
ENDBRANCH   1   7
BRANCH   6  13
ATOM     13  N   LIG d   1      -0.511  77.488 116.498  0.00  0.00    -0.311 N 
ATOM     14  C   LIG d   1       0.202  78.519 116.949  0.00  0.00     0.210 C 
ATOM     15  C   LIG d   1       1.545  78.146 117.587  0.00  0.00     0.109 C 
ATOM     16  O   LIG d   1      -0.163  79.703 116.911  0.00  0.00    -0.276 OA
ATOM     17  H   LIG d   1      -0.153  76.559 116.598  0.00  0.00     0.149 HD
ENDBRANCH   6  13
BRANCH   5  18
ATOM     18  N   LIG d   1      -3.009  78.657 117.810  0.00  0.00     0.381 N 
ATOM     19  H   LIG d   1      -2.758  78.306 118.713  0.00  0.00    -0.090 HD
ATOM     20  H   LIG d   1      -3.937  79.040 117.868  0.00  0.00    -0.090 HD
ATOM     21  H   LIG d   1      -2.367  79.365 117.530  0.00  0.00    -0.090 HD
ENDBRANCH   5  18
BRANCH   3  22
ATOM     22  C   LIG d   1      -5.639  76.220 114.635  0.00  0.00     0.382 C 
ATOM     23  O   LIG d   1      -6.015  75.097 115.050  0.00  0.00    -0.241 OA
ATOM     24  O   LIG d   1      -6.374  76.867 113.864  0.00  0.00    -0.241 OA
ENDBRANCH   3  22
TORSDOF 7
ENDMDL
