MODEL 1
REMARK VINA RESULT:      -5.0      0.000      0.000
REMARK  7 active torsions:
REMARK  status: ('A' for Active; 'I' for Inactive)
REMARK    1  A    between atoms: C_2  and  C_3 
REMARK    2  A    between atoms: C_3  and  O_6 
REMARK    3  A    between atoms: C_3  and  C_4 
REMARK    4  A    between atoms: C_7  and  O_6 
REMARK    5  A    between atoms: C_9  and  C_10 
REMARK    6  A    between atoms: N_15  and  C_14 
REMARK    7  A    between atoms: N_20  and  C_19 
REMARK       I    between atoms: C_22  and  N_20 
ROOT
ATOM      1  C   LIG d   1      -2.941  79.038 115.917  0.00  0.00     0.161 C 
ATOM      2  C   LIG d   1      -2.963  79.978 114.873  0.00  0.00     0.016 C 
ATOM      3  C   LIG d   1      -2.220  79.832 113.679  0.00  0.00     0.038 C 
ATOM      4  C   LIG d   1      -1.518  78.655 113.382  0.00  0.00     0.028 C 
ATOM      5  C   LIG d   1      -1.060  77.893 114.621  0.00  0.00    -0.047 C 
ATOM      6  C   LIG d   1      -2.269  77.695 115.564  0.00  0.00     0.091 C 
ENDROOT
BRANCH   1   7
ATOM      7  O   LIG d   1      -4.280  78.815 116.402  0.00  0.00    -0.368 OA
BRANCH   7   8
ATOM      8  C   LIG d   1      -4.710  79.661 117.497  0.00  0.00     0.119 C 
BRANCH   8   9
ATOM      9  C   LIG d   1      -4.373  78.926 118.809  0.00  0.00     0.028 C 
ATOM     10  C   LIG d   1      -5.211  77.651 118.999  0.00  0.00     0.006 C 
ENDBRANCH   8   9
BRANCH   8  11
ATOM     11  C   LIG d   1      -6.232  79.829 117.506  0.00  0.00     0.028 C 
ATOM     12  C   LIG d   1      -6.669  81.302 117.549  0.00  0.00     0.006 C 
ENDBRANCH   8  11
ENDBRANCH   7   8
ENDBRANCH   1   7
BRANCH   6  13
ATOM     13  N   LIG d   1      -1.890  77.032 116.839  0.00  0.00    -0.311 N 
ATOM     14  C   LIG d   1      -2.463  75.915 117.283  0.00  0.00     0.210 C 
ATOM     15  C   LIG d   1      -1.938  75.410 118.630  0.00  0.00     0.109 C 
ATOM     16  O   LIG d   1      -3.334  75.276 116.673  0.00  0.00    -0.276 OA
ATOM     17  H   LIG d   1      -1.170  77.466 117.382  0.00  0.00     0.149 HD
ENDBRANCH   6  13
BRANCH   5  18
ATOM     18  N   LIG d   1      -0.464  76.622 114.168  0.00  0.00     0.381 N 
ATOM     19  H   LIG d   1       0.355  76.421 114.706  0.00  0.00    -0.090 HD
ATOM     20  H   LIG d   1      -0.194  76.714 113.205  0.00  0.00    -0.090 HD
ATOM     21  H   LIG d   1      -1.125  75.882 114.266  0.00  0.00    -0.090 HD
ENDBRANCH   5  18
BRANCH   3  22
ATOM     22  C   LIG d   1      -2.143  80.889 112.784  0.00  0.00     0.382 C 
ATOM     23  O   LIG d   1      -3.123  81.658 112.637  0.00  0.00    -0.241 OA
ATOM     24  O   LIG d   1      -1.122  81.056 112.091  0.00  0.00    -0.241 OA
ENDBRANCH   3  22
TORSDOF 7
ENDMDL
MODEL 2
REMARK VINA RESULT:      -4.9      2.235      2.997
REMARK  7 active torsions:
REMARK  status: ('A' for Active; 'I' for Inactive)
REMARK    1  A    between atoms: C_2  and  C_3 
REMARK    2  A    between atoms: C_3  and  O_6 
REMARK    3  A    between atoms: C_3  and  C_4 
REMARK    4  A    between atoms: C_7  and  O_6 
REMARK    5  A    between atoms: C_9  and  C_10 
REMARK    6  A    between atoms: N_15  and  C_14 
REMARK    7  A    between atoms: N_20  and  C_19 
REMARK       I    between atoms: C_22  and  N_20 
ROOT
ATOM      1  C   LIG d   1      -2.485  77.537 115.215  0.00  0.00     0.161 C 
ATOM      2  C   LIG d   1      -2.708  78.494 114.211  0.00  0.00     0.016 C 
ATOM      3  C   LIG d   1      -1.764  79.485 113.857  0.00  0.00     0.038 C 
ATOM      4  C   LIG d   1      -0.464  79.493 114.384  0.00  0.00     0.028 C 
ATOM      5  C   LIG d   1      -0.367  78.856 115.766  0.00  0.00    -0.047 C 
ATOM      6  C   LIG d   1      -1.031  77.460 115.723  0.00  0.00     0.091 C 
ENDROOT
BRANCH   1   7
ATOM      7  O   LIG d   1      -2.927  76.242 114.763  0.00  0.00    -0.368 OA
BRANCH   7   8
ATOM      8  C   LIG d   1      -3.982  75.622 115.538  0.00  0.00     0.119 C 
BRANCH   8   9
ATOM      9  C   LIG d   1      -5.030  75.082 114.546  0.00  0.00     0.028 C 
ATOM     10  C   LIG d   1      -6.262  75.996 114.437  0.00  0.00     0.006 C 
ENDBRANCH   8   9
BRANCH   8  11
ATOM     11  C   LIG d   1      -4.726  76.653 116.392  0.00  0.00     0.028 C 
ATOM     12  C   LIG d   1      -4.517  76.440 117.900  0.00  0.00     0.006 C 
ENDBRANCH   8  11
ENDBRANCH   7   8
ENDBRANCH   1   7
BRANCH   6  13
ATOM     13  N   LIG d   1      -1.054  76.803 117.056  0.00  0.00    -0.311 N 
ATOM     14  C   LIG d   1      -0.779  75.513 117.242  0.00  0.00     0.210 C 
ATOM     15  C   LIG d   1      -0.880  75.032 118.693  0.00  0.00     0.109 C 
ATOM     16  O   LIG d   1      -0.429  74.728 116.347  0.00  0.00    -0.276 OA
ATOM     17  H   LIG d   1      -1.297  77.373 117.842  0.00  0.00     0.149 HD
ENDBRANCH   6  13
BRANCH   5  18
ATOM     18  N   LIG d   1       1.060  78.806 116.135  0.00  0.00     0.381 N 
ATOM     19  H   LIG d   1       1.254  77.957 116.626  0.00  0.00    -0.090 HD
ATOM     20  H   LIG d   1       1.265  79.577 116.746  0.00  0.00    -0.090 HD
ATOM     21  H   LIG d   1       1.626  78.862 115.317  0.00  0.00    -0.090 HD
ENDBRANCH   5  18
BRANCH   3  22
ATOM     22  C   LIG d   1      -2.132  80.508 112.996  0.00  0.00     0.382 C 
ATOM     23  O   LIG d   1      -1.377  80.830 112.047  0.00  0.00    -0.241 OA
ATOM     24  O   LIG d   1      -3.188  81.142 113.182  0.00  0.00    -0.241 OA
ENDBRANCH   3  22
TORSDOF 7
ENDMDL
MODEL 3
REMARK VINA RESULT:      -4.8      2.509      5.465
REMARK  7 active torsions:
REMARK  status: ('A' for Active; 'I' for Inactive)
REMARK    1  A    between atoms: C_2  and  C_3 
REMARK    2  A    between atoms: C_3  and  O_6 
REMARK    3  A    between atoms: C_3  and  C_4 
REMARK    4  A    between atoms: C_7  and  O_6 
REMARK    5  A    between atoms: C_9  and  C_10 
REMARK    6  A    between atoms: N_15  and  C_14 
REMARK    7  A    between atoms: N_20  and  C_19 
REMARK       I    between atoms: C_22  and  N_20 
ROOT
ATOM      1  C   LIG d   1      -1.806  75.885 115.149  0.00  0.00     0.161 C 
ATOM      2  C   LIG d   1      -1.645  75.281 116.407  0.00  0.00     0.016 C 
ATOM      3  C   LIG d   1      -0.875  75.847 117.449  0.00  0.00     0.038 C 
ATOM      4  C   LIG d   1      -0.334  77.137 117.354  0.00  0.00     0.028 C 
ATOM      5  C   LIG d   1      -0.047  77.570 115.920  0.00  0.00    -0.047 C 
ATOM      6  C   LIG d   1      -1.315  77.345 115.065  0.00  0.00     0.091 C 
ENDROOT
BRANCH   1   7
ATOM      7  O   LIG d   1      -3.184  75.796 114.737  0.00  0.00    -0.368 OA
BRANCH   7   8
ATOM      8  C   LIG d   1      -4.151  75.565 115.791  0.00  0.00     0.119 C 
BRANCH   8   9
ATOM      9  C   LIG d   1      -5.256  74.658 115.216  0.00  0.00     0.028 C 
ATOM     10  C   LIG d   1      -6.384  74.394 116.227  0.00  0.00     0.006 C 
ENDBRANCH   8   9
BRANCH   8  11
ATOM     11  C   LIG d   1      -4.860  76.863 116.191  0.00  0.00     0.028 C 
ATOM     12  C   LIG d   1      -4.455  77.356 117.589  0.00  0.00     0.006 C 
ENDBRANCH   8  11
ENDBRANCH   7   8
ENDBRANCH   1   7
BRANCH   6  13
ATOM     13  N   LIG d   1      -1.094  77.664 113.630  0.00  0.00    -0.311 N 
ATOM     14  C   LIG d   1      -1.944  78.385 112.901  0.00  0.00     0.210 C 
ATOM     15  C   LIG d   1      -1.536  78.579 111.437  0.00  0.00     0.109 C 
ATOM     16  O   LIG d   1      -2.981  78.909 113.335  0.00  0.00    -0.276 OA
ATOM     17  H   LIG d   1      -0.262  77.304 113.206  0.00  0.00     0.149 HD
ENDBRANCH   6  13
BRANCH   5  18
ATOM     18  N   LIG d   1       0.383  78.980 115.958  0.00  0.00     0.381 N 
ATOM     19  H   LIG d   1       0.634  79.283 115.038  0.00  0.00    -0.090 HD
ATOM     20  H   LIG d   1       1.193  79.058 116.547  0.00  0.00    -0.090 HD
ATOM     21  H   LIG d   1      -0.351  79.551 116.314  0.00  0.00    -0.090 HD
ENDBRANCH   5  18
BRANCH   3  22
ATOM     22  C   LIG d   1      -0.607  75.102 118.588  0.00  0.00     0.382 C 
ATOM     23  O   LIG d   1      -1.519  74.431 119.127  0.00  0.00    -0.241 OA
ATOM     24  O   LIG d   1       0.525  75.127 119.107  0.00  0.00    -0.241 OA
ENDBRANCH   3  22
TORSDOF 7
ENDMDL
MODEL 4
REMARK VINA RESULT:      -4.8      1.528      2.272
REMARK  7 active torsions:
REMARK  status: ('A' for Active; 'I' for Inactive)
REMARK    1  A    between atoms: C_2  and  C_3 
REMARK    2  A    between atoms: C_3  and  O_6 
REMARK    3  A    between atoms: C_3  and  C_4 
REMARK    4  A    between atoms: C_7  and  O_6 
REMARK    5  A    between atoms: C_9  and  C_10 
REMARK    6  A    between atoms: N_15  and  C_14 
REMARK    7  A    between atoms: N_20  and  C_19 
REMARK       I    between atoms: C_22  and  N_20 
ROOT
ATOM      1  C   LIG d   1      -2.384  78.201 116.560  0.00  0.00     0.161 C 
ATOM      2  C   LIG d   1      -2.703  79.085 115.516  0.00  0.00     0.016 C 
ATOM      3  C   LIG d   1      -2.214  78.941 114.198  0.00  0.00     0.038 C 
ATOM      4  C   LIG d   1      -1.489  77.809 113.795  0.00  0.00     0.028 C 
ATOM      5  C   LIG d   1      -0.720  77.147 114.933  0.00  0.00    -0.047 C 
ATOM      6  C   LIG d   1      -1.685  76.900 116.115  0.00  0.00     0.091 C 
ENDROOT
BRANCH   1   7
ATOM      7  O   LIG d   1      -3.569  77.898 117.323  0.00  0.00    -0.368 OA
BRANCH   7   8
ATOM      8  C   LIG d   1      -4.790  77.726 116.563  0.00  0.00     0.119 C 
BRANCH   8   9
ATOM      9  C   LIG d   1      -5.933  78.370 117.371  0.00  0.00     0.028 C 
ATOM     10  C   LIG d   1      -5.794  79.899 117.468  0.00  0.00     0.006 C 
ENDBRANCH   8   9
BRANCH   8  11
ATOM     11  C   LIG d   1      -5.165  76.247 116.437  0.00  0.00     0.028 C 
ATOM     12  C   LIG d   1      -5.030  75.717 115.001  0.00  0.00     0.006 C 
ENDBRANCH   8  11
ENDBRANCH   7   8
ENDBRANCH   1   7
BRANCH   6  13
ATOM     13  N   LIG d   1      -0.994  76.331 117.302  0.00  0.00    -0.311 N 
ATOM     14  C   LIG d   1      -1.336  75.173 117.863  0.00  0.00     0.210 C 
ATOM     15  C   LIG d   1      -0.507  74.780 119.090  0.00  0.00     0.109 C 
ATOM     16  O   LIG d   1      -2.226  74.418 117.443  0.00  0.00    -0.276 OA
ATOM     17  H   LIG d   1      -0.240  76.863 117.689  0.00  0.00     0.149 HD
ENDBRANCH   6  13
BRANCH   5  18
ATOM     18  N   LIG d   1      -0.123  75.905 114.404  0.00  0.00     0.381 N 
ATOM     19  H   LIG d   1      -0.828  75.357 113.953  0.00  0.00    -0.090 HD
ATOM     20  H   LIG d   1       0.249  75.372 115.170  0.00  0.00    -0.090 HD
ATOM     21  H   LIG d   1       0.603  76.124 113.758  0.00  0.00    -0.090 HD
ENDBRANCH   5  18
BRANCH   3  22
ATOM     22  C   LIG d   1      -2.416  79.956 113.275  0.00  0.00     0.382 C 
ATOM     23  O   LIG d   1      -1.900  79.878 112.134  0.00  0.00    -0.241 OA
ATOM     24  O   LIG d   1      -3.070  80.970 113.584  0.00  0.00    -0.241 OA
ENDBRANCH   3  22
TORSDOF 7
ENDMDL
MODEL 5
REMARK VINA RESULT:      -4.7      2.756      4.984
REMARK  7 active torsions:
REMARK  status: ('A' for Active; 'I' for Inactive)
REMARK    1  A    between atoms: C_2  and  C_3 
REMARK    2  A    between atoms: C_3  and  O_6 
REMARK    3  A    between atoms: C_3  and  C_4 
REMARK    4  A    between atoms: C_7  and  O_6 
REMARK    5  A    between atoms: C_9  and  C_10 
REMARK    6  A    between atoms: N_15  and  C_14 
REMARK    7  A    between atoms: N_20  and  C_19 
REMARK       I    between atoms: C_22  and  N_20 
ROOT
ATOM      1  C   LIG d   1      -2.455  78.643 115.697  0.00  0.00     0.161 C 
ATOM      2  C   LIG d   1      -1.147  79.012 116.051  0.00  0.00     0.016 C 
ATOM      3  C   LIG d   1      -0.196  78.105 116.573  0.00  0.00     0.038 C 
ATOM      4  C   LIG d   1      -0.444  76.725 116.634  0.00  0.00     0.028 C 
ATOM      5  C   LIG d   1      -1.924  76.380 116.760  0.00  0.00    -0.047 C 
ATOM      6  C   LIG d   1      -2.708  77.121 115.652  0.00  0.00     0.091 C 
ENDROOT
BRANCH   1   7
ATOM      7  O   LIG d   1      -2.809  79.246 114.437  0.00  0.00    -0.368 OA
BRANCH   7   8
ATOM      8  C   LIG d   1      -1.881  79.034 113.345  0.00  0.00     0.119 C 
BRANCH   8   9
ATOM      9  C   LIG d   1      -1.473  80.419 112.808  0.00  0.00     0.028 C 
ATOM     10  C   LIG d   1      -2.618  81.442 112.894  0.00  0.00     0.006 C 
ENDBRANCH   8   9
BRANCH   8  11
ATOM     11  C   LIG d   1      -2.558  78.325 112.168  0.00  0.00     0.028 C 
ATOM     12  C   LIG d   1      -1.672  78.276 110.913  0.00  0.00     0.006 C 
ENDBRANCH   8  11
ENDBRANCH   7   8
ENDBRANCH   1   7
BRANCH   6  13
ATOM     13  N   LIG d   1      -4.175  76.905 115.755  0.00  0.00    -0.311 N 
ATOM     14  C   LIG d   1      -4.837  76.011 115.023  0.00  0.00     0.210 C 
ATOM     15  C   LIG d   1      -6.348  75.964 115.271  0.00  0.00     0.109 C 
ATOM     16  O   LIG d   1      -4.313  75.231 114.214  0.00  0.00    -0.276 OA
ATOM     17  H   LIG d   1      -4.675  77.475 116.409  0.00  0.00     0.149 HD
ENDBRANCH   6  13
BRANCH   5  18
ATOM     18  N   LIG d   1      -2.048  74.913 116.674  0.00  0.00     0.381 N 
ATOM     19  H   LIG d   1      -2.991  74.641 116.867  0.00  0.00    -0.090 HD
ATOM     20  H   LIG d   1      -1.451  74.495 117.365  0.00  0.00    -0.090 HD
ATOM     21  H   LIG d   1      -1.785  74.601 115.765  0.00  0.00    -0.090 HD
ENDBRANCH   5  18
BRANCH   3  22
ATOM     22  C   LIG d   1       1.004  78.582 117.077  0.00  0.00     0.382 C 
ATOM     23  O   LIG d   1       1.353  79.765 116.850  0.00  0.00    -0.241 OA
ATOM     24  O   LIG d   1       1.762  77.830 117.719  0.00  0.00    -0.241 OA
ENDBRANCH   3  22
TORSDOF 7
ENDMDL
MODEL 6
REMARK VINA RESULT:      -4.4      2.712      3.333
REMARK  7 active torsions:
REMARK  status: ('A' for Active; 'I' for Inactive)
REMARK    1  A    between atoms: C_2  and  C_3 
REMARK    2  A    between atoms: C_3  and  O_6 
REMARK    3  A    between atoms: C_3  and  C_4 
REMARK    4  A    between atoms: C_7  and  O_6 
REMARK    5  A    between atoms: C_9  and  C_10 
REMARK    6  A    between atoms: N_15  and  C_14 
REMARK    7  A    between atoms: N_20  and  C_19 
REMARK       I    between atoms: C_22  and  N_20 
ROOT
ATOM      1  C   LIG d   1      -2.761  78.724 117.080  0.00  0.00     0.161 C 
ATOM      2  C   LIG d   1      -1.746  79.573 117.552  0.00  0.00     0.016 C 
ATOM      3  C   LIG d   1      -0.428  79.568 117.041  0.00  0.00     0.038 C 
ATOM      4  C   LIG d   1      -0.073  78.813 115.913  0.00  0.00     0.028 C 
ATOM      5  C   LIG d   1      -0.932  77.568 115.722  0.00  0.00    -0.047 C 
ATOM      6  C   LIG d   1      -2.422  77.973 115.776  0.00  0.00     0.091 C 
ENDROOT
BRANCH   1   7
ATOM      7  O   LIG d   1      -3.987  79.467 116.927  0.00  0.00    -0.368 OA
BRANCH   7   8
ATOM      8  C   LIG d   1      -4.956  79.325 117.995  0.00  0.00     0.119 C 
BRANCH   8   9
ATOM      9  C   LIG d   1      -6.186  78.604 117.410  0.00  0.00     0.028 C 
ATOM     10  C   LIG d   1      -6.230  77.115 117.791  0.00  0.00     0.006 C 
ENDBRANCH   8   9
BRANCH   8  11
ATOM     11  C   LIG d   1      -5.470  80.688 118.466  0.00  0.00     0.028 C 
ATOM     12  C   LIG d   1      -6.564  81.261 117.550  0.00  0.00     0.006 C 
ENDBRANCH   8  11
ENDBRANCH   7   8
ENDBRANCH   1   7
BRANCH   6  13
ATOM     13  N   LIG d   1      -3.332  76.802 115.682  0.00  0.00    -0.311 N 
ATOM     14  C   LIG d   1      -3.986  76.469 114.570  0.00  0.00     0.210 C 
ATOM     15  C   LIG d   1      -4.888  75.237 114.695  0.00  0.00     0.109 C 
ATOM     16  O   LIG d   1      -3.880  77.057 113.484  0.00  0.00    -0.276 OA
ATOM     17  H   LIG d   1      -3.452  76.250 116.509  0.00  0.00     0.149 HD
ENDBRANCH   6  13
BRANCH   5  18
ATOM     18  N   LIG d   1      -0.546  76.952 114.438  0.00  0.00     0.381 N 
ATOM     19  H   LIG d   1       0.205  77.470 114.026  0.00  0.00    -0.090 HD
ATOM     20  H   LIG d   1      -1.332  76.984 113.813  0.00  0.00    -0.090 HD
ATOM     21  H   LIG d   1      -0.266  76.007 114.584  0.00  0.00    -0.090 HD
ENDBRANCH   5  18
BRANCH   3  22
ATOM     22  C   LIG d   1       0.562  80.294 117.686  0.00  0.00     0.382 C 
ATOM     23  O   LIG d   1       1.648  79.743 117.988  0.00  0.00    -0.241 OA
ATOM     24  O   LIG d   1       0.366  81.481 118.008  0.00  0.00    -0.241 OA
ENDBRANCH   3  22
TORSDOF 7
ENDMDL
MODEL 7
REMARK VINA RESULT:      -4.1      3.089      4.517
REMARK  7 active torsions:
REMARK  status: ('A' for Active; 'I' for Inactive)
REMARK    1  A    between atoms: C_2  and  C_3 
REMARK    2  A    between atoms: C_3  and  O_6 
REMARK    3  A    between atoms: C_3  and  C_4 
REMARK    4  A    between atoms: C_7  and  O_6 
REMARK    5  A    between atoms: C_9  and  C_10 
REMARK    6  A    between atoms: N_15  and  C_14 
REMARK    7  A    between atoms: N_20  and  C_19 
REMARK       I    between atoms: C_22  and  N_20 
ROOT
ATOM      1  C   LIG d   1      -0.700  77.353 115.951  0.00  0.00     0.161 C 
ATOM      2  C   LIG d   1      -1.025  78.045 114.773  0.00  0.00     0.016 C 
ATOM      3  C   LIG d   1      -2.226  77.840 114.056  0.00  0.00     0.038 C 
ATOM      4  C   LIG d   1      -3.258  77.031 114.554  0.00  0.00     0.028 C 
ATOM      5  C   LIG d   1      -2.767  75.925 115.482  0.00  0.00    -0.047 C 
ATOM      6  C   LIG d   1      -1.862  76.548 116.570  0.00  0.00     0.091 C 
ENDROOT
BRANCH   1   7
ATOM      7  O   LIG d   1      -0.152  78.268 116.921  0.00  0.00    -0.368 OA
BRANCH   7   8
ATOM      8  C   LIG d   1       1.273  78.165 117.160  0.00  0.00     0.119 C 
BRANCH   8   9
ATOM      9  C   LIG d   1       1.474  77.952 118.673  0.00  0.00     0.028 C 
ATOM     10  C   LIG d   1       1.874  76.507 119.015  0.00  0.00     0.006 C 
ENDBRANCH   8   9
BRANCH   8  11
ATOM     11  C   LIG d   1       1.988  79.480 116.837  0.00  0.00     0.028 C 
ATOM     12  C   LIG d   1       3.149  79.779 117.799  0.00  0.00     0.006 C 
ENDBRANCH   8  11
ENDBRANCH   7   8
ENDBRANCH   1   7
BRANCH   6  13
ATOM     13  N   LIG d   1      -1.271  75.523 117.470  0.00  0.00    -0.311 N 
ATOM     14  C   LIG d   1      -1.741  75.259 118.688  0.00  0.00     0.210 C 
ATOM     15  C   LIG d   1      -0.971  74.180 119.457  0.00  0.00     0.109 C 
ATOM     16  O   LIG d   1      -2.741  75.792 119.191  0.00  0.00    -0.276 OA
ATOM     17  H   LIG d   1      -0.475  75.021 117.128  0.00  0.00     0.149 HD
ENDBRANCH   6  13
BRANCH   5  18
ATOM     18  N   LIG d   1      -3.954  75.247 116.036  0.00  0.00     0.381 N 
ATOM     19  H   LIG d   1      -4.389  75.832 116.721  0.00  0.00    -0.090 HD
ATOM     20  H   LIG d   1      -3.663  74.397 116.485  0.00  0.00    -0.090 HD
ATOM     21  H   LIG d   1      -4.600  75.041 115.306  0.00  0.00    -0.090 HD
ENDBRANCH   5  18
BRANCH   3  22
ATOM     22  C   LIG d   1      -2.387  78.417 112.805  0.00  0.00     0.382 C 
ATOM     23  O   LIG d   1      -2.054  77.783 111.775  0.00  0.00    -0.241 OA
ATOM     24  O   LIG d   1      -2.820  79.580 112.697  0.00  0.00    -0.241 OA
ENDBRANCH   3  22
TORSDOF 7
ENDMDL
MODEL 8
REMARK VINA RESULT:      -4.0      3.211      5.665
REMARK  7 active torsions:
REMARK  status: ('A' for Active; 'I' for Inactive)
REMARK    1  A    between atoms: C_2  and  C_3 
REMARK    2  A    between atoms: C_3  and  O_6 
REMARK    3  A    between atoms: C_3  and  C_4 
REMARK    4  A    between atoms: C_7  and  O_6 
REMARK    5  A    between atoms: C_9  and  C_10 
REMARK    6  A    between atoms: N_15  and  C_14 
REMARK    7  A    between atoms: N_20  and  C_19 
REMARK       I    between atoms: C_22  and  N_20 
ROOT
ATOM      1  C   LIG d   1      -1.343  79.866 114.760  0.00  0.00     0.161 C 
ATOM      2  C   LIG d   1      -2.038  78.691 115.090  0.00  0.00     0.016 C 
ATOM      3  C   LIG d   1      -2.491  77.758 114.129  0.00  0.00     0.038 C 
ATOM      4  C   LIG d   1      -2.143  77.862 112.774  0.00  0.00     0.028 C 
ATOM      5  C   LIG d   1      -1.873  79.295 112.326  0.00  0.00    -0.047 C 
ATOM      6  C   LIG d   1      -0.858  79.941 113.297  0.00  0.00     0.091 C 
ENDROOT
BRANCH   1   7
ATOM      7  O   LIG d   1      -0.236  80.049 115.664  0.00  0.00    -0.368 OA
BRANCH   7   8
ATOM      8  C   LIG d   1      -0.285  79.286 116.895  0.00  0.00     0.119 C 
BRANCH   8   9
ATOM      9  C   LIG d   1      -0.527  80.280 118.047  0.00  0.00     0.028 C 
ATOM     10  C   LIG d   1      -1.872  80.042 118.755  0.00  0.00     0.006 C 
ENDBRANCH   8   9
BRANCH   8  11
ATOM     11  C   LIG d   1       1.066  78.633 117.199  0.00  0.00     0.028 C 
ATOM     12  C   LIG d   1       0.949  77.127 117.485  0.00  0.00     0.006 C 
ENDBRANCH   8  11
ENDBRANCH   7   8
ENDBRANCH   1   7
BRANCH   6  13
ATOM     13  N   LIG d   1      -0.602  81.370 112.980  0.00  0.00    -0.311 N 
ATOM     14  C   LIG d   1       0.374  81.778 112.171  0.00  0.00     0.210 C 
ATOM     15  C   LIG d   1       0.476  83.297 111.996  0.00  0.00     0.109 C 
ATOM     16  O   LIG d   1       1.144  81.025 111.555  0.00  0.00    -0.276 OA
ATOM     17  H   LIG d   1      -1.200  82.047 113.412  0.00  0.00     0.149 HD
ENDBRANCH   6  13
BRANCH   5  18
ATOM     18  N   LIG d   1      -1.389  79.243 110.934  0.00  0.00     0.381 N 
ATOM     19  H   LIG d   1      -2.166  79.255 110.304  0.00  0.00    -0.090 HD
ATOM     20  H   LIG d   1      -0.886  78.384 110.796  0.00  0.00    -0.090 HD
ATOM     21  H   LIG d   1      -0.791  80.019 110.751  0.00  0.00    -0.090 HD
ENDBRANCH   5  18
BRANCH   3  22
ATOM     22  C   LIG d   1      -3.333  76.727 114.515  0.00  0.00     0.382 C 
ATOM     23  O   LIG d   1      -4.358  76.468 113.839  0.00  0.00    -0.241 OA
ATOM     24  O   LIG d   1      -3.106  76.082 115.556  0.00  0.00    -0.241 OA
ENDBRANCH   3  22
TORSDOF 7
ENDMDL
MODEL 9
REMARK VINA RESULT:      -4.0      3.032      5.581
REMARK  7 active torsions:
REMARK  status: ('A' for Active; 'I' for Inactive)
REMARK    1  A    between atoms: C_2  and  C_3 
REMARK    2  A    between atoms: C_3  and  O_6 
REMARK    3  A    between atoms: C_3  and  C_4 
REMARK    4  A    between atoms: C_7  and  O_6 
REMARK    5  A    between atoms: C_9  and  C_10 
REMARK    6  A    between atoms: N_15  and  C_14 
REMARK    7  A    between atoms: N_20  and  C_19 
REMARK       I    between atoms: C_22  and  N_20 
ROOT
ATOM      1  C   LIG d   1      -1.663  78.189 116.192  0.00  0.00     0.161 C 
ATOM      2  C   LIG d   1      -1.863  77.438 117.362  0.00  0.00     0.016 C 
ATOM      3  C   LIG d   1      -1.447  76.095 117.506  0.00  0.00     0.038 C 
ATOM      4  C   LIG d   1      -0.662  75.454 116.536  0.00  0.00     0.028 C 
ATOM      5  C   LIG d   1      -0.868  76.005 115.129  0.00  0.00    -0.047 C 
ATOM      6  C   LIG d   1      -0.710  77.542 115.165  0.00  0.00     0.091 C 
ENDROOT
BRANCH   1   7
ATOM      7  O   LIG d   1      -1.208  79.513 116.533  0.00  0.00    -0.368 OA
BRANCH   7   8
ATOM      8  C   LIG d   1      -0.261  79.600 117.626  0.00  0.00     0.119 C 
BRANCH   8   9
ATOM      9  C   LIG d   1      -0.623  80.850 118.453  0.00  0.00     0.028 C 
ATOM     10  C   LIG d   1      -1.726  80.570 119.487  0.00  0.00     0.006 C 
ENDBRANCH   8   9
BRANCH   8  11
ATOM     11  C   LIG d   1       1.160  79.850 117.114  0.00  0.00     0.028 C 
ATOM     12  C   LIG d   1       2.116  78.687 117.419  0.00  0.00     0.006 C 
ENDBRANCH   8  11
ENDBRANCH   7   8
ENDBRANCH   1   7
BRANCH   6  13
ATOM     13  N   LIG d   1      -0.979  78.170 113.845  0.00  0.00    -0.311 N 
ATOM     14  C   LIG d   1      -2.113  77.996 113.168  0.00  0.00     0.210 C 
ATOM     15  C   LIG d   1      -2.177  78.718 111.818  0.00  0.00     0.109 C 
ATOM     16  O   LIG d   1      -3.085  77.340 113.572  0.00  0.00    -0.276 OA
ATOM     17  H   LIG d   1      -0.257  78.744 113.457  0.00  0.00     0.149 HD
ENDBRANCH   6  13
BRANCH   5  18
ATOM     18  N   LIG d   1       0.109  75.343 114.244  0.00  0.00     0.381 N 
ATOM     19  H   LIG d   1       0.080  75.762 113.336  0.00  0.00    -0.090 HD
ATOM     20  H   LIG d   1      -0.139  74.374 114.153  0.00  0.00    -0.090 HD
ATOM     21  H   LIG d   1       1.025  75.425 114.626  0.00  0.00    -0.090 HD
ENDBRANCH   5  18
BRANCH   3  22
ATOM     22  C   LIG d   1      -1.851  75.365 118.614  0.00  0.00     0.382 C 
ATOM     23  O   LIG d   1      -2.544  75.911 119.506  0.00  0.00    -0.241 OA
ATOM     24  O   LIG d   1      -1.493  74.180 118.755  0.00  0.00    -0.241 OA
ENDBRANCH   3  22
TORSDOF 7
ENDMDL
