MODEL 1
REMARK VINA RESULT:      -5.1      0.000      0.000
REMARK  7 active torsions:
REMARK  status: ('A' for Active; 'I' for Inactive)
REMARK    1  A    between atoms: C_2  and  C_3 
REMARK    2  A    between atoms: C_3  and  O_6 
REMARK    3  A    between atoms: C_3  and  C_4 
REMARK    4  A    between atoms: C_7  and  O_6 
REMARK    5  A    between atoms: C_9  and  C_10 
REMARK    6  A    between atoms: N_15  and  C_14 
REMARK    7  A    between atoms: N_20  and  C_19 
REMARK       I    between atoms: C_22  and  N_20 
ROOT
ATOM      1  C   LIG d   1      -0.228  80.404 111.759  0.00  0.00     0.161 C 
ATOM      2  C   LIG d   1      -1.281  79.550 111.389  0.00  0.00     0.016 C 
ATOM      3  C   LIG d   1      -2.144  78.930 112.321  0.00  0.00     0.038 C 
ATOM      4  C   LIG d   1      -2.109  79.244 113.687  0.00  0.00     0.028 C 
ATOM      5  C   LIG d   1      -0.738  79.713 114.165  0.00  0.00    -0.047 C 
ATOM      6  C   LIG d   1      -0.244  80.846 113.237  0.00  0.00     0.091 C 
ENDROOT
BRANCH   1   7
ATOM      7  O   LIG d   1      -0.206  81.555 110.892  0.00  0.00    -0.368 OA
BRANCH   7   8
ATOM      8  C   LIG d   1       0.827  81.567 109.876  0.00  0.00     0.119 C 
BRANCH   8   9
ATOM      9  C   LIG d   1       1.888  80.526 110.281  0.00  0.00     0.028 C 
ATOM     10  C   LIG d   1       3.284  81.148 110.456  0.00  0.00     0.006 C 
ENDBRANCH   8   9
BRANCH   8  11
ATOM     11  C   LIG d   1       1.565  82.909 109.848  0.00  0.00     0.028 C 
ATOM     12  C   LIG d   1       0.618  84.113 109.971  0.00  0.00     0.006 C 
ENDBRANCH   8  11
ENDBRANCH   7   8
ENDBRANCH   1   7
BRANCH   6  13
ATOM     13  N   LIG d   1       1.127  81.305 113.583  0.00  0.00    -0.311 N 
ATOM     14  C   LIG d   1       1.481  82.588 113.627  0.00  0.00     0.210 C 
ATOM     15  C   LIG d   1       2.949  82.841 113.986  0.00  0.00     0.109 C 
ATOM     16  O   LIG d   1       0.712  83.541 113.433  0.00  0.00    -0.276 OA
ATOM     17  H   LIG d   1       1.807  80.598 113.785  0.00  0.00     0.149 HD
ENDBRANCH   6  13
BRANCH   5  18
ATOM     18  N   LIG d   1      -0.878  80.137 115.571  0.00  0.00     0.381 N 
ATOM     19  H   LIG d   1      -1.381  81.001 115.616  0.00  0.00    -0.090 HD
ATOM     20  H   LIG d   1       0.037  80.284 115.959  0.00  0.00    -0.090 HD
ATOM     21  H   LIG d   1      -1.359  79.437 116.092  0.00  0.00    -0.090 HD
ENDBRANCH   5  18
BRANCH   3  22
ATOM     22  C   LIG d   1      -3.031  77.954 111.892  0.00  0.00     0.382 C 
ATOM     23  O   LIG d   1      -3.928  77.538 112.665  0.00  0.00    -0.241 OA
ATOM     24  O   LIG d   1      -2.919  77.452 110.758  0.00  0.00    -0.241 OA
ENDBRANCH   3  22
TORSDOF 7
ENDMDL
MODEL 2
REMARK VINA RESULT:      -5.1      4.048      7.381
REMARK  7 active torsions:
REMARK  status: ('A' for Active; 'I' for Inactive)
REMARK    1  A    between atoms: C_2  and  C_3 
REMARK    2  A    between atoms: C_3  and  O_6 
REMARK    3  A    between atoms: C_3  and  C_4 
REMARK    4  A    between atoms: C_7  and  O_6 
REMARK    5  A    between atoms: C_9  and  C_10 
REMARK    6  A    between atoms: N_15  and  C_14 
REMARK    7  A    between atoms: N_20  and  C_19 
REMARK       I    between atoms: C_22  and  N_20 
ROOT
ATOM      1  C   LIG d   1      -3.024  78.876 115.906  0.00  0.00     0.161 C 
ATOM      2  C   LIG d   1      -3.047  79.922 114.968  0.00  0.00     0.016 C 
ATOM      3  C   LIG d   1      -2.478  79.822 113.677  0.00  0.00     0.038 C 
ATOM      4  C   LIG d   1      -1.976  78.610 113.179  0.00  0.00     0.028 C 
ATOM      5  C   LIG d   1      -1.477  77.668 114.269  0.00  0.00    -0.047 C 
ATOM      6  C   LIG d   1      -2.580  77.510 115.341  0.00  0.00     0.091 C 
ENDROOT
BRANCH   1   7
ATOM      7  O   LIG d   1      -4.313  78.760 116.540  0.00  0.00    -0.368 OA
BRANCH   7   8
ATOM      8  C   LIG d   1      -4.742  79.901 117.324  0.00  0.00     0.119 C 
BRANCH   8   9
ATOM      9  C   LIG d   1      -4.059  79.800 118.701  0.00  0.00     0.028 C 
ATOM     10  C   LIG d   1      -3.483  81.146 119.171  0.00  0.00     0.006 C 
ENDBRANCH   8   9
BRANCH   8  11
ATOM     11  C   LIG d   1      -6.245  79.846 117.611  0.00  0.00     0.028 C 
ATOM     12  C   LIG d   1      -6.902  81.235 117.620  0.00  0.00     0.006 C 
ENDBRANCH   8  11
ENDBRANCH   7   8
ENDBRANCH   1   7
BRANCH   6  13
ATOM     13  N   LIG d   1      -2.142  76.671 116.486  0.00  0.00    -0.311 N 
ATOM     14  C   LIG d   1      -2.335  75.354 116.546  0.00  0.00     0.210 C 
ATOM     15  C   LIG d   1      -1.824  74.683 117.825  0.00  0.00     0.109 C 
ATOM     16  O   LIG d   1      -2.851  74.673 115.647  0.00  0.00    -0.276 OA
ATOM     17  H   LIG d   1      -1.686  77.137 117.246  0.00  0.00     0.149 HD
ENDBRANCH   6  13
BRANCH   5  18
ATOM     18  N   LIG d   1      -1.112  76.393 113.624  0.00  0.00     0.381 N 
ATOM     19  H   LIG d   1      -0.388  76.549 112.951  0.00  0.00    -0.090 HD
ATOM     20  H   LIG d   1      -1.916  76.030 113.143  0.00  0.00    -0.090 HD
ATOM     21  H   LIG d   1      -0.802  75.740 114.309  0.00  0.00    -0.090 HD
ENDBRANCH   5  18
BRANCH   3  22
ATOM     22  C   LIG d   1      -2.370  80.955 112.885  0.00  0.00     0.382 C 
ATOM     23  O   LIG d   1      -1.485  81.017 111.998  0.00  0.00    -0.241 OA
ATOM     24  O   LIG d   1      -3.118  81.932 113.075  0.00  0.00    -0.241 OA
ENDBRANCH   3  22
TORSDOF 7
ENDMDL
MODEL 3
REMARK VINA RESULT:      -4.7      2.867      5.361
REMARK  7 active torsions:
REMARK  status: ('A' for Active; 'I' for Inactive)
REMARK    1  A    between atoms: C_2  and  C_3 
REMARK    2  A    between atoms: C_3  and  O_6 
REMARK    3  A    between atoms: C_3  and  C_4 
REMARK    4  A    between atoms: C_7  and  O_6 
REMARK    5  A    between atoms: C_9  and  C_10 
REMARK    6  A    between atoms: N_15  and  C_14 
REMARK    7  A    between atoms: N_20  and  C_19 
REMARK       I    between atoms: C_22  and  N_20 
ROOT
ATOM      1  C   LIG d   1      -1.987  79.816 114.617  0.00  0.00     0.161 C 
ATOM      2  C   LIG d   1      -2.615  78.617 114.995  0.00  0.00     0.016 C 
ATOM      3  C   LIG d   1      -2.841  77.544 114.103  0.00  0.00     0.038 C 
ATOM      4  C   LIG d   1      -2.316  77.537 112.802  0.00  0.00     0.028 C 
ATOM      5  C   LIG d   1      -2.114  78.933 112.223  0.00  0.00    -0.047 C 
ATOM      6  C   LIG d   1      -1.309  79.783 113.232  0.00  0.00     0.091 C 
ENDROOT
BRANCH   1   7
ATOM      7  O   LIG d   1      -1.040  80.211 115.629  0.00  0.00    -0.368 OA
BRANCH   7   8
ATOM      8  C   LIG d   1      -1.113  79.493 116.886  0.00  0.00     0.119 C 
BRANCH   8   9
ATOM      9  C   LIG d   1      -1.399  80.526 117.993  0.00  0.00     0.028 C 
ATOM     10  C   LIG d   1      -2.861  80.483 118.471  0.00  0.00     0.006 C 
ENDBRANCH   8   9
BRANCH   8  11
ATOM     11  C   LIG d   1       0.238  78.871 117.251  0.00  0.00     0.028 C 
ATOM     12  C   LIG d   1       0.119  77.403 117.689  0.00  0.00     0.006 C 
ENDBRANCH   8  11
ENDBRANCH   7   8
ENDBRANCH   1   7
BRANCH   6  13
ATOM     13  N   LIG d   1      -1.139  81.188 112.780  0.00  0.00    -0.311 N 
ATOM     14  C   LIG d   1      -0.074  81.618 112.105  0.00  0.00     0.210 C 
ATOM     15  C   LIG d   1      -0.089  83.109 111.754  0.00  0.00     0.109 C 
ATOM     16  O   LIG d   1       0.867  80.899 111.737  0.00  0.00    -0.276 OA
ATOM     17  H   LIG d   1      -1.870  81.833 113.010  0.00  0.00     0.149 HD
ENDBRANCH   6  13
BRANCH   5  18
ATOM     18  N   LIG d   1      -1.436  78.782 110.922  0.00  0.00     0.381 N 
ATOM     19  H   LIG d   1      -1.708  79.524 110.310  0.00  0.00    -0.090 HD
ATOM     20  H   LIG d   1      -1.718  77.911 110.507  0.00  0.00    -0.090 HD
ATOM     21  H   LIG d   1      -0.448  78.792 111.050  0.00  0.00    -0.090 HD
ENDBRANCH   5  18
BRANCH   3  22
ATOM     22  C   LIG d   1      -3.635  76.478 114.499  0.00  0.00     0.382 C 
ATOM     23  O   LIG d   1      -4.802  76.366 114.052  0.00  0.00    -0.241 OA
ATOM     24  O   LIG d   1      -3.215  75.652 115.331  0.00  0.00    -0.241 OA
ENDBRANCH   3  22
TORSDOF 7
ENDMDL
MODEL 4
REMARK VINA RESULT:      -4.6      4.276      7.564
REMARK  7 active torsions:
REMARK  status: ('A' for Active; 'I' for Inactive)
REMARK    1  A    between atoms: C_2  and  C_3 
REMARK    2  A    between atoms: C_3  and  O_6 
REMARK    3  A    between atoms: C_3  and  C_4 
REMARK    4  A    between atoms: C_7  and  O_6 
REMARK    5  A    between atoms: C_9  and  C_10 
REMARK    6  A    between atoms: N_15  and  C_14 
REMARK    7  A    between atoms: N_20  and  C_19 
REMARK       I    between atoms: C_22  and  N_20 
ROOT
ATOM      1  C   LIG d   1      -2.534  79.026 116.719  0.00  0.00     0.161 C 
ATOM      2  C   LIG d   1      -2.869  79.805 115.599  0.00  0.00     0.016 C 
ATOM      3  C   LIG d   1      -2.428  79.513 114.288  0.00  0.00     0.038 C 
ATOM      4  C   LIG d   1      -1.741  78.328 113.984  0.00  0.00     0.028 C 
ATOM      5  C   LIG d   1      -0.948  77.768 115.160  0.00  0.00    -0.047 C 
ATOM      6  C   LIG d   1      -1.879  77.669 116.391  0.00  0.00     0.091 C 
ENDROOT
BRANCH   1   7
ATOM      7  O   LIG d   1      -3.699  78.833 117.546  0.00  0.00    -0.368 OA
BRANCH   7   8
ATOM      8  C   LIG d   1      -4.745  77.999 116.988  0.00  0.00     0.119 C 
BRANCH   8   9
ATOM      9  C   LIG d   1      -6.089  78.707 117.248  0.00  0.00     0.028 C 
ATOM     10  C   LIG d   1      -5.909  80.184 117.637  0.00  0.00     0.006 C 
ENDBRANCH   8   9
BRANCH   8  11
ATOM     11  C   LIG d   1      -4.843  76.660 117.725  0.00  0.00     0.028 C 
ATOM     12  C   LIG d   1      -4.486  76.773 119.215  0.00  0.00     0.006 C 
ENDBRANCH   8  11
ENDBRANCH   7   8
ENDBRANCH   1   7
BRANCH   6  13
ATOM     13  N   LIG d   1      -1.161  77.209 117.608  0.00  0.00    -0.311 N 
ATOM     14  C   LIG d   1      -1.096  75.932 117.983  0.00  0.00     0.210 C 
ATOM     15  C   LIG d   1      -0.323  75.678 119.281  0.00  0.00     0.109 C 
ATOM     16  O   LIG d   1      -1.576  74.983 117.346  0.00  0.00    -0.276 OA
ATOM     17  H   LIG d   1      -0.716  77.910 118.167  0.00  0.00     0.149 HD
ENDBRANCH   6  13
BRANCH   5  18
ATOM     18  N   LIG d   1      -0.396  76.465 114.746  0.00  0.00     0.381 N 
ATOM     19  H   LIG d   1       0.594  76.540 114.622  0.00  0.00    -0.090 HD
ATOM     20  H   LIG d   1      -0.805  76.204 113.866  0.00  0.00    -0.090 HD
ATOM     21  H   LIG d   1      -0.600  75.774 115.434  0.00  0.00    -0.090 HD
ENDBRANCH   5  18
BRANCH   3  22
ATOM     22  C   LIG d   1      -2.638  80.432 113.271  0.00  0.00     0.382 C 
ATOM     23  O   LIG d   1      -3.344  81.448 113.481  0.00  0.00    -0.241 OA
ATOM     24  O   LIG d   1      -2.169  80.235 112.135  0.00  0.00    -0.241 OA
ENDBRANCH   3  22
TORSDOF 7
ENDMDL
MODEL 5
REMARK VINA RESULT:      -4.5      4.326      7.683
REMARK  7 active torsions:
REMARK  status: ('A' for Active; 'I' for Inactive)
REMARK    1  A    between atoms: C_2  and  C_3 
REMARK    2  A    between atoms: C_3  and  O_6 
REMARK    3  A    between atoms: C_3  and  C_4 
REMARK    4  A    between atoms: C_7  and  O_6 
REMARK    5  A    between atoms: C_9  and  C_10 
REMARK    6  A    between atoms: N_15  and  C_14 
REMARK    7  A    between atoms: N_20  and  C_19 
REMARK       I    between atoms: C_22  and  N_20 
ROOT
ATOM      1  C   LIG d   1      -1.754  76.173 115.365  0.00  0.00     0.161 C 
ATOM      2  C   LIG d   1      -1.477  76.035 116.735  0.00  0.00     0.016 C 
ATOM      3  C   LIG d   1      -0.978  77.086 117.538  0.00  0.00     0.038 C 
ATOM      4  C   LIG d   1      -0.864  78.398 117.054  0.00  0.00     0.028 C 
ATOM      5  C   LIG d   1      -0.654  78.472 115.546  0.00  0.00    -0.047 C 
ATOM      6  C   LIG d   1      -1.742  77.626 114.846  0.00  0.00     0.091 C 
ENDROOT
BRANCH   1   7
ATOM      7  O   LIG d   1      -3.012  75.541 115.054  0.00  0.00    -0.368 OA
BRANCH   7   8
ATOM      8  C   LIG d   1      -3.999  75.530 116.115  0.00  0.00     0.119 C 
BRANCH   8   9
ATOM      9  C   LIG d   1      -4.772  74.201 116.015  0.00  0.00     0.028 C 
ATOM     10  C   LIG d   1      -5.919  74.264 114.993  0.00  0.00     0.006 C 
ENDBRANCH   8   9
BRANCH   8  11
ATOM     11  C   LIG d   1      -5.048  76.626 115.910  0.00  0.00     0.028 C 
ATOM     12  C   LIG d   1      -4.929  77.765 116.935  0.00  0.00     0.006 C 
ENDBRANCH   8  11
ENDBRANCH   7   8
ENDBRANCH   1   7
BRANCH   6  13
ATOM     13  N   LIG d   1      -1.559  77.575 113.372  0.00  0.00    -0.311 N 
ATOM     14  C   LIG d   1      -2.537  77.828 112.503  0.00  0.00     0.210 C 
ATOM     15  C   LIG d   1      -2.140  77.701 111.028  0.00  0.00     0.109 C 
ATOM     16  O   LIG d   1      -3.686  78.176 112.812  0.00  0.00    -0.276 OA
ATOM     17  H   LIG d   1      -0.649  77.331 113.033  0.00  0.00     0.149 HD
ENDBRANCH   6  13
BRANCH   5  18
ATOM     18  N   LIG d   1      -0.691  79.895 115.160  0.00  0.00     0.381 N 
ATOM     19  H   LIG d   1      -1.529  80.318 115.506  0.00  0.00    -0.090 HD
ATOM     20  H   LIG d   1      -0.696  79.960 114.157  0.00  0.00    -0.090 HD
ATOM     21  H   LIG d   1       0.105  80.369 115.527  0.00  0.00    -0.090 HD
ENDBRANCH   5  18
BRANCH   3  22
ATOM     22  C   LIG d   1      -0.548  76.820 118.829  0.00  0.00     0.382 C 
ATOM     23  O   LIG d   1       0.232  75.862 119.045  0.00  0.00    -0.241 OA
ATOM     24  O   LIG d   1      -0.966  77.499 119.786  0.00  0.00    -0.241 OA
ENDBRANCH   3  22
TORSDOF 7
ENDMDL
MODEL 6
REMARK VINA RESULT:      -4.5      4.163      7.437
REMARK  7 active torsions:
REMARK  status: ('A' for Active; 'I' for Inactive)
REMARK    1  A    between atoms: C_2  and  C_3 
REMARK    2  A    between atoms: C_3  and  O_6 
REMARK    3  A    between atoms: C_3  and  C_4 
REMARK    4  A    between atoms: C_7  and  O_6 
REMARK    5  A    between atoms: C_9  and  C_10 
REMARK    6  A    between atoms: N_15  and  C_14 
REMARK    7  A    between atoms: N_20  and  C_19 
REMARK       I    between atoms: C_22  and  N_20 
ROOT
ATOM      1  C   LIG d   1      -2.959  76.798 115.275  0.00  0.00     0.161 C 
ATOM      2  C   LIG d   1      -2.790  77.008 113.897  0.00  0.00     0.016 C 
ATOM      3  C   LIG d   1      -2.203  78.174 113.353  0.00  0.00     0.038 C 
ATOM      4  C   LIG d   1      -1.604  79.149 114.164  0.00  0.00     0.028 C 
ATOM      5  C   LIG d   1      -2.200  79.220 115.566  0.00  0.00    -0.047 C 
ATOM      6  C   LIG d   1      -2.212  77.801 116.179  0.00  0.00     0.091 C 
ENDROOT
BRANCH   1   7
ATOM      7  O   LIG d   1      -2.588  75.447 115.613  0.00  0.00    -0.368 OA
BRANCH   7   8
ATOM      8  C   LIG d   1      -3.668  74.573 116.026  0.00  0.00     0.119 C 
BRANCH   8   9
ATOM      9  C   LIG d   1      -4.983  75.365 115.887  0.00  0.00     0.028 C 
ATOM     10  C   LIG d   1      -5.941  74.736 114.862  0.00  0.00     0.006 C 
ENDBRANCH   8   9
BRANCH   8  11
ATOM     11  C   LIG d   1      -3.562  74.221 117.513  0.00  0.00     0.028 C 
ATOM     12  C   LIG d   1      -2.110  74.180 118.014  0.00  0.00     0.006 C 
ENDBRANCH   8  11
ENDBRANCH   7   8
ENDBRANCH   1   7
BRANCH   6  13
ATOM     13  N   LIG d   1      -2.857  77.767 117.518  0.00  0.00    -0.311 N 
ATOM     14  C   LIG d   1      -2.176  77.836 118.661  0.00  0.00     0.210 C 
ATOM     15  C   LIG d   1      -3.033  77.764 119.928  0.00  0.00     0.109 C 
ATOM     16  O   LIG d   1      -0.948  77.982 118.745  0.00  0.00    -0.276 OA
ATOM     17  H   LIG d   1      -3.854  77.681 117.542  0.00  0.00     0.149 HD
ENDBRANCH   6  13
BRANCH   5  18
ATOM     18  N   LIG d   1      -1.394  80.179 116.345  0.00  0.00     0.381 N 
ATOM     19  H   LIG d   1      -1.261  81.018 115.816  0.00  0.00    -0.090 HD
ATOM     20  H   LIG d   1      -0.493  79.774 116.526  0.00  0.00    -0.090 HD
ATOM     21  H   LIG d   1      -1.851  80.390 117.205  0.00  0.00    -0.090 HD
ENDBRANCH   5  18
BRANCH   3  22
ATOM     22  C   LIG d   1      -2.246  78.391 111.985  0.00  0.00     0.382 C 
ATOM     23  O   LIG d   1      -1.777  79.450 111.503  0.00  0.00    -0.241 OA
ATOM     24  O   LIG d   1      -2.789  77.562 111.230  0.00  0.00    -0.241 OA
ENDBRANCH   3  22
TORSDOF 7
ENDMDL
MODEL 7
REMARK VINA RESULT:      -4.3      4.025      6.781
REMARK  7 active torsions:
REMARK  status: ('A' for Active; 'I' for Inactive)
REMARK    1  A    between atoms: C_2  and  C_3 
REMARK    2  A    between atoms: C_3  and  O_6 
REMARK    3  A    between atoms: C_3  and  C_4 
REMARK    4  A    between atoms: C_7  and  O_6 
REMARK    5  A    between atoms: C_9  and  C_10 
REMARK    6  A    between atoms: N_15  and  C_14 
REMARK    7  A    between atoms: N_20  and  C_19 
REMARK       I    between atoms: C_22  and  N_20 
ROOT
ATOM      1  C   LIG d   1      -2.424  78.767 115.881  0.00  0.00     0.161 C 
ATOM      2  C   LIG d   1      -1.334  79.617 116.131  0.00  0.00     0.016 C 
ATOM      3  C   LIG d   1      -0.164  79.204 116.808  0.00  0.00     0.038 C 
ATOM      4  C   LIG d   1       0.060  77.862 117.150  0.00  0.00     0.028 C 
ATOM      5  C   LIG d   1      -1.225  77.070 117.368  0.00  0.00    -0.047 C 
ATOM      6  C   LIG d   1      -2.152  77.272 116.148  0.00  0.00     0.091 C 
ENDROOT
BRANCH   1   7
ATOM      7  O   LIG d   1      -2.892  78.957 114.531  0.00  0.00    -0.368 OA
BRANCH   7   8
ATOM      8  C   LIG d   1      -1.948  78.644 113.478  0.00  0.00     0.119 C 
BRANCH   8   9
ATOM      9  C   LIG d   1      -1.844  79.882 112.566  0.00  0.00     0.028 C 
ATOM     10  C   LIG d   1      -2.838  80.987 112.961  0.00  0.00     0.006 C 
ENDBRANCH   8   9
BRANCH   8  11
ATOM     11  C   LIG d   1      -2.469  77.520 112.578  0.00  0.00     0.028 C 
ATOM     12  C   LIG d   1      -2.343  77.848 111.082  0.00  0.00     0.006 C 
ENDBRANCH   8  11
ENDBRANCH   7   8
ENDBRANCH   1   7
BRANCH   6  13
ATOM     13  N   LIG d   1      -3.466  76.599 116.317  0.00  0.00    -0.311 N 
ATOM     14  C   LIG d   1      -3.711  75.355 115.909  0.00  0.00     0.210 C 
ATOM     15  C   LIG d   1      -5.138  74.860 116.163  0.00  0.00     0.109 C 
ATOM     16  O   LIG d   1      -2.872  74.603 115.391  0.00  0.00    -0.276 OA
ATOM     17  H   LIG d   1      -4.195  77.126 116.757  0.00  0.00     0.149 HD
ENDBRANCH   6  13
BRANCH   5  18
ATOM     18  N   LIG d   1      -0.849  75.660 117.582  0.00  0.00     0.381 N 
ATOM     19  H   LIG d   1      -1.665  75.118 117.784  0.00  0.00    -0.090 HD
ATOM     20  H   LIG d   1      -0.230  75.605 118.372  0.00  0.00    -0.090 HD
ATOM     21  H   LIG d   1      -0.396  75.301 116.770  0.00  0.00    -0.090 HD
ENDBRANCH   5  18
BRANCH   3  22
ATOM     22  C   LIG d   1       0.781  80.146 117.186  0.00  0.00     0.382 C 
ATOM     23  O   LIG d   1       0.476  81.362 117.216  0.00  0.00    -0.241 OA
ATOM     24  O   LIG d   1       1.947  79.799 117.454  0.00  0.00    -0.241 OA
ENDBRANCH   3  22
TORSDOF 7
ENDMDL
MODEL 8
REMARK VINA RESULT:      -4.2      4.591      6.483
REMARK  7 active torsions:
REMARK  status: ('A' for Active; 'I' for Inactive)
REMARK    1  A    between atoms: C_2  and  C_3 
REMARK    2  A    between atoms: C_3  and  O_6 
REMARK    3  A    between atoms: C_3  and  C_4 
REMARK    4  A    between atoms: C_7  and  O_6 
REMARK    5  A    between atoms: C_9  and  C_10 
REMARK    6  A    between atoms: N_15  and  C_14 
REMARK    7  A    between atoms: N_20  and  C_19 
REMARK       I    between atoms: C_22  and  N_20 
ROOT
ATOM      1  C   LIG d   1      -2.067  76.418 115.734  0.00  0.00     0.161 C 
ATOM      2  C   LIG d   1      -3.294  76.130 115.113  0.00  0.00     0.016 C 
ATOM      3  C   LIG d   1      -4.416  75.621 115.806  0.00  0.00     0.038 C 
ATOM      4  C   LIG d   1      -4.435  75.506 117.204  0.00  0.00     0.028 C 
ATOM      5  C   LIG d   1      -3.052  75.308 117.814  0.00  0.00    -0.047 C 
ATOM      6  C   LIG d   1      -2.104  76.404 117.276  0.00  0.00     0.091 C 
ENDROOT
BRANCH   1   7
ATOM      7  O   LIG d   1      -1.562  77.680 115.255  0.00  0.00    -0.368 OA
BRANCH   7   8
ATOM      8  C   LIG d   1      -2.552  78.619 114.767  0.00  0.00     0.119 C 
BRANCH   8   9
ATOM      9  C   LIG d   1      -1.995  79.249 113.476  0.00  0.00     0.028 C 
ATOM     10  C   LIG d   1      -2.689  80.575 113.122  0.00  0.00     0.006 C 
ENDBRANCH   8   9
BRANCH   8  11
ATOM     11  C   LIG d   1      -2.740  79.787 115.739  0.00  0.00     0.028 C 
ATOM     12  C   LIG d   1      -3.914  79.572 116.708  0.00  0.00     0.006 C 
ENDBRANCH   8  11
ENDBRANCH   7   8
ENDBRANCH   1   7
BRANCH   6  13
ATOM     13  N   LIG d   1      -0.708  76.234 117.758  0.00  0.00    -0.311 N 
ATOM     14  C   LIG d   1      -0.074  77.138 118.501  0.00  0.00     0.210 C 
ATOM     15  C   LIG d   1       1.367  76.774 118.873  0.00  0.00     0.109 C 
ATOM     16  O   LIG d   1      -0.578  78.193 118.915  0.00  0.00    -0.276 OA
ATOM     17  H   LIG d   1      -0.235  75.392 117.494  0.00  0.00     0.149 HD
ENDBRANCH   6  13
BRANCH   5  18
ATOM     18  N   LIG d   1      -3.202  75.343 119.281  0.00  0.00     0.381 N 
ATOM     19  H   LIG d   1      -4.131  75.071 119.533  0.00  0.00    -0.090 HD
ATOM     20  H   LIG d   1      -3.050  76.283 119.601  0.00  0.00    -0.090 HD
ATOM     21  H   LIG d   1      -2.542  74.729 119.706  0.00  0.00    -0.090 HD
ENDBRANCH   5  18
BRANCH   3  22
ATOM     22  C   LIG d   1      -5.523  75.182 115.095  0.00  0.00     0.382 C 
ATOM     23  O   LIG d   1      -6.167  74.181 115.491  0.00  0.00    -0.241 OA
ATOM     24  O   LIG d   1      -5.859  75.748 114.037  0.00  0.00    -0.241 OA
ENDBRANCH   3  22
TORSDOF 7
ENDMDL
MODEL 9
REMARK VINA RESULT:      -4.1      3.609      5.306
REMARK  7 active torsions:
REMARK  status: ('A' for Active; 'I' for Inactive)
REMARK    1  A    between atoms: C_2  and  C_3 
REMARK    2  A    between atoms: C_3  and  O_6 
REMARK    3  A    between atoms: C_3  and  C_4 
REMARK    4  A    between atoms: C_7  and  O_6 
REMARK    5  A    between atoms: C_9  and  C_10 
REMARK    6  A    between atoms: N_15  and  C_14 
REMARK    7  A    between atoms: N_20  and  C_19 
REMARK       I    between atoms: C_22  and  N_20 
ROOT
ATOM      1  C   LIG d   1      -2.615  77.397 115.133  0.00  0.00     0.161 C 
ATOM      2  C   LIG d   1      -3.642  76.441 115.072  0.00  0.00     0.016 C 
ATOM      3  C   LIG d   1      -4.127  75.747 116.205  0.00  0.00     0.038 C 
ATOM      4  C   LIG d   1      -3.718  76.074 117.506  0.00  0.00     0.028 C 
ATOM      5  C   LIG d   1      -2.320  76.679 117.567  0.00  0.00    -0.047 C 
ATOM      6  C   LIG d   1      -2.233  77.847 116.558  0.00  0.00     0.091 C 
ENDROOT
BRANCH   1   7
ATOM      7  O   LIG d   1      -2.961  78.537 114.322  0.00  0.00    -0.368 OA
BRANCH   7   8
ATOM      8  C   LIG d   1      -2.132  78.765 113.155  0.00  0.00     0.119 C 
BRANCH   8   9
ATOM      9  C   LIG d   1      -1.881  80.282 113.055  0.00  0.00     0.028 C 
ATOM     10  C   LIG d   1      -0.388  80.620 112.908  0.00  0.00     0.006 C 
ENDBRANCH   8   9
BRANCH   8  11
ATOM     11  C   LIG d   1      -2.870  78.390 111.867  0.00  0.00     0.028 C 
ATOM     12  C   LIG d   1      -2.077  77.409 110.989  0.00  0.00     0.006 C 
ENDBRANCH   8  11
ENDBRANCH   7   8
ENDBRANCH   1   7
BRANCH   6  13
ATOM     13  N   LIG d   1      -0.873  78.441 116.493  0.00  0.00    -0.311 N 
ATOM     14  C   LIG d   1      -0.615  79.717 116.774  0.00  0.00     0.210 C 
ATOM     15  C   LIG d   1       0.853  80.129 116.625  0.00  0.00     0.109 C 
ATOM     16  O   LIG d   1      -1.458  80.539 117.164  0.00  0.00    -0.276 OA
ATOM     17  H   LIG d   1      -0.124  77.837 116.216  0.00  0.00     0.149 HD
ENDBRANCH   6  13
BRANCH   5  18
ATOM     18  N   LIG d   1      -2.076  77.099 118.960  0.00  0.00     0.381 N 
ATOM     19  H   LIG d   1      -2.949  77.239 119.429  0.00  0.00    -0.090 HD
ATOM     20  H   LIG d   1      -1.578  77.972 118.954  0.00  0.00    -0.090 HD
ATOM     21  H   LIG d   1      -1.542  76.406 119.437  0.00  0.00    -0.090 HD
ENDBRANCH   5  18
BRANCH   3  22
ATOM     22  C   LIG d   1      -5.003  74.685 116.037  0.00  0.00     0.382 C 
ATOM     23  O   LIG d   1      -5.574  74.180 117.034  0.00  0.00    -0.241 OA
ATOM     24  O   LIG d   1      -5.196  74.197 114.908  0.00  0.00    -0.241 OA
ENDBRANCH   3  22
TORSDOF 7
ENDMDL
