MODEL 1
REMARK VINA RESULT:      -4.9      0.000      0.000
REMARK  7 active torsions:
REMARK  status: ('A' for Active; 'I' for Inactive)
REMARK    1  A    between atoms: C_2  and  C_3 
REMARK    2  A    between atoms: C_3  and  O_6 
REMARK    3  A    between atoms: C_3  and  C_4 
REMARK    4  A    between atoms: C_7  and  O_6 
REMARK    5  A    between atoms: C_9  and  C_10 
REMARK    6  A    between atoms: N_15  and  C_14 
REMARK    7  A    between atoms: N_20  and  C_19 
REMARK       I    between atoms: C_22  and  N_20 
ROOT
ATOM      1  C   LIG d   1      -3.059  78.487 115.593  0.00  0.00     0.161 C 
ATOM      2  C   LIG d   1      -3.252  79.628 114.797  0.00  0.00     0.016 C 
ATOM      3  C   LIG d   1      -2.848  79.713 113.445  0.00  0.00     0.038 C 
ATOM      4  C   LIG d   1      -2.355  78.599 112.748  0.00  0.00     0.028 C 
ATOM      5  C   LIG d   1      -1.676  77.573 113.648  0.00  0.00    -0.047 C 
ATOM      6  C   LIG d   1      -2.624  77.225 114.818  0.00  0.00     0.091 C 
ENDROOT
BRANCH   1   7
ATOM      7  O   LIG d   1      -4.249  78.218 116.360  0.00  0.00    -0.368 OA
BRANCH   7   8
ATOM      8  C   LIG d   1      -4.329  78.859 117.657  0.00  0.00     0.119 C 
BRANCH   8   9
ATOM      9  C   LIG d   1      -4.790  77.794 118.671  0.00  0.00     0.028 C 
ATOM     10  C   LIG d   1      -3.741  76.689 118.879  0.00  0.00     0.006 C 
ENDBRANCH   8   9
BRANCH   8  11
ATOM     11  C   LIG d   1      -5.416  79.937 117.679  0.00  0.00     0.028 C 
ATOM     12  C   LIG d   1      -6.833  79.353 117.797  0.00  0.00     0.006 C 
ENDBRANCH   8  11
ENDBRANCH   7   8
ENDBRANCH   1   7
BRANCH   6  13
ATOM     13  N   LIG d   1      -2.003  76.290 115.792  0.00  0.00    -0.311 N 
ATOM     14  C   LIG d   1      -2.179  74.970 115.757  0.00  0.00     0.210 C 
ATOM     15  C   LIG d   1      -1.465  74.193 116.866  0.00  0.00     0.109 C 
ATOM     16  O   LIG d   1      -2.833  74.367 114.892  0.00  0.00    -0.276 OA
ATOM     17  H   LIG d   1      -1.431  76.692 116.509  0.00  0.00     0.149 HD
ENDBRANCH   6  13
BRANCH   5  18
ATOM     18  N   LIG d   1      -1.334  76.406 112.814  0.00  0.00     0.381 N 
ATOM     19  H   LIG d   1      -1.904  76.398 111.992  0.00  0.00    -0.090 HD
ATOM     20  H   LIG d   1      -1.521  75.567 113.335  0.00  0.00    -0.090 HD
ATOM     21  H   LIG d   1      -0.371  76.439 112.558  0.00  0.00    -0.090 HD
ENDBRANCH   5  18
BRANCH   3  22
ATOM     22  C   LIG d   1      -2.898  80.932 112.788  0.00  0.00     0.382 C 
ATOM     23  O   LIG d   1      -1.893  81.348 112.161  0.00  0.00    -0.241 OA
ATOM     24  O   LIG d   1      -3.919  81.642 112.850  0.00  0.00    -0.241 OA
ENDBRANCH   3  22
TORSDOF 7
ENDMDL
MODEL 2
REMARK VINA RESULT:      -4.7      2.605      3.944
REMARK  7 active torsions:
REMARK  status: ('A' for Active; 'I' for Inactive)
REMARK    1  A    between atoms: C_2  and  C_3 
REMARK    2  A    between atoms: C_3  and  O_6 
REMARK    3  A    between atoms: C_3  and  C_4 
REMARK    4  A    between atoms: C_7  and  O_6 
REMARK    5  A    between atoms: C_9  and  C_10 
REMARK    6  A    between atoms: N_15  and  C_14 
REMARK    7  A    between atoms: N_20  and  C_19 
REMARK       I    between atoms: C_22  and  N_20 
ROOT
ATOM      1  C   LIG d   1      -3.006  76.339 116.791  0.00  0.00     0.161 C 
ATOM      2  C   LIG d   1      -3.984  77.236 117.252  0.00  0.00     0.016 C 
ATOM      3  C   LIG d   1      -4.009  78.606 116.905  0.00  0.00     0.038 C 
ATOM      4  C   LIG d   1      -3.139  79.144 115.944  0.00  0.00     0.028 C 
ATOM      5  C   LIG d   1      -1.819  78.390 115.833  0.00  0.00    -0.047 C 
ATOM      6  C   LIG d   1      -2.115  76.883 115.654  0.00  0.00     0.091 C 
ENDROOT
BRANCH   1   7
ATOM      7  O   LIG d   1      -3.627  75.102 116.392  0.00  0.00    -0.368 OA
BRANCH   7   8
ATOM      8  C   LIG d   1      -5.025  75.182 116.019  0.00  0.00     0.119 C 
BRANCH   8   9
ATOM      9  C   LIG d   1      -5.797  74.181 116.901  0.00  0.00     0.028 C 
ATOM     10  C   LIG d   1      -6.406  74.845 118.147  0.00  0.00     0.006 C 
ENDBRANCH   8   9
BRANCH   8  11
ATOM     11  C   LIG d   1      -5.246  74.708 114.579  0.00  0.00     0.028 C 
ATOM     12  C   LIG d   1      -5.967  75.753 113.713  0.00  0.00     0.006 C 
ENDBRANCH   8  11
ENDBRANCH   7   8
ENDBRANCH   1   7
BRANCH   6  13
ATOM     13  N   LIG d   1      -0.876  76.062 115.622  0.00  0.00    -0.311 N 
ATOM     14  C   LIG d   1      -0.505  75.336 114.569  0.00  0.00     0.210 C 
ATOM     15  C   LIG d   1       0.796  74.548 114.752  0.00  0.00     0.109 C 
ATOM     16  O   LIG d   1      -1.112  75.296 113.488  0.00  0.00    -0.276 OA
ATOM     17  H   LIG d   1      -0.307  76.062 116.446  0.00  0.00     0.149 HD
ENDBRANCH   6  13
BRANCH   5  18
ATOM     18  N   LIG d   1      -1.068  78.970 114.704  0.00  0.00     0.381 N 
ATOM     19  H   LIG d   1      -0.179  79.301 115.022  0.00  0.00    -0.090 HD
ATOM     20  H   LIG d   1      -1.583  79.751 114.338  0.00  0.00    -0.090 HD
ATOM     21  H   LIG d   1      -0.939  78.284 113.992  0.00  0.00    -0.090 HD
ENDBRANCH   5  18
BRANCH   3  22
ATOM     22  C   LIG d   1      -4.887  79.463 117.551  0.00  0.00     0.382 C 
ATOM     23  O   LIG d   1      -5.511  80.333 116.896  0.00  0.00    -0.241 OA
ATOM     24  O   LIG d   1      -5.030  79.407 118.787  0.00  0.00    -0.241 OA
ENDBRANCH   3  22
TORSDOF 7
ENDMDL
MODEL 3
REMARK VINA RESULT:      -4.5      2.753      3.417
REMARK  7 active torsions:
REMARK  status: ('A' for Active; 'I' for Inactive)
REMARK    1  A    between atoms: C_2  and  C_3 
REMARK    2  A    between atoms: C_3  and  O_6 
REMARK    3  A    between atoms: C_3  and  C_4 
REMARK    4  A    between atoms: C_7  and  O_6 
REMARK    5  A    between atoms: C_9  and  C_10 
REMARK    6  A    between atoms: N_15  and  C_14 
REMARK    7  A    between atoms: N_20  and  C_19 
REMARK       I    between atoms: C_22  and  N_20 
ROOT
ATOM      1  C   LIG d   1      -3.818  78.135 116.946  0.00  0.00     0.161 C 
ATOM      2  C   LIG d   1      -2.953  79.108 117.474  0.00  0.00     0.016 C 
ATOM      3  C   LIG d   1      -1.614  79.271 117.049  0.00  0.00     0.038 C 
ATOM      4  C   LIG d   1      -1.092  78.566 115.954  0.00  0.00     0.028 C 
ATOM      5  C   LIG d   1      -1.771  77.220 115.721  0.00  0.00    -0.047 C 
ATOM      6  C   LIG d   1      -3.301  77.432 115.673  0.00  0.00     0.091 C 
ENDROOT
BRANCH   1   7
ATOM      7  O   LIG d   1      -5.116  78.715 116.706  0.00  0.00    -0.368 OA
BRANCH   7   8
ATOM      8  C   LIG d   1      -6.138  78.417 117.689  0.00  0.00     0.119 C 
BRANCH   8   9
ATOM      9  C   LIG d   1      -7.056  77.334 117.089  0.00  0.00     0.028 C 
ATOM     10  C   LIG d   1      -6.812  75.949 117.712  0.00  0.00     0.006 C 
ENDBRANCH   8   9
BRANCH   8  11
ATOM     11  C   LIG d   1      -7.045  79.627 117.933  0.00  0.00     0.028 C 
ATOM     12  C   LIG d   1      -6.323  80.967 117.716  0.00  0.00     0.006 C 
ENDBRANCH   8  11
ENDBRANCH   7   8
ENDBRANCH   1   7
BRANCH   6  13
ATOM     13  N   LIG d   1      -4.046  76.153 115.532  0.00  0.00    -0.311 N 
ATOM     14  C   LIG d   1      -4.709  75.809 114.430  0.00  0.00     0.210 C 
ATOM     15  C   LIG d   1      -5.426  74.457 114.502  0.00  0.00     0.109 C 
ATOM     16  O   LIG d   1      -4.746  76.480 113.388  0.00  0.00    -0.276 OA
ATOM     17  H   LIG d   1      -4.043  75.534 116.319  0.00  0.00     0.149 HD
ENDBRANCH   6  13
BRANCH   5  18
ATOM     18  N   LIG d   1      -1.226  76.657 114.471  0.00  0.00     0.381 N 
ATOM     19  H   LIG d   1      -0.714  77.361 113.977  0.00  0.00    -0.090 HD
ATOM     20  H   LIG d   1      -1.989  76.356 113.890  0.00  0.00    -0.090 HD
ATOM     21  H   LIG d   1      -0.630  75.886 114.676  0.00  0.00    -0.090 HD
ENDBRANCH   5  18
BRANCH   3  22
ATOM     22  C   LIG d   1      -0.769  80.119 117.750  0.00  0.00     0.382 C 
ATOM     23  O   LIG d   1      -0.916  80.268 118.987  0.00  0.00    -0.241 OA
ATOM     24  O   LIG d   1       0.108  80.770 117.153  0.00  0.00    -0.241 OA
ENDBRANCH   3  22
TORSDOF 7
ENDMDL
MODEL 4
REMARK VINA RESULT:      -4.5      2.468      3.198
REMARK  7 active torsions:
REMARK  status: ('A' for Active; 'I' for Inactive)
REMARK    1  A    between atoms: C_2  and  C_3 
REMARK    2  A    between atoms: C_3  and  O_6 
REMARK    3  A    between atoms: C_3  and  C_4 
REMARK    4  A    between atoms: C_7  and  O_6 
REMARK    5  A    between atoms: C_9  and  C_10 
REMARK    6  A    between atoms: N_15  and  C_14 
REMARK    7  A    between atoms: N_20  and  C_19 
REMARK       I    between atoms: C_22  and  N_20 
ROOT
ATOM      1  C   LIG d   1      -2.962  76.839 115.361  0.00  0.00     0.161 C 
ATOM      2  C   LIG d   1      -3.234  77.659 114.254  0.00  0.00     0.016 C 
ATOM      3  C   LIG d   1      -2.414  78.745 113.869  0.00  0.00     0.038 C 
ATOM      4  C   LIG d   1      -1.176  78.991 114.481  0.00  0.00     0.028 C 
ATOM      5  C   LIG d   1      -1.104  78.500 115.923  0.00  0.00    -0.047 C 
ATOM      6  C   LIG d   1      -1.558  77.023 115.973  0.00  0.00     0.091 C 
ENDROOT
BRANCH   1   7
ATOM      7  O   LIG d   1      -3.178  75.457 115.010  0.00  0.00    -0.368 OA
BRANCH   7   8
ATOM      8  C   LIG d   1      -4.220  74.769 115.744  0.00  0.00     0.119 C 
BRANCH   8   9
ATOM      9  C   LIG d   1      -5.236  74.236 114.715  0.00  0.00     0.028 C 
ATOM     10  C   LIG d   1      -5.942  75.366 113.948  0.00  0.00     0.006 C 
ENDBRANCH   8   9
BRANCH   8  11
ATOM     11  C   LIG d   1      -5.010  75.736 116.630  0.00  0.00     0.028 C 
ATOM     12  C   LIG d   1      -5.882  75.015 117.670  0.00  0.00     0.006 C 
ENDBRANCH   8  11
ENDBRANCH   7   8
ENDBRANCH   1   7
BRANCH   6  13
ATOM     13  N   LIG d   1      -1.598  76.489 117.360  0.00  0.00    -0.311 N 
ATOM     14  C   LIG d   1      -0.949  75.391 117.741  0.00  0.00     0.210 C 
ATOM     15  C   LIG d   1      -1.142  75.004 119.211  0.00  0.00     0.109 C 
ATOM     16  O   LIG d   1      -0.207  74.718 117.010  0.00  0.00    -0.276 OA
ATOM     17  H   LIG d   1      -2.152  76.991 118.026  0.00  0.00     0.149 HD
ENDBRANCH   6  13
BRANCH   5  18
ATOM     18  N   LIG d   1       0.281  78.695 116.392  0.00  0.00     0.381 N 
ATOM     19  H   LIG d   1       0.312  78.634 117.390  0.00  0.00    -0.090 HD
ATOM     20  H   LIG d   1       0.589  79.613 116.123  0.00  0.00    -0.090 HD
ATOM     21  H   LIG d   1       0.877  78.006 115.991  0.00  0.00    -0.090 HD
ENDBRANCH   5  18
BRANCH   3  22
ATOM     22  C   LIG d   1      -2.849  79.622 112.888  0.00  0.00     0.382 C 
ATOM     23  O   LIG d   1      -2.442  79.495 111.708  0.00  0.00    -0.241 OA
ATOM     24  O   LIG d   1      -3.610  80.565 113.176  0.00  0.00    -0.241 OA
ENDBRANCH   3  22
TORSDOF 7
ENDMDL
MODEL 5
REMARK VINA RESULT:      -4.3      2.593      5.428
REMARK  7 active torsions:
REMARK  status: ('A' for Active; 'I' for Inactive)
REMARK    1  A    between atoms: C_2  and  C_3 
REMARK    2  A    between atoms: C_3  and  O_6 
REMARK    3  A    between atoms: C_3  and  C_4 
REMARK    4  A    between atoms: C_7  and  O_6 
REMARK    5  A    between atoms: C_9  and  C_10 
REMARK    6  A    between atoms: N_15  and  C_14 
REMARK    7  A    between atoms: N_20  and  C_19 
REMARK       I    between atoms: C_22  and  N_20 
ROOT
ATOM      1  C   LIG d   1      -2.460  75.158 115.344  0.00  0.00     0.161 C 
ATOM      2  C   LIG d   1      -1.933  74.662 116.548  0.00  0.00     0.016 C 
ATOM      3  C   LIG d   1      -1.105  75.422 117.406  0.00  0.00     0.038 C 
ATOM      4  C   LIG d   1      -0.871  76.788 117.192  0.00  0.00     0.028 C 
ATOM      5  C   LIG d   1      -0.968  77.197 115.726  0.00  0.00    -0.047 C 
ATOM      6  C   LIG d   1      -2.306  76.681 115.149  0.00  0.00     0.091 C 
ENDROOT
BRANCH   1   7
ATOM      7  O   LIG d   1      -3.844  74.774 115.222  0.00  0.00    -0.368 OA
BRANCH   7   8
ATOM      8  C   LIG d   1      -4.809  75.671 115.824  0.00  0.00     0.119 C 
BRANCH   8   9
ATOM      9  C   LIG d   1      -5.183  75.092 117.202  0.00  0.00     0.028 C 
ATOM     10  C   LIG d   1      -4.868  76.064 118.352  0.00  0.00     0.006 C 
ENDBRANCH   8   9
BRANCH   8  11
ATOM     11  C   LIG d   1      -6.117  75.698 115.027  0.00  0.00     0.028 C 
ATOM     12  C   LIG d   1      -5.891  75.640 113.508  0.00  0.00     0.006 C 
ENDBRANCH   8  11
ENDBRANCH   7   8
ENDBRANCH   1   7
BRANCH   6  13
ATOM     13  N   LIG d   1      -2.444  76.964 113.697  0.00  0.00    -0.311 N 
ATOM     14  C   LIG d   1      -2.995  78.078 113.216  0.00  0.00     0.210 C 
ATOM     15  C   LIG d   1      -3.057  78.162 111.688  0.00  0.00     0.109 C 
ATOM     16  O   LIG d   1      -3.409  79.018 113.910  0.00  0.00    -0.276 OA
ATOM     17  H   LIG d   1      -2.106  76.268 113.062  0.00  0.00     0.149 HD
ENDBRANCH   6  13
BRANCH   5  18
ATOM     18  N   LIG d   1      -0.840  78.665 115.663  0.00  0.00     0.381 N 
ATOM     19  H   LIG d   1      -0.848  79.046 116.588  0.00  0.00    -0.090 HD
ATOM     20  H   LIG d   1      -1.625  79.039 115.160  0.00  0.00    -0.090 HD
ATOM     21  H   LIG d   1       0.008  78.913 115.201  0.00  0.00    -0.090 HD
ENDBRANCH   5  18
BRANCH   3  22
ATOM     22  C   LIG d   1      -0.470  74.804 118.473  0.00  0.00     0.382 C 
ATOM     23  O   LIG d   1      -1.128  74.473 119.488  0.00  0.00    -0.241 OA
ATOM     24  O   LIG d   1       0.761  74.613 118.450  0.00  0.00    -0.241 OA
ENDBRANCH   3  22
TORSDOF 7
ENDMDL
MODEL 6
REMARK VINA RESULT:      -4.3      2.376      2.911
REMARK  7 active torsions:
REMARK  status: ('A' for Active; 'I' for Inactive)
REMARK    1  A    between atoms: C_2  and  C_3 
REMARK    2  A    between atoms: C_3  and  O_6 
REMARK    3  A    between atoms: C_3  and  C_4 
REMARK    4  A    between atoms: C_7  and  O_6 
REMARK    5  A    between atoms: C_9  and  C_10 
REMARK    6  A    between atoms: N_15  and  C_14 
REMARK    7  A    between atoms: N_20  and  C_19 
REMARK       I    between atoms: C_22  and  N_20 
ROOT
ATOM      1  C   LIG d   1      -3.066  76.482 116.141  0.00  0.00     0.161 C 
ATOM      2  C   LIG d   1      -3.391  77.571 115.315  0.00  0.00     0.016 C 
ATOM      3  C   LIG d   1      -2.749  77.831 114.082  0.00  0.00     0.038 C 
ATOM      4  C   LIG d   1      -1.836  76.928 113.517  0.00  0.00     0.028 C 
ATOM      5  C   LIG d   1      -1.109  76.075 114.551  0.00  0.00    -0.047 C 
ATOM      6  C   LIG d   1      -2.151  75.425 115.489  0.00  0.00     0.091 C 
ENDROOT
BRANCH   1   7
ATOM      7  O   LIG d   1      -4.273  75.866 116.633  0.00  0.00    -0.368 OA
BRANCH   7   8
ATOM      8  C   LIG d   1      -5.497  76.221 115.945  0.00  0.00     0.119 C 
BRANCH   8   9
ATOM      9  C   LIG d   1      -6.624  76.262 116.995  0.00  0.00     0.028 C 
ATOM     10  C   LIG d   1      -6.331  75.361 118.206  0.00  0.00     0.006 C 
ENDBRANCH   8   9
BRANCH   8  11
ATOM     11  C   LIG d   1      -5.911  75.135 114.948  0.00  0.00     0.028 C 
ATOM     12  C   LIG d   1      -6.013  75.657 113.506  0.00  0.00     0.006 C 
ENDBRANCH   8  11
ENDBRANCH   7   8
ENDBRANCH   1   7
BRANCH   6  13
ATOM     13  N   LIG d   1      -1.520  74.641 116.582  0.00  0.00    -0.311 N 
ATOM     14  C   LIG d   1      -0.689  75.170 117.478  0.00  0.00     0.210 C 
ATOM     15  C   LIG d   1      -0.134  74.181 118.508  0.00  0.00     0.109 C 
ATOM     16  O   LIG d   1      -0.383  76.370 117.537  0.00  0.00    -0.276 OA
ATOM     17  H   LIG d   1      -1.737  73.664 116.627  0.00  0.00     0.149 HD
ENDBRANCH   6  13
BRANCH   5  18
ATOM     18  N   LIG d   1      -0.294  75.086 113.819  0.00  0.00     0.381 N 
ATOM     19  H   LIG d   1      -0.564  74.161 114.085  0.00  0.00    -0.090 HD
ATOM     20  H   LIG d   1       0.672  75.215 114.065  0.00  0.00    -0.090 HD
ATOM     21  H   LIG d   1      -0.413  75.206 112.837  0.00  0.00    -0.090 HD
ENDBRANCH   5  18
BRANCH   3  22
ATOM     22  C   LIG d   1      -2.988  79.026 113.421  0.00  0.00     0.382 C 
ATOM     23  O   LIG d   1      -2.693  79.141 112.207  0.00  0.00    -0.241 OA
ATOM     24  O   LIG d   1      -3.456  80.004 114.034  0.00  0.00    -0.241 OA
ENDBRANCH   3  22
TORSDOF 7
ENDMDL
MODEL 7
REMARK VINA RESULT:      -4.3      2.606      5.248
REMARK  7 active torsions:
REMARK  status: ('A' for Active; 'I' for Inactive)
REMARK    1  A    between atoms: C_2  and  C_3 
REMARK    2  A    between atoms: C_3  and  O_6 
REMARK    3  A    between atoms: C_3  and  C_4 
REMARK    4  A    between atoms: C_7  and  O_6 
REMARK    5  A    between atoms: C_9  and  C_10 
REMARK    6  A    between atoms: N_15  and  C_14 
REMARK    7  A    between atoms: N_20  and  C_19 
REMARK       I    between atoms: C_22  and  N_20 
ROOT
ATOM      1  C   LIG d   1      -1.569  76.149 114.785  0.00  0.00     0.161 C 
ATOM      2  C   LIG d   1      -2.898  75.710 114.670  0.00  0.00     0.016 C 
ATOM      3  C   LIG d   1      -3.566  74.975 115.677  0.00  0.00     0.038 C 
ATOM      4  C   LIG d   1      -2.993  74.757 116.938  0.00  0.00     0.028 C 
ATOM      5  C   LIG d   1      -1.468  74.744 116.917  0.00  0.00    -0.047 C 
ATOM      6  C   LIG d   1      -0.965  76.017 116.199  0.00  0.00     0.091 C 
ENDROOT
BRANCH   1   7
ATOM      7  O   LIG d   1      -1.460  77.508 114.319  0.00  0.00    -0.368 OA
BRANCH   7   8
ATOM      8  C   LIG d   1      -2.652  78.323 114.447  0.00  0.00     0.119 C 
BRANCH   8   9
ATOM      9  C   LIG d   1      -2.621  79.368 113.315  0.00  0.00     0.028 C 
ATOM     10  C   LIG d   1      -1.859  78.869 112.076  0.00  0.00     0.006 C 
ENDBRANCH   8   9
BRANCH   8  11
ATOM     11  C   LIG d   1      -2.636  79.132 115.747  0.00  0.00     0.028 C 
ATOM     12  C   LIG d   1      -3.751  78.718 116.720  0.00  0.00     0.006 C 
ENDBRANCH   8  11
ENDBRANCH   7   8
ENDBRANCH   1   7
BRANCH   6  13
ATOM     13  N   LIG d   1       0.515  76.042 116.060  0.00  0.00    -0.311 N 
ATOM     14  C   LIG d   1       1.324  76.624 116.943  0.00  0.00     0.210 C 
ATOM     15  C   LIG d   1       2.815  76.552 116.599  0.00  0.00     0.109 C 
ATOM     16  O   LIG d   1       0.951  77.166 117.994  0.00  0.00    -0.276 OA
ATOM     17  H   LIG d   1       0.905  75.598 115.252  0.00  0.00     0.149 HD
ENDBRANCH   6  13
BRANCH   5  18
ATOM     18  N   LIG d   1      -1.004  74.646 118.314  0.00  0.00     0.381 N 
ATOM     19  H   LIG d   1      -1.608  75.177 118.909  0.00  0.00    -0.090 HD
ATOM     20  H   LIG d   1      -0.079  75.033 118.377  0.00  0.00    -0.090 HD
ATOM     21  H   LIG d   1      -0.993  73.693 118.604  0.00  0.00    -0.090 HD
ENDBRANCH   5  18
BRANCH   3  22
ATOM     22  C   LIG d   1      -4.806  74.414 115.410  0.00  0.00     0.382 C 
ATOM     23  O   LIG d   1      -5.147  74.181 114.226  0.00  0.00    -0.241 OA
ATOM     24  O   LIG d   1      -5.605  74.180 116.337  0.00  0.00    -0.241 OA
ENDBRANCH   3  22
TORSDOF 7
ENDMDL
MODEL 8
REMARK VINA RESULT:      -4.1      1.359      1.377
REMARK  7 active torsions:
REMARK  status: ('A' for Active; 'I' for Inactive)
REMARK    1  A    between atoms: C_2  and  C_3 
REMARK    2  A    between atoms: C_3  and  O_6 
REMARK    3  A    between atoms: C_3  and  C_4 
REMARK    4  A    between atoms: C_7  and  O_6 
REMARK    5  A    between atoms: C_9  and  C_10 
REMARK    6  A    between atoms: N_15  and  C_14 
REMARK    7  A    between atoms: N_20  and  C_19 
REMARK       I    between atoms: C_22  and  N_20 
ROOT
ATOM      1  C   LIG d   1      -3.062  78.561 115.786  0.00  0.00     0.161 C 
ATOM      2  C   LIG d   1      -3.213  79.627 114.884  0.00  0.00     0.016 C 
ATOM      3  C   LIG d   1      -2.757  79.586 113.547  0.00  0.00     0.038 C 
ATOM      4  C   LIG d   1      -2.251  78.410 112.972  0.00  0.00     0.028 C 
ATOM      5  C   LIG d   1      -1.616  77.465 113.987  0.00  0.00    -0.047 C 
ATOM      6  C   LIG d   1      -2.611  77.231 115.146  0.00  0.00     0.091 C 
ENDROOT
BRANCH   1   7
ATOM      7  O   LIG d   1      -4.283  78.372 116.528  0.00  0.00    -0.368 OA
BRANCH   7   8
ATOM      8  C   LIG d   1      -4.211  78.635 117.951  0.00  0.00     0.119 C 
BRANCH   8   9
ATOM      9  C   LIG d   1      -5.174  77.656 118.652  0.00  0.00     0.028 C 
ATOM     10  C   LIG d   1      -5.096  76.236 118.067  0.00  0.00     0.006 C 
ENDBRANCH   8   9
BRANCH   8  11
ATOM     11  C   LIG d   1      -4.739  80.033 118.287  0.00  0.00     0.028 C 
ATOM     12  C   LIG d   1      -6.163  80.274 117.762  0.00  0.00     0.006 C 
ENDBRANCH   8  11
ENDBRANCH   7   8
ENDBRANCH   1   7
BRANCH   6  13
ATOM     13  N   LIG d   1      -2.037  76.385 116.224  0.00  0.00    -0.311 N 
ATOM     14  C   LIG d   1      -0.940  76.710 116.906  0.00  0.00     0.210 C 
ATOM     15  C   LIG d   1      -0.508  75.687 117.961  0.00  0.00     0.109 C 
ATOM     16  O   LIG d   1      -0.303  77.764 116.759  0.00  0.00    -0.276 OA
ATOM     17  H   LIG d   1      -2.509  75.526 116.430  0.00  0.00     0.149 HD
ENDBRANCH   6  13
BRANCH   5  18
ATOM     18  N   LIG d   1      -1.255  76.225 113.275  0.00  0.00     0.381 N 
ATOM     19  H   LIG d   1      -0.305  76.276 112.966  0.00  0.00    -0.090 HD
ATOM     20  H   LIG d   1      -1.845  76.130 112.468  0.00  0.00    -0.090 HD
ATOM     21  H   LIG d   1      -1.374  75.440 113.877  0.00  0.00    -0.090 HD
ENDBRANCH   5  18
BRANCH   3  22
ATOM     22  C   LIG d   1      -2.770  80.741 112.780  0.00  0.00     0.382 C 
ATOM     23  O   LIG d   1      -1.730  81.108 112.182  0.00  0.00    -0.241 OA
ATOM     24  O   LIG d   1      -3.795  81.445 112.715  0.00  0.00    -0.241 OA
ENDBRANCH   3  22
TORSDOF 7
ENDMDL
MODEL 9
REMARK VINA RESULT:      -4.0      2.683      5.524
REMARK  7 active torsions:
REMARK  status: ('A' for Active; 'I' for Inactive)
REMARK    1  A    between atoms: C_2  and  C_3 
REMARK    2  A    between atoms: C_3  and  O_6 
REMARK    3  A    between atoms: C_3  and  C_4 
REMARK    4  A    between atoms: C_7  and  O_6 
REMARK    5  A    between atoms: C_9  and  C_10 
REMARK    6  A    between atoms: N_15  and  C_14 
REMARK    7  A    between atoms: N_20  and  C_19 
REMARK       I    between atoms: C_22  and  N_20 
ROOT
ATOM      1  C   LIG d   1      -1.944  77.064 114.225  0.00  0.00     0.161 C 
ATOM      2  C   LIG d   1      -3.192  76.484 113.942  0.00  0.00     0.016 C 
ATOM      3  C   LIG d   1      -4.253  76.427 114.875  0.00  0.00     0.038 C 
ATOM      4  C   LIG d   1      -4.189  77.086 116.112  0.00  0.00     0.028 C 
ATOM      5  C   LIG d   1      -2.767  77.251 116.637  0.00  0.00    -0.047 C 
ATOM      6  C   LIG d   1      -1.894  77.886 115.530  0.00  0.00     0.091 C 
ENDROOT
BRANCH   1   7
ATOM      7  O   LIG d   1      -1.516  77.869 113.110  0.00  0.00    -0.368 OA
BRANCH   7   8
ATOM      8  C   LIG d   1      -1.699  79.300 113.248  0.00  0.00     0.119 C 
BRANCH   8   9
ATOM      9  C   LIG d   1      -3.071  79.651 112.640  0.00  0.00     0.028 C 
ATOM     10  C   LIG d   1      -3.447  81.127 112.854  0.00  0.00     0.006 C 
ENDBRANCH   8   9
BRANCH   8  11
ATOM     11  C   LIG d   1      -0.675  80.076 112.415  0.00  0.00     0.028 C 
ATOM     12  C   LIG d   1      -0.603  79.593 110.958  0.00  0.00     0.006 C 
ENDBRANCH   8  11
ENDBRANCH   7   8
ENDBRANCH   1   7
BRANCH   6  13
ATOM     13  N   LIG d   1      -0.468  78.005 115.932  0.00  0.00    -0.311 N 
ATOM     14  C   LIG d   1       0.037  79.083 116.529  0.00  0.00     0.210 C 
ATOM     15  C   LIG d   1       1.535  79.008 116.840  0.00  0.00     0.109 C 
ATOM     16  O   LIG d   1      -0.619  80.082 116.859  0.00  0.00    -0.276 OA
ATOM     17  H   LIG d   1       0.129  77.228 115.730  0.00  0.00     0.149 HD
ENDBRANCH   6  13
BRANCH   5  18
ATOM     18  N   LIG d   1      -2.837  78.073 117.861  0.00  0.00     0.381 N 
ATOM     19  H   LIG d   1      -3.331  77.576 118.575  0.00  0.00    -0.090 HD
ATOM     20  H   LIG d   1      -3.342  78.917 117.657  0.00  0.00    -0.090 HD
ATOM     21  H   LIG d   1      -1.918  78.295 118.175  0.00  0.00    -0.090 HD
ENDBRANCH   5  18
BRANCH   3  22
ATOM     22  C   LIG d   1      -5.380  75.671 114.589  0.00  0.00     0.382 C 
ATOM     23  O   LIG d   1      -5.258  74.471 114.243  0.00  0.00    -0.241 OA
ATOM     24  O   LIG d   1      -6.513  76.186 114.629  0.00  0.00    -0.241 OA
ENDBRANCH   3  22
TORSDOF 7
ENDMDL
