MODEL 1
REMARK VINA RESULT:      -5.3      0.000      0.000
REMARK  7 active torsions:
REMARK  status: ('A' for Active; 'I' for Inactive)
REMARK    1  A    between atoms: C_2  and  C_3 
REMARK    2  A    between atoms: C_3  and  O_6 
REMARK    3  A    between atoms: C_3  and  C_4 
REMARK    4  A    between atoms: C_7  and  O_6 
REMARK    5  A    between atoms: C_9  and  C_10 
REMARK    6  A    between atoms: N_15  and  C_14 
REMARK    7  A    between atoms: N_20  and  C_19 
REMARK       I    between atoms: C_22  and  N_20 
ROOT
ATOM      1  C   LIG d   1      -2.673  76.758 114.889  0.00  0.00     0.161 C 
ATOM      2  C   LIG d   1      -2.897  77.692 113.863  0.00  0.00     0.016 C 
ATOM      3  C   LIG d   1      -2.000  78.741 113.557  0.00  0.00     0.038 C 
ATOM      4  C   LIG d   1      -0.737  78.837 114.160  0.00  0.00     0.028 C 
ATOM      5  C   LIG d   1      -0.682  78.216 115.552  0.00  0.00    -0.047 C 
ATOM      6  C   LIG d   1      -1.249  76.779 115.483  0.00  0.00     0.091 C 
ENDROOT
BRANCH   1   7
ATOM      7  O   LIG d   1      -3.001  75.434 114.424  0.00  0.00    -0.368 OA
BRANCH   7   8
ATOM      8  C   LIG d   1      -4.110  74.781 115.090  0.00  0.00     0.119 C 
BRANCH   8   9
ATOM      9  C   LIG d   1      -5.182  74.484 114.023  0.00  0.00     0.028 C 
ATOM     10  C   LIG d   1      -5.966  75.742 113.614  0.00  0.00     0.006 C 
ENDBRANCH   8   9
BRANCH   8  11
ATOM     11  C   LIG d   1      -4.786  75.718 116.095  0.00  0.00     0.028 C 
ATOM     12  C   LIG d   1      -5.775  74.989 117.018  0.00  0.00     0.006 C 
ENDBRANCH   8  11
ENDBRANCH   7   8
ENDBRANCH   1   7
BRANCH   6  13
ATOM     13  N   LIG d   1      -1.310  76.130 116.819  0.00  0.00    -0.311 N 
ATOM     14  C   LIG d   1      -0.847  74.904 117.059  0.00  0.00     0.210 C 
ATOM     15  C   LIG d   1      -1.027  74.417 118.500  0.00  0.00     0.109 C 
ATOM     16  O   LIG d   1      -0.277  74.187 116.224  0.00  0.00    -0.276 OA
ATOM     17  H   LIG d   1      -1.729  76.653 117.562  0.00  0.00     0.149 HD
ENDBRANCH   6  13
BRANCH   5  18
ATOM     18  N   LIG d   1       0.721  78.263 116.005  0.00  0.00     0.381 N 
ATOM     19  H   LIG d   1       1.327  77.978 115.262  0.00  0.00    -0.090 HD
ATOM     20  H   LIG d   1       0.837  77.621 116.769  0.00  0.00    -0.090 HD
ATOM     21  H   LIG d   1       0.954  79.186 116.299  0.00  0.00    -0.090 HD
ENDBRANCH   5  18
BRANCH   3  22
ATOM     22  C   LIG d   1      -2.381  79.732 112.665  0.00  0.00     0.382 C 
ATOM     23  O   LIG d   1      -1.784  79.851 111.568  0.00  0.00    -0.241 OA
ATOM     24  O   LIG d   1      -3.284  80.536 112.963  0.00  0.00    -0.241 OA
ENDBRANCH   3  22
TORSDOF 7
ENDMDL
MODEL 2
REMARK VINA RESULT:      -5.1      1.824      2.329
REMARK  7 active torsions:
REMARK  status: ('A' for Active; 'I' for Inactive)
REMARK    1  A    between atoms: C_2  and  C_3 
REMARK    2  A    between atoms: C_3  and  O_6 
REMARK    3  A    between atoms: C_3  and  C_4 
REMARK    4  A    between atoms: C_7  and  O_6 
REMARK    5  A    between atoms: C_9  and  C_10 
REMARK    6  A    between atoms: N_15  and  C_14 
REMARK    7  A    between atoms: N_20  and  C_19 
REMARK       I    between atoms: C_22  and  N_20 
ROOT
ATOM      1  C   LIG d   1      -2.634  77.801 115.954  0.00  0.00     0.161 C 
ATOM      2  C   LIG d   1      -2.922  78.719 114.930  0.00  0.00     0.016 C 
ATOM      3  C   LIG d   1      -2.305  78.685 113.658  0.00  0.00     0.038 C 
ATOM      4  C   LIG d   1      -1.464  77.632 113.270  0.00  0.00     0.028 C 
ATOM      5  C   LIG d   1      -0.754  76.961 114.442  0.00  0.00    -0.047 C 
ATOM      6  C   LIG d   1      -1.802  76.580 115.512  0.00  0.00     0.091 C 
ENDROOT
BRANCH   1   7
ATOM      7  O   LIG d   1      -3.857  77.373 116.584  0.00  0.00    -0.368 OA
BRANCH   7   8
ATOM      8  C   LIG d   1      -5.076  77.607 115.836  0.00  0.00     0.119 C 
BRANCH   8   9
ATOM      9  C   LIG d   1      -6.102  78.227 116.805  0.00  0.00     0.028 C 
ATOM     10  C   LIG d   1      -5.870  79.732 117.020  0.00  0.00     0.006 C 
ENDBRANCH   8   9
BRANCH   8  11
ATOM     11  C   LIG d   1      -5.704  76.292 115.367  0.00  0.00     0.028 C 
ATOM     12  C   LIG d   1      -5.165  75.826 114.006  0.00  0.00     0.006 C 
ENDBRANCH   8  11
ENDBRANCH   7   8
ENDBRANCH   1   7
BRANCH   6  13
ATOM     13  N   LIG d   1      -1.181  75.994 116.729  0.00  0.00    -0.311 N 
ATOM     14  C   LIG d   1      -1.620  74.879 117.311  0.00  0.00     0.210 C 
ATOM     15  C   LIG d   1      -0.850  74.460 118.568  0.00  0.00     0.109 C 
ATOM     16  O   LIG d   1      -2.553  74.180 116.888  0.00  0.00    -0.276 OA
ATOM     17  H   LIG d   1      -0.399  76.480 117.121  0.00  0.00     0.149 HD
ENDBRANCH   6  13
BRANCH   5  18
ATOM     18  N   LIG d   1      -0.019  75.797 113.911  0.00  0.00     0.381 N 
ATOM     19  H   LIG d   1      -0.401  75.531 113.025  0.00  0.00    -0.090 HD
ATOM     20  H   LIG d   1      -0.129  75.026 114.546  0.00  0.00    -0.090 HD
ATOM     21  H   LIG d   1       0.946  76.020 113.811  0.00  0.00    -0.090 HD
ENDBRANCH   5  18
BRANCH   3  22
ATOM     22  C   LIG d   1      -2.498  79.734 112.773  0.00  0.00     0.382 C 
ATOM     23  O   LIG d   1      -1.741  79.864 111.780  0.00  0.00    -0.241 OA
ATOM     24  O   LIG d   1      -3.390  80.579 112.978  0.00  0.00    -0.241 OA
ENDBRANCH   3  22
TORSDOF 7
ENDMDL
MODEL 3
REMARK VINA RESULT:      -4.9      2.339      3.018
REMARK  7 active torsions:
REMARK  status: ('A' for Active; 'I' for Inactive)
REMARK    1  A    between atoms: C_2  and  C_3 
REMARK    2  A    between atoms: C_3  and  O_6 
REMARK    3  A    between atoms: C_3  and  C_4 
REMARK    4  A    between atoms: C_7  and  O_6 
REMARK    5  A    between atoms: C_9  and  C_10 
REMARK    6  A    between atoms: N_15  and  C_14 
REMARK    7  A    between atoms: N_20  and  C_19 
REMARK       I    between atoms: C_22  and  N_20 
ROOT
ATOM      1  C   LIG d   1      -2.883  78.070 115.788  0.00  0.00     0.161 C 
ATOM      2  C   LIG d   1      -3.082  78.972 114.729  0.00  0.00     0.016 C 
ATOM      3  C   LIG d   1      -2.347  78.929 113.522  0.00  0.00     0.038 C 
ATOM      4  C   LIG d   1      -1.461  77.881 113.231  0.00  0.00     0.028 C 
ATOM      5  C   LIG d   1      -0.858  77.233 114.473  0.00  0.00    -0.047 C 
ATOM      6  C   LIG d   1      -1.999  76.853 115.444  0.00  0.00     0.091 C 
ENDROOT
BRANCH   1   7
ATOM      7  O   LIG d   1      -4.156  77.635 116.305  0.00  0.00    -0.368 OA
BRANCH   7   8
ATOM      8  C   LIG d   1      -4.725  78.444 117.364  0.00  0.00     0.119 C 
BRANCH   8   9
ATOM      9  C   LIG d   1      -4.924  77.529 118.588  0.00  0.00     0.028 C 
ATOM     10  C   LIG d   1      -3.715  77.548 119.538  0.00  0.00     0.006 C 
ENDBRANCH   8   9
BRANCH   8  11
ATOM     11  C   LIG d   1      -6.126  78.939 116.995  0.00  0.00     0.028 C 
ATOM     12  C   LIG d   1      -6.362  80.406 117.389  0.00  0.00     0.006 C 
ENDBRANCH   8  11
ENDBRANCH   7   8
ENDBRANCH   1   7
BRANCH   6  13
ATOM     13  N   LIG d   1      -1.492  76.289 116.722  0.00  0.00    -0.311 N 
ATOM     14  C   LIG d   1      -1.935  75.149 117.247  0.00  0.00     0.210 C 
ATOM     15  C   LIG d   1      -1.292  74.759 118.582  0.00  0.00     0.109 C 
ATOM     16  O   LIG d   1      -2.777  74.407 116.719  0.00  0.00    -0.276 OA
ATOM     17  H   LIG d   1      -0.785  76.812 117.202  0.00  0.00     0.149 HD
ENDBRANCH   6  13
BRANCH   5  18
ATOM     18  N   LIG d   1      -0.065  76.072 114.029  0.00  0.00     0.381 N 
ATOM     19  H   LIG d   1      -0.662  75.276 113.919  0.00  0.00    -0.090 HD
ATOM     20  H   LIG d   1       0.619  75.858 114.733  0.00  0.00    -0.090 HD
ATOM     21  H   LIG d   1       0.389  76.278 113.167  0.00  0.00    -0.090 HD
ENDBRANCH   5  18
BRANCH   3  22
ATOM     22  C   LIG d   1      -2.465  79.965 112.609  0.00  0.00     0.382 C 
ATOM     23  O   LIG d   1      -3.364  80.828 112.753  0.00  0.00    -0.241 OA
ATOM     24  O   LIG d   1      -1.712  80.023 111.618  0.00  0.00    -0.241 OA
ENDBRANCH   3  22
TORSDOF 7
ENDMDL
MODEL 4
REMARK VINA RESULT:      -4.8      1.915      4.636
REMARK  7 active torsions:
REMARK  status: ('A' for Active; 'I' for Inactive)
REMARK    1  A    between atoms: C_2  and  C_3 
REMARK    2  A    between atoms: C_3  and  O_6 
REMARK    3  A    between atoms: C_3  and  C_4 
REMARK    4  A    between atoms: C_7  and  O_6 
REMARK    5  A    between atoms: C_9  and  C_10 
REMARK    6  A    between atoms: N_15  and  C_14 
REMARK    7  A    between atoms: N_20  and  C_19 
REMARK       I    between atoms: C_22  and  N_20 
ROOT
ATOM      1  C   LIG d   1      -1.761  75.923 114.654  0.00  0.00     0.161 C 
ATOM      2  C   LIG d   1      -1.571  75.557 115.997  0.00  0.00     0.016 C 
ATOM      3  C   LIG d   1      -0.911  76.377 116.941  0.00  0.00     0.038 C 
ATOM      4  C   LIG d   1      -0.527  77.693 116.641  0.00  0.00     0.028 C 
ATOM      5  C   LIG d   1      -0.246  77.918 115.159  0.00  0.00    -0.047 C 
ATOM      6  C   LIG d   1      -1.447  77.400 114.336  0.00  0.00     0.091 C 
ENDROOT
BRANCH   1   7
ATOM      7  O   LIG d   1      -3.104  75.597 114.244  0.00  0.00    -0.368 OA
BRANCH   7   8
ATOM      8  C   LIG d   1      -4.098  75.551 115.297  0.00  0.00     0.119 C 
BRANCH   8   9
ATOM      9  C   LIG d   1      -4.999  74.329 115.030  0.00  0.00     0.028 C 
ATOM     10  C   LIG d   1      -6.112  74.180 116.081  0.00  0.00     0.006 C 
ENDBRANCH   8   9
BRANCH   8  11
ATOM     11  C   LIG d   1      -5.032  76.764 115.234  0.00  0.00     0.028 C 
ATOM     12  C   LIG d   1      -4.633  77.874 116.219  0.00  0.00     0.006 C 
ENDBRANCH   8  11
ENDBRANCH   7   8
ENDBRANCH   1   7
BRANCH   6  13
ATOM     13  N   LIG d   1      -1.219  77.506 112.871  0.00  0.00    -0.311 N 
ATOM     14  C   LIG d   1      -2.113  78.013 112.024  0.00  0.00     0.210 C 
ATOM     15  C   LIG d   1      -1.684  78.011 110.554  0.00  0.00     0.109 C 
ATOM     16  O   LIG d   1      -3.206  78.495 112.355  0.00  0.00    -0.276 OA
ATOM     17  H   LIG d   1      -0.344  77.167 112.521  0.00  0.00     0.149 HD
ENDBRANCH   6  13
BRANCH   5  18
ATOM     18  N   LIG d   1       0.009  79.358 114.968  0.00  0.00     0.381 N 
ATOM     19  H   LIG d   1      -0.122  79.843 115.833  0.00  0.00    -0.090 HD
ATOM     20  H   LIG d   1      -0.651  79.719 114.301  0.00  0.00    -0.090 HD
ATOM     21  H   LIG d   1       0.938  79.500 114.637  0.00  0.00    -0.090 HD
ENDBRANCH   5  18
BRANCH   3  22
ATOM     22  C   LIG d   1      -0.594  75.868 118.191  0.00  0.00     0.382 C 
ATOM     23  O   LIG d   1      -1.505  75.622 119.018  0.00  0.00    -0.241 OA
ATOM     24  O   LIG d   1       0.595  75.692 118.518  0.00  0.00    -0.241 OA
ENDBRANCH   3  22
TORSDOF 7
ENDMDL
MODEL 5
REMARK VINA RESULT:      -4.6      2.731      5.634
REMARK  7 active torsions:
REMARK  status: ('A' for Active; 'I' for Inactive)
REMARK    1  A    between atoms: C_2  and  C_3 
REMARK    2  A    between atoms: C_3  and  O_6 
REMARK    3  A    between atoms: C_3  and  C_4 
REMARK    4  A    between atoms: C_7  and  O_6 
REMARK    5  A    between atoms: C_9  and  C_10 
REMARK    6  A    between atoms: N_15  and  C_14 
REMARK    7  A    between atoms: N_20  and  C_19 
REMARK       I    between atoms: C_22  and  N_20 
ROOT
ATOM      1  C   LIG d   1      -1.259  78.801 114.581  0.00  0.00     0.161 C 
ATOM      2  C   LIG d   1      -2.286  77.866 114.793  0.00  0.00     0.016 C 
ATOM      3  C   LIG d   1      -3.105  77.361 113.756  0.00  0.00     0.038 C 
ATOM      4  C   LIG d   1      -2.851  77.644 112.406  0.00  0.00     0.028 C 
ATOM      5  C   LIG d   1      -2.143  78.978 112.190  0.00  0.00    -0.047 C 
ATOM      6  C   LIG d   1      -0.895  79.037 113.100  0.00  0.00     0.091 C 
ENDROOT
BRANCH   1   7
ATOM      7  O   LIG d   1      -0.089  78.419 115.330  0.00  0.00    -0.368 OA
BRANCH   7   8
ATOM      8  C   LIG d   1      -0.204  77.210 116.120  0.00  0.00     0.119 C 
BRANCH   8   9
ATOM      9  C   LIG d   1       0.234  77.553 117.558  0.00  0.00     0.028 C 
ATOM     10  C   LIG d   1       0.959  76.384 118.245  0.00  0.00     0.006 C 
ENDBRANCH   8   9
BRANCH   8  11
ATOM     11  C   LIG d   1       0.778  76.136 115.643  0.00  0.00     0.028 C 
ATOM     12  C   LIG d   1       0.160  75.181 114.609  0.00  0.00     0.006 C 
ENDBRANCH   8  11
ENDBRANCH   7   8
ENDBRANCH   1   7
BRANCH   6  13
ATOM     13  N   LIG d   1      -0.192  80.343 113.013  0.00  0.00    -0.311 N 
ATOM     14  C   LIG d   1       0.688  80.640 112.059  0.00  0.00     0.210 C 
ATOM     15  C   LIG d   1       1.313  82.035 112.166  0.00  0.00     0.109 C 
ATOM     16  O   LIG d   1       0.987  79.892 111.115  0.00  0.00    -0.276 OA
ATOM     17  H   LIG d   1      -0.398  81.021 113.721  0.00  0.00     0.149 HD
ENDBRANCH   6  13
BRANCH   5  18
ATOM     18  N   LIG d   1      -1.818  79.082 110.755  0.00  0.00     0.381 N 
ATOM     19  H   LIG d   1      -2.169  78.282 110.269  0.00  0.00    -0.090 HD
ATOM     20  H   LIG d   1      -0.819  79.103 110.649  0.00  0.00    -0.090 HD
ATOM     21  H   LIG d   1      -2.216  79.912 110.375  0.00  0.00    -0.090 HD
ENDBRANCH   5  18
BRANCH   3  22
ATOM     22  C   LIG d   1      -4.216  76.593 114.070  0.00  0.00     0.382 C 
ATOM     23  O   LIG d   1      -4.290  75.405 113.673  0.00  0.00    -0.241 OA
ATOM     24  O   LIG d   1      -5.165  77.087 114.707  0.00  0.00    -0.241 OA
ENDBRANCH   3  22
TORSDOF 7
ENDMDL
MODEL 6
REMARK VINA RESULT:      -4.5      2.513      4.639
REMARK  7 active torsions:
REMARK  status: ('A' for Active; 'I' for Inactive)
REMARK    1  A    between atoms: C_2  and  C_3 
REMARK    2  A    between atoms: C_3  and  O_6 
REMARK    3  A    between atoms: C_3  and  C_4 
REMARK    4  A    between atoms: C_7  and  O_6 
REMARK    5  A    between atoms: C_9  and  C_10 
REMARK    6  A    between atoms: N_15  and  C_14 
REMARK    7  A    between atoms: N_20  and  C_19 
REMARK       I    between atoms: C_22  and  N_20 
ROOT
ATOM      1  C   LIG d   1      -3.128  77.543 115.351  0.00  0.00     0.161 C 
ATOM      2  C   LIG d   1      -2.824  77.605 116.721  0.00  0.00     0.016 C 
ATOM      3  C   LIG d   1      -1.660  78.223 117.233  0.00  0.00     0.038 C 
ATOM      4  C   LIG d   1      -0.790  78.959 116.414  0.00  0.00     0.028 C 
ATOM      5  C   LIG d   1      -0.789  78.495 114.961  0.00  0.00    -0.047 C 
ATOM      6  C   LIG d   1      -2.248  78.437 114.452  0.00  0.00     0.091 C 
ENDROOT
BRANCH   1   7
ATOM      7  O   LIG d   1      -4.522  77.846 115.145  0.00  0.00    -0.368 OA
BRANCH   7   8
ATOM      8  C   LIG d   1      -5.372  76.727 114.791  0.00  0.00     0.119 C 
BRANCH   8   9
ATOM      9  C   LIG d   1      -6.078  76.256 116.077  0.00  0.00     0.028 C 
ATOM     10  C   LIG d   1      -6.684  77.423 116.875  0.00  0.00     0.006 C 
ENDBRANCH   8   9
BRANCH   8  11
ATOM     11  C   LIG d   1      -4.545  75.527 114.319  0.00  0.00     0.028 C 
ATOM     12  C   LIG d   1      -5.190  74.180 114.681  0.00  0.00     0.006 C 
ENDBRANCH   8  11
ENDBRANCH   7   8
ENDBRANCH   1   7
BRANCH   6  13
ATOM     13  N   LIG d   1      -2.343  77.912 113.065  0.00  0.00    -0.311 N 
ATOM     14  C   LIG d   1      -2.371  78.693 111.986  0.00  0.00     0.210 C 
ATOM     15  C   LIG d   1      -2.493  77.949 110.652  0.00  0.00     0.109 C 
ATOM     16  O   LIG d   1      -2.275  79.929 112.005  0.00  0.00    -0.276 OA
ATOM     17  H   LIG d   1      -2.394  76.918 112.955  0.00  0.00     0.149 HD
ENDBRANCH   6  13
BRANCH   5  18
ATOM     18  N   LIG d   1       0.053  79.433 114.195  0.00  0.00     0.381 N 
ATOM     19  H   LIG d   1       0.939  79.540 114.648  0.00  0.00    -0.090 HD
ATOM     20  H   LIG d   1      -0.399  80.330 114.170  0.00  0.00    -0.090 HD
ATOM     21  H   LIG d   1       0.185  79.094 113.268  0.00  0.00    -0.090 HD
ENDBRANCH   5  18
BRANCH   3  22
ATOM     22  C   LIG d   1      -1.336  78.075 118.572  0.00  0.00     0.382 C 
ATOM     23  O   LIG d   1      -1.214  79.086 119.304  0.00  0.00    -0.241 OA
ATOM     24  O   LIG d   1      -1.119  76.944 119.048  0.00  0.00    -0.241 OA
ENDBRANCH   3  22
TORSDOF 7
ENDMDL
MODEL 7
REMARK VINA RESULT:      -4.5      3.154      4.361
REMARK  7 active torsions:
REMARK  status: ('A' for Active; 'I' for Inactive)
REMARK    1  A    between atoms: C_2  and  C_3 
REMARK    2  A    between atoms: C_3  and  O_6 
REMARK    3  A    between atoms: C_3  and  C_4 
REMARK    4  A    between atoms: C_7  and  O_6 
REMARK    5  A    between atoms: C_9  and  C_10 
REMARK    6  A    between atoms: N_15  and  C_14 
REMARK    7  A    between atoms: N_20  and  C_19 
REMARK       I    between atoms: C_22  and  N_20 
ROOT
ATOM      1  C   LIG d   1      -2.999  78.316 116.312  0.00  0.00     0.161 C 
ATOM      2  C   LIG d   1      -2.055  79.236 116.799  0.00  0.00     0.016 C 
ATOM      3  C   LIG d   1      -0.709  79.271 116.367  0.00  0.00     0.038 C 
ATOM      4  C   LIG d   1      -0.251  78.482 115.301  0.00  0.00     0.028 C 
ATOM      5  C   LIG d   1      -1.038  77.188 115.124  0.00  0.00    -0.047 C 
ATOM      6  C   LIG d   1      -2.547  77.521 115.069  0.00  0.00     0.091 C 
ENDROOT
BRANCH   1   7
ATOM      7  O   LIG d   1      -4.246  78.989 116.050  0.00  0.00    -0.368 OA
BRANCH   7   8
ATOM      8  C   LIG d   1      -5.241  78.919 117.101  0.00  0.00     0.119 C 
BRANCH   8   9
ATOM      9  C   LIG d   1      -6.239  77.808 116.719  0.00  0.00     0.028 C 
ATOM     10  C   LIG d   1      -5.980  76.499 117.484  0.00  0.00     0.006 C 
ENDBRANCH   8   9
BRANCH   8  11
ATOM     11  C   LIG d   1      -6.072  80.204 117.169  0.00  0.00     0.028 C 
ATOM     12  C   LIG d   1      -6.046  80.857 118.560  0.00  0.00     0.006 C 
ENDBRANCH   8  11
ENDBRANCH   7   8
ENDBRANCH   1   7
BRANCH   6  13
ATOM     13  N   LIG d   1      -3.394  76.303 114.982  0.00  0.00    -0.311 N 
ATOM     14  C   LIG d   1      -4.280  76.095 114.010  0.00  0.00     0.210 C 
ATOM     15  C   LIG d   1      -5.063  74.783 114.119  0.00  0.00     0.109 C 
ATOM     16  O   LIG d   1      -4.469  76.857 113.050  0.00  0.00    -0.276 OA
ATOM     17  H   LIG d   1      -3.283  75.618 115.703  0.00  0.00     0.149 HD
ENDBRANCH   6  13
BRANCH   5  18
ATOM     18  N   LIG d   1      -0.547  76.532 113.897  0.00  0.00     0.381 N 
ATOM     19  H   LIG d   1      -1.172  76.720 113.139  0.00  0.00    -0.090 HD
ATOM     20  H   LIG d   1      -0.523  75.538 114.047  0.00  0.00    -0.090 HD
ATOM     21  H   LIG d   1       0.366  76.864 113.675  0.00  0.00    -0.090 HD
ENDBRANCH   5  18
BRANCH   3  22
ATOM     22  C   LIG d   1       0.205  80.075 117.030  0.00  0.00     0.382 C 
ATOM     23  O   LIG d   1      -0.117  81.238 117.374  0.00  0.00    -0.241 OA
ATOM     24  O   LIG d   1       1.361  79.668 117.251  0.00  0.00    -0.241 OA
ENDBRANCH   3  22
TORSDOF 7
ENDMDL
MODEL 8
REMARK VINA RESULT:      -4.5      2.420      4.210
REMARK  7 active torsions:
REMARK  status: ('A' for Active; 'I' for Inactive)
REMARK    1  A    between atoms: C_2  and  C_3 
REMARK    2  A    between atoms: C_3  and  O_6 
REMARK    3  A    between atoms: C_3  and  C_4 
REMARK    4  A    between atoms: C_7  and  O_6 
REMARK    5  A    between atoms: C_9  and  C_10 
REMARK    6  A    between atoms: N_15  and  C_14 
REMARK    7  A    between atoms: N_20  and  C_19 
REMARK       I    between atoms: C_22  and  N_20 
ROOT
ATOM      1  C   LIG d   1      -1.539  77.759 114.546  0.00  0.00     0.161 C 
ATOM      2  C   LIG d   1      -0.674  78.773 114.103  0.00  0.00     0.016 C 
ATOM      3  C   LIG d   1      -0.813  79.425 112.856  0.00  0.00     0.038 C 
ATOM      4  C   LIG d   1      -1.924  79.210 112.027  0.00  0.00     0.028 C 
ATOM      5  C   LIG d   1      -2.552  77.831 112.202  0.00  0.00    -0.047 C 
ATOM      6  C   LIG d   1      -2.821  77.589 113.704  0.00  0.00     0.091 C 
ENDROOT
BRANCH   1   7
ATOM      7  O   LIG d   1      -1.874  77.973 115.932  0.00  0.00    -0.368 OA
BRANCH   7   8
ATOM      8  C   LIG d   1      -1.317  77.026 116.876  0.00  0.00     0.119 C 
BRANCH   8   9
ATOM      9  C   LIG d   1      -0.368  76.097 116.095  0.00  0.00     0.028 C 
ATOM     10  C   LIG d   1       1.096  76.243 116.543  0.00  0.00     0.006 C 
ENDBRANCH   8   9
BRANCH   8  11
ATOM     11  C   LIG d   1      -2.401  76.108 117.449  0.00  0.00     0.028 C 
ATOM     12  C   LIG d   1      -2.244  74.647 116.999  0.00  0.00     0.006 C 
ENDBRANCH   8  11
ENDBRANCH   7   8
ENDBRANCH   1   7
BRANCH   6  13
ATOM     13  N   LIG d   1      -3.357  76.229 113.972  0.00  0.00    -0.311 N 
ATOM     14  C   LIG d   1      -4.658  75.962 114.080  0.00  0.00     0.210 C 
ATOM     15  C   LIG d   1      -4.995  74.498 114.378  0.00  0.00     0.109 C 
ATOM     16  O   LIG d   1      -5.565  76.793 113.926  0.00  0.00    -0.276 OA
ATOM     17  H   LIG d   1      -2.692  75.489 114.080  0.00  0.00     0.149 HD
ENDBRANCH   6  13
BRANCH   5  18
ATOM     18  N   LIG d   1      -3.777  77.793 111.382  0.00  0.00     0.381 N 
ATOM     19  H   LIG d   1      -4.550  77.491 111.941  0.00  0.00    -0.090 HD
ATOM     20  H   LIG d   1      -3.650  77.131 110.637  0.00  0.00    -0.090 HD
ATOM     21  H   LIG d   1      -3.964  78.696 111.005  0.00  0.00    -0.090 HD
ENDBRANCH   5  18
BRANCH   3  22
ATOM     22  C   LIG d   1       0.188  80.274 112.409  0.00  0.00     0.382 C 
ATOM     23  O   LIG d   1       0.444  80.351 111.183  0.00  0.00    -0.241 OA
ATOM     24  O   LIG d   1       0.868  80.931 113.220  0.00  0.00    -0.241 OA
ENDBRANCH   3  22
TORSDOF 7
ENDMDL
MODEL 9
REMARK VINA RESULT:      -4.5      2.734      4.078
REMARK  7 active torsions:
REMARK  status: ('A' for Active; 'I' for Inactive)
REMARK    1  A    between atoms: C_2  and  C_3 
REMARK    2  A    between atoms: C_3  and  O_6 
REMARK    3  A    between atoms: C_3  and  C_4 
REMARK    4  A    between atoms: C_7  and  O_6 
REMARK    5  A    between atoms: C_9  and  C_10 
REMARK    6  A    between atoms: N_15  and  C_14 
REMARK    7  A    between atoms: N_20  and  C_19 
REMARK       I    between atoms: C_22  and  N_20 
ROOT
ATOM      1  C   LIG d   1      -2.079  77.370 113.968  0.00  0.00     0.161 C 
ATOM      2  C   LIG d   1      -1.304  77.025 112.848  0.00  0.00     0.016 C 
ATOM      3  C   LIG d   1      -1.095  77.890 111.750  0.00  0.00     0.038 C 
ATOM      4  C   LIG d   1      -1.525  79.225 111.765  0.00  0.00     0.028 C 
ATOM      5  C   LIG d   1      -2.741  79.460 112.655  0.00  0.00    -0.047 C 
ATOM      6  C   LIG d   1      -2.463  78.862 114.053  0.00  0.00     0.091 C 
ENDROOT
BRANCH   1   7
ATOM      7  O   LIG d   1      -1.406  76.957 115.174  0.00  0.00    -0.368 OA
BRANCH   7   8
ATOM      8  C   LIG d   1      -2.063  75.924 115.949  0.00  0.00     0.119 C 
BRANCH   8   9
ATOM      9  C   LIG d   1      -1.070  74.757 116.101  0.00  0.00     0.028 C 
ATOM     10  C   LIG d   1       0.329  75.229 116.533  0.00  0.00     0.006 C 
ENDBRANCH   8   9
BRANCH   8  11
ATOM     11  C   LIG d   1      -3.262  75.341 115.195  0.00  0.00     0.028 C 
ATOM     12  C   LIG d   1      -4.569  75.421 116.001  0.00  0.00     0.006 C 
ENDBRANCH   8  11
ENDBRANCH   7   8
ENDBRANCH   1   7
BRANCH   6  13
ATOM     13  N   LIG d   1      -3.635  78.974 114.960  0.00  0.00    -0.311 N 
ATOM     14  C   LIG d   1      -3.533  79.257 116.258  0.00  0.00     0.210 C 
ATOM     15  C   LIG d   1      -4.863  79.304 117.016  0.00  0.00     0.109 C 
ATOM     16  O   LIG d   1      -2.470  79.504 116.847  0.00  0.00    -0.276 OA
ATOM     17  H   LIG d   1      -4.539  78.819 114.559  0.00  0.00     0.149 HD
ENDBRANCH   6  13
BRANCH   5  18
ATOM     18  N   LIG d   1      -2.997  80.912 112.687  0.00  0.00     0.381 N 
ATOM     19  H   LIG d   1      -3.478  81.190 111.855  0.00  0.00    -0.090 HD
ATOM     20  H   LIG d   1      -2.117  81.396 112.719  0.00  0.00    -0.090 HD
ATOM     21  H   LIG d   1      -3.542  81.145 113.488  0.00  0.00    -0.090 HD
ENDBRANCH   5  18
BRANCH   3  22
ATOM     22  C   LIG d   1      -0.483  77.409 110.602  0.00  0.00     0.382 C 
ATOM     23  O   LIG d   1      -0.206  78.193 109.663  0.00  0.00    -0.241 OA
ATOM     24  O   LIG d   1      -0.246  76.193 110.476  0.00  0.00    -0.241 OA
ENDBRANCH   3  22
TORSDOF 7
ENDMDL
