MODEL 1
REMARK VINA RESULT:      -5.3      0.000      0.000
REMARK  7 active torsions:
REMARK  status: ('A' for Active; 'I' for Inactive)
REMARK    1  A    between atoms: C_2  and  C_3 
REMARK    2  A    between atoms: C_3  and  O_6 
REMARK    3  A    between atoms: C_3  and  C_4 
REMARK    4  A    between atoms: C_7  and  O_6 
REMARK    5  A    between atoms: C_9  and  C_10 
REMARK    6  A    between atoms: N_15  and  C_14 
REMARK    7  A    between atoms: N_20  and  C_19 
REMARK       I    between atoms: C_22  and  N_20 
ROOT
ATOM      1  C   LIG d   1      -1.341  75.558 115.075  0.00  0.00     0.161 C 
ATOM      2  C   LIG d   1      -0.943  75.057 116.325  0.00  0.00     0.016 C 
ATOM      3  C   LIG d   1      -0.346  75.854 117.329  0.00  0.00     0.038 C 
ATOM      4  C   LIG d   1      -0.242  77.247 117.205  0.00  0.00     0.028 C 
ATOM      5  C   LIG d   1      -0.169  77.723 115.758  0.00  0.00    -0.047 C 
ATOM      6  C   LIG d   1      -1.338  77.097 114.964  0.00  0.00     0.091 C 
ENDROOT
BRANCH   1   7
ATOM      7  O   LIG d   1      -2.637  75.033 114.728  0.00  0.00    -0.368 OA
BRANCH   7   8
ATOM      8  C   LIG d   1      -3.766  75.906 114.979  0.00  0.00     0.119 C 
BRANCH   8   9
ATOM      9  C   LIG d   1      -4.375  75.496 116.334  0.00  0.00     0.028 C 
ATOM     10  C   LIG d   1      -4.122  76.542 117.432  0.00  0.00     0.006 C 
ENDBRANCH   8   9
BRANCH   8  11
ATOM     11  C   LIG d   1      -4.880  75.686 113.951  0.00  0.00     0.028 C 
ATOM     12  C   LIG d   1      -6.286  75.819 114.559  0.00  0.00     0.006 C 
ENDBRANCH   8  11
ENDBRANCH   7   8
ENDBRANCH   1   7
BRANCH   6  13
ATOM     13  N   LIG d   1      -1.292  77.444 113.520  0.00  0.00    -0.311 N 
ATOM     14  C   LIG d   1      -1.990  78.443 112.983  0.00  0.00     0.210 C 
ATOM     15  C   LIG d   1      -1.813  78.617 111.471  0.00  0.00     0.109 C 
ATOM     16  O   LIG d   1      -2.715  79.222 113.621  0.00  0.00    -0.276 OA
ATOM     17  H   LIG d   1      -0.705  76.882 112.934  0.00  0.00     0.149 HD
ENDBRANCH   6  13
BRANCH   5  18
ATOM     18  N   LIG d   1      -0.204  79.198 115.772  0.00  0.00     0.381 N 
ATOM     19  H   LIG d   1       0.726  79.558 115.852  0.00  0.00    -0.090 HD
ATOM     20  H   LIG d   1      -0.730  79.503 116.572  0.00  0.00    -0.090 HD
ATOM     21  H   LIG d   1      -0.628  79.537 114.937  0.00  0.00    -0.090 HD
ENDBRANCH   5  18
BRANCH   3  22
ATOM     22  C   LIG d   1       0.193  75.251 118.455  0.00  0.00     0.382 C 
ATOM     23  O   LIG d   1       1.189  75.760 119.023  0.00  0.00    -0.241 OA
ATOM     24  O   LIG d   1      -0.278  74.180 118.885  0.00  0.00    -0.241 OA
ENDBRANCH   3  22
TORSDOF 7
ENDMDL
MODEL 2
REMARK VINA RESULT:      -5.3      2.058      5.021
REMARK  7 active torsions:
REMARK  status: ('A' for Active; 'I' for Inactive)
REMARK    1  A    between atoms: C_2  and  C_3 
REMARK    2  A    between atoms: C_3  and  O_6 
REMARK    3  A    between atoms: C_3  and  C_4 
REMARK    4  A    between atoms: C_7  and  O_6 
REMARK    5  A    between atoms: C_9  and  C_10 
REMARK    6  A    between atoms: N_15  and  C_14 
REMARK    7  A    between atoms: N_20  and  C_19 
REMARK       I    between atoms: C_22  and  N_20 
ROOT
ATOM      1  C   LIG d   1      -2.576  77.830 116.207  0.00  0.00     0.161 C 
ATOM      2  C   LIG d   1      -2.875  78.644 115.102  0.00  0.00     0.016 C 
ATOM      3  C   LIG d   1      -2.258  78.497 113.838  0.00  0.00     0.038 C 
ATOM      4  C   LIG d   1      -1.404  77.422 113.550  0.00  0.00     0.028 C 
ATOM      5  C   LIG d   1      -0.686  76.873 114.779  0.00  0.00    -0.047 C 
ATOM      6  C   LIG d   1      -1.729  76.582 115.882  0.00  0.00     0.091 C 
ENDROOT
BRANCH   1   7
ATOM      7  O   LIG d   1      -3.794  77.449 116.877  0.00  0.00    -0.368 OA
BRANCH   7   8
ATOM      8  C   LIG d   1      -5.007  77.531 116.089  0.00  0.00     0.119 C 
BRANCH   8   9
ATOM      9  C   LIG d   1      -6.100  78.146 116.985  0.00  0.00     0.028 C 
ATOM     10  C   LIG d   1      -5.841  79.631 117.291  0.00  0.00     0.006 C 
ENDBRANCH   8   9
BRANCH   8  11
ATOM     11  C   LIG d   1      -5.524  76.139 115.716  0.00  0.00     0.028 C 
ATOM     12  C   LIG d   1      -5.048  75.678 114.329  0.00  0.00     0.006 C 
ENDBRANCH   8  11
ENDBRANCH   7   8
ENDBRANCH   1   7
BRANCH   6  13
ATOM     13  N   LIG d   1      -1.101  76.122 117.148  0.00  0.00    -0.311 N 
ATOM     14  C   LIG d   1      -1.443  74.993 117.767  0.00  0.00     0.210 C 
ATOM     15  C   LIG d   1      -0.686  74.716 119.070  0.00  0.00     0.109 C 
ATOM     16  O   LIG d   1      -2.279  74.180 117.345  0.00  0.00    -0.276 OA
ATOM     17  H   LIG d   1      -0.391  76.706 117.544  0.00  0.00     0.149 HD
ENDBRANCH   6  13
BRANCH   5  18
ATOM     18  N   LIG d   1       0.062  75.673 114.359  0.00  0.00     0.381 N 
ATOM     19  H   LIG d   1      -0.529  74.868 114.419  0.00  0.00    -0.090 HD
ATOM     20  H   LIG d   1       0.840  75.541 114.981  0.00  0.00    -0.090 HD
ATOM     21  H   LIG d   1       0.389  75.784 113.424  0.00  0.00    -0.090 HD
ENDBRANCH   5  18
BRANCH   3  22
ATOM     22  C   LIG d   1      -2.463  79.455 112.857  0.00  0.00     0.382 C 
ATOM     23  O   LIG d   1      -2.089  79.238 111.680  0.00  0.00    -0.241 OA
ATOM     24  O   LIG d   1      -2.977  80.553 113.145  0.00  0.00    -0.241 OA
ENDBRANCH   3  22
TORSDOF 7
ENDMDL
MODEL 3
REMARK VINA RESULT:      -5.1      2.517      5.311
REMARK  7 active torsions:
REMARK  status: ('A' for Active; 'I' for Inactive)
REMARK    1  A    between atoms: C_2  and  C_3 
REMARK    2  A    between atoms: C_3  and  O_6 
REMARK    3  A    between atoms: C_3  and  C_4 
REMARK    4  A    between atoms: C_7  and  O_6 
REMARK    5  A    between atoms: C_9  and  C_10 
REMARK    6  A    between atoms: N_15  and  C_14 
REMARK    7  A    between atoms: N_20  and  C_19 
REMARK       I    between atoms: C_22  and  N_20 
ROOT
ATOM      1  C   LIG d   1      -2.966  78.106 115.847  0.00  0.00     0.161 C 
ATOM      2  C   LIG d   1      -3.052  78.978 114.749  0.00  0.00     0.016 C 
ATOM      3  C   LIG d   1      -2.258  78.845 113.587  0.00  0.00     0.038 C 
ATOM      4  C   LIG d   1      -1.427  77.734 113.379  0.00  0.00     0.028 C 
ATOM      5  C   LIG d   1      -0.933  77.097 114.674  0.00  0.00    -0.047 C 
ATOM      6  C   LIG d   1      -2.145  76.824 115.593  0.00  0.00     0.091 C 
ENDROOT
BRANCH   1   7
ATOM      7  O   LIG d   1      -4.290  77.770 116.308  0.00  0.00    -0.368 OA
BRANCH   7   8
ATOM      8  C   LIG d   1      -4.771  78.507 117.458  0.00  0.00     0.119 C 
BRANCH   8   9
ATOM      9  C   LIG d   1      -5.035  77.489 118.584  0.00  0.00     0.028 C 
ATOM     10  C   LIG d   1      -3.970  77.550 119.693  0.00  0.00     0.006 C 
ENDBRANCH   8   9
BRANCH   8  11
ATOM     11  C   LIG d   1      -6.128  79.159 117.175  0.00  0.00     0.028 C 
ATOM     12  C   LIG d   1      -6.418  80.355 118.095  0.00  0.00     0.006 C 
ENDBRANCH   8  11
ENDBRANCH   7   8
ENDBRANCH   1   7
BRANCH   6  13
ATOM     13  N   LIG d   1      -1.742  76.279 116.916  0.00  0.00    -0.311 N 
ATOM     14  C   LIG d   1      -2.130  75.086 117.366  0.00  0.00     0.210 C 
ATOM     15  C   LIG d   1      -1.617  74.725 118.763  0.00  0.00     0.109 C 
ATOM     16  O   LIG d   1      -2.823  74.280 116.727  0.00  0.00    -0.276 OA
ATOM     17  H   LIG d   1      -1.154  76.854 117.486  0.00  0.00     0.149 HD
ENDBRANCH   6  13
BRANCH   5  18
ATOM     18  N   LIG d   1      -0.193  75.873 114.314  0.00  0.00     0.381 N 
ATOM     19  H   LIG d   1      -0.683  75.380 113.594  0.00  0.00    -0.090 HD
ATOM     20  H   LIG d   1      -0.138  75.277 115.122  0.00  0.00    -0.090 HD
ATOM     21  H   LIG d   1       0.723  76.107 114.002  0.00  0.00    -0.090 HD
ENDBRANCH   5  18
BRANCH   3  22
ATOM     22  C   LIG d   1      -2.262  79.851 112.633  0.00  0.00     0.382 C 
ATOM     23  O   LIG d   1      -1.365  79.889 111.757  0.00  0.00    -0.241 OA
ATOM     24  O   LIG d   1      -3.126  80.748 112.665  0.00  0.00    -0.241 OA
ENDBRANCH   3  22
TORSDOF 7
ENDMDL
MODEL 4
REMARK VINA RESULT:      -4.9      2.018      4.883
REMARK  7 active torsions:
REMARK  status: ('A' for Active; 'I' for Inactive)
REMARK    1  A    between atoms: C_2  and  C_3 
REMARK    2  A    between atoms: C_3  and  O_6 
REMARK    3  A    between atoms: C_3  and  C_4 
REMARK    4  A    between atoms: C_7  and  O_6 
REMARK    5  A    between atoms: C_9  and  C_10 
REMARK    6  A    between atoms: N_15  and  C_14 
REMARK    7  A    between atoms: N_20  and  C_19 
REMARK       I    between atoms: C_22  and  N_20 
ROOT
ATOM      1  C   LIG d   1      -2.588  77.281 116.735  0.00  0.00     0.161 C 
ATOM      2  C   LIG d   1      -3.465  76.444 116.025  0.00  0.00     0.016 C 
ATOM      3  C   LIG d   1      -3.687  76.550 114.633  0.00  0.00     0.038 C 
ATOM      4  C   LIG d   1      -2.926  77.409 113.825  0.00  0.00     0.028 C 
ATOM      5  C   LIG d   1      -2.389  78.626 114.571  0.00  0.00    -0.047 C 
ATOM      6  C   LIG d   1      -1.668  78.150 115.853  0.00  0.00     0.091 C 
ENDROOT
BRANCH   1   7
ATOM      7  O   LIG d   1      -1.805  76.498 117.657  0.00  0.00    -0.368 OA
BRANCH   7   8
ATOM      8  C   LIG d   1      -1.561  75.122 117.277  0.00  0.00     0.119 C 
BRANCH   8   9
ATOM      9  C   LIG d   1      -1.518  74.285 118.571  0.00  0.00     0.028 C 
ATOM     10  C   LIG d   1      -0.161  74.382 119.288  0.00  0.00     0.006 C 
ENDBRANCH   8   9
BRANCH   8  11
ATOM     11  C   LIG d   1      -0.177  74.956 116.642  0.00  0.00     0.028 C 
ATOM     12  C   LIG d   1      -0.246  74.593 115.150  0.00  0.00     0.006 C 
ENDBRANCH   8  11
ENDBRANCH   7   8
ENDBRANCH   1   7
BRANCH   6  13
ATOM     13  N   LIG d   1      -1.185  79.282 116.685  0.00  0.00    -0.311 N 
ATOM     14  C   LIG d   1       0.004  79.296 117.286  0.00  0.00     0.210 C 
ATOM     15  C   LIG d   1       0.295  80.553 118.113  0.00  0.00     0.109 C 
ATOM     16  O   LIG d   1       0.857  78.402 117.186  0.00  0.00    -0.276 OA
ATOM     17  H   LIG d   1      -1.802  80.064 116.794  0.00  0.00     0.149 HD
ENDBRANCH   6  13
BRANCH   5  18
ATOM     18  N   LIG d   1      -1.504  79.360 113.648  0.00  0.00     0.381 N 
ATOM     19  H   LIG d   1      -1.158  78.739 112.944  0.00  0.00    -0.090 HD
ATOM     20  H   LIG d   1      -0.721  79.719 114.165  0.00  0.00    -0.090 HD
ATOM     21  H   LIG d   1      -2.002  80.111 113.222  0.00  0.00    -0.090 HD
ENDBRANCH   5  18
BRANCH   3  22
ATOM     22  C   LIG d   1      -4.706  75.820 114.041  0.00  0.00     0.382 C 
ATOM     23  O   LIG d   1      -5.121  76.134 112.899  0.00  0.00    -0.241 OA
ATOM     24  O   LIG d   1      -5.246  74.879 114.653  0.00  0.00    -0.241 OA
ENDBRANCH   3  22
TORSDOF 7
ENDMDL
MODEL 5
REMARK VINA RESULT:      -4.7      1.873      4.828
REMARK  7 active torsions:
REMARK  status: ('A' for Active; 'I' for Inactive)
REMARK    1  A    between atoms: C_2  and  C_3 
REMARK    2  A    between atoms: C_3  and  O_6 
REMARK    3  A    between atoms: C_3  and  C_4 
REMARK    4  A    between atoms: C_7  and  O_6 
REMARK    5  A    between atoms: C_9  and  C_10 
REMARK    6  A    between atoms: N_15  and  C_14 
REMARK    7  A    between atoms: N_20  and  C_19 
REMARK       I    between atoms: C_22  and  N_20 
ROOT
ATOM      1  C   LIG d   1      -3.173  76.258 115.287  0.00  0.00     0.161 C 
ATOM      2  C   LIG d   1      -3.260  77.369 114.432  0.00  0.00     0.016 C 
ATOM      3  C   LIG d   1      -2.164  77.871 113.694  0.00  0.00     0.038 C 
ATOM      4  C   LIG d   1      -0.933  77.199 113.645  0.00  0.00     0.028 C 
ATOM      5  C   LIG d   1      -0.652  76.360 114.887  0.00  0.00    -0.047 C 
ATOM      6  C   LIG d   1      -1.867  75.445 115.161  0.00  0.00     0.091 C 
ENDROOT
BRANCH   1   7
ATOM      7  O   LIG d   1      -4.317  75.402 115.095  0.00  0.00    -0.368 OA
BRANCH   7   8
ATOM      8  C   LIG d   1      -5.290  75.387 116.168  0.00  0.00     0.119 C 
BRANCH   8   9
ATOM      9  C   LIG d   1      -6.661  75.729 115.555  0.00  0.00     0.028 C 
ATOM     10  C   LIG d   1      -6.583  75.961 114.036  0.00  0.00     0.006 C 
ENDBRANCH   8   9
BRANCH   8  11
ATOM     11  C   LIG d   1      -5.013  76.497 117.187  0.00  0.00     0.028 C 
ATOM     12  C   LIG d   1      -6.285  76.983 117.899  0.00  0.00     0.006 C 
ENDBRANCH   8  11
ENDBRANCH   7   8
ENDBRANCH   1   7
BRANCH   6  13
ATOM     13  N   LIG d   1      -1.710  74.651 116.407  0.00  0.00    -0.311 N 
ATOM     14  C   LIG d   1      -1.522  75.199 117.607  0.00  0.00     0.210 C 
ATOM     15  C   LIG d   1      -1.363  74.199 118.756  0.00  0.00     0.109 C 
ATOM     16  O   LIG d   1      -1.505  76.418 117.833  0.00  0.00    -0.276 OA
ATOM     17  H   LIG d   1      -1.742  73.654 116.320  0.00  0.00     0.149 HD
ENDBRANCH   6  13
BRANCH   5  18
ATOM     18  N   LIG d   1       0.594  75.608 114.643  0.00  0.00     0.381 N 
ATOM     19  H   LIG d   1       1.302  76.226 114.302  0.00  0.00    -0.090 HD
ATOM     20  H   LIG d   1       0.420  74.909 113.942  0.00  0.00    -0.090 HD
ATOM     21  H   LIG d   1       0.900  75.173 115.486  0.00  0.00    -0.090 HD
ENDBRANCH   5  18
BRANCH   3  22
ATOM     22  C   LIG d   1      -2.281  79.080 113.025  0.00  0.00     0.382 C 
ATOM     23  O   LIG d   1      -1.668  79.261 111.946  0.00  0.00    -0.241 OA
ATOM     24  O   LIG d   1      -2.956  80.007 113.511  0.00  0.00    -0.241 OA
ENDBRANCH   3  22
TORSDOF 7
ENDMDL
MODEL 6
REMARK VINA RESULT:      -4.6      2.143      4.239
REMARK  7 active torsions:
REMARK  status: ('A' for Active; 'I' for Inactive)
REMARK    1  A    between atoms: C_2  and  C_3 
REMARK    2  A    between atoms: C_3  and  O_6 
REMARK    3  A    between atoms: C_3  and  C_4 
REMARK    4  A    between atoms: C_7  and  O_6 
REMARK    5  A    between atoms: C_9  and  C_10 
REMARK    6  A    between atoms: N_15  and  C_14 
REMARK    7  A    between atoms: N_20  and  C_19 
REMARK       I    between atoms: C_22  and  N_20 
ROOT
ATOM      1  C   LIG d   1      -1.996  77.141 114.587  0.00  0.00     0.161 C 
ATOM      2  C   LIG d   1      -0.903  77.696 115.274  0.00  0.00     0.016 C 
ATOM      3  C   LIG d   1      -0.373  77.147 116.464  0.00  0.00     0.038 C 
ATOM      4  C   LIG d   1      -0.807  75.912 116.969  0.00  0.00     0.028 C 
ATOM      5  C   LIG d   1      -2.244  75.574 116.590  0.00  0.00    -0.047 C 
ATOM      6  C   LIG d   1      -2.410  75.732 115.061  0.00  0.00     0.091 C 
ENDROOT
BRANCH   1   7
ATOM      7  O   LIG d   1      -1.729  77.134 113.170  0.00  0.00    -0.368 OA
BRANCH   7   8
ATOM      8  C   LIG d   1      -2.421  78.137 112.387  0.00  0.00     0.119 C 
BRANCH   8   9
ATOM      9  C   LIG d   1      -2.341  77.707 110.909  0.00  0.00     0.028 C 
ATOM     10  C   LIG d   1      -0.899  77.417 110.459  0.00  0.00     0.006 C 
ENDBRANCH   8   9
BRANCH   8  11
ATOM     11  C   LIG d   1      -1.704  79.489 112.455  0.00  0.00     0.028 C 
ATOM     12  C   LIG d   1      -2.672  80.667 112.646  0.00  0.00     0.006 C 
ENDBRANCH   8  11
ENDBRANCH   7   8
ENDBRANCH   1   7
BRANCH   6  13
ATOM     13  N   LIG d   1      -3.809  75.501 114.616  0.00  0.00    -0.311 N 
ATOM     14  C   LIG d   1      -4.827  76.290 114.957  0.00  0.00     0.210 C 
ATOM     15  C   LIG d   1      -6.190  75.861 114.406  0.00  0.00     0.109 C 
ATOM     16  O   LIG d   1      -4.724  77.323 115.636  0.00  0.00    -0.276 OA
ATOM     17  H   LIG d   1      -3.978  74.703 114.035  0.00  0.00     0.149 HD
ENDBRANCH   6  13
BRANCH   5  18
ATOM     18  N   LIG d   1      -2.519  74.204 117.062  0.00  0.00     0.381 N 
ATOM     19  H   LIG d   1      -3.482  73.979 116.907  0.00  0.00    -0.090 HD
ATOM     20  H   LIG d   1      -2.341  74.159 118.050  0.00  0.00    -0.090 HD
ATOM     21  H   LIG d   1      -1.937  73.554 116.582  0.00  0.00    -0.090 HD
ENDBRANCH   5  18
BRANCH   3  22
ATOM     22  C   LIG d   1       0.575  77.857 117.185  0.00  0.00     0.382 C 
ATOM     23  O   LIG d   1       0.482  79.104 117.286  0.00  0.00    -0.241 OA
ATOM     24  O   LIG d   1       1.548  77.271 117.698  0.00  0.00    -0.241 OA
ENDBRANCH   3  22
TORSDOF 7
ENDMDL
MODEL 7
REMARK VINA RESULT:      -4.5      2.230      5.260
REMARK  7 active torsions:
REMARK  status: ('A' for Active; 'I' for Inactive)
REMARK    1  A    between atoms: C_2  and  C_3 
REMARK    2  A    between atoms: C_3  and  O_6 
REMARK    3  A    between atoms: C_3  and  C_4 
REMARK    4  A    between atoms: C_7  and  O_6 
REMARK    5  A    between atoms: C_9  and  C_10 
REMARK    6  A    between atoms: N_15  and  C_14 
REMARK    7  A    between atoms: N_20  and  C_19 
REMARK       I    between atoms: C_22  and  N_20 
ROOT
ATOM      1  C   LIG d   1      -2.314  76.290 114.789  0.00  0.00     0.161 C 
ATOM      2  C   LIG d   1      -3.642  76.063 114.390  0.00  0.00     0.016 C 
ATOM      3  C   LIG d   1      -4.757  76.299 115.227  0.00  0.00     0.038 C 
ATOM      4  C   LIG d   1      -4.627  76.926 116.475  0.00  0.00     0.028 C 
ATOM      5  C   LIG d   1      -3.264  76.708 117.124  0.00  0.00    -0.047 C 
ATOM      6  C   LIG d   1      -2.160  77.077 116.107  0.00  0.00     0.091 C 
ENDROOT
BRANCH   1   7
ATOM      7  O   LIG d   1      -1.590  76.943 113.728  0.00  0.00    -0.368 OA
BRANCH   7   8
ATOM      8  C   LIG d   1      -2.330  77.924 112.961  0.00  0.00     0.119 C 
BRANCH   8   9
ATOM      9  C   LIG d   1      -1.577  78.139 111.634  0.00  0.00     0.028 C 
ATOM     10  C   LIG d   1      -2.346  77.581 110.425  0.00  0.00     0.006 C 
ENDBRANCH   8   9
BRANCH   8  11
ATOM     11  C   LIG d   1      -2.329  79.290 113.654  0.00  0.00     0.028 C 
ATOM     12  C   LIG d   1      -2.592  80.451 112.682  0.00  0.00     0.006 C 
ENDBRANCH   8  11
ENDBRANCH   7   8
ENDBRANCH   1   7
BRANCH   6  13
ATOM     13  N   LIG d   1      -0.795  76.814 116.632  0.00  0.00    -0.311 N 
ATOM     14  C   LIG d   1      -0.049  77.739 117.232  0.00  0.00     0.210 C 
ATOM     15  C   LIG d   1       1.336  77.263 117.680  0.00  0.00     0.109 C 
ATOM     16  O   LIG d   1      -0.415  78.901 117.465  0.00  0.00    -0.276 OA
ATOM     17  H   LIG d   1      -0.431  75.889 116.513  0.00  0.00     0.149 HD
ENDBRANCH   6  13
BRANCH   5  18
ATOM     18  N   LIG d   1      -3.218  77.527 118.350  0.00  0.00     0.381 N 
ATOM     19  H   LIG d   1      -3.155  78.496 118.108  0.00  0.00    -0.090 HD
ATOM     20  H   LIG d   1      -2.399  77.279 118.876  0.00  0.00    -0.090 HD
ATOM     21  H   LIG d   1      -4.035  77.366 118.898  0.00  0.00    -0.090 HD
ENDBRANCH   5  18
BRANCH   3  22
ATOM     22  C   LIG d   1      -6.015  75.870 114.833  0.00  0.00     0.382 C 
ATOM     23  O   LIG d   1      -6.713  75.175 115.610  0.00  0.00    -0.241 OA
ATOM     24  O   LIG d   1      -6.443  76.132 113.693  0.00  0.00    -0.241 OA
ENDBRANCH   3  22
TORSDOF 7
ENDMDL
MODEL 8
REMARK VINA RESULT:      -4.4      2.565      4.989
REMARK  7 active torsions:
REMARK  status: ('A' for Active; 'I' for Inactive)
REMARK    1  A    between atoms: C_2  and  C_3 
REMARK    2  A    between atoms: C_3  and  O_6 
REMARK    3  A    between atoms: C_3  and  C_4 
REMARK    4  A    between atoms: C_7  and  O_6 
REMARK    5  A    between atoms: C_9  and  C_10 
REMARK    6  A    between atoms: N_15  and  C_14 
REMARK    7  A    between atoms: N_20  and  C_19 
REMARK       I    between atoms: C_22  and  N_20 
ROOT
ATOM      1  C   LIG d   1      -2.773  77.191 114.795  0.00  0.00     0.161 C 
ATOM      2  C   LIG d   1      -3.911  77.744 115.407  0.00  0.00     0.016 C 
ATOM      3  C   LIG d   1      -4.476  77.236 116.599  0.00  0.00     0.038 C 
ATOM      4  C   LIG d   1      -3.850  76.228 117.347  0.00  0.00     0.028 C 
ATOM      5  C   LIG d   1      -2.977  75.304 116.505  0.00  0.00    -0.047 C 
ATOM      6  C   LIG d   1      -2.012  76.161 115.655  0.00  0.00     0.091 C 
ENDROOT
BRANCH   1   7
ATOM      7  O   LIG d   1      -1.886  78.245 114.372  0.00  0.00    -0.368 OA
BRANCH   7   8
ATOM      8  C   LIG d   1      -1.556  78.273 112.961  0.00  0.00     0.119 C 
BRANCH   8   9
ATOM      9  C   LIG d   1      -1.331  79.746 112.568  0.00  0.00     0.028 C 
ATOM     10  C   LIG d   1      -2.614  80.586 112.680  0.00  0.00     0.006 C 
ENDBRANCH   8   9
BRANCH   8  11
ATOM     11  C   LIG d   1      -2.734  77.800 112.104  0.00  0.00     0.028 C 
ATOM     12  C   LIG d   1      -2.359  77.613 110.626  0.00  0.00     0.006 C 
ENDBRANCH   8  11
ENDBRANCH   7   8
ENDBRANCH   1   7
BRANCH   6  13
ATOM     13  N   LIG d   1      -1.179  75.338 114.739  0.00  0.00    -0.311 N 
ATOM     14  C   LIG d   1       0.151  75.400 114.704  0.00  0.00     0.210 C 
ATOM     15  C   LIG d   1       0.813  74.481 113.672  0.00  0.00     0.109 C 
ATOM     16  O   LIG d   1       0.847  76.104 115.451  0.00  0.00    -0.276 OA
ATOM     17  H   LIG d   1      -1.661  74.716 114.120  0.00  0.00     0.149 HD
ENDBRANCH   6  13
BRANCH   5  18
ATOM     18  N   LIG d   1      -2.278  74.389 117.427  0.00  0.00     0.381 N 
ATOM     19  H   LIG d   1      -2.197  74.814 118.329  0.00  0.00    -0.090 HD
ATOM     20  H   LIG d   1      -1.352  74.217 117.075  0.00  0.00    -0.090 HD
ATOM     21  H   LIG d   1      -2.778  73.530 117.500  0.00  0.00    -0.090 HD
ENDBRANCH   5  18
BRANCH   3  22
ATOM     22  C   LIG d   1      -5.704  77.712 117.034  0.00  0.00     0.382 C 
ATOM     23  O   LIG d   1      -6.340  77.090 117.919  0.00  0.00    -0.241 OA
ATOM     24  O   LIG d   1      -6.205  78.730 116.521  0.00  0.00    -0.241 OA
ENDBRANCH   3  22
TORSDOF 7
ENDMDL
MODEL 9
REMARK VINA RESULT:      -4.4      2.499      4.944
REMARK  7 active torsions:
REMARK  status: ('A' for Active; 'I' for Inactive)
REMARK    1  A    between atoms: C_2  and  C_3 
REMARK    2  A    between atoms: C_3  and  O_6 
REMARK    3  A    between atoms: C_3  and  C_4 
REMARK    4  A    between atoms: C_7  and  O_6 
REMARK    5  A    between atoms: C_9  and  C_10 
REMARK    6  A    between atoms: N_15  and  C_14 
REMARK    7  A    between atoms: N_20  and  C_19 
REMARK       I    between atoms: C_22  and  N_20 
ROOT
ATOM      1  C   LIG d   1      -2.967  78.714 116.367  0.00  0.00     0.161 C 
ATOM      2  C   LIG d   1      -3.867  77.810 115.779  0.00  0.00     0.016 C 
ATOM      3  C   LIG d   1      -3.459  76.668 115.052  0.00  0.00     0.038 C 
ATOM      4  C   LIG d   1      -2.116  76.267 114.993  0.00  0.00     0.028 C 
ATOM      5  C   LIG d   1      -1.132  77.423 115.145  0.00  0.00    -0.047 C 
ATOM      6  C   LIG d   1      -1.501  78.233 116.408  0.00  0.00     0.091 C 
ENDROOT
BRANCH   1   7
ATOM      7  O   LIG d   1      -3.418  79.060 117.692  0.00  0.00    -0.368 OA
BRANCH   7   8
ATOM      8  C   LIG d   1      -4.610  78.381 118.157  0.00  0.00     0.119 C 
BRANCH   8   9
ATOM      9  C   LIG d   1      -5.631  79.463 118.559  0.00  0.00     0.028 C 
ATOM     10  C   LIG d   1      -6.338  80.085 117.343  0.00  0.00     0.006 C 
ENDBRANCH   8   9
BRANCH   8  11
ATOM     11  C   LIG d   1      -4.336  77.586 119.436  0.00  0.00     0.028 C 
ATOM     12  C   LIG d   1      -2.993  76.839 119.398  0.00  0.00     0.006 C 
ENDBRANCH   8  11
ENDBRANCH   7   8
ENDBRANCH   1   7
BRANCH   6  13
ATOM     13  N   LIG d   1      -0.640  79.432 116.584  0.00  0.00    -0.311 N 
ATOM     14  C   LIG d   1       0.474  79.433 117.316  0.00  0.00     0.210 C 
ATOM     15  C   LIG d   1       1.202  80.779 117.382  0.00  0.00     0.109 C 
ATOM     16  O   LIG d   1       0.944  78.439 117.890  0.00  0.00    -0.276 OA
ATOM     17  H   LIG d   1      -0.930  80.274 116.128  0.00  0.00     0.149 HD
ENDBRANCH   6  13
BRANCH   5  18
ATOM     18  N   LIG d   1       0.225  76.848 115.203  0.00  0.00     0.381 N 
ATOM     19  H   LIG d   1       0.786  77.227 114.466  0.00  0.00    -0.090 HD
ATOM     20  H   LIG d   1       0.163  75.853 115.071  0.00  0.00    -0.090 HD
ATOM     21  H   LIG d   1       0.643  77.048 116.085  0.00  0.00    -0.090 HD
ENDBRANCH   5  18
BRANCH   3  22
ATOM     22  C   LIG d   1      -4.397  75.935 114.341  0.00  0.00     0.382 C 
ATOM     23  O   LIG d   1      -5.011  74.994 114.899  0.00  0.00    -0.241 OA
ATOM     24  O   LIG d   1      -4.604  76.174 113.136  0.00  0.00    -0.241 OA
ENDBRANCH   3  22
TORSDOF 7
ENDMDL
