MODEL 1
REMARK VINA RESULT:      -5.0      0.000      0.000
REMARK  7 active torsions:
REMARK  status: ('A' for Active; 'I' for Inactive)
REMARK    1  A    between atoms: C_2  and  C_3 
REMARK    2  A    between atoms: C_3  and  O_6 
REMARK    3  A    between atoms: C_3  and  C_4 
REMARK    4  A    between atoms: C_7  and  O_6 
REMARK    5  A    between atoms: C_9  and  C_10 
REMARK    6  A    between atoms: N_15  and  C_14 
REMARK    7  A    between atoms: N_20  and  C_19 
REMARK       I    between atoms: C_22  and  N_20 
ROOT
ATOM      1  C   LIG d   1      -0.277  82.351 112.630  0.00  0.00     0.161 C 
ATOM      2  C   LIG d   1      -1.272  81.635 113.316  0.00  0.00     0.016 C 
ATOM      3  C   LIG d   1      -1.538  80.265 113.094  0.00  0.00     0.038 C 
ATOM      4  C   LIG d   1      -0.720  79.475 112.273  0.00  0.00     0.028 C 
ATOM      5  C   LIG d   1      -0.018  80.267 111.175  0.00  0.00    -0.047 C 
ATOM      6  C   LIG d   1       0.699  81.480 111.812  0.00  0.00     0.091 C 
ENDROOT
BRANCH   1   7
ATOM      7  O   LIG d   1       0.451  83.184 113.554  0.00  0.00    -0.368 OA
BRANCH   7   8
ATOM      8  C   LIG d   1       1.360  82.499 114.450  0.00  0.00     0.119 C 
BRANCH   8   9
ATOM      9  C   LIG d   1       1.044  82.973 115.882  0.00  0.00     0.028 C 
ATOM     10  C   LIG d   1       0.187  81.959 116.660  0.00  0.00     0.006 C 
ENDBRANCH   8   9
BRANCH   8  11
ATOM     11  C   LIG d   1       2.812  82.917 114.197  0.00  0.00     0.028 C 
ATOM     12  C   LIG d   1       2.932  84.340 113.628  0.00  0.00     0.006 C 
ENDBRANCH   8  11
ENDBRANCH   7   8
ENDBRANCH   1   7
BRANCH   6  13
ATOM     13  N   LIG d   1       1.341  82.355 110.797  0.00  0.00    -0.311 N 
ATOM     14  C   LIG d   1       2.636  82.296 110.492  0.00  0.00     0.210 C 
ATOM     15  C   LIG d   1       3.098  83.301 109.433  0.00  0.00     0.109 C 
ATOM     16  O   LIG d   1       3.440  81.483 110.974  0.00  0.00    -0.276 OA
ATOM     17  H   LIG d   1       0.756  83.023 110.334  0.00  0.00     0.149 HD
ENDBRANCH   6  13
BRANCH   5  18
ATOM     18  N   LIG d   1       0.906  79.348 110.483  0.00  0.00     0.381 N 
ATOM     19  H   LIG d   1       0.979  78.492 110.996  0.00  0.00    -0.090 HD
ATOM     20  H   LIG d   1       1.817  79.771 110.444  0.00  0.00    -0.090 HD
ATOM     21  H   LIG d   1       0.577  79.164 109.561  0.00  0.00    -0.090 HD
ENDBRANCH   5  18
BRANCH   3  22
ATOM     22  C   LIG d   1      -2.658  79.680 113.666  0.00  0.00     0.382 C 
ATOM     23  O   LIG d   1      -3.324  78.837 113.019  0.00  0.00    -0.241 OA
ATOM     24  O   LIG d   1      -3.035  80.018 114.804  0.00  0.00    -0.241 OA
ENDBRANCH   3  22
TORSDOF 7
ENDMDL
MODEL 2
REMARK VINA RESULT:      -4.9      3.081      6.112
REMARK  7 active torsions:
REMARK  status: ('A' for Active; 'I' for Inactive)
REMARK    1  A    between atoms: C_2  and  C_3 
REMARK    2  A    between atoms: C_3  and  O_6 
REMARK    3  A    between atoms: C_3  and  C_4 
REMARK    4  A    between atoms: C_7  and  O_6 
REMARK    5  A    between atoms: C_9  and  C_10 
REMARK    6  A    between atoms: N_15  and  C_14 
REMARK    7  A    between atoms: N_20  and  C_19 
REMARK       I    between atoms: C_22  and  N_20 
ROOT
ATOM      1  C   LIG d   1      -2.409  80.490 115.108  0.00  0.00     0.161 C 
ATOM      2  C   LIG d   1      -1.914  81.624 114.443  0.00  0.00     0.016 C 
ATOM      3  C   LIG d   1      -1.256  81.568 113.193  0.00  0.00     0.038 C 
ATOM      4  C   LIG d   1      -1.182  80.382 112.447  0.00  0.00     0.028 C 
ATOM      5  C   LIG d   1      -1.221  79.123 113.305  0.00  0.00    -0.047 C 
ATOM      6  C   LIG d   1      -2.437  79.202 114.258  0.00  0.00     0.091 C 
ENDROOT
BRANCH   1   7
ATOM      7  O   LIG d   1      -3.721  80.768 115.638  0.00  0.00    -0.368 OA
BRANCH   7   8
ATOM      8  C   LIG d   1      -3.898  80.532 117.056  0.00  0.00     0.119 C 
BRANCH   8   9
ATOM      9  C   LIG d   1      -4.839  81.627 117.594  0.00  0.00     0.028 C 
ATOM     10  C   LIG d   1      -6.210  81.069 118.013  0.00  0.00     0.006 C 
ENDBRANCH   8   9
BRANCH   8  11
ATOM     11  C   LIG d   1      -2.584  80.716 117.821  0.00  0.00     0.028 C 
ATOM     12  C   LIG d   1      -2.595  81.949 118.737  0.00  0.00     0.006 C 
ENDBRANCH   8  11
ENDBRANCH   7   8
ENDBRANCH   1   7
BRANCH   6  13
ATOM     13  N   LIG d   1      -2.502  78.048 115.191  0.00  0.00    -0.311 N 
ATOM     14  C   LIG d   1      -3.275  76.983 114.987  0.00  0.00     0.210 C 
ATOM     15  C   LIG d   1      -3.207  75.915 116.083  0.00  0.00     0.109 C 
ATOM     16  O   LIG d   1      -3.986  76.807 113.987  0.00  0.00    -0.276 OA
ATOM     17  H   LIG d   1      -1.933  78.094 116.014  0.00  0.00     0.149 HD
ENDBRANCH   6  13
BRANCH   5  18
ATOM     18  N   LIG d   1      -1.276  77.964 112.394  0.00  0.00     0.381 N 
ATOM     19  H   LIG d   1      -1.906  78.155 111.641  0.00  0.00    -0.090 HD
ATOM     20  H   LIG d   1      -1.622  77.168 112.901  0.00  0.00    -0.090 HD
ATOM     21  H   LIG d   1      -0.367  77.769 112.035  0.00  0.00    -0.090 HD
ENDBRANCH   5  18
BRANCH   3  22
ATOM     22  C   LIG d   1      -0.627  82.699 112.696  0.00  0.00     0.382 C 
ATOM     23  O   LIG d   1       0.387  83.159 113.275  0.00  0.00    -0.241 OA
ATOM     24  O   LIG d   1      -1.088  83.293 111.703  0.00  0.00    -0.241 OA
ENDBRANCH   3  22
TORSDOF 7
ENDMDL
MODEL 3
REMARK VINA RESULT:      -4.8      2.877      5.352
REMARK  7 active torsions:
REMARK  status: ('A' for Active; 'I' for Inactive)
REMARK    1  A    between atoms: C_2  and  C_3 
REMARK    2  A    between atoms: C_3  and  O_6 
REMARK    3  A    between atoms: C_3  and  C_4 
REMARK    4  A    between atoms: C_7  and  O_6 
REMARK    5  A    between atoms: C_9  and  C_10 
REMARK    6  A    between atoms: N_15  and  C_14 
REMARK    7  A    between atoms: N_20  and  C_19 
REMARK       I    between atoms: C_22  and  N_20 
ROOT
ATOM      1  C   LIG d   1      -0.167  80.020 115.044  0.00  0.00     0.161 C 
ATOM      2  C   LIG d   1      -0.129  81.310 114.488  0.00  0.00     0.016 C 
ATOM      3  C   LIG d   1      -0.711  81.638 113.242  0.00  0.00     0.038 C 
ATOM      4  C   LIG d   1      -1.506  80.726 112.532  0.00  0.00     0.028 C 
ATOM      5  C   LIG d   1      -1.151  79.269 112.809  0.00  0.00    -0.047 C 
ATOM      6  C   LIG d   1      -1.126  79.040 114.337  0.00  0.00     0.091 C 
ENDROOT
BRANCH   1   7
ATOM      7  O   LIG d   1      -0.480  80.103 116.448  0.00  0.00    -0.368 OA
BRANCH   7   8
ATOM      8  C   LIG d   1      -1.120  81.326 116.888  0.00  0.00     0.119 C 
BRANCH   8   9
ATOM      9  C   LIG d   1      -0.266  81.911 118.029  0.00  0.00     0.028 C 
ATOM     10  C   LIG d   1      -1.025  82.970 118.847  0.00  0.00     0.006 C 
ENDBRANCH   8   9
BRANCH   8  11
ATOM     11  C   LIG d   1      -2.491  81.045 117.510  0.00  0.00     0.028 C 
ATOM     12  C   LIG d   1      -3.610  80.933 116.462  0.00  0.00     0.006 C 
ENDBRANCH   8  11
ENDBRANCH   7   8
ENDBRANCH   1   7
BRANCH   6  13
ATOM     13  N   LIG d   1      -0.704  77.661 114.697  0.00  0.00    -0.311 N 
ATOM     14  C   LIG d   1      -1.557  76.649 114.847  0.00  0.00     0.210 C 
ATOM     15  C   LIG d   1      -0.915  75.315 115.239  0.00  0.00     0.109 C 
ATOM     16  O   LIG d   1      -2.781  76.722 114.662  0.00  0.00    -0.276 OA
ATOM     17  H   LIG d   1       0.275  77.505 114.835  0.00  0.00     0.149 HD
ENDBRANCH   6  13
BRANCH   5  18
ATOM     18  N   LIG d   1      -2.144  78.428 112.114  0.00  0.00     0.381 N 
ATOM     19  H   LIG d   1      -3.062  78.637 112.454  0.00  0.00    -0.090 HD
ATOM     20  H   LIG d   1      -1.947  77.463 112.310  0.00  0.00    -0.090 HD
ATOM     21  H   LIG d   1      -2.102  78.591 111.132  0.00  0.00    -0.090 HD
ENDBRANCH   5  18
BRANCH   3  22
ATOM     22  C   LIG d   1      -0.465  82.879 112.674  0.00  0.00     0.382 C 
ATOM     23  O   LIG d   1      -1.186  83.292 111.734  0.00  0.00    -0.241 OA
ATOM     24  O   LIG d   1       0.496  83.571 113.059  0.00  0.00    -0.241 OA
ENDBRANCH   3  22
TORSDOF 7
ENDMDL
MODEL 4
REMARK VINA RESULT:      -4.8      1.965      4.727
REMARK  7 active torsions:
REMARK  status: ('A' for Active; 'I' for Inactive)
REMARK    1  A    between atoms: C_2  and  C_3 
REMARK    2  A    between atoms: C_3  and  O_6 
REMARK    3  A    between atoms: C_3  and  C_4 
REMARK    4  A    between atoms: C_7  and  O_6 
REMARK    5  A    between atoms: C_9  and  C_10 
REMARK    6  A    between atoms: N_15  and  C_14 
REMARK    7  A    between atoms: N_20  and  C_19 
REMARK       I    between atoms: C_22  and  N_20 
ROOT
ATOM      1  C   LIG d   1       0.986  81.343 112.978  0.00  0.00     0.161 C 
ATOM      2  C   LIG d   1       1.891  81.083 111.935  0.00  0.00     0.016 C 
ATOM      3  C   LIG d   1       1.598  80.234 110.844  0.00  0.00     0.038 C 
ATOM      4  C   LIG d   1       0.316  79.701 110.642  0.00  0.00     0.028 C 
ATOM      5  C   LIG d   1      -0.478  79.528 111.933  0.00  0.00    -0.047 C 
ATOM      6  C   LIG d   1      -0.456  80.859 112.718  0.00  0.00     0.091 C 
ENDROOT
BRANCH   1   7
ATOM      7  O   LIG d   1       0.994  82.749 113.293  0.00  0.00    -0.368 OA
BRANCH   7   8
ATOM      8  C   LIG d   1       1.595  83.115 114.559  0.00  0.00     0.119 C 
BRANCH   8   9
ATOM      9  C   LIG d   1       2.875  83.916 114.250  0.00  0.00     0.028 C 
ATOM     10  C   LIG d   1       2.825  84.590 112.868  0.00  0.00     0.006 C 
ENDBRANCH   8   9
BRANCH   8  11
ATOM     11  C   LIG d   1       2.067  81.879 115.330  0.00  0.00     0.028 C 
ATOM     12  C   LIG d   1       3.423  82.090 116.022  0.00  0.00     0.006 C 
ENDBRANCH   8  11
ENDBRANCH   7   8
ENDBRANCH   1   7
BRANCH   6  13
ATOM     13  N   LIG d   1      -1.139  80.752 114.034  0.00  0.00    -0.311 N 
ATOM     14  C   LIG d   1      -2.431  81.021 114.213  0.00  0.00     0.210 C 
ATOM     15  C   LIG d   1      -2.929  80.867 115.654  0.00  0.00     0.109 C 
ATOM     16  O   LIG d   1      -3.219  81.340 113.311  0.00  0.00    -0.276 OA
ATOM     17  H   LIG d   1      -0.581  80.469 114.816  0.00  0.00     0.149 HD
ENDBRANCH   6  13
BRANCH   5  18
ATOM     18  N   LIG d   1      -1.840  79.096 111.564  0.00  0.00     0.381 N 
ATOM     19  H   LIG d   1      -2.503  79.788 111.851  0.00  0.00    -0.090 HD
ATOM     20  H   LIG d   1      -2.050  78.239 112.044  0.00  0.00    -0.090 HD
ATOM     21  H   LIG d   1      -1.898  78.957 110.580  0.00  0.00    -0.090 HD
ENDBRANCH   5  18
BRANCH   3  22
ATOM     22  C   LIG d   1       2.605  79.877 109.961  0.00  0.00     0.382 C 
ATOM     23  O   LIG d   1       2.708  78.688 109.574  0.00  0.00    -0.241 OA
ATOM     24  O   LIG d   1       3.440  80.719 109.580  0.00  0.00    -0.241 OA
ENDBRANCH   3  22
TORSDOF 7
ENDMDL
MODEL 5
REMARK VINA RESULT:      -4.7      1.770      4.864
REMARK  7 active torsions:
REMARK  status: ('A' for Active; 'I' for Inactive)
REMARK    1  A    between atoms: C_2  and  C_3 
REMARK    2  A    between atoms: C_3  and  O_6 
REMARK    3  A    between atoms: C_3  and  C_4 
REMARK    4  A    between atoms: C_7  and  O_6 
REMARK    5  A    between atoms: C_9  and  C_10 
REMARK    6  A    between atoms: N_15  and  C_14 
REMARK    7  A    between atoms: N_20  and  C_19 
REMARK       I    between atoms: C_22  and  N_20 
ROOT
ATOM      1  C   LIG d   1       0.495  80.963 113.034  0.00  0.00     0.161 C 
ATOM      2  C   LIG d   1       1.432  81.936 112.648  0.00  0.00     0.016 C 
ATOM      3  C   LIG d   1       1.784  82.185 111.301  0.00  0.00     0.038 C 
ATOM      4  C   LIG d   1       1.106  81.579 110.233  0.00  0.00     0.028 C 
ATOM      5  C   LIG d   1       0.505  80.223 110.589  0.00  0.00    -0.047 C 
ATOM      6  C   LIG d   1      -0.336  80.370 111.878  0.00  0.00     0.091 C 
ENDROOT
BRANCH   1   7
ATOM      7  O   LIG d   1      -0.374  81.499 114.052  0.00  0.00    -0.368 OA
BRANCH   7   8
ATOM      8  C   LIG d   1      -0.164  81.002 115.396  0.00  0.00     0.119 C 
BRANCH   8   9
ATOM      9  C   LIG d   1      -1.552  80.777 116.028  0.00  0.00     0.028 C 
ATOM     10  C   LIG d   1      -1.619  81.266 117.485  0.00  0.00     0.006 C 
ENDBRANCH   8   9
BRANCH   8  11
ATOM     11  C   LIG d   1       0.518  82.051 116.279  0.00  0.00     0.028 C 
ATOM     12  C   LIG d   1       2.032  81.821 116.415  0.00  0.00     0.006 C 
ENDBRANCH   8  11
ENDBRANCH   7   8
ENDBRANCH   1   7
BRANCH   6  13
ATOM     13  N   LIG d   1      -0.891  79.072 112.342  0.00  0.00    -0.311 N 
ATOM     14  C   LIG d   1      -2.130  78.930 112.810  0.00  0.00     0.210 C 
ATOM     15  C   LIG d   1      -2.494  77.510 113.255  0.00  0.00     0.109 C 
ATOM     16  O   LIG d   1      -2.972  79.838 112.869  0.00  0.00    -0.276 OA
ATOM     17  H   LIG d   1      -0.286  78.275 112.300  0.00  0.00     0.149 HD
ENDBRANCH   6  13
BRANCH   5  18
ATOM     18  N   LIG d   1      -0.287  79.770 109.430  0.00  0.00     0.381 N 
ATOM     19  H   LIG d   1      -1.210  79.522 109.727  0.00  0.00    -0.090 HD
ATOM     20  H   LIG d   1       0.148  78.953 109.039  0.00  0.00    -0.090 HD
ATOM     21  H   LIG d   1      -0.333  80.491 108.745  0.00  0.00    -0.090 HD
ENDBRANCH   5  18
BRANCH   3  22
ATOM     22  C   LIG d   1       2.852  83.021 111.014  0.00  0.00     0.382 C 
ATOM     23  O   LIG d   1       3.440  83.629 111.941  0.00  0.00    -0.241 OA
ATOM     24  O   LIG d   1       3.207  83.210 109.835  0.00  0.00    -0.241 OA
ENDBRANCH   3  22
TORSDOF 7
ENDMDL
MODEL 6
REMARK VINA RESULT:      -4.6      4.720      7.916
REMARK  7 active torsions:
REMARK  status: ('A' for Active; 'I' for Inactive)
REMARK    1  A    between atoms: C_2  and  C_3 
REMARK    2  A    between atoms: C_3  and  O_6 
REMARK    3  A    between atoms: C_3  and  C_4 
REMARK    4  A    between atoms: C_7  and  O_6 
REMARK    5  A    between atoms: C_9  and  C_10 
REMARK    6  A    between atoms: N_15  and  C_14 
REMARK    7  A    between atoms: N_20  and  C_19 
REMARK       I    between atoms: C_22  and  N_20 
ROOT
ATOM      1  C   LIG d   1      -2.803  77.973 115.221  0.00  0.00     0.161 C 
ATOM      2  C   LIG d   1      -2.495  78.845 114.164  0.00  0.00     0.016 C 
ATOM      3  C   LIG d   1      -2.492  80.253 114.292  0.00  0.00     0.038 C 
ATOM      4  C   LIG d   1      -2.650  80.884 115.535  0.00  0.00     0.028 C 
ATOM      5  C   LIG d   1      -3.463  80.065 116.532  0.00  0.00    -0.047 C 
ATOM      6  C   LIG d   1      -2.870  78.640 116.611  0.00  0.00     0.091 C 
ENDROOT
BRANCH   1   7
ATOM      7  O   LIG d   1      -1.870  76.874 115.236  0.00  0.00    -0.368 OA
BRANCH   7   8
ATOM      8  C   LIG d   1      -2.390  75.590 114.812  0.00  0.00     0.119 C 
BRANCH   8   9
ATOM      9  C   LIG d   1      -3.895  75.770 114.533  0.00  0.00     0.028 C 
ATOM     10  C   LIG d   1      -4.754  74.711 115.244  0.00  0.00     0.006 C 
ENDBRANCH   8   9
BRANCH   8  11
ATOM     11  C   LIG d   1      -2.307  74.556 115.938  0.00  0.00     0.028 C 
ATOM     12  C   LIG d   1      -0.904  74.463 116.560  0.00  0.00     0.006 C 
ENDBRANCH   8  11
ENDBRANCH   7   8
ENDBRANCH   1   7
BRANCH   6  13
ATOM     13  N   LIG d   1      -3.657  77.747 117.501  0.00  0.00    -0.311 N 
ATOM     14  C   LIG d   1      -3.116  77.028 118.483  0.00  0.00     0.210 C 
ATOM     15  C   LIG d   1      -4.103  76.159 119.268  0.00  0.00     0.109 C 
ATOM     16  O   LIG d   1      -1.917  77.053 118.800  0.00  0.00    -0.276 OA
ATOM     17  H   LIG d   1      -4.643  77.691 117.335  0.00  0.00     0.149 HD
ENDBRANCH   6  13
BRANCH   5  18
ATOM     18  N   LIG d   1      -3.432  80.777 117.823  0.00  0.00     0.381 N 
ATOM     19  H   LIG d   1      -2.601  80.534 118.324  0.00  0.00    -0.090 HD
ATOM     20  H   LIG d   1      -4.225  80.491 118.371  0.00  0.00    -0.090 HD
ATOM     21  H   LIG d   1      -3.462  81.761 117.671  0.00  0.00    -0.090 HD
ENDBRANCH   5  18
BRANCH   3  22
ATOM     22  C   LIG d   1      -2.368  81.046 113.162  0.00  0.00     0.382 C 
ATOM     23  O   LIG d   1      -3.236  81.915 112.908  0.00  0.00    -0.241 OA
ATOM     24  O   LIG d   1      -1.423  80.872 112.369  0.00  0.00    -0.241 OA
ENDBRANCH   3  22
TORSDOF 7
ENDMDL
MODEL 7
REMARK VINA RESULT:      -4.5      3.237      6.401
REMARK  7 active torsions:
REMARK  status: ('A' for Active; 'I' for Inactive)
REMARK    1  A    between atoms: C_2  and  C_3 
REMARK    2  A    between atoms: C_3  and  O_6 
REMARK    3  A    between atoms: C_3  and  C_4 
REMARK    4  A    between atoms: C_7  and  O_6 
REMARK    5  A    between atoms: C_9  and  C_10 
REMARK    6  A    between atoms: N_15  and  C_14 
REMARK    7  A    between atoms: N_20  and  C_19 
REMARK       I    between atoms: C_22  and  N_20 
ROOT
ATOM      1  C   LIG d   1      -1.582  79.407 115.429  0.00  0.00     0.161 C 
ATOM      2  C   LIG d   1      -1.207  80.672 114.946  0.00  0.00     0.016 C 
ATOM      3  C   LIG d   1      -1.357  81.065 113.596  0.00  0.00     0.038 C 
ATOM      4  C   LIG d   1      -2.036  80.268 112.663  0.00  0.00     0.028 C 
ATOM      5  C   LIG d   1      -1.981  78.779 112.984  0.00  0.00    -0.047 C 
ATOM      6  C   LIG d   1      -2.426  78.565 114.449  0.00  0.00     0.091 C 
ENDROOT
BRANCH   1   7
ATOM      7  O   LIG d   1      -2.269  79.549 116.688  0.00  0.00    -0.368 OA
BRANCH   7   8
ATOM      8  C   LIG d   1      -3.679  79.872 116.612  0.00  0.00     0.119 C 
BRANCH   8   9
ATOM      9  C   LIG d   1      -3.888  81.206 117.356  0.00  0.00     0.028 C 
ATOM     10  C   LIG d   1      -2.750  81.512 118.344  0.00  0.00     0.006 C 
ENDBRANCH   8   9
BRANCH   8  11
ATOM     11  C   LIG d   1      -4.528  78.848 117.371  0.00  0.00     0.028 C 
ATOM     12  C   LIG d   1      -3.681  77.874 118.206  0.00  0.00     0.006 C 
ENDBRANCH   8  11
ENDBRANCH   7   8
ENDBRANCH   1   7
BRANCH   6  13
ATOM     13  N   LIG d   1      -2.322  77.144 114.872  0.00  0.00    -0.311 N 
ATOM     14  C   LIG d   1      -3.345  76.293 114.840  0.00  0.00     0.210 C 
ATOM     15  C   LIG d   1      -3.027  74.880 115.339  0.00  0.00     0.109 C 
ATOM     16  O   LIG d   1      -4.479  76.565 114.417  0.00  0.00    -0.276 OA
ATOM     17  H   LIG d   1      -1.429  76.830 115.200  0.00  0.00     0.149 HD
ENDBRANCH   6  13
BRANCH   5  18
ATOM     18  N   LIG d   1      -2.842  78.081 112.011  0.00  0.00     0.381 N 
ATOM     19  H   LIG d   1      -3.319  77.325 112.461  0.00  0.00    -0.090 HD
ATOM     20  H   LIG d   1      -2.265  77.699 111.282  0.00  0.00    -0.090 HD
ATOM     21  H   LIG d   1      -3.504  78.717 111.623  0.00  0.00    -0.090 HD
ENDBRANCH   5  18
BRANCH   3  22
ATOM     22  C   LIG d   1      -0.789  82.252 113.159  0.00  0.00     0.382 C 
ATOM     23  O   LIG d   1       0.283  82.659 113.670  0.00  0.00    -0.241 OA
ATOM     24  O   LIG d   1      -1.357  82.943 112.293  0.00  0.00    -0.241 OA
ENDBRANCH   3  22
TORSDOF 7
ENDMDL
MODEL 8
REMARK VINA RESULT:      -4.5      4.110      6.709
REMARK  7 active torsions:
REMARK  status: ('A' for Active; 'I' for Inactive)
REMARK    1  A    between atoms: C_2  and  C_3 
REMARK    2  A    between atoms: C_3  and  O_6 
REMARK    3  A    between atoms: C_3  and  C_4 
REMARK    4  A    between atoms: C_7  and  O_6 
REMARK    5  A    between atoms: C_9  and  C_10 
REMARK    6  A    between atoms: N_15  and  C_14 
REMARK    7  A    between atoms: N_20  and  C_19 
REMARK       I    between atoms: C_22  and  N_20 
ROOT
ATOM      1  C   LIG d   1      -1.950  79.998 116.519  0.00  0.00     0.161 C 
ATOM      2  C   LIG d   1      -2.261  80.872 115.464  0.00  0.00     0.016 C 
ATOM      3  C   LIG d   1      -2.194  80.501 114.101  0.00  0.00     0.038 C 
ATOM      4  C   LIG d   1      -1.956  79.176 113.704  0.00  0.00     0.028 C 
ATOM      5  C   LIG d   1      -1.142  78.378 114.716  0.00  0.00    -0.047 C 
ATOM      6  C   LIG d   1      -1.797  78.519 116.110  0.00  0.00     0.091 C 
ENDROOT
BRANCH   1   7
ATOM      7  O   LIG d   1      -2.932  80.129 117.566  0.00  0.00    -0.368 OA
BRANCH   7   8
ATOM      8  C   LIG d   1      -4.297  80.355 117.136  0.00  0.00     0.119 C 
BRANCH   8   9
ATOM      9  C   LIG d   1      -4.818  81.599 117.883  0.00  0.00     0.028 C 
ATOM     10  C   LIG d   1      -3.889  82.025 119.032  0.00  0.00     0.006 C 
ENDBRANCH   8   9
BRANCH   8  11
ATOM     11  C   LIG d   1      -5.215  79.208 117.569  0.00  0.00     0.028 C 
ATOM     12  C   LIG d   1      -4.565  78.287 118.614  0.00  0.00     0.006 C 
ENDBRANCH   8  11
ENDBRANCH   7   8
ENDBRANCH   1   7
BRANCH   6  13
ATOM     13  N   LIG d   1      -1.016  77.836 117.174  0.00  0.00    -0.311 N 
ATOM     14  C   LIG d   1      -1.269  76.596 117.588  0.00  0.00     0.210 C 
ATOM     15  C   LIG d   1      -0.357  76.090 118.710  0.00  0.00     0.109 C 
ATOM     16  O   LIG d   1      -2.141  75.855 117.110  0.00  0.00    -0.276 OA
ATOM     17  H   LIG d   1      -0.269  78.354 117.595  0.00  0.00     0.149 HD
ENDBRANCH   6  13
BRANCH   5  18
ATOM     18  N   LIG d   1      -1.087  76.982 114.242  0.00  0.00     0.381 N 
ATOM     19  H   LIG d   1      -1.617  76.890 113.399  0.00  0.00    -0.090 HD
ATOM     20  H   LIG d   1      -1.497  76.385 114.939  0.00  0.00    -0.090 HD
ATOM     21  H   LIG d   1      -0.142  76.714 114.080  0.00  0.00    -0.090 HD
ENDBRANCH   5  18
BRANCH   3  22
ATOM     22  C   LIG d   1      -2.327  81.469 113.118  0.00  0.00     0.382 C 
ATOM     23  O   LIG d   1      -3.453  81.967 112.876  0.00  0.00    -0.241 OA
ATOM     24  O   LIG d   1      -1.343  81.820 112.439  0.00  0.00    -0.241 OA
ENDBRANCH   3  22
TORSDOF 7
ENDMDL
MODEL 9
REMARK VINA RESULT:      -4.4      4.710      8.010
REMARK  7 active torsions:
REMARK  status: ('A' for Active; 'I' for Inactive)
REMARK    1  A    between atoms: C_2  and  C_3 
REMARK    2  A    between atoms: C_3  and  O_6 
REMARK    3  A    between atoms: C_3  and  C_4 
REMARK    4  A    between atoms: C_7  and  O_6 
REMARK    5  A    between atoms: C_9  and  C_10 
REMARK    6  A    between atoms: N_15  and  C_14 
REMARK    7  A    between atoms: N_20  and  C_19 
REMARK       I    between atoms: C_22  and  N_20 
ROOT
ATOM      1  C   LIG d   1      -2.826  77.969 115.363  0.00  0.00     0.161 C 
ATOM      2  C   LIG d   1      -2.533  78.777 114.251  0.00  0.00     0.016 C 
ATOM      3  C   LIG d   1      -2.523  80.190 114.297  0.00  0.00     0.038 C 
ATOM      4  C   LIG d   1      -2.658  80.894 115.503  0.00  0.00     0.028 C 
ATOM      5  C   LIG d   1      -3.457  80.138 116.559  0.00  0.00    -0.047 C 
ATOM      6  C   LIG d   1      -2.867  78.717 116.712  0.00  0.00     0.091 C 
ENDROOT
BRANCH   1   7
ATOM      7  O   LIG d   1      -1.896  76.870 115.427  0.00  0.00    -0.368 OA
BRANCH   7   8
ATOM      8  C   LIG d   1      -2.479  75.548 115.536  0.00  0.00     0.119 C 
BRANCH   8   9
ATOM      9  C   LIG d   1      -1.416  74.534 115.070  0.00  0.00     0.028 C 
ATOM     10  C   LIG d   1       0.010  75.103 115.144  0.00  0.00     0.006 C 
ENDBRANCH   8   9
BRANCH   8  11
ATOM     11  C   LIG d   1      -3.655  75.376 114.571  0.00  0.00     0.028 C 
ATOM     12  C   LIG d   1      -4.813  74.570 115.180  0.00  0.00     0.006 C 
ENDBRANCH   8  11
ENDBRANCH   7   8
ENDBRANCH   1   7
BRANCH   6  13
ATOM     13  N   LIG d   1      -3.642  77.881 117.666  0.00  0.00    -0.311 N 
ATOM     14  C   LIG d   1      -4.923  77.562 117.489  0.00  0.00     0.210 C 
ATOM     15  C   LIG d   1      -5.537  76.708 118.602  0.00  0.00     0.109 C 
ATOM     16  O   LIG d   1      -5.600  77.879 116.499  0.00  0.00    -0.276 OA
ATOM     17  H   LIG d   1      -3.161  77.555 118.482  0.00  0.00     0.149 HD
ENDBRANCH   6  13
BRANCH   5  18
ATOM     18  N   LIG d   1      -3.402  80.924 117.806  0.00  0.00     0.381 N 
ATOM     19  H   LIG d   1      -4.062  80.561 118.464  0.00  0.00    -0.090 HD
ATOM     20  H   LIG d   1      -3.651  81.875 117.602  0.00  0.00    -0.090 HD
ATOM     21  H   LIG d   1      -2.484  80.888 118.192  0.00  0.00    -0.090 HD
ENDBRANCH   5  18
BRANCH   3  22
ATOM     22  C   LIG d   1      -2.416  80.915 113.120  0.00  0.00     0.382 C 
ATOM     23  O   LIG d   1      -1.523  80.628 112.286  0.00  0.00    -0.241 OA
ATOM     24  O   LIG d   1      -3.172  81.880 112.901  0.00  0.00    -0.241 OA
ENDBRANCH   3  22
TORSDOF 7
ENDMDL
