MODEL 1
REMARK VINA RESULT:      -5.3      0.000      0.000
REMARK  7 active torsions:
REMARK  status: ('A' for Active; 'I' for Inactive)
REMARK    1  A    between atoms: C_2  and  C_3 
REMARK    2  A    between atoms: C_3  and  O_6 
REMARK    3  A    between atoms: C_3  and  C_4 
REMARK    4  A    between atoms: C_7  and  O_6 
REMARK    5  A    between atoms: C_9  and  C_10 
REMARK    6  A    between atoms: N_15  and  C_14 
REMARK    7  A    between atoms: N_20  and  C_19 
REMARK       I    between atoms: C_22  and  N_20 
ROOT
ATOM      1  C   LIG d   1      -2.895  78.422 115.096  0.00  0.00     0.161 C 
ATOM      2  C   LIG d   1      -3.138  79.606 114.379  0.00  0.00     0.016 C 
ATOM      3  C   LIG d   1      -2.749  79.794 113.033  0.00  0.00     0.038 C 
ATOM      4  C   LIG d   1      -2.221  78.749 112.260  0.00  0.00     0.028 C 
ATOM      5  C   LIG d   1      -1.496  77.692 113.086  0.00  0.00    -0.047 C 
ATOM      6  C   LIG d   1      -2.420  77.232 114.236  0.00  0.00     0.091 C 
ENDROOT
BRANCH   1   7
ATOM      7  O   LIG d   1      -4.068  78.059 115.851  0.00  0.00    -0.368 OA
BRANCH   7   8
ATOM      8  C   LIG d   1      -4.507  79.017 116.845  0.00  0.00     0.119 C 
BRANCH   8   9
ATOM      9  C   LIG d   1      -3.675  78.777 118.119  0.00  0.00     0.028 C 
ATOM     10  C   LIG d   1      -3.622  77.292 118.515  0.00  0.00     0.006 C 
ENDBRANCH   8   9
BRANCH   8  11
ATOM     11  C   LIG d   1      -5.961  78.764 117.257  0.00  0.00     0.028 C 
ATOM     12  C   LIG d   1      -6.646  80.018 117.823  0.00  0.00     0.006 C 
ENDBRANCH   8  11
ENDBRANCH   7   8
ENDBRANCH   1   7
BRANCH   6  13
ATOM     13  N   LIG d   1      -1.756  76.259 115.143  0.00  0.00    -0.311 N 
ATOM     14  C   LIG d   1      -2.186  75.012 115.321  0.00  0.00     0.210 C 
ATOM     15  C   LIG d   1      -1.368  74.181 116.315  0.00  0.00     0.109 C 
ATOM     16  O   LIG d   1      -3.148  74.503 114.727  0.00  0.00    -0.276 OA
ATOM     17  H   LIG d   1      -0.949  76.579 115.642  0.00  0.00     0.149 HD
ENDBRANCH   6  13
BRANCH   5  18
ATOM     18  N   LIG d   1      -1.118  76.596 112.174  0.00  0.00     0.381 N 
ATOM     19  H   LIG d   1      -0.952  76.960 111.258  0.00  0.00    -0.090 HD
ATOM     20  H   LIG d   1      -1.878  75.941 112.121  0.00  0.00    -0.090 HD
ATOM     21  H   LIG d   1      -0.299  76.139 112.511  0.00  0.00    -0.090 HD
ENDBRANCH   5  18
BRANCH   3  22
ATOM     22  C   LIG d   1      -2.850  81.052 112.458  0.00  0.00     0.382 C 
ATOM     23  O   LIG d   1      -3.957  81.643 112.434  0.00  0.00    -0.241 OA
ATOM     24  O   LIG d   1      -1.859  81.584 111.923  0.00  0.00    -0.241 OA
ENDBRANCH   3  22
TORSDOF 7
ENDMDL
MODEL 2
REMARK VINA RESULT:      -5.1      1.674      2.238
REMARK  7 active torsions:
REMARK  status: ('A' for Active; 'I' for Inactive)
REMARK    1  A    between atoms: C_2  and  C_3 
REMARK    2  A    between atoms: C_3  and  O_6 
REMARK    3  A    between atoms: C_3  and  C_4 
REMARK    4  A    between atoms: C_7  and  O_6 
REMARK    5  A    between atoms: C_9  and  C_10 
REMARK    6  A    between atoms: N_15  and  C_14 
REMARK    7  A    between atoms: N_20  and  C_19 
REMARK       I    between atoms: C_22  and  N_20 
ROOT
ATOM      1  C   LIG d   1      -2.708  78.180 116.124  0.00  0.00     0.161 C 
ATOM      2  C   LIG d   1      -3.044  79.078 115.097  0.00  0.00     0.016 C 
ATOM      3  C   LIG d   1      -2.513  78.998 113.789  0.00  0.00     0.038 C 
ATOM      4  C   LIG d   1      -1.722  77.916 113.375  0.00  0.00     0.028 C 
ATOM      5  C   LIG d   1      -0.951  77.259 114.515  0.00  0.00    -0.047 C 
ATOM      6  C   LIG d   1      -1.934  76.929 115.661  0.00  0.00     0.091 C 
ENDROOT
BRANCH   1   7
ATOM      7  O   LIG d   1      -3.896  77.796 116.844  0.00  0.00    -0.368 OA
BRANCH   7   8
ATOM      8  C   LIG d   1      -5.130  77.793 116.084  0.00  0.00     0.119 C 
BRANCH   8   9
ATOM      9  C   LIG d   1      -6.244  78.322 117.008  0.00  0.00     0.028 C 
ATOM     10  C   LIG d   1      -5.984  79.764 117.475  0.00  0.00     0.006 C 
ENDBRANCH   8   9
BRANCH   8  11
ATOM     11  C   LIG d   1      -5.553  76.369 115.714  0.00  0.00     0.028 C 
ATOM     12  C   LIG d   1      -5.714  76.170 114.198  0.00  0.00     0.006 C 
ENDBRANCH   8  11
ENDBRANCH   7   8
ENDBRANCH   1   7
BRANCH   6  13
ATOM     13  N   LIG d   1      -1.247  76.359 116.850  0.00  0.00    -0.311 N 
ATOM     14  C   LIG d   1      -1.022  75.057 117.013  0.00  0.00     0.210 C 
ATOM     15  C   LIG d   1      -0.317  74.681 118.320  0.00  0.00     0.109 C 
ATOM     16  O   LIG d   1      -1.311  74.180 116.185  0.00  0.00    -0.276 OA
ATOM     17  H   LIG d   1      -0.951  77.003 117.558  0.00  0.00     0.149 HD
ENDBRANCH   6  13
BRANCH   5  18
ATOM     18  N   LIG d   1      -0.279  76.065 113.968  0.00  0.00     0.381 N 
ATOM     19  H   LIG d   1       0.232  75.602 114.692  0.00  0.00    -0.090 HD
ATOM     20  H   LIG d   1       0.372  76.354 113.259  0.00  0.00    -0.090 HD
ATOM     21  H   LIG d   1      -0.952  75.443 113.577  0.00  0.00    -0.090 HD
ENDBRANCH   5  18
BRANCH   3  22
ATOM     22  C   LIG d   1      -2.741  80.029 112.891  0.00  0.00     0.382 C 
ATOM     23  O   LIG d   1      -3.330  81.071 113.268  0.00  0.00    -0.241 OA
ATOM     24  O   LIG d   1      -2.406  79.912 111.697  0.00  0.00    -0.241 OA
ENDBRANCH   3  22
TORSDOF 7
ENDMDL
MODEL 3
REMARK VINA RESULT:      -4.9      3.167      5.372
REMARK  7 active torsions:
REMARK  status: ('A' for Active; 'I' for Inactive)
REMARK    1  A    between atoms: C_2  and  C_3 
REMARK    2  A    between atoms: C_3  and  O_6 
REMARK    3  A    between atoms: C_3  and  C_4 
REMARK    4  A    between atoms: C_7  and  O_6 
REMARK    5  A    between atoms: C_9  and  C_10 
REMARK    6  A    between atoms: N_15  and  C_14 
REMARK    7  A    between atoms: N_20  and  C_19 
REMARK       I    between atoms: C_22  and  N_20 
ROOT
ATOM      1  C   LIG d   1      -3.853  77.618 114.905  0.00  0.00     0.161 C 
ATOM      2  C   LIG d   1      -2.843  76.818 114.344  0.00  0.00     0.016 C 
ATOM      3  C   LIG d   1      -1.613  76.552 114.989  0.00  0.00     0.038 C 
ATOM      4  C   LIG d   1      -1.369  76.949 116.312  0.00  0.00     0.028 C 
ATOM      5  C   LIG d   1      -2.156  78.187 116.729  0.00  0.00    -0.047 C 
ATOM      6  C   LIG d   1      -3.649  77.968 116.394  0.00  0.00     0.091 C 
ENDROOT
BRANCH   1   7
ATOM      7  O   LIG d   1      -5.137  76.994 114.708  0.00  0.00    -0.368 OA
BRANCH   7   8
ATOM      8  C   LIG d   1      -5.242  76.096 113.576  0.00  0.00     0.119 C 
BRANCH   8   9
ATOM      9  C   LIG d   1      -6.620  76.329 112.927  0.00  0.00     0.028 C 
ATOM     10  C   LIG d   1      -6.510  76.919 111.511  0.00  0.00     0.006 C 
ENDBRANCH   8   9
BRANCH   8  11
ATOM     11  C   LIG d   1      -5.248  74.632 114.025  0.00  0.00     0.028 C 
ATOM     12  C   LIG d   1      -5.642  74.463 115.501  0.00  0.00     0.006 C 
ENDBRANCH   8  11
ENDBRANCH   7   8
ENDBRANCH   1   7
BRANCH   6  13
ATOM     13  N   LIG d   1      -4.478  79.165 116.692  0.00  0.00    -0.311 N 
ATOM     14  C   LIG d   1      -5.554  79.134 117.476  0.00  0.00     0.210 C 
ATOM     15  C   LIG d   1      -6.277  80.475 117.636  0.00  0.00     0.109 C 
ATOM     16  O   LIG d   1      -5.961  78.130 118.081  0.00  0.00    -0.276 OA
ATOM     17  H   LIG d   1      -4.202  80.028 116.268  0.00  0.00     0.149 HD
ENDBRANCH   6  13
BRANCH   5  18
ATOM     18  N   LIG d   1      -1.912  78.407 118.167  0.00  0.00     0.381 N 
ATOM     19  H   LIG d   1      -2.611  79.017 118.539  0.00  0.00    -0.090 HD
ATOM     20  H   LIG d   1      -1.016  78.847 118.281  0.00  0.00    -0.090 HD
ATOM     21  H   LIG d   1      -1.928  77.537 118.652  0.00  0.00    -0.090 HD
ENDBRANCH   5  18
BRANCH   3  22
ATOM     22  C   LIG d   1      -0.596  75.917 114.293  0.00  0.00     0.382 C 
ATOM     23  O   LIG d   1       0.509  75.708 114.849  0.00  0.00    -0.241 OA
ATOM     24  O   LIG d   1      -0.754  75.589 113.102  0.00  0.00    -0.241 OA
ENDBRANCH   3  22
TORSDOF 7
ENDMDL
MODEL 4
REMARK VINA RESULT:      -4.9      2.553      5.062
REMARK  7 active torsions:
REMARK  status: ('A' for Active; 'I' for Inactive)
REMARK    1  A    between atoms: C_2  and  C_3 
REMARK    2  A    between atoms: C_3  and  O_6 
REMARK    3  A    between atoms: C_3  and  C_4 
REMARK    4  A    between atoms: C_7  and  O_6 
REMARK    5  A    between atoms: C_9  and  C_10 
REMARK    6  A    between atoms: N_15  and  C_14 
REMARK    7  A    between atoms: N_20  and  C_19 
REMARK       I    between atoms: C_22  and  N_20 
ROOT
ATOM      1  C   LIG d   1      -2.517  79.152 114.624  0.00  0.00     0.161 C 
ATOM      2  C   LIG d   1      -3.232  77.984 114.937  0.00  0.00     0.016 C 
ATOM      3  C   LIG d   1      -3.689  77.067 113.963  0.00  0.00     0.038 C 
ATOM      4  C   LIG d   1      -3.329  77.179 112.612  0.00  0.00     0.028 C 
ATOM      5  C   LIG d   1      -3.034  78.612 112.181  0.00  0.00    -0.047 C 
ATOM      6  C   LIG d   1      -2.018  79.234 113.166  0.00  0.00     0.091 C 
ENDROOT
BRANCH   1   7
ATOM      7  O   LIG d   1      -1.415  79.311 115.540  0.00  0.00    -0.368 OA
BRANCH   7   8
ATOM      8  C   LIG d   1      -1.293  78.301 116.572  0.00  0.00     0.119 C 
BRANCH   8   9
ATOM      9  C   LIG d   1      -1.329  79.024 117.932  0.00  0.00     0.028 C 
ATOM     10  C   LIG d   1      -2.762  79.231 118.450  0.00  0.00     0.006 C 
ENDBRANCH   8   9
BRANCH   8  11
ATOM     11  C   LIG d   1       0.071  77.608 116.516  0.00  0.00     0.028 C 
ATOM     12  C   LIG d   1       0.012  76.230 115.839  0.00  0.00     0.006 C 
ENDBRANCH   8  11
ENDBRANCH   7   8
ENDBRANCH   1   7
BRANCH   6  13
ATOM     13  N   LIG d   1      -1.739  80.662 112.866  0.00  0.00    -0.311 N 
ATOM     14  C   LIG d   1      -0.775  81.063 112.038  0.00  0.00     0.210 C 
ATOM     15  C   LIG d   1      -0.644  82.581 111.885  0.00  0.00     0.109 C 
ATOM     16  O   LIG d   1      -0.037  80.304 111.392  0.00  0.00    -0.276 OA
ATOM     17  H   LIG d   1      -2.311  81.345 113.323  0.00  0.00     0.149 HD
ENDBRANCH   6  13
BRANCH   5  18
ATOM     18  N   LIG d   1      -2.540  78.567 110.792  0.00  0.00     0.381 N 
ATOM     19  H   LIG d   1      -1.559  78.367 110.788  0.00  0.00    -0.090 HD
ATOM     20  H   LIG d   1      -2.680  79.466 110.367  0.00  0.00    -0.090 HD
ATOM     21  H   LIG d   1      -3.030  77.868 110.278  0.00  0.00    -0.090 HD
ENDBRANCH   5  18
BRANCH   3  22
ATOM     22  C   LIG d   1      -4.550  76.045 114.333  0.00  0.00     0.382 C 
ATOM     23  O   LIG d   1      -4.981  75.245 113.467  0.00  0.00    -0.241 OA
ATOM     24  O   LIG d   1      -4.936  75.939 115.512  0.00  0.00    -0.241 OA
ENDBRANCH   3  22
TORSDOF 7
ENDMDL
MODEL 5
REMARK VINA RESULT:      -4.8      2.686      5.528
REMARK  7 active torsions:
REMARK  status: ('A' for Active; 'I' for Inactive)
REMARK    1  A    between atoms: C_2  and  C_3 
REMARK    2  A    between atoms: C_3  and  O_6 
REMARK    3  A    between atoms: C_3  and  C_4 
REMARK    4  A    between atoms: C_7  and  O_6 
REMARK    5  A    between atoms: C_9  and  C_10 
REMARK    6  A    between atoms: N_15  and  C_14 
REMARK    7  A    between atoms: N_20  and  C_19 
REMARK       I    between atoms: C_22  and  N_20 
ROOT
ATOM      1  C   LIG d   1      -1.448  75.302 114.807  0.00  0.00     0.161 C 
ATOM      2  C   LIG d   1      -0.808  74.805 115.955  0.00  0.00     0.016 C 
ATOM      3  C   LIG d   1      -0.183  75.632 116.916  0.00  0.00     0.038 C 
ATOM      4  C   LIG d   1      -0.288  77.030 116.872  0.00  0.00     0.028 C 
ATOM      5  C   LIG d   1      -0.492  77.578 115.464  0.00  0.00    -0.047 C 
ATOM      6  C   LIG d   1      -1.669  76.829 114.799  0.00  0.00     0.091 C 
ENDROOT
BRANCH   1   7
ATOM      7  O   LIG d   1      -2.699  74.613 114.609  0.00  0.00    -0.368 OA
BRANCH   7   8
ATOM      8  C   LIG d   1      -3.889  75.317 115.042  0.00  0.00     0.119 C 
BRANCH   8   9
ATOM      9  C   LIG d   1      -4.192  74.872 116.485  0.00  0.00     0.028 C 
ATOM     10  C   LIG d   1      -3.900  75.977 117.514  0.00  0.00     0.006 C 
ENDBRANCH   8   9
BRANCH   8  11
ATOM     11  C   LIG d   1      -5.113  74.898 114.223  0.00  0.00     0.028 C 
ATOM     12  C   LIG d   1      -5.684  76.045 113.374  0.00  0.00     0.006 C 
ENDBRANCH   8  11
ENDBRANCH   7   8
ENDBRANCH   1   7
BRANCH   6  13
ATOM     13  N   LIG d   1      -1.882  77.245 113.389  0.00  0.00    -0.311 N 
ATOM     14  C   LIG d   1      -2.721  78.216 113.030  0.00  0.00     0.210 C 
ATOM     15  C   LIG d   1      -2.805  78.472 111.522  0.00  0.00     0.109 C 
ATOM     16  O   LIG d   1      -3.378  78.911 113.819  0.00  0.00    -0.276 OA
ATOM     17  H   LIG d   1      -1.365  76.755 112.685  0.00  0.00     0.149 HD
ENDBRANCH   6  13
BRANCH   5  18
ATOM     18  N   LIG d   1      -0.723  79.031 115.580  0.00  0.00     0.381 N 
ATOM     19  H   LIG d   1      -1.399  79.321 114.902  0.00  0.00    -0.090 HD
ATOM     20  H   LIG d   1       0.139  79.513 115.392  0.00  0.00    -0.090 HD
ATOM     21  H   LIG d   1      -1.043  79.253 116.496  0.00  0.00    -0.090 HD
ENDBRANCH   5  18
BRANCH   3  22
ATOM     22  C   LIG d   1       0.591  75.061 117.915  0.00  0.00     0.382 C 
ATOM     23  O   LIG d   1       0.100  74.181 118.662  0.00  0.00    -0.241 OA
ATOM     24  O   LIG d   1       1.760  75.447 118.107  0.00  0.00    -0.241 OA
ENDBRANCH   3  22
TORSDOF 7
ENDMDL
MODEL 6
REMARK VINA RESULT:      -4.8      2.298      3.143
REMARK  7 active torsions:
REMARK  status: ('A' for Active; 'I' for Inactive)
REMARK    1  A    between atoms: C_2  and  C_3 
REMARK    2  A    between atoms: C_3  and  O_6 
REMARK    3  A    between atoms: C_3  and  C_4 
REMARK    4  A    between atoms: C_7  and  O_6 
REMARK    5  A    between atoms: C_9  and  C_10 
REMARK    6  A    between atoms: N_15  and  C_14 
REMARK    7  A    between atoms: N_20  and  C_19 
REMARK       I    between atoms: C_22  and  N_20 
ROOT
ATOM      1  C   LIG d   1      -1.970  77.748 114.348  0.00  0.00     0.161 C 
ATOM      2  C   LIG d   1      -1.215  78.801 113.807  0.00  0.00     0.016 C 
ATOM      3  C   LIG d   1      -1.546  79.456 112.598  0.00  0.00     0.038 C 
ATOM      4  C   LIG d   1      -2.748  79.201 111.922  0.00  0.00     0.028 C 
ATOM      5  C   LIG d   1      -3.291  77.796 112.161  0.00  0.00    -0.047 C 
ATOM      6  C   LIG d   1      -3.346  77.531 113.682  0.00  0.00     0.091 C 
ENDROOT
BRANCH   1   7
ATOM      7  O   LIG d   1      -2.125  77.938 115.768  0.00  0.00    -0.368 OA
BRANCH   7   8
ATOM      8  C   LIG d   1      -1.410  77.006 116.617  0.00  0.00     0.119 C 
BRANCH   8   9
ATOM      9  C   LIG d   1      -0.749  75.958 115.701  0.00  0.00     0.028 C 
ATOM     10  C   LIG d   1      -1.185  74.523 116.041  0.00  0.00     0.006 C 
ENDBRANCH   8   9
BRANCH   8  11
ATOM     11  C   LIG d   1      -2.371  76.216 117.510  0.00  0.00     0.028 C 
ATOM     12  C   LIG d   1      -3.768  76.852 117.593  0.00  0.00     0.006 C 
ENDBRANCH   8  11
ENDBRANCH   7   8
ENDBRANCH   1   7
BRANCH   6  13
ATOM     13  N   LIG d   1      -3.786  76.147 114.001  0.00  0.00    -0.311 N 
ATOM     14  C   LIG d   1      -5.052  75.821 114.253  0.00  0.00     0.210 C 
ATOM     15  C   LIG d   1      -5.286  74.342 114.579  0.00  0.00     0.109 C 
ATOM     16  O   LIG d   1      -6.009  76.609 114.205  0.00  0.00    -0.276 OA
ATOM     17  H   LIG d   1      -3.079  75.439 114.031  0.00  0.00     0.149 HD
ENDBRANCH   6  13
BRANCH   5  18
ATOM     18  N   LIG d   1      -4.612  77.712 111.511  0.00  0.00     0.381 N 
ATOM     19  H   LIG d   1      -4.519  77.886 110.530  0.00  0.00    -0.090 HD
ATOM     20  H   LIG d   1      -5.212  78.418 111.901  0.00  0.00    -0.090 HD
ATOM     21  H   LIG d   1      -5.009  76.810 111.659  0.00  0.00    -0.090 HD
ENDBRANCH   5  18
BRANCH   3  22
ATOM     22  C   LIG d   1      -0.650  80.350 112.033  0.00  0.00     0.382 C 
ATOM     23  O   LIG d   1      -0.154  81.268 112.731  0.00  0.00    -0.241 OA
ATOM     24  O   LIG d   1      -0.364  80.278 110.822  0.00  0.00    -0.241 OA
ENDBRANCH   3  22
TORSDOF 7
ENDMDL
MODEL 7
REMARK VINA RESULT:      -4.6      2.901      4.408
REMARK  7 active torsions:
REMARK  status: ('A' for Active; 'I' for Inactive)
REMARK    1  A    between atoms: C_2  and  C_3 
REMARK    2  A    between atoms: C_3  and  O_6 
REMARK    3  A    between atoms: C_3  and  C_4 
REMARK    4  A    between atoms: C_7  and  O_6 
REMARK    5  A    between atoms: C_9  and  C_10 
REMARK    6  A    between atoms: N_15  and  C_14 
REMARK    7  A    between atoms: N_20  and  C_19 
REMARK       I    between atoms: C_22  and  N_20 
ROOT
ATOM      1  C   LIG d   1      -1.296  77.888 115.170  0.00  0.00     0.161 C 
ATOM      2  C   LIG d   1      -2.605  77.614 114.739  0.00  0.00     0.016 C 
ATOM      3  C   LIG d   1      -3.147  76.310 114.679  0.00  0.00     0.038 C 
ATOM      4  C   LIG d   1      -2.463  75.198 115.193  0.00  0.00     0.028 C 
ATOM      5  C   LIG d   1      -0.947  75.357 115.172  0.00  0.00    -0.047 C 
ATOM      6  C   LIG d   1      -0.574  76.700 115.839  0.00  0.00     0.091 C 
ENDROOT
BRANCH   1   7
ATOM      7  O   LIG d   1      -1.300  79.031 116.048  0.00  0.00    -0.368 OA
BRANCH   7   8
ATOM      8  C   LIG d   1      -1.294  78.744 117.468  0.00  0.00     0.119 C 
BRANCH   8   9
ATOM      9  C   LIG d   1      -2.737  78.910 117.981  0.00  0.00     0.028 C 
ATOM     10  C   LIG d   1      -3.396  77.565 118.328  0.00  0.00     0.006 C 
ENDBRANCH   8   9
BRANCH   8  11
ATOM     11  C   LIG d   1      -0.467  79.775 118.242  0.00  0.00     0.028 C 
ATOM     12  C   LIG d   1       0.805  80.202 117.493  0.00  0.00     0.006 C 
ENDBRANCH   8  11
ENDBRANCH   7   8
ENDBRANCH   1   7
BRANCH   6  13
ATOM     13  N   LIG d   1       0.886  76.973 115.785  0.00  0.00    -0.311 N 
ATOM     14  C   LIG d   1       1.734  76.625 116.752  0.00  0.00     0.210 C 
ATOM     15  C   LIG d   1       3.193  77.019 116.505  0.00  0.00     0.109 C 
ATOM     16  O   LIG d   1       1.420  75.998 117.775  0.00  0.00    -0.276 OA
ATOM     17  H   LIG d   1       1.231  77.451 114.976  0.00  0.00     0.149 HD
ENDBRANCH   6  13
BRANCH   5  18
ATOM     18  N   LIG d   1      -0.367  74.188 115.860  0.00  0.00     0.381 N 
ATOM     19  H   LIG d   1       0.632  74.245 115.840  0.00  0.00    -0.090 HD
ATOM     20  H   LIG d   1      -0.644  73.354 115.374  0.00  0.00    -0.090 HD
ATOM     21  H   LIG d   1      -0.687  74.154 116.803  0.00  0.00    -0.090 HD
ENDBRANCH   5  18
BRANCH   3  22
ATOM     22  C   LIG d   1      -4.372  76.103 114.063  0.00  0.00     0.382 C 
ATOM     23  O   LIG d   1      -4.682  74.958 113.653  0.00  0.00    -0.241 OA
ATOM     24  O   LIG d   1      -5.153  77.055 113.874  0.00  0.00    -0.241 OA
ENDBRANCH   3  22
TORSDOF 7
ENDMDL
MODEL 8
REMARK VINA RESULT:      -4.5      2.761      5.166
REMARK  7 active torsions:
REMARK  status: ('A' for Active; 'I' for Inactive)
REMARK    1  A    between atoms: C_2  and  C_3 
REMARK    2  A    between atoms: C_3  and  O_6 
REMARK    3  A    between atoms: C_3  and  C_4 
REMARK    4  A    between atoms: C_7  and  O_6 
REMARK    5  A    between atoms: C_9  and  C_10 
REMARK    6  A    between atoms: N_15  and  C_14 
REMARK    7  A    between atoms: N_20  and  C_19 
REMARK       I    between atoms: C_22  and  N_20 
ROOT
ATOM      1  C   LIG d   1      -2.751  78.360 115.269  0.00  0.00     0.161 C 
ATOM      2  C   LIG d   1      -1.436  78.529 115.734  0.00  0.00     0.016 C 
ATOM      3  C   LIG d   1      -0.645  77.468 116.232  0.00  0.00     0.038 C 
ATOM      4  C   LIG d   1      -1.065  76.131 116.157  0.00  0.00     0.028 C 
ATOM      5  C   LIG d   1      -2.582  75.972 116.162  0.00  0.00    -0.047 C 
ATOM      6  C   LIG d   1      -3.186  76.892 115.077  0.00  0.00     0.091 C 
ENDROOT
BRANCH   1   7
ATOM      7  O   LIG d   1      -2.936  79.102 114.047  0.00  0.00    -0.368 OA
BRANCH   7   8
ATOM      8  C   LIG d   1      -1.835  79.066 113.107  0.00  0.00     0.119 C 
BRANCH   8   9
ATOM      9  C   LIG d   1      -1.757  80.448 112.431  0.00  0.00     0.028 C 
ATOM     10  C   LIG d   1      -0.366  80.737 111.843  0.00  0.00     0.006 C 
ENDBRANCH   8   9
BRANCH   8  11
ATOM     11  C   LIG d   1      -2.104  78.074 111.971  0.00  0.00     0.028 C 
ATOM     12  C   LIG d   1      -3.562  78.103 111.487  0.00  0.00     0.006 C 
ENDBRANCH   8  11
ENDBRANCH   7   8
ENDBRANCH   1   7
BRANCH   6  13
ATOM     13  N   LIG d   1      -4.672  76.861 115.070  0.00  0.00    -0.311 N 
ATOM     14  C   LIG d   1      -5.385  76.082 114.259  0.00  0.00     0.210 C 
ATOM     15  C   LIG d   1      -6.905  76.219 114.401  0.00  0.00     0.109 C 
ATOM     16  O   LIG d   1      -4.904  75.268 113.456  0.00  0.00    -0.276 OA
ATOM     17  H   LIG d   1      -5.144  77.468 115.712  0.00  0.00     0.149 HD
ENDBRANCH   6  13
BRANCH   5  18
ATOM     18  N   LIG d   1      -2.881  74.544 115.941  0.00  0.00     0.381 N 
ATOM     19  H   LIG d   1      -2.936  74.358 114.960  0.00  0.00    -0.090 HD
ATOM     20  H   LIG d   1      -3.772  74.331 116.353  0.00  0.00    -0.090 HD
ATOM     21  H   LIG d   1      -2.172  73.980 116.355  0.00  0.00    -0.090 HD
ENDBRANCH   5  18
BRANCH   3  22
ATOM     22  C   LIG d   1       0.566  77.744 116.848  0.00  0.00     0.382 C 
ATOM     23  O   LIG d   1       0.751  78.858 117.395  0.00  0.00    -0.241 OA
ATOM     24  O   LIG d   1       1.491  76.910 116.826  0.00  0.00    -0.241 OA
ENDBRANCH   3  22
TORSDOF 7
ENDMDL
MODEL 9
REMARK VINA RESULT:      -4.4      2.541      3.991
REMARK  7 active torsions:
REMARK  status: ('A' for Active; 'I' for Inactive)
REMARK    1  A    between atoms: C_2  and  C_3 
REMARK    2  A    between atoms: C_3  and  O_6 
REMARK    3  A    between atoms: C_3  and  C_4 
REMARK    4  A    between atoms: C_7  and  O_6 
REMARK    5  A    between atoms: C_9  and  C_10 
REMARK    6  A    between atoms: N_15  and  C_14 
REMARK    7  A    between atoms: N_20  and  C_19 
REMARK       I    between atoms: C_22  and  N_20 
ROOT
ATOM      1  C   LIG d   1      -2.721  78.765 115.619  0.00  0.00     0.161 C 
ATOM      2  C   LIG d   1      -3.728  78.017 114.986  0.00  0.00     0.016 C 
ATOM      3  C   LIG d   1      -3.490  76.779 114.345  0.00  0.00     0.038 C 
ATOM      4  C   LIG d   1      -2.250  76.129 114.423  0.00  0.00     0.028 C 
ATOM      5  C   LIG d   1      -1.077  77.084 114.619  0.00  0.00    -0.047 C 
ATOM      6  C   LIG d   1      -1.384  78.019 115.811  0.00  0.00     0.091 C 
ENDROOT
BRANCH   1   7
ATOM      7  O   LIG d   1      -3.204  79.263 116.882  0.00  0.00    -0.368 OA
BRANCH   7   8
ATOM      8  C   LIG d   1      -4.409  78.643 117.394  0.00  0.00     0.119 C 
BRANCH   8   9
ATOM      9  C   LIG d   1      -5.392  79.772 117.759  0.00  0.00     0.028 C 
ATOM     10  C   LIG d   1      -6.860  79.358 117.565  0.00  0.00     0.006 C 
ENDBRANCH   8   9
BRANCH   8  11
ATOM     11  C   LIG d   1      -4.140  77.899 118.705  0.00  0.00     0.028 C 
ATOM     12  C   LIG d   1      -3.430  76.553 118.492  0.00  0.00     0.006 C 
ENDBRANCH   8  11
ENDBRANCH   7   8
ENDBRANCH   1   7
BRANCH   6  13
ATOM     13  N   LIG d   1      -0.325  79.041 116.018  0.00  0.00    -0.311 N 
ATOM     14  C   LIG d   1       0.674  78.895 116.887  0.00  0.00     0.210 C 
ATOM     15  C   LIG d   1       1.647  80.077 116.958  0.00  0.00     0.109 C 
ATOM     16  O   LIG d   1       0.865  77.886 117.582  0.00  0.00    -0.276 OA
ATOM     17  H   LIG d   1      -0.385  79.878 115.472  0.00  0.00     0.149 HD
ENDBRANCH   6  13
BRANCH   5  18
ATOM     18  N   LIG d   1       0.134  76.267 114.822  0.00  0.00     0.381 N 
ATOM     19  H   LIG d   1       0.838  76.812 115.279  0.00  0.00    -0.090 HD
ATOM     20  H   LIG d   1       0.488  75.982 113.926  0.00  0.00    -0.090 HD
ATOM     21  H   LIG d   1      -0.084  75.465 115.372  0.00  0.00    -0.090 HD
ENDBRANCH   5  18
BRANCH   3  22
ATOM     22  C   LIG d   1      -4.491  76.198 113.580  0.00  0.00     0.382 C 
ATOM     23  O   LIG d   1      -4.737  74.974 113.696  0.00  0.00    -0.241 OA
ATOM     24  O   LIG d   1      -5.120  76.874 112.744  0.00  0.00    -0.241 OA
ENDBRANCH   3  22
TORSDOF 7
ENDMDL
