MODEL 1
REMARK VINA RESULT:      -4.5      0.000      0.000
REMARK  7 active torsions:
REMARK  status: ('A' for Active; 'I' for Inactive)
REMARK    1  A    between atoms: C_2  and  C_3 
REMARK    2  A    between atoms: C_3  and  O_6 
REMARK    3  A    between atoms: C_3  and  C_4 
REMARK    4  A    between atoms: C_7  and  O_6 
REMARK    5  A    between atoms: C_9  and  C_10 
REMARK    6  A    between atoms: N_15  and  C_14 
REMARK    7  A    between atoms: N_20  and  C_19 
REMARK       I    between atoms: C_22  and  N_20 
ROOT
ATOM      1  C   LIG d   1      -3.151  78.315 115.799  0.00  0.00     0.161 C 
ATOM      2  C   LIG d   1      -3.179  79.359 114.859  0.00  0.00     0.016 C 
ATOM      3  C   LIG d   1      -2.310  79.427 113.745  0.00  0.00     0.038 C 
ATOM      4  C   LIG d   1      -1.450  78.370 113.411  0.00  0.00     0.028 C 
ATOM      5  C   LIG d   1      -1.031  77.527 114.610  0.00  0.00    -0.047 C 
ATOM      6  C   LIG d   1      -2.295  77.099 115.389  0.00  0.00     0.091 C 
ENDROOT
BRANCH   1   7
ATOM      7  O   LIG d   1      -4.496  77.900 116.108  0.00  0.00    -0.368 OA
BRANCH   7   8
ATOM      8  C   LIG d   1      -5.220  78.733 117.046  0.00  0.00     0.119 C 
BRANCH   8   9
ATOM      9  C   LIG d   1      -4.457  78.696 118.384  0.00  0.00     0.028 C 
ATOM     10  C   LIG d   1      -4.516  77.313 119.055  0.00  0.00     0.006 C 
ENDBRANCH   8   9
BRANCH   8  11
ATOM     11  C   LIG d   1      -6.605  78.154 117.353  0.00  0.00     0.028 C 
ATOM     12  C   LIG d   1      -6.979  76.985 116.428  0.00  0.00     0.006 C 
ENDBRANCH   8  11
ENDBRANCH   7   8
ENDBRANCH   1   7
BRANCH   6  13
ATOM     13  N   LIG d   1      -1.970  76.341 116.625  0.00  0.00    -0.311 N 
ATOM     14  C   LIG d   1      -1.929  75.011 116.680  0.00  0.00     0.210 C 
ATOM     15  C   LIG d   1      -1.593  74.431 118.058  0.00  0.00     0.109 C 
ATOM     16  O   LIG d   1      -2.107  74.257 115.712  0.00  0.00    -0.276 OA
ATOM     17  H   LIG d   1      -1.781  76.875 117.451  0.00  0.00     0.149 HD
ENDBRANCH   6  13
BRANCH   5  18
ATOM     18  N   LIG d   1      -0.250  76.384 114.101  0.00  0.00     0.381 N 
ATOM     19  H   LIG d   1       0.339  76.684 113.349  0.00  0.00    -0.090 HD
ATOM     20  H   LIG d   1      -0.883  75.690 113.747  0.00  0.00    -0.090 HD
ATOM     21  H   LIG d   1       0.305  75.997 114.833  0.00  0.00    -0.090 HD
ENDBRANCH   5  18
BRANCH   3  22
ATOM     22  C   LIG d   1      -2.268  80.579 112.975  0.00  0.00     0.382 C 
ATOM     23  O   LIG d   1      -1.167  81.123 112.721  0.00  0.00    -0.241 OA
ATOM     24  O   LIG d   1      -3.322  81.106 112.569  0.00  0.00    -0.241 OA
ENDBRANCH   3  22
TORSDOF 7
ENDMDL
MODEL 2
REMARK VINA RESULT:      -4.5      1.820      4.994
REMARK  7 active torsions:
REMARK  status: ('A' for Active; 'I' for Inactive)
REMARK    1  A    between atoms: C_2  and  C_3 
REMARK    2  A    between atoms: C_3  and  O_6 
REMARK    3  A    between atoms: C_3  and  C_4 
REMARK    4  A    between atoms: C_7  and  O_6 
REMARK    5  A    between atoms: C_9  and  C_10 
REMARK    6  A    between atoms: N_15  and  C_14 
REMARK    7  A    between atoms: N_20  and  C_19 
REMARK       I    between atoms: C_22  and  N_20 
ROOT
ATOM      1  C   LIG d   1      -3.826  77.631 115.708  0.00  0.00     0.161 C 
ATOM      2  C   LIG d   1      -4.036  76.628 116.670  0.00  0.00     0.016 C 
ATOM      3  C   LIG d   1      -3.019  75.756 117.120  0.00  0.00     0.038 C 
ATOM      4  C   LIG d   1      -1.678  75.926 116.747  0.00  0.00     0.028 C 
ATOM      5  C   LIG d   1      -1.507  76.605 115.392  0.00  0.00    -0.047 C 
ATOM      6  C   LIG d   1      -2.345  77.904 115.372  0.00  0.00     0.091 C 
ENDROOT
BRANCH   1   7
ATOM      7  O   LIG d   1      -4.479  78.848 116.120  0.00  0.00    -0.368 OA
BRANCH   7   8
ATOM      8  C   LIG d   1      -4.810  78.949 117.527  0.00  0.00     0.119 C 
BRANCH   8   9
ATOM      9  C   LIG d   1      -6.254  79.478 117.626  0.00  0.00     0.028 C 
ATOM     10  C   LIG d   1      -6.307  80.997 117.860  0.00  0.00     0.006 C 
ENDBRANCH   8   9
BRANCH   8  11
ATOM     11  C   LIG d   1      -3.944  79.998 118.230  0.00  0.00     0.028 C 
ATOM     12  C   LIG d   1      -2.645  79.412 118.805  0.00  0.00     0.006 C 
ENDBRANCH   8  11
ENDBRANCH   7   8
ENDBRANCH   1   7
BRANCH   6  13
ATOM     13  N   LIG d   1      -2.301  78.587 114.053  0.00  0.00    -0.311 N 
ATOM     14  C   LIG d   1      -1.408  79.524 113.742  0.00  0.00     0.210 C 
ATOM     15  C   LIG d   1      -1.552  80.114 112.336  0.00  0.00     0.109 C 
ATOM     16  O   LIG d   1      -0.489  79.900 114.486  0.00  0.00    -0.276 OA
ATOM     17  H   LIG d   1      -2.991  78.320 113.379  0.00  0.00     0.149 HD
ENDBRANCH   6  13
BRANCH   5  18
ATOM     18  N   LIG d   1      -0.065  76.844 115.191  0.00  0.00     0.381 N 
ATOM     19  H   LIG d   1       0.265  76.297 114.421  0.00  0.00    -0.090 HD
ATOM     20  H   LIG d   1       0.430  76.556 116.017  0.00  0.00    -0.090 HD
ATOM     21  H   LIG d   1       0.099  77.810 115.016  0.00  0.00    -0.090 HD
ENDBRANCH   5  18
BRANCH   3  22
ATOM     22  C   LIG d   1      -3.347  74.673 117.922  0.00  0.00     0.382 C 
ATOM     23  O   LIG d   1      -4.514  74.211 117.905  0.00  0.00    -0.241 OA
ATOM     24  O   LIG d   1      -2.504  74.181 118.695  0.00  0.00    -0.241 OA
ENDBRANCH   3  22
TORSDOF 7
ENDMDL
MODEL 3
REMARK VINA RESULT:      -4.4      2.612      3.773
REMARK  7 active torsions:
REMARK  status: ('A' for Active; 'I' for Inactive)
REMARK    1  A    between atoms: C_2  and  C_3 
REMARK    2  A    between atoms: C_3  and  O_6 
REMARK    3  A    between atoms: C_3  and  C_4 
REMARK    4  A    between atoms: C_7  and  O_6 
REMARK    5  A    between atoms: C_9  and  C_10 
REMARK    6  A    between atoms: N_15  and  C_14 
REMARK    7  A    between atoms: N_20  and  C_19 
REMARK       I    between atoms: C_22  and  N_20 
ROOT
ATOM      1  C   LIG d   1      -3.449  76.671 117.133  0.00  0.00     0.161 C 
ATOM      2  C   LIG d   1      -4.496  77.538 117.486  0.00  0.00     0.016 C 
ATOM      3  C   LIG d   1      -4.552  78.894 117.088  0.00  0.00     0.038 C 
ATOM      4  C   LIG d   1      -3.633  79.437 116.178  0.00  0.00     0.028 C 
ATOM      5  C   LIG d   1      -2.277  78.739 116.195  0.00  0.00    -0.047 C 
ATOM      6  C   LIG d   1      -2.496  77.216 116.049  0.00  0.00     0.091 C 
ENDROOT
BRANCH   1   7
ATOM      7  O   LIG d   1      -3.986  75.394 116.733  0.00  0.00    -0.368 OA
BRANCH   7   8
ATOM      8  C   LIG d   1      -5.427  75.260 116.800  0.00  0.00     0.119 C 
BRANCH   8   9
ATOM      9  C   LIG d   1      -5.742  74.180 117.853  0.00  0.00     0.028 C 
ATOM     10  C   LIG d   1      -6.108  74.783 119.220  0.00  0.00     0.006 C 
ENDBRANCH   8   9
BRANCH   8  11
ATOM     11  C   LIG d   1      -5.997  74.722 115.484  0.00  0.00     0.028 C 
ATOM     12  C   LIG d   1      -6.004  75.773 114.363  0.00  0.00     0.006 C 
ENDBRANCH   8  11
ENDBRANCH   7   8
ENDBRANCH   1   7
BRANCH   6  13
ATOM     13  N   LIG d   1      -1.225  76.450 116.141  0.00  0.00    -0.311 N 
ATOM     14  C   LIG d   1      -0.509  76.087 115.079  0.00  0.00     0.210 C 
ATOM     15  C   LIG d   1       0.757  75.286 115.395  0.00  0.00     0.109 C 
ATOM     16  O   LIG d   1      -0.785  76.381 113.906  0.00  0.00    -0.276 OA
ATOM     17  H   LIG d   1      -0.911  76.196 117.058  0.00  0.00     0.149 HD
ENDBRANCH   6  13
BRANCH   5  18
ATOM     18  N   LIG d   1      -1.466  79.314 115.106  0.00  0.00     0.381 N 
ATOM     19  H   LIG d   1      -0.782  78.648 114.805  0.00  0.00    -0.090 HD
ATOM     20  H   LIG d   1      -0.984  80.125 115.453  0.00  0.00    -0.090 HD
ATOM     21  H   LIG d   1      -2.052  79.568 114.342  0.00  0.00    -0.090 HD
ENDBRANCH   5  18
BRANCH   3  22
ATOM     22  C   LIG d   1      -5.512  79.732 117.634  0.00  0.00     0.382 C 
ATOM     23  O   LIG d   1      -5.208  80.505 118.574  0.00  0.00    -0.241 OA
ATOM     24  O   LIG d   1      -6.689  79.692 117.228  0.00  0.00    -0.241 OA
ENDBRANCH   3  22
TORSDOF 7
ENDMDL
MODEL 4
REMARK VINA RESULT:      -4.4      2.662      3.377
REMARK  7 active torsions:
REMARK  status: ('A' for Active; 'I' for Inactive)
REMARK    1  A    between atoms: C_2  and  C_3 
REMARK    2  A    between atoms: C_3  and  O_6 
REMARK    3  A    between atoms: C_3  and  C_4 
REMARK    4  A    between atoms: C_7  and  O_6 
REMARK    5  A    between atoms: C_9  and  C_10 
REMARK    6  A    between atoms: N_15  and  C_14 
REMARK    7  A    between atoms: N_20  and  C_19 
REMARK       I    between atoms: C_22  and  N_20 
ROOT
ATOM      1  C   LIG d   1      -3.707  78.437 117.071  0.00  0.00     0.161 C 
ATOM      2  C   LIG d   1      -2.769  79.396 117.491  0.00  0.00     0.016 C 
ATOM      3  C   LIG d   1      -1.389  79.317 117.194  0.00  0.00     0.038 C 
ATOM      4  C   LIG d   1      -0.872  78.346 116.324  0.00  0.00     0.028 C 
ATOM      5  C   LIG d   1      -1.699  77.065 116.285  0.00  0.00    -0.047 C 
ATOM      6  C   LIG d   1      -3.179  77.431 116.027  0.00  0.00     0.091 C 
ENDROOT
BRANCH   1   7
ATOM      7  O   LIG d   1      -4.891  79.095 116.579  0.00  0.00    -0.368 OA
BRANCH   7   8
ATOM      8  C   LIG d   1      -6.124  78.794 117.279  0.00  0.00     0.119 C 
BRANCH   8   9
ATOM      9  C   LIG d   1      -6.770  80.135 117.676  0.00  0.00     0.028 C 
ATOM     10  C   LIG d   1      -5.892  80.945 118.645  0.00  0.00     0.006 C 
ENDBRANCH   8   9
BRANCH   8  11
ATOM     11  C   LIG d   1      -5.852  78.067 118.599  0.00  0.00     0.028 C 
ATOM     12  C   LIG d   1      -6.597  76.727 118.706  0.00  0.00     0.006 C 
ENDBRANCH   8  11
ENDBRANCH   7   8
ENDBRANCH   1   7
BRANCH   6  13
ATOM     13  N   LIG d   1      -4.070  76.242 116.058  0.00  0.00    -0.311 N 
ATOM     14  C   LIG d   1      -4.928  75.944 115.084  0.00  0.00     0.210 C 
ATOM     15  C   LIG d   1      -5.767  74.685 115.324  0.00  0.00     0.109 C 
ATOM     16  O   LIG d   1      -5.051  76.584 114.029  0.00  0.00    -0.276 OA
ATOM     17  H   LIG d   1      -4.014  75.650 116.864  0.00  0.00     0.149 HD
ENDBRANCH   6  13
BRANCH   5  18
ATOM     18  N   LIG d   1      -1.128  76.197 115.239  0.00  0.00     0.381 N 
ATOM     19  H   LIG d   1      -0.171  75.995 115.451  0.00  0.00    -0.090 HD
ATOM     20  H   LIG d   1      -1.159  76.683 114.360  0.00  0.00    -0.090 HD
ATOM     21  H   LIG d   1      -1.648  75.349 115.177  0.00  0.00    -0.090 HD
ENDBRANCH   5  18
BRANCH   3  22
ATOM     22  C   LIG d   1      -0.504  80.193 117.804  0.00  0.00     0.382 C 
ATOM     23  O   LIG d   1       0.466  80.656 117.157  0.00  0.00    -0.241 OA
ATOM     24  O   LIG d   1      -0.637  80.491 119.006  0.00  0.00    -0.241 OA
ENDBRANCH   3  22
TORSDOF 7
ENDMDL
MODEL 5
REMARK VINA RESULT:      -4.3      2.144      3.174
REMARK  7 active torsions:
REMARK  status: ('A' for Active; 'I' for Inactive)
REMARK    1  A    between atoms: C_2  and  C_3 
REMARK    2  A    between atoms: C_3  and  O_6 
REMARK    3  A    between atoms: C_3  and  C_4 
REMARK    4  A    between atoms: C_7  and  O_6 
REMARK    5  A    between atoms: C_9  and  C_10 
REMARK    6  A    between atoms: N_15  and  C_14 
REMARK    7  A    between atoms: N_20  and  C_19 
REMARK       I    between atoms: C_22  and  N_20 
ROOT
ATOM      1  C   LIG d   1      -2.619  75.722 116.488  0.00  0.00     0.161 C 
ATOM      2  C   LIG d   1      -3.026  76.786 115.666  0.00  0.00     0.016 C 
ATOM      3  C   LIG d   1      -2.121  77.622 114.971  0.00  0.00     0.038 C 
ATOM      4  C   LIG d   1      -0.745  77.354 114.931  0.00  0.00     0.028 C 
ATOM      5  C   LIG d   1      -0.240  76.592 116.152  0.00  0.00    -0.047 C 
ATOM      6  C   LIG d   1      -1.128  75.345 116.368  0.00  0.00     0.091 C 
ENDROOT
BRANCH   1   7
ATOM      7  O   LIG d   1      -3.449  74.569 116.240  0.00  0.00    -0.368 OA
BRANCH   7   8
ATOM      8  C   LIG d   1      -4.473  74.298 117.228  0.00  0.00     0.119 C 
BRANCH   8   9
ATOM      9  C   LIG d   1      -5.836  74.612 116.580  0.00  0.00     0.028 C 
ATOM     10  C   LIG d   1      -5.812  74.439 115.052  0.00  0.00     0.006 C 
ENDBRANCH   8   9
BRANCH   8  11
ATOM     11  C   LIG d   1      -4.363  75.250 118.422  0.00  0.00     0.028 C 
ATOM     12  C   LIG d   1      -5.669  75.351 119.227  0.00  0.00     0.006 C 
ENDBRANCH   8  11
ENDBRANCH   7   8
ENDBRANCH   1   7
BRANCH   6  13
ATOM     13  N   LIG d   1      -0.755  74.589 117.592  0.00  0.00    -0.311 N 
ATOM     14  C   LIG d   1      -0.729  75.130 118.809  0.00  0.00     0.210 C 
ATOM     15  C   LIG d   1      -0.298  74.180 119.930  0.00  0.00     0.109 C 
ATOM     16  O   LIG d   1      -1.054  76.298 119.070  0.00  0.00    -0.276 OA
ATOM     17  H   LIG d   1      -0.507  73.626 117.475  0.00  0.00     0.149 HD
ENDBRANCH   6  13
BRANCH   5  18
ATOM     18  N   LIG d   1       1.177  76.260 115.916  0.00  0.00     0.381 N 
ATOM     19  H   LIG d   1       1.268  75.755 115.056  0.00  0.00    -0.090 HD
ATOM     20  H   LIG d   1       1.502  75.671 116.662  0.00  0.00    -0.090 HD
ATOM     21  H   LIG d   1       1.722  77.093 115.879  0.00  0.00    -0.090 HD
ENDBRANCH   5  18
BRANCH   3  22
ATOM     22  C   LIG d   1      -2.588  78.764 114.339  0.00  0.00     0.382 C 
ATOM     23  O   LIG d   1      -3.300  79.583 114.969  0.00  0.00    -0.241 OA
ATOM     24  O   LIG d   1      -2.344  78.964 113.134  0.00  0.00    -0.241 OA
ENDBRANCH   3  22
TORSDOF 7
ENDMDL
MODEL 6
REMARK VINA RESULT:      -4.3      2.911      4.684
REMARK  7 active torsions:
REMARK  status: ('A' for Active; 'I' for Inactive)
REMARK    1  A    between atoms: C_2  and  C_3 
REMARK    2  A    between atoms: C_3  and  O_6 
REMARK    3  A    between atoms: C_3  and  C_4 
REMARK    4  A    between atoms: C_7  and  O_6 
REMARK    5  A    between atoms: C_9  and  C_10 
REMARK    6  A    between atoms: N_15  and  C_14 
REMARK    7  A    between atoms: N_20  and  C_19 
REMARK       I    between atoms: C_22  and  N_20 
ROOT
ATOM      1  C   LIG d   1      -3.407  75.602 116.529  0.00  0.00     0.161 C 
ATOM      2  C   LIG d   1      -2.194  75.027 116.113  0.00  0.00     0.016 C 
ATOM      3  C   LIG d   1      -1.145  75.767 115.521  0.00  0.00     0.038 C 
ATOM      4  C   LIG d   1      -1.177  77.167 115.443  0.00  0.00     0.028 C 
ATOM      5  C   LIG d   1      -2.590  77.738 115.388  0.00  0.00    -0.047 C 
ATOM      6  C   LIG d   1      -3.416  77.145 116.553  0.00  0.00     0.091 C 
ENDROOT
BRANCH   1   7
ATOM      7  O   LIG d   1      -3.779  75.079 117.819  0.00  0.00    -0.368 OA
BRANCH   7   8
ATOM      8  C   LIG d   1      -4.938  74.211 117.845  0.00  0.00     0.119 C 
BRANCH   8   9
ATOM      9  C   LIG d   1      -5.550  74.214 116.431  0.00  0.00     0.028 C 
ATOM     10  C   LIG d   1      -7.029  74.635 116.432  0.00  0.00     0.006 C 
ENDBRANCH   8   9
BRANCH   8  11
ATOM     11  C   LIG d   1      -6.032  74.769 118.761  0.00  0.00     0.028 C 
ATOM     12  C   LIG d   1      -5.468  75.594 119.928  0.00  0.00     0.006 C 
ENDBRANCH   8  11
ENDBRANCH   7   8
ENDBRANCH   1   7
BRANCH   6  13
ATOM     13  N   LIG d   1      -4.835  77.587 116.524  0.00  0.00    -0.311 N 
ATOM     14  C   LIG d   1      -5.396  78.313 117.489  0.00  0.00     0.210 C 
ATOM     15  C   LIG d   1      -6.876  78.644 117.272  0.00  0.00     0.109 C 
ATOM     16  O   LIG d   1      -4.801  78.742 118.489  0.00  0.00    -0.276 OA
ATOM     17  H   LIG d   1      -5.383  77.310 115.733  0.00  0.00     0.149 HD
ENDBRANCH   6  13
BRANCH   5  18
ATOM     18  N   LIG d   1      -2.479  79.208 115.448  0.00  0.00     0.381 N 
ATOM     19  H   LIG d   1      -2.238  79.492 116.376  0.00  0.00    -0.090 HD
ATOM     20  H   LIG d   1      -3.370  79.611 115.216  0.00  0.00    -0.090 HD
ATOM     21  H   LIG d   1      -1.786  79.524 114.805  0.00  0.00    -0.090 HD
ENDBRANCH   5  18
BRANCH   3  22
ATOM     22  C   LIG d   1      -0.064  75.101 114.964  0.00  0.00     0.382 C 
ATOM     23  O   LIG d   1       1.106  75.445 115.260  0.00  0.00    -0.241 OA
ATOM     24  O   LIG d   1      -0.243  74.188 114.135  0.00  0.00    -0.241 OA
ENDBRANCH   3  22
TORSDOF 7
ENDMDL
MODEL 7
REMARK VINA RESULT:      -4.1      1.252      2.116
REMARK  7 active torsions:
REMARK  status: ('A' for Active; 'I' for Inactive)
REMARK    1  A    between atoms: C_2  and  C_3 
REMARK    2  A    between atoms: C_3  and  O_6 
REMARK    3  A    between atoms: C_3  and  C_4 
REMARK    4  A    between atoms: C_7  and  O_6 
REMARK    5  A    between atoms: C_9  and  C_10 
REMARK    6  A    between atoms: N_15  and  C_14 
REMARK    7  A    between atoms: N_20  and  C_19 
REMARK       I    between atoms: C_22  and  N_20 
ROOT
ATOM      1  C   LIG d   1      -2.681  78.671 116.362  0.00  0.00     0.161 C 
ATOM      2  C   LIG d   1      -2.922  79.453 115.220  0.00  0.00     0.016 C 
ATOM      3  C   LIG d   1      -2.315  79.208 113.967  0.00  0.00     0.038 C 
ATOM      4  C   LIG d   1      -1.537  78.065 113.732  0.00  0.00     0.028 C 
ATOM      5  C   LIG d   1      -0.860  77.524 114.986  0.00  0.00    -0.047 C 
ATOM      6  C   LIG d   1      -1.922  77.355 116.096  0.00  0.00     0.091 C 
ENDROOT
BRANCH   1   7
ATOM      7  O   LIG d   1      -3.924  78.405 117.043  0.00  0.00    -0.368 OA
BRANCH   7   8
ATOM      8  C   LIG d   1      -4.037  78.923 118.391  0.00  0.00     0.119 C 
BRANCH   8   9
ATOM      9  C   LIG d   1      -5.321  79.773 118.454  0.00  0.00     0.028 C 
ATOM     10  C   LIG d   1      -6.423  79.240 117.523  0.00  0.00     0.006 C 
ENDBRANCH   8   9
BRANCH   8  11
ATOM     11  C   LIG d   1      -2.894  79.891 118.713  0.00  0.00     0.028 C 
ATOM     12  C   LIG d   1      -3.346  81.081 119.575  0.00  0.00     0.006 C 
ENDBRANCH   8  11
ENDBRANCH   7   8
ENDBRANCH   1   7
BRANCH   6  13
ATOM     13  N   LIG d   1      -1.330  76.909 117.385  0.00  0.00    -0.311 N 
ATOM     14  C   LIG d   1      -1.602  75.734 117.949  0.00  0.00     0.210 C 
ATOM     15  C   LIG d   1      -0.900  75.480 119.287  0.00  0.00     0.109 C 
ATOM     16  O   LIG d   1      -2.333  74.863 117.453  0.00  0.00    -0.276 OA
ATOM     17  H   LIG d   1      -0.701  77.541 117.840  0.00  0.00     0.149 HD
ENDBRANCH   6  13
BRANCH   5  18
ATOM     18  N   LIG d   1      -0.196  76.257 114.623  0.00  0.00     0.381 N 
ATOM     19  H   LIG d   1       0.683  76.449 114.186  0.00  0.00    -0.090 HD
ATOM     20  H   LIG d   1      -0.774  75.764 113.966  0.00  0.00    -0.090 HD
ATOM     21  H   LIG d   1      -0.056  75.700 115.438  0.00  0.00    -0.090 HD
ENDBRANCH   5  18
BRANCH   3  22
ATOM     22  C   LIG d   1      -2.452  80.134 112.944  0.00  0.00     0.382 C 
ATOM     23  O   LIG d   1      -1.669  80.107 111.965  0.00  0.00    -0.241 OA
ATOM     24  O   LIG d   1      -3.322  81.024 113.010  0.00  0.00    -0.241 OA
ENDBRANCH   3  22
TORSDOF 7
ENDMDL
MODEL 8
REMARK VINA RESULT:      -4.1      3.117      4.442
REMARK  7 active torsions:
REMARK  status: ('A' for Active; 'I' for Inactive)
REMARK    1  A    between atoms: C_2  and  C_3 
REMARK    2  A    between atoms: C_3  and  O_6 
REMARK    3  A    between atoms: C_3  and  C_4 
REMARK    4  A    between atoms: C_7  and  O_6 
REMARK    5  A    between atoms: C_9  and  C_10 
REMARK    6  A    between atoms: N_15  and  C_14 
REMARK    7  A    between atoms: N_20  and  C_19 
REMARK       I    between atoms: C_22  and  N_20 
ROOT
ATOM      1  C   LIG d   1      -3.102  76.588 116.392  0.00  0.00     0.161 C 
ATOM      2  C   LIG d   1      -2.089  75.809 115.809  0.00  0.00     0.016 C 
ATOM      3  C   LIG d   1      -0.798  76.304 115.516  0.00  0.00     0.038 C 
ATOM      4  C   LIG d   1      -0.381  77.578 115.928  0.00  0.00     0.028 C 
ATOM      5  C   LIG d   1      -1.527  78.574 116.069  0.00  0.00    -0.047 C 
ATOM      6  C   LIG d   1      -2.631  77.947 116.951  0.00  0.00     0.091 C 
ENDROOT
BRANCH   1   7
ATOM      7  O   LIG d   1      -3.771  75.830 117.419  0.00  0.00    -0.368 OA
BRANCH   7   8
ATOM      8  C   LIG d   1      -5.193  75.622 117.233  0.00  0.00     0.119 C 
BRANCH   8   9
ATOM      9  C   LIG d   1      -5.820  75.433 118.628  0.00  0.00     0.028 C 
ATOM     10  C   LIG d   1      -6.709  74.180 118.706  0.00  0.00     0.006 C 
ENDBRANCH   8   9
BRANCH   8  11
ATOM     11  C   LIG d   1      -5.471  74.316 116.482  0.00  0.00     0.028 C 
ATOM     12  C   LIG d   1      -5.887  74.545 115.021  0.00  0.00     0.006 C 
ENDBRANCH   8  11
ENDBRANCH   7   8
ENDBRANCH   1   7
BRANCH   6  13
ATOM     13  N   LIG d   1      -3.826  78.823 117.070  0.00  0.00    -0.311 N 
ATOM     14  C   LIG d   1      -4.009  79.681 118.072  0.00  0.00     0.210 C 
ATOM     15  C   LIG d   1      -5.319  80.473 118.015  0.00  0.00     0.109 C 
ATOM     16  O   LIG d   1      -3.196  79.884 118.987  0.00  0.00    -0.276 OA
ATOM     17  H   LIG d   1      -4.521  78.746 116.354  0.00  0.00     0.149 HD
ENDBRANCH   6  13
BRANCH   5  18
ATOM     18  N   LIG d   1      -0.970  79.817 116.635  0.00  0.00     0.381 N 
ATOM     19  H   LIG d   1      -0.330  80.228 115.985  0.00  0.00    -0.090 HD
ATOM     20  H   LIG d   1      -0.466  79.594 117.476  0.00  0.00    -0.090 HD
ATOM     21  H   LIG d   1      -1.705  80.458 116.840  0.00  0.00    -0.090 HD
ENDBRANCH   5  18
BRANCH   3  22
ATOM     22  C   LIG d   1       0.080  75.534 114.767  0.00  0.00     0.382 C 
ATOM     23  O   LIG d   1       1.235  75.301 115.199  0.00  0.00    -0.241 OA
ATOM     24  O   LIG d   1      -0.254  75.107 113.645  0.00  0.00    -0.241 OA
ENDBRANCH   3  22
TORSDOF 7
ENDMDL
MODEL 9
REMARK VINA RESULT:      -3.9      1.753      2.093
REMARK  7 active torsions:
REMARK  status: ('A' for Active; 'I' for Inactive)
REMARK    1  A    between atoms: C_2  and  C_3 
REMARK    2  A    between atoms: C_3  and  O_6 
REMARK    3  A    between atoms: C_3  and  C_4 
REMARK    4  A    between atoms: C_7  and  O_6 
REMARK    5  A    between atoms: C_9  and  C_10 
REMARK    6  A    between atoms: N_15  and  C_14 
REMARK    7  A    between atoms: N_20  and  C_19 
REMARK       I    between atoms: C_22  and  N_20 
ROOT
ATOM      1  C   LIG d   1      -2.509  78.176 116.747  0.00  0.00     0.161 C 
ATOM      2  C   LIG d   1      -2.727  79.065 115.681  0.00  0.00     0.016 C 
ATOM      3  C   LIG d   1      -2.088  78.947 114.426  0.00  0.00     0.038 C 
ATOM      4  C   LIG d   1      -1.295  77.837 114.099  0.00  0.00     0.028 C 
ATOM      5  C   LIG d   1      -0.645  77.179 115.311  0.00  0.00    -0.047 C 
ATOM      6  C   LIG d   1      -1.733  76.896 116.372  0.00  0.00     0.091 C 
ENDROOT
BRANCH   1   7
ATOM      7  O   LIG d   1      -3.766  77.837 117.365  0.00  0.00    -0.368 OA
BRANCH   7   8
ATOM      8  C   LIG d   1      -4.936  77.909 116.514  0.00  0.00     0.119 C 
BRANCH   8   9
ATOM      9  C   LIG d   1      -6.086  78.492 117.356  0.00  0.00     0.028 C 
ATOM     10  C   LIG d   1      -5.902  79.992 117.641  0.00  0.00     0.006 C 
ENDBRANCH   8   9
BRANCH   8  11
ATOM     11  C   LIG d   1      -5.407  76.513 116.096  0.00  0.00     0.028 C 
ATOM     12  C   LIG d   1      -6.936  76.411 115.977  0.00  0.00     0.006 C 
ENDBRANCH   8  11
ENDBRANCH   7   8
ENDBRANCH   1   7
BRANCH   6  13
ATOM     13  N   LIG d   1      -1.170  76.329 117.625  0.00  0.00    -0.311 N 
ATOM     14  C   LIG d   1      -0.240  76.943 118.354  0.00  0.00     0.210 C 
ATOM     15  C   LIG d   1       0.218  76.175 119.598  0.00  0.00     0.109 C 
ATOM     16  O   LIG d   1       0.225  78.066 118.107  0.00  0.00    -0.276 OA
ATOM     17  H   LIG d   1      -1.514  75.435 117.916  0.00  0.00     0.149 HD
ENDBRANCH   6  13
BRANCH   5  18
ATOM     18  N   LIG d   1       0.037  75.958 114.843  0.00  0.00     0.381 N 
ATOM     19  H   LIG d   1      -0.623  75.210 114.763  0.00  0.00    -0.090 HD
ATOM     20  H   LIG d   1       0.732  75.694 115.519  0.00  0.00    -0.090 HD
ATOM     21  H   LIG d   1       0.469  76.125 113.960  0.00  0.00    -0.090 HD
ENDBRANCH   5  18
BRANCH   3  22
ATOM     22  C   LIG d   1      -2.207  79.969 113.496  0.00  0.00     0.382 C 
ATOM     23  O   LIG d   1      -3.322  80.218 112.977  0.00  0.00    -0.241 OA
ATOM     24  O   LIG d   1      -1.205  80.615 113.136  0.00  0.00    -0.241 OA
ENDBRANCH   3  22
TORSDOF 7
ENDMDL
