MODEL 1
REMARK VINA RESULT:      -5.0      0.000      0.000
REMARK  7 active torsions:
REMARK  status: ('A' for Active; 'I' for Inactive)
REMARK    1  A    between atoms: C_2  and  C_3 
REMARK    2  A    between atoms: C_3  and  O_6 
REMARK    3  A    between atoms: C_3  and  C_4 
REMARK    4  A    between atoms: C_7  and  O_6 
REMARK    5  A    between atoms: C_9  and  C_10 
REMARK    6  A    between atoms: N_15  and  C_14 
REMARK    7  A    between atoms: N_20  and  C_19 
REMARK       I    between atoms: C_22  and  N_20 
ROOT
ATOM      1  C   LIG d   1      -0.138  82.471 112.966  0.00  0.00     0.161 C 
ATOM      2  C   LIG d   1       0.727  83.382 112.337  0.00  0.00     0.016 C 
ATOM      3  C   LIG d   1       1.347  83.133 111.091  0.00  0.00     0.038 C 
ATOM      4  C   LIG d   1       1.022  82.012 110.313  0.00  0.00     0.028 C 
ATOM      5  C   LIG d   1       0.539  80.822 111.136  0.00  0.00    -0.047 C 
ATOM      6  C   LIG d   1      -0.590  81.292 112.081  0.00  0.00     0.091 C 
ENDROOT
BRANCH   1   7
ATOM      7  O   LIG d   1      -1.283  83.170 113.494  0.00  0.00    -0.368 OA
BRANCH   7   8
ATOM      8  C   LIG d   1      -1.441  83.138 114.934  0.00  0.00     0.119 C 
BRANCH   8   9
ATOM      9  C   LIG d   1      -2.950  83.052 115.232  0.00  0.00     0.028 C 
ATOM     10  C   LIG d   1      -3.265  82.092 116.392  0.00  0.00     0.006 C 
ENDBRANCH   8   9
BRANCH   8  11
ATOM     11  C   LIG d   1      -0.975  84.449 115.574  0.00  0.00     0.028 C 
ATOM     12  C   LIG d   1       0.113  84.239 116.640  0.00  0.00     0.006 C 
ENDBRANCH   8  11
ENDBRANCH   7   8
ENDBRANCH   1   7
BRANCH   6  13
ATOM     13  N   LIG d   1      -1.063  80.208 112.982  0.00  0.00    -0.311 N 
ATOM     14  C   LIG d   1      -2.350  79.957 113.214  0.00  0.00     0.210 C 
ATOM     15  C   LIG d   1      -2.618  78.808 114.191  0.00  0.00     0.109 C 
ATOM     16  O   LIG d   1      -3.295  80.556 112.679  0.00  0.00    -0.276 OA
ATOM     17  H   LIG d   1      -0.363  79.653 113.433  0.00  0.00     0.149 HD
ENDBRANCH   6  13
BRANCH   5  18
ATOM     18  N   LIG d   1       0.106  79.774 110.192  0.00  0.00     0.381 N 
ATOM     19  H   LIG d   1       0.086  78.888 110.656  0.00  0.00    -0.090 HD
ATOM     20  H   LIG d   1       0.768  79.721 109.439  0.00  0.00    -0.090 HD
ATOM     21  H   LIG d   1      -0.799  79.990 109.835  0.00  0.00    -0.090 HD
ENDBRANCH   5  18
BRANCH   3  22
ATOM     22  C   LIG d   1       2.333  83.992 110.630  0.00  0.00     0.382 C 
ATOM     23  O   LIG d   1       3.169  84.474 111.431  0.00  0.00    -0.241 OA
ATOM     24  O   LIG d   1       2.370  84.325 109.430  0.00  0.00    -0.241 OA
ENDBRANCH   3  22
TORSDOF 7
ENDMDL
MODEL 2
REMARK VINA RESULT:      -4.9      3.651      6.366
REMARK  7 active torsions:
REMARK  status: ('A' for Active; 'I' for Inactive)
REMARK    1  A    between atoms: C_2  and  C_3 
REMARK    2  A    between atoms: C_3  and  O_6 
REMARK    3  A    between atoms: C_3  and  C_4 
REMARK    4  A    between atoms: C_7  and  O_6 
REMARK    5  A    between atoms: C_9  and  C_10 
REMARK    6  A    between atoms: N_15  and  C_14 
REMARK    7  A    between atoms: N_20  and  C_19 
REMARK       I    between atoms: C_22  and  N_20 
ROOT
ATOM      1  C   LIG d   1      -2.506  78.400 114.467  0.00  0.00     0.161 C 
ATOM      2  C   LIG d   1      -2.895  79.351 113.508  0.00  0.00     0.016 C 
ATOM      3  C   LIG d   1      -2.141  80.510 113.213  0.00  0.00     0.038 C 
ATOM      4  C   LIG d   1      -0.863  80.721 113.752  0.00  0.00     0.028 C 
ATOM      5  C   LIG d   1      -0.655  80.043 115.102  0.00  0.00    -0.047 C 
ATOM      6  C   LIG d   1      -1.061  78.556 114.984  0.00  0.00     0.091 C 
ENDROOT
BRANCH   1   7
ATOM      7  O   LIG d   1      -2.712  77.071 113.947  0.00  0.00    -0.368 OA
BRANCH   7   8
ATOM      8  C   LIG d   1      -3.788  76.310 114.549  0.00  0.00     0.119 C 
BRANCH   8   9
ATOM      9  C   LIG d   1      -3.170  75.036 115.156  0.00  0.00     0.028 C 
ATOM     10  C   LIG d   1      -3.644  74.783 116.597  0.00  0.00     0.006 C 
ENDBRANCH   8   9
BRANCH   8  11
ATOM     11  C   LIG d   1      -4.780  75.817 113.492  0.00  0.00     0.028 C 
ATOM     12  C   LIG d   1      -6.220  75.727 114.023  0.00  0.00     0.006 C 
ENDBRANCH   8  11
ENDBRANCH   7   8
ENDBRANCH   1   7
BRANCH   6  13
ATOM     13  N   LIG d   1      -0.968  77.839 116.283  0.00  0.00    -0.311 N 
ATOM     14  C   LIG d   1      -0.375  76.655 116.425  0.00  0.00     0.210 C 
ATOM     15  C   LIG d   1      -0.408  76.082 117.846  0.00  0.00     0.109 C 
ATOM     16  O   LIG d   1       0.205  76.040 115.518  0.00  0.00    -0.276 OA
ATOM     17  H   LIG d   1      -1.385  78.280 117.078  0.00  0.00     0.149 HD
ENDBRANCH   6  13
BRANCH   5  18
ATOM     18  N   LIG d   1       0.758  80.228 115.481  0.00  0.00     0.381 N 
ATOM     19  H   LIG d   1       0.921  79.830 116.384  0.00  0.00    -0.090 HD
ATOM     20  H   LIG d   1       0.955  81.212 115.531  0.00  0.00    -0.090 HD
ATOM     21  H   LIG d   1       1.351  79.797 114.807  0.00  0.00    -0.090 HD
ENDBRANCH   5  18
BRANCH   3  22
ATOM     22  C   LIG d   1      -2.683  81.494 112.399  0.00  0.00     0.382 C 
ATOM     23  O   LIG d   1      -3.927  81.645 112.344  0.00  0.00    -0.241 OA
ATOM     24  O   LIG d   1      -1.946  82.201 111.687  0.00  0.00    -0.241 OA
ENDBRANCH   3  22
TORSDOF 7
ENDMDL
MODEL 3
REMARK VINA RESULT:      -4.9      2.077      5.070
REMARK  7 active torsions:
REMARK  status: ('A' for Active; 'I' for Inactive)
REMARK    1  A    between atoms: C_2  and  C_3 
REMARK    2  A    between atoms: C_3  and  O_6 
REMARK    3  A    between atoms: C_3  and  C_4 
REMARK    4  A    between atoms: C_7  and  O_6 
REMARK    5  A    between atoms: C_9  and  C_10 
REMARK    6  A    between atoms: N_15  and  C_14 
REMARK    7  A    between atoms: N_20  and  C_19 
REMARK       I    between atoms: C_22  and  N_20 
ROOT
ATOM      1  C   LIG d   1      -2.059  82.176 113.769  0.00  0.00     0.161 C 
ATOM      2  C   LIG d   1      -2.460  81.167 114.662  0.00  0.00     0.016 C 
ATOM      3  C   LIG d   1      -2.305  79.787 114.397  0.00  0.00     0.038 C 
ATOM      4  C   LIG d   1      -1.596  79.322 113.280  0.00  0.00     0.028 C 
ATOM      5  C   LIG d   1      -1.617  80.290 112.102  0.00  0.00    -0.047 C 
ATOM      6  C   LIG d   1      -1.183  81.690 112.596  0.00  0.00     0.091 C 
ENDROOT
BRANCH   1   7
ATOM      7  O   LIG d   1      -1.390  83.229 114.491  0.00  0.00    -0.368 OA
BRANCH   7   8
ATOM      8  C   LIG d   1      -0.545  82.811 115.591  0.00  0.00     0.119 C 
BRANCH   8   9
ATOM      9  C   LIG d   1      -0.706  83.848 116.719  0.00  0.00     0.028 C 
ATOM     10  C   LIG d   1      -1.196  83.216 118.032  0.00  0.00     0.006 C 
ENDBRANCH   8   9
BRANCH   8  11
ATOM     11  C   LIG d   1       0.937  82.858 115.205  0.00  0.00     0.028 C 
ATOM     12  C   LIG d   1       1.554  81.461 115.037  0.00  0.00     0.006 C 
ENDBRANCH   8  11
ENDBRANCH   7   8
ENDBRANCH   1   7
BRANCH   6  13
ATOM     13  N   LIG d   1      -1.256  82.717 111.524  0.00  0.00    -0.311 N 
ATOM     14  C   LIG d   1      -0.247  83.530 111.217  0.00  0.00     0.210 C 
ATOM     15  C   LIG d   1      -0.540  84.529 110.094  0.00  0.00     0.109 C 
ATOM     16  O   LIG d   1       0.873  83.498 111.748  0.00  0.00    -0.276 OA
ATOM     17  H   LIG d   1      -2.119  82.791 111.022  0.00  0.00     0.149 HD
ENDBRANCH   6  13
BRANCH   5  18
ATOM     18  N   LIG d   1      -0.728  79.744 111.059  0.00  0.00     0.381 N 
ATOM     19  H   LIG d   1      -0.789  80.305 110.234  0.00  0.00    -0.090 HD
ATOM     20  H   LIG d   1      -1.029  78.813 110.831  0.00  0.00    -0.090 HD
ATOM     21  H   LIG d   1       0.213  79.725 111.388  0.00  0.00    -0.090 HD
ENDBRANCH   5  18
BRANCH   3  22
ATOM     22  C   LIG d   1      -2.898  78.856 115.235  0.00  0.00     0.382 C 
ATOM     23  O   LIG d   1      -2.418  77.701 115.329  0.00  0.00    -0.241 OA
ATOM     24  O   LIG d   1      -3.933  79.143 115.866  0.00  0.00    -0.241 OA
ENDBRANCH   3  22
TORSDOF 7
ENDMDL
MODEL 4
REMARK VINA RESULT:      -4.7      2.461      3.505
REMARK  7 active torsions:
REMARK  status: ('A' for Active; 'I' for Inactive)
REMARK    1  A    between atoms: C_2  and  C_3 
REMARK    2  A    between atoms: C_3  and  O_6 
REMARK    3  A    between atoms: C_3  and  C_4 
REMARK    4  A    between atoms: C_7  and  O_6 
REMARK    5  A    between atoms: C_9  and  C_10 
REMARK    6  A    between atoms: N_15  and  C_14 
REMARK    7  A    between atoms: N_20  and  C_19 
REMARK       I    between atoms: C_22  and  N_20 
ROOT
ATOM      1  C   LIG d   1      -2.160  81.041 114.912  0.00  0.00     0.161 C 
ATOM      2  C   LIG d   1      -1.834  82.361 114.559  0.00  0.00     0.016 C 
ATOM      3  C   LIG d   1      -1.315  82.723 113.294  0.00  0.00     0.038 C 
ATOM      4  C   LIG d   1      -1.228  81.804 112.238  0.00  0.00     0.028 C 
ATOM      5  C   LIG d   1      -1.071  80.360 112.703  0.00  0.00    -0.047 C 
ATOM      6  C   LIG d   1      -2.177  80.042 113.735  0.00  0.00     0.091 C 
ENDROOT
BRANCH   1   7
ATOM      7  O   LIG d   1      -3.423  81.018 115.605  0.00  0.00    -0.368 OA
BRANCH   7   8
ATOM      8  C   LIG d   1      -3.359  81.117 117.049  0.00  0.00     0.119 C 
BRANCH   8   9
ATOM      9  C   LIG d   1      -3.474  79.690 117.617  0.00  0.00     0.028 C 
ATOM     10  C   LIG d   1      -4.560  78.862 116.909  0.00  0.00     0.006 C 
ENDBRANCH   8   9
BRANCH   8  11
ATOM     11  C   LIG d   1      -4.567  81.875 117.610  0.00  0.00     0.028 C 
ATOM     12  C   LIG d   1      -4.328  82.408 119.032  0.00  0.00     0.006 C 
ENDBRANCH   8  11
ENDBRANCH   7   8
ENDBRANCH   1   7
BRANCH   6  13
ATOM     13  N   LIG d   1      -2.045  78.675 114.304  0.00  0.00    -0.311 N 
ATOM     14  C   LIG d   1      -2.706  77.619 113.833  0.00  0.00     0.210 C 
ATOM     15  C   LIG d   1      -2.441  76.306 114.577  0.00  0.00     0.109 C 
ATOM     16  O   LIG d   1      -3.461  77.638 112.849  0.00  0.00    -0.276 OA
ATOM     17  H   LIG d   1      -1.429  78.563 115.085  0.00  0.00     0.149 HD
ENDBRANCH   6  13
BRANCH   5  18
ATOM     18  N   LIG d   1      -1.132  79.498 111.507  0.00  0.00     0.381 N 
ATOM     19  H   LIG d   1      -0.271  79.559 111.001  0.00  0.00    -0.090 HD
ATOM     20  H   LIG d   1      -1.872  79.822 110.910  0.00  0.00    -0.090 HD
ATOM     21  H   LIG d   1      -1.301  78.553 111.776  0.00  0.00    -0.090 HD
ENDBRANCH   5  18
BRANCH   3  22
ATOM     22  C   LIG d   1      -0.838  84.009 113.090  0.00  0.00     0.382 C 
ATOM     23  O   LIG d   1      -0.402  84.677 114.058  0.00  0.00    -0.241 OA
ATOM     24  O   LIG d   1      -0.881  84.525 111.957  0.00  0.00    -0.241 OA
ENDBRANCH   3  22
TORSDOF 7
ENDMDL
MODEL 5
REMARK VINA RESULT:      -4.6      2.123      5.523
REMARK  7 active torsions:
REMARK  status: ('A' for Active; 'I' for Inactive)
REMARK    1  A    between atoms: C_2  and  C_3 
REMARK    2  A    between atoms: C_3  and  O_6 
REMARK    3  A    between atoms: C_3  and  C_4 
REMARK    4  A    between atoms: C_7  and  O_6 
REMARK    5  A    between atoms: C_9  and  C_10 
REMARK    6  A    between atoms: N_15  and  C_14 
REMARK    7  A    between atoms: N_20  and  C_19 
REMARK       I    between atoms: C_22  and  N_20 
ROOT
ATOM      1  C   LIG d   1      -2.218  80.841 114.637  0.00  0.00     0.161 C 
ATOM      2  C   LIG d   1      -2.702  79.568 114.982  0.00  0.00     0.016 C 
ATOM      3  C   LIG d   1      -2.603  78.442 114.133  0.00  0.00     0.038 C 
ATOM      4  C   LIG d   1      -1.874  78.477 112.936  0.00  0.00     0.028 C 
ATOM      5  C   LIG d   1      -1.802  79.867 112.312  0.00  0.00    -0.047 C 
ATOM      6  C   LIG d   1      -1.321  80.873 113.382  0.00  0.00     0.091 C 
ENDROOT
BRANCH   1   7
ATOM      7  O   LIG d   1      -1.528  81.423 115.761  0.00  0.00    -0.368 OA
BRANCH   7   8
ATOM      8  C   LIG d   1      -2.182  82.549 116.396  0.00  0.00     0.119 C 
BRANCH   8   9
ATOM      9  C   LIG d   1      -1.079  83.489 116.920  0.00  0.00     0.028 C 
ATOM     10  C   LIG d   1      -0.412  84.296 115.793  0.00  0.00     0.006 C 
ENDBRANCH   8   9
BRANCH   8  11
ATOM     11  C   LIG d   1      -2.964  82.111 117.638  0.00  0.00     0.028 C 
ATOM     12  C   LIG d   1      -4.478  82.017 117.386  0.00  0.00     0.006 C 
ENDBRANCH   8  11
ENDBRANCH   7   8
ENDBRANCH   1   7
BRANCH   6  13
ATOM     13  N   LIG d   1      -1.303  82.271 112.878  0.00  0.00    -0.311 N 
ATOM     14  C   LIG d   1      -0.219  82.853 112.366  0.00  0.00     0.210 C 
ATOM     15  C   LIG d   1      -0.413  84.307 111.924  0.00  0.00     0.109 C 
ATOM     16  O   LIG d   1       0.876  82.292 112.208  0.00  0.00    -0.276 OA
ATOM     17  H   LIG d   1      -2.158  82.790 112.940  0.00  0.00     0.149 HD
ENDBRANCH   6  13
BRANCH   5  18
ATOM     18  N   LIG d   1      -0.900  79.786 111.147  0.00  0.00     0.381 N 
ATOM     19  H   LIG d   1      -0.922  78.862 110.764  0.00  0.00    -0.090 HD
ATOM     20  H   LIG d   1       0.039  79.980 111.449  0.00  0.00    -0.090 HD
ATOM     21  H   LIG d   1      -1.177  80.447 110.455  0.00  0.00    -0.090 HD
ENDBRANCH   5  18
BRANCH   3  22
ATOM     22  C   LIG d   1      -3.272  77.273 114.462  0.00  0.00     0.382 C 
ATOM     23  O   LIG d   1      -2.884  76.175 113.995  0.00  0.00    -0.241 OA
ATOM     24  O   LIG d   1      -4.287  77.308 115.184  0.00  0.00    -0.241 OA
ENDBRANCH   3  22
TORSDOF 7
ENDMDL
MODEL 6
REMARK VINA RESULT:      -4.5      2.488      5.041
REMARK  7 active torsions:
REMARK  status: ('A' for Active; 'I' for Inactive)
REMARK    1  A    between atoms: C_2  and  C_3 
REMARK    2  A    between atoms: C_3  and  O_6 
REMARK    3  A    between atoms: C_3  and  C_4 
REMARK    4  A    between atoms: C_7  and  O_6 
REMARK    5  A    between atoms: C_9  and  C_10 
REMARK    6  A    between atoms: N_15  and  C_14 
REMARK    7  A    between atoms: N_20  and  C_19 
REMARK       I    between atoms: C_22  and  N_20 
ROOT
ATOM      1  C   LIG d   1      -1.546  80.955 114.465  0.00  0.00     0.161 C 
ATOM      2  C   LIG d   1      -2.288  79.818 114.826  0.00  0.00     0.016 C 
ATOM      3  C   LIG d   1      -2.430  78.685 113.993  0.00  0.00     0.038 C 
ATOM      4  C   LIG d   1      -1.711  78.550 112.796  0.00  0.00     0.028 C 
ATOM      5  C   LIG d   1      -1.348  79.885 112.154  0.00  0.00    -0.047 C 
ATOM      6  C   LIG d   1      -0.664  80.781 113.211  0.00  0.00     0.091 C 
ENDROOT
BRANCH   1   7
ATOM      7  O   LIG d   1      -0.747  81.393 115.583  0.00  0.00    -0.368 OA
BRANCH   7   8
ATOM      8  C   LIG d   1      -1.246  82.542 116.311  0.00  0.00     0.119 C 
BRANCH   8   9
ATOM      9  C   LIG d   1      -2.175  83.324 115.362  0.00  0.00     0.028 C 
ATOM     10  C   LIG d   1      -1.581  84.680 114.945  0.00  0.00     0.006 C 
ENDBRANCH   8   9
BRANCH   8  11
ATOM     11  C   LIG d   1      -0.114  83.513 116.661  0.00  0.00     0.028 C 
ATOM     12  C   LIG d   1      -0.112  83.915 118.145  0.00  0.00     0.006 C 
ENDBRANCH   8  11
ENDBRANCH   7   8
ENDBRANCH   1   7
BRANCH   6  13
ATOM     13  N   LIG d   1      -0.351  82.137 112.689  0.00  0.00    -0.311 N 
ATOM     14  C   LIG d   1      -1.153  82.807 111.863  0.00  0.00     0.210 C 
ATOM     15  C   LIG d   1      -0.632  84.180 111.429  0.00  0.00     0.109 C 
ATOM     16  O   LIG d   1      -2.260  82.407 111.473  0.00  0.00    -0.276 OA
ATOM     17  H   LIG d   1       0.514  82.549 112.979  0.00  0.00     0.149 HD
ENDBRANCH   6  13
BRANCH   5  18
ATOM     18  N   LIG d   1      -0.485  79.600 110.992  0.00  0.00     0.381 N 
ATOM     19  H   LIG d   1      -0.767  80.163 110.214  0.00  0.00    -0.090 HD
ATOM     20  H   LIG d   1      -0.592  78.634 110.737  0.00  0.00    -0.090 HD
ATOM     21  H   LIG d   1       0.467  79.788 111.220  0.00  0.00    -0.090 HD
ENDBRANCH   5  18
BRANCH   3  22
ATOM     22  C   LIG d   1      -3.332  77.689 114.336  0.00  0.00     0.382 C 
ATOM     23  O   LIG d   1      -4.107  77.852 115.309  0.00  0.00    -0.241 OA
ATOM     24  O   LIG d   1      -3.349  76.611 113.712  0.00  0.00    -0.241 OA
ENDBRANCH   3  22
TORSDOF 7
ENDMDL
MODEL 7
REMARK VINA RESULT:      -4.5      2.580      3.550
REMARK  7 active torsions:
REMARK  status: ('A' for Active; 'I' for Inactive)
REMARK    1  A    between atoms: C_2  and  C_3 
REMARK    2  A    between atoms: C_3  and  O_6 
REMARK    3  A    between atoms: C_3  and  C_4 
REMARK    4  A    between atoms: C_7  and  O_6 
REMARK    5  A    between atoms: C_9  and  C_10 
REMARK    6  A    between atoms: N_15  and  C_14 
REMARK    7  A    between atoms: N_20  and  C_19 
REMARK       I    between atoms: C_22  and  N_20 
ROOT
ATOM      1  C   LIG d   1      -0.494  80.833 114.795  0.00  0.00     0.161 C 
ATOM      2  C   LIG d   1      -0.652  82.029 114.074  0.00  0.00     0.016 C 
ATOM      3  C   LIG d   1      -1.299  82.101 112.819  0.00  0.00     0.038 C 
ATOM      4  C   LIG d   1      -1.971  81.001 112.267  0.00  0.00     0.028 C 
ATOM      5  C   LIG d   1      -1.407  79.658 112.718  0.00  0.00    -0.047 C 
ATOM      6  C   LIG d   1      -1.318  79.643 114.261  0.00  0.00     0.091 C 
ENDROOT
BRANCH   1   7
ATOM      7  O   LIG d   1      -0.788  81.060 116.188  0.00  0.00    -0.368 OA
BRANCH   7   8
ATOM      8  C   LIG d   1      -1.925  81.912 116.469  0.00  0.00     0.119 C 
BRANCH   8   9
ATOM      9  C   LIG d   1      -1.579  82.751 117.715  0.00  0.00     0.028 C 
ATOM     10  C   LIG d   1      -0.458  83.769 117.444  0.00  0.00     0.006 C 
ENDBRANCH   8   9
BRANCH   8  11
ATOM     11  C   LIG d   1      -3.154  81.088 116.864  0.00  0.00     0.028 C 
ATOM     12  C   LIG d   1      -4.289  81.950 117.441  0.00  0.00     0.006 C 
ENDBRANCH   8  11
ENDBRANCH   7   8
ENDBRANCH   1   7
BRANCH   6  13
ATOM     13  N   LIG d   1      -0.697  78.397 114.781  0.00  0.00    -0.311 N 
ATOM     14  C   LIG d   1      -1.399  77.327 115.151  0.00  0.00     0.210 C 
ATOM     15  C   LIG d   1      -0.563  76.156 115.677  0.00  0.00     0.109 C 
ATOM     16  O   LIG d   1      -2.632  77.225 115.062  0.00  0.00    -0.276 OA
ATOM     17  H   LIG d   1       0.301  78.382 114.856  0.00  0.00     0.149 HD
ENDBRANCH   6  13
BRANCH   5  18
ATOM     18  N   LIG d   1      -2.284  78.602 112.178  0.00  0.00     0.381 N 
ATOM     19  H   LIG d   1      -1.994  77.710 112.527  0.00  0.00    -0.090 HD
ATOM     20  H   LIG d   1      -2.203  78.591 111.177  0.00  0.00    -0.090 HD
ATOM     21  H   LIG d   1      -3.229  78.777 112.440  0.00  0.00    -0.090 HD
ENDBRANCH   5  18
BRANCH   3  22
ATOM     22  C   LIG d   1      -1.245  83.276 112.085  0.00  0.00     0.382 C 
ATOM     23  O   LIG d   1      -1.351  83.239 110.835  0.00  0.00    -0.241 OA
ATOM     24  O   LIG d   1      -1.046  84.367 112.652  0.00  0.00    -0.241 OA
ENDBRANCH   3  22
TORSDOF 7
ENDMDL
MODEL 8
REMARK VINA RESULT:      -4.4      5.532      7.593
REMARK  7 active torsions:
REMARK  status: ('A' for Active; 'I' for Inactive)
REMARK    1  A    between atoms: C_2  and  C_3 
REMARK    2  A    between atoms: C_3  and  O_6 
REMARK    3  A    between atoms: C_3  and  C_4 
REMARK    4  A    between atoms: C_7  and  O_6 
REMARK    5  A    between atoms: C_9  and  C_10 
REMARK    6  A    between atoms: N_15  and  C_14 
REMARK    7  A    between atoms: N_20  and  C_19 
REMARK       I    between atoms: C_22  and  N_20 
ROOT
ATOM      1  C   LIG d   1      -3.637  77.978 116.306  0.00  0.00     0.161 C 
ATOM      2  C   LIG d   1      -4.110  79.269 116.594  0.00  0.00     0.016 C 
ATOM      3  C   LIG d   1      -3.267  80.398 116.715  0.00  0.00     0.038 C 
ATOM      4  C   LIG d   1      -1.900  80.339 116.405  0.00  0.00     0.028 C 
ATOM      5  C   LIG d   1      -1.294  78.953 116.602  0.00  0.00    -0.047 C 
ATOM      6  C   LIG d   1      -2.163  77.915 115.855  0.00  0.00     0.091 C 
ENDROOT
BRANCH   1   7
ATOM      7  O   LIG d   1      -4.488  77.354 115.324  0.00  0.00    -0.368 OA
BRANCH   7   8
ATOM      8  C   LIG d   1      -5.501  76.454 115.838  0.00  0.00     0.119 C 
BRANCH   8   9
ATOM      9  C   LIG d   1      -4.996  75.913 117.190  0.00  0.00     0.028 C 
ATOM     10  C   LIG d   1      -4.596  74.430 117.117  0.00  0.00     0.006 C 
ENDBRANCH   8   9
BRANCH   8  11
ATOM     11  C   LIG d   1      -5.658  75.222 114.942  0.00  0.00     0.028 C 
ATOM     12  C   LIG d   1      -5.015  75.405 113.558  0.00  0.00     0.006 C 
ENDBRANCH   8  11
ENDBRANCH   7   8
ENDBRANCH   1   7
BRANCH   6  13
ATOM     13  N   LIG d   1      -1.687  76.523 116.065  0.00  0.00    -0.311 N 
ATOM     14  C   LIG d   1      -1.418  75.682 115.067  0.00  0.00     0.210 C 
ATOM     15  C   LIG d   1      -0.960  74.287 115.504  0.00  0.00     0.109 C 
ATOM     16  O   LIG d   1      -1.485  75.969 113.863  0.00  0.00    -0.276 OA
ATOM     17  H   LIG d   1      -1.576  76.217 117.012  0.00  0.00     0.149 HD
ENDBRANCH   6  13
BRANCH   5  18
ATOM     18  N   LIG d   1       0.097  79.002 116.112  0.00  0.00     0.381 N 
ATOM     19  H   LIG d   1       0.152  78.581 115.206  0.00  0.00    -0.090 HD
ATOM     20  H   LIG d   1       0.681  78.478 116.740  0.00  0.00    -0.090 HD
ATOM     21  H   LIG d   1       0.410  79.947 116.067  0.00  0.00    -0.090 HD
ENDBRANCH   5  18
BRANCH   3  22
ATOM     22  C   LIG d   1      -3.784  81.594 117.189  0.00  0.00     0.382 C 
ATOM     23  O   LIG d   1      -4.483  82.316 116.439  0.00  0.00    -0.241 OA
ATOM     24  O   LIG d   1      -3.524  81.981 118.344  0.00  0.00    -0.241 OA
ENDBRANCH   3  22
TORSDOF 7
ENDMDL
MODEL 9
REMARK VINA RESULT:      -4.4      3.603      5.005
REMARK  7 active torsions:
REMARK  status: ('A' for Active; 'I' for Inactive)
REMARK    1  A    between atoms: C_2  and  C_3 
REMARK    2  A    between atoms: C_3  and  O_6 
REMARK    3  A    between atoms: C_3  and  C_4 
REMARK    4  A    between atoms: C_7  and  O_6 
REMARK    5  A    between atoms: C_9  and  C_10 
REMARK    6  A    between atoms: N_15  and  C_14 
REMARK    7  A    between atoms: N_20  and  C_19 
REMARK       I    between atoms: C_22  and  N_20 
ROOT
ATOM      1  C   LIG d   1      -1.531  80.615 115.729  0.00  0.00     0.161 C 
ATOM      2  C   LIG d   1      -2.164  81.358 114.718  0.00  0.00     0.016 C 
ATOM      3  C   LIG d   1      -2.486  80.827 113.448  0.00  0.00     0.038 C 
ATOM      4  C   LIG d   1      -2.334  79.464 113.154  0.00  0.00     0.028 C 
ATOM      5  C   LIG d   1      -1.235  78.788 113.968  0.00  0.00    -0.047 C 
ATOM      6  C   LIG d   1      -1.458  79.096 115.466  0.00  0.00     0.091 C 
ENDROOT
BRANCH   1   7
ATOM      7  O   LIG d   1      -2.168  80.874 116.996  0.00  0.00    -0.368 OA
BRANCH   7   8
ATOM      8  C   LIG d   1      -3.595  81.119 116.954  0.00  0.00     0.119 C 
BRANCH   8   9
ATOM      9  C   LIG d   1      -3.903  82.232 117.974  0.00  0.00     0.028 C 
ATOM     10  C   LIG d   1      -2.744  82.464 118.958  0.00  0.00     0.006 C 
ENDBRANCH   8   9
BRANCH   8  11
ATOM     11  C   LIG d   1      -4.385  79.898 117.435  0.00  0.00     0.028 C 
ATOM     12  C   LIG d   1      -5.841  80.235 117.794  0.00  0.00     0.006 C 
ENDBRANCH   8  11
ENDBRANCH   7   8
ENDBRANCH   1   7
BRANCH   6  13
ATOM     13  N   LIG d   1      -0.380  78.542 116.325  0.00  0.00    -0.311 N 
ATOM     14  C   LIG d   1      -0.450  77.349 116.912  0.00  0.00     0.210 C 
ATOM     15  C   LIG d   1       0.763  76.978 117.772  0.00  0.00     0.109 C 
ATOM     16  O   LIG d   1      -1.387  76.548 116.776  0.00  0.00    -0.276 OA
ATOM     17  H   LIG d   1       0.432  79.113 116.464  0.00  0.00     0.149 HD
ENDBRANCH   6  13
BRANCH   5  18
ATOM     18  N   LIG d   1      -1.278  77.345 113.662  0.00  0.00     0.381 N 
ATOM     19  H   LIG d   1      -0.986  76.821 114.462  0.00  0.00    -0.090 HD
ATOM     20  H   LIG d   1      -0.640  77.154 112.909  0.00  0.00    -0.090 HD
ATOM     21  H   LIG d   1      -2.202  77.079 113.400  0.00  0.00    -0.090 HD
ENDBRANCH   5  18
BRANCH   3  22
ATOM     22  C   LIG d   1      -2.931  81.672 112.443  0.00  0.00     0.382 C 
ATOM     23  O   LIG d   1      -4.138  81.657 112.100  0.00  0.00    -0.241 OA
ATOM     24  O   LIG d   1      -2.132  82.417 111.844  0.00  0.00    -0.241 OA
ENDBRANCH   3  22
TORSDOF 7
ENDMDL
