MODEL 1
REMARK VINA RESULT:      -5.0      0.000      0.000
REMARK  7 active torsions:
REMARK  status: ('A' for Active; 'I' for Inactive)
REMARK    1  A    between atoms: C_2  and  C_3 
REMARK    2  A    between atoms: C_3  and  O_6 
REMARK    3  A    between atoms: C_3  and  C_4 
REMARK    4  A    between atoms: C_7  and  O_6 
REMARK    5  A    between atoms: C_9  and  C_10 
REMARK    6  A    between atoms: N_15  and  C_14 
REMARK    7  A    between atoms: N_20  and  C_19 
REMARK       I    between atoms: C_22  and  N_20 
ROOT
ATOM      1  C   LIG d   1      -0.743  79.989 113.201  0.00  0.00     0.161 C 
ATOM      2  C   LIG d   1      -1.821  79.273 112.656  0.00  0.00     0.016 C 
ATOM      3  C   LIG d   1      -2.608  78.364 113.400  0.00  0.00     0.038 C 
ATOM      4  C   LIG d   1      -2.463  78.222 114.788  0.00  0.00     0.028 C 
ATOM      5  C   LIG d   1      -1.059  78.548 115.287  0.00  0.00    -0.047 C 
ATOM      6  C   LIG d   1      -0.640  79.931 114.740  0.00  0.00     0.091 C 
ENDROOT
BRANCH   1   7
ATOM      7  O   LIG d   1      -0.789  81.358 112.754  0.00  0.00    -0.368 OA
BRANCH   7   8
ATOM      8  C   LIG d   1      -0.015  81.668 111.569  0.00  0.00     0.119 C 
BRANCH   8   9
ATOM      9  C   LIG d   1       1.358  80.987 111.721  0.00  0.00     0.028 C 
ATOM     10  C   LIG d   1       1.947  80.543 110.372  0.00  0.00     0.006 C 
ENDBRANCH   8   9
BRANCH   8  11
ATOM     11  C   LIG d   1       0.284  83.167 111.474  0.00  0.00     0.028 C 
ATOM     12  C   LIG d   1       0.023  83.740 110.072  0.00  0.00     0.006 C 
ENDBRANCH   8  11
ENDBRANCH   7   8
ENDBRANCH   1   7
BRANCH   6  13
ATOM     13  N   LIG d   1       0.754  80.289 115.112  0.00  0.00    -0.311 N 
ATOM     14  C   LIG d   1       1.064  81.005 116.191  0.00  0.00     0.210 C 
ATOM     15  C   LIG d   1       2.560  81.278 116.378  0.00  0.00     0.109 C 
ATOM     16  O   LIG d   1       0.245  81.412 117.029  0.00  0.00    -0.276 OA
ATOM     17  H   LIG d   1       1.484  79.972 114.504  0.00  0.00     0.149 HD
ENDBRANCH   6  13
BRANCH   5  18
ATOM     18  N   LIG d   1      -1.086  78.493 116.761  0.00  0.00     0.381 N 
ATOM     19  H   LIG d   1      -0.567  77.699 117.080  0.00  0.00    -0.090 HD
ATOM     20  H   LIG d   1      -2.038  78.390 117.065  0.00  0.00    -0.090 HD
ATOM     21  H   LIG d   1      -0.697  79.328 117.141  0.00  0.00    -0.090 HD
ENDBRANCH   5  18
BRANCH   3  22
ATOM     22  C   LIG d   1      -3.526  77.556 112.748  0.00  0.00     0.382 C 
ATOM     23  O   LIG d   1      -3.943  77.874 111.608  0.00  0.00    -0.241 OA
ATOM     24  O   LIG d   1      -3.976  76.536 113.303  0.00  0.00    -0.241 OA
ENDBRANCH   3  22
TORSDOF 7
ENDMDL
MODEL 2
REMARK VINA RESULT:      -4.8      3.329      6.101
REMARK  7 active torsions:
REMARK  status: ('A' for Active; 'I' for Inactive)
REMARK    1  A    between atoms: C_2  and  C_3 
REMARK    2  A    between atoms: C_3  and  O_6 
REMARK    3  A    between atoms: C_3  and  C_4 
REMARK    4  A    between atoms: C_7  and  O_6 
REMARK    5  A    between atoms: C_9  and  C_10 
REMARK    6  A    between atoms: N_15  and  C_14 
REMARK    7  A    between atoms: N_20  and  C_19 
REMARK       I    between atoms: C_22  and  N_20 
ROOT
ATOM      1  C   LIG d   1      -2.998  79.105 115.920  0.00  0.00     0.161 C 
ATOM      2  C   LIG d   1      -3.036  79.965 114.810  0.00  0.00     0.016 C 
ATOM      3  C   LIG d   1      -2.349  79.707 113.602  0.00  0.00     0.038 C 
ATOM      4  C   LIG d   1      -1.695  78.488 113.367  0.00  0.00     0.028 C 
ATOM      5  C   LIG d   1      -1.207  77.806 114.641  0.00  0.00    -0.047 C 
ATOM      6  C   LIG d   1      -2.381  77.718 115.643  0.00  0.00     0.091 C 
ENDROOT
BRANCH   1   7
ATOM      7  O   LIG d   1      -4.321  78.962 116.474  0.00  0.00    -0.368 OA
BRANCH   7   8
ATOM      8  C   LIG d   1      -4.738  79.994 117.402  0.00  0.00     0.119 C 
BRANCH   8   9
ATOM      9  C   LIG d   1      -4.057  79.703 118.753  0.00  0.00     0.028 C 
ATOM     10  C   LIG d   1      -3.286  80.918 119.295  0.00  0.00     0.006 C 
ENDBRANCH   8   9
BRANCH   8  11
ATOM     11  C   LIG d   1      -6.242  79.918 117.681  0.00  0.00     0.028 C 
ATOM     12  C   LIG d   1      -6.915  81.299 117.702  0.00  0.00     0.006 C 
ENDBRANCH   8  11
ENDBRANCH   7   8
ENDBRANCH   1   7
BRANCH   6  13
ATOM     13  N   LIG d   1      -1.969  77.140 116.949  0.00  0.00    -0.311 N 
ATOM     14  C   LIG d   1      -2.087  75.847 117.248  0.00  0.00     0.210 C 
ATOM     15  C   LIG d   1      -1.621  75.465 118.656  0.00  0.00     0.109 C 
ATOM     16  O   LIG d   1      -2.505  74.976 116.470  0.00  0.00    -0.276 OA
ATOM     17  H   LIG d   1      -1.590  77.771 117.628  0.00  0.00     0.149 HD
ENDBRANCH   6  13
BRANCH   5  18
ATOM     18  N   LIG d   1      -0.670  76.486 114.262  0.00  0.00     0.381 N 
ATOM     19  H   LIG d   1       0.311  76.450 114.459  0.00  0.00    -0.090 HD
ATOM     20  H   LIG d   1      -0.797  76.354 113.274  0.00  0.00    -0.090 HD
ATOM     21  H   LIG d   1      -1.143  75.768 114.764  0.00  0.00    -0.090 HD
ENDBRANCH   5  18
BRANCH   3  22
ATOM     22  C   LIG d   1      -2.278  80.691 112.628  0.00  0.00     0.382 C 
ATOM     23  O   LIG d   1      -1.484  80.563 111.664  0.00  0.00    -0.241 OA
ATOM     24  O   LIG d   1      -2.966  81.725 112.723  0.00  0.00    -0.241 OA
ENDBRANCH   3  22
TORSDOF 7
ENDMDL
MODEL 3
REMARK VINA RESULT:      -4.7      3.020      6.352
REMARK  7 active torsions:
REMARK  status: ('A' for Active; 'I' for Inactive)
REMARK    1  A    between atoms: C_2  and  C_3 
REMARK    2  A    between atoms: C_3  and  O_6 
REMARK    3  A    between atoms: C_3  and  C_4 
REMARK    4  A    between atoms: C_7  and  O_6 
REMARK    5  A    between atoms: C_9  and  C_10 
REMARK    6  A    between atoms: N_15  and  C_14 
REMARK    7  A    between atoms: N_20  and  C_19 
REMARK       I    between atoms: C_22  and  N_20 
ROOT
ATOM      1  C   LIG d   1      -2.916  77.119 114.829  0.00  0.00     0.161 C 
ATOM      2  C   LIG d   1      -3.042  78.068 113.801  0.00  0.00     0.016 C 
ATOM      3  C   LIG d   1      -2.108  79.108 113.583  0.00  0.00     0.038 C 
ATOM      4  C   LIG d   1      -0.899  79.178 114.290  0.00  0.00     0.028 C 
ATOM      5  C   LIG d   1      -0.967  78.540 115.674  0.00  0.00    -0.047 C 
ATOM      6  C   LIG d   1      -1.546  77.113 115.540  0.00  0.00     0.091 C 
ENDROOT
BRANCH   1   7
ATOM      7  O   LIG d   1      -3.223  75.805 114.321  0.00  0.00    -0.368 OA
BRANCH   7   8
ATOM      8  C   LIG d   1      -4.431  75.191 114.832  0.00  0.00     0.119 C 
BRANCH   8   9
ATOM      9  C   LIG d   1      -5.432  75.097 113.663  0.00  0.00     0.028 C 
ATOM     10  C   LIG d   1      -6.614  76.068 113.823  0.00  0.00     0.006 C 
ENDBRANCH   8   9
BRANCH   8  11
ATOM     11  C   LIG d   1      -5.111  76.081 115.876  0.00  0.00     0.028 C 
ATOM     12  C   LIG d   1      -5.243  75.398 117.247  0.00  0.00     0.006 C 
ENDBRANCH   8  11
ENDBRANCH   7   8
ENDBRANCH   1   7
BRANCH   6  13
ATOM     13  N   LIG d   1      -1.726  76.448 116.857  0.00  0.00    -0.311 N 
ATOM     14  C   LIG d   1      -1.472  75.158 117.068  0.00  0.00     0.210 C 
ATOM     15  C   LIG d   1      -1.744  74.670 118.494  0.00  0.00     0.109 C 
ATOM     16  O   LIG d   1      -1.017  74.378 116.217  0.00  0.00    -0.276 OA
ATOM     17  H   LIG d   1      -2.062  77.014 117.611  0.00  0.00     0.149 HD
ENDBRANCH   6  13
BRANCH   5  18
ATOM     18  N   LIG d   1       0.394  78.561 116.242  0.00  0.00     0.381 N 
ATOM     19  H   LIG d   1       1.017  78.054 115.647  0.00  0.00    -0.090 HD
ATOM     20  H   LIG d   1       0.378  78.109 117.140  0.00  0.00    -0.090 HD
ATOM     21  H   LIG d   1       0.708  79.501 116.341  0.00  0.00    -0.090 HD
ENDBRANCH   5  18
BRANCH   3  22
ATOM     22  C   LIG d   1      -2.400  80.115 112.676  0.00  0.00     0.382 C 
ATOM     23  O   LIG d   1      -1.770  80.186 111.594  0.00  0.00    -0.241 OA
ATOM     24  O   LIG d   1      -3.256  80.979 112.946  0.00  0.00    -0.241 OA
ENDBRANCH   3  22
TORSDOF 7
ENDMDL
MODEL 4
REMARK VINA RESULT:      -4.7      2.640      5.963
REMARK  7 active torsions:
REMARK  status: ('A' for Active; 'I' for Inactive)
REMARK    1  A    between atoms: C_2  and  C_3 
REMARK    2  A    between atoms: C_3  and  O_6 
REMARK    3  A    between atoms: C_3  and  C_4 
REMARK    4  A    between atoms: C_7  and  O_6 
REMARK    5  A    between atoms: C_9  and  C_10 
REMARK    6  A    between atoms: N_15  and  C_14 
REMARK    7  A    between atoms: N_20  and  C_19 
REMARK       I    between atoms: C_22  and  N_20 
ROOT
ATOM      1  C   LIG d   1      -2.525  78.094 115.079  0.00  0.00     0.161 C 
ATOM      2  C   LIG d   1      -2.723  78.922 113.961  0.00  0.00     0.016 C 
ATOM      3  C   LIG d   1      -1.805  79.920 113.560  0.00  0.00     0.038 C 
ATOM      4  C   LIG d   1      -0.547  80.058 114.166  0.00  0.00     0.028 C 
ATOM      5  C   LIG d   1      -0.517  79.581 115.614  0.00  0.00    -0.047 C 
ATOM      6  C   LIG d   1      -1.108  78.154 115.686  0.00  0.00     0.091 C 
ENDROOT
BRANCH   1   7
ATOM      7  O   LIG d   1      -2.871  76.735 114.747  0.00  0.00    -0.368 OA
BRANCH   7   8
ATOM      8  C   LIG d   1      -4.149  76.263 115.241  0.00  0.00     0.119 C 
BRANCH   8   9
ATOM      9  C   LIG d   1      -3.865  75.270 116.384  0.00  0.00     0.028 C 
ATOM     10  C   LIG d   1      -4.230  75.843 117.764  0.00  0.00     0.006 C 
ENDBRANCH   8   9
BRANCH   8  11
ATOM     11  C   LIG d   1      -4.894  75.454 114.175  0.00  0.00     0.028 C 
ATOM     12  C   LIG d   1      -5.987  74.551 114.769  0.00  0.00     0.006 C 
ENDBRANCH   8  11
ENDBRANCH   7   8
ENDBRANCH   1   7
BRANCH   6  13
ATOM     13  N   LIG d   1      -1.193  77.645 117.079  0.00  0.00    -0.311 N 
ATOM     14  C   LIG d   1      -0.253  76.889 117.642  0.00  0.00     0.210 C 
ATOM     15  C   LIG d   1      -0.548  76.455 119.082  0.00  0.00     0.109 C 
ATOM     16  O   LIG d   1       0.812  76.563 117.098  0.00  0.00    -0.276 OA
ATOM     17  H   LIG d   1      -2.011  77.888 117.604  0.00  0.00     0.149 HD
ENDBRANCH   6  13
BRANCH   5  18
ATOM     18  N   LIG d   1       0.881  79.652 116.078  0.00  0.00     0.381 N 
ATOM     19  H   LIG d   1       0.956  79.248 116.990  0.00  0.00    -0.090 HD
ATOM     20  H   LIG d   1       1.156  80.617 116.137  0.00  0.00    -0.090 HD
ATOM     21  H   LIG d   1       1.476  79.168 115.442  0.00  0.00    -0.090 HD
ENDBRANCH   5  18
BRANCH   3  22
ATOM     22  C   LIG d   1      -2.160  80.821 112.568  0.00  0.00     0.382 C 
ATOM     23  O   LIG d   1      -1.553  80.815 111.469  0.00  0.00    -0.241 OA
ATOM     24  O   LIG d   1      -3.049  81.669 112.772  0.00  0.00    -0.241 OA
ENDBRANCH   3  22
TORSDOF 7
ENDMDL
MODEL 5
REMARK VINA RESULT:      -4.4      3.601      7.271
REMARK  7 active torsions:
REMARK  status: ('A' for Active; 'I' for Inactive)
REMARK    1  A    between atoms: C_2  and  C_3 
REMARK    2  A    between atoms: C_3  and  O_6 
REMARK    3  A    between atoms: C_3  and  C_4 
REMARK    4  A    between atoms: C_7  and  O_6 
REMARK    5  A    between atoms: C_9  and  C_10 
REMARK    6  A    between atoms: N_15  and  C_14 
REMARK    7  A    between atoms: N_20  and  C_19 
REMARK       I    between atoms: C_22  and  N_20 
ROOT
ATOM      1  C   LIG d   1      -3.381  78.526 116.742  0.00  0.00     0.161 C 
ATOM      2  C   LIG d   1      -2.435  79.426 117.262  0.00  0.00     0.016 C 
ATOM      3  C   LIG d   1      -1.141  79.595 116.718  0.00  0.00     0.038 C 
ATOM      4  C   LIG d   1      -0.755  78.981 115.517  0.00  0.00     0.028 C 
ATOM      5  C   LIG d   1      -1.498  77.679 115.237  0.00  0.00    -0.047 C 
ATOM      6  C   LIG d   1      -3.018  77.930 115.366  0.00  0.00     0.091 C 
ENDROOT
BRANCH   1   7
ATOM      7  O   LIG d   1      -4.676  79.156 116.689  0.00  0.00    -0.368 OA
BRANCH   7   8
ATOM      8  C   LIG d   1      -5.503  79.013 117.870  0.00  0.00     0.119 C 
BRANCH   8   9
ATOM      9  C   LIG d   1      -5.852  77.519 118.012  0.00  0.00     0.028 C 
ATOM     10  C   LIG d   1      -6.929  77.070 117.010  0.00  0.00     0.006 C 
ENDBRANCH   8   9
BRANCH   8  11
ATOM     11  C   LIG d   1      -6.847  79.728 117.699  0.00  0.00     0.028 C 
ATOM     12  C   LIG d   1      -6.708  81.259 117.674  0.00  0.00     0.006 C 
ENDBRANCH   8  11
ENDBRANCH   7   8
ENDBRANCH   1   7
BRANCH   6  13
ATOM     13  N   LIG d   1      -3.815  76.688 115.190  0.00  0.00    -0.311 N 
ATOM     14  C   LIG d   1      -4.299  76.288 114.016  0.00  0.00     0.210 C 
ATOM     15  C   LIG d   1      -5.111  74.989 114.059  0.00  0.00     0.109 C 
ATOM     16  O   LIG d   1      -4.108  76.869 112.937  0.00  0.00    -0.276 OA
ATOM     17  H   LIG d   1      -3.991  76.139 116.009  0.00  0.00     0.149 HD
ENDBRANCH   6  13
BRANCH   5  18
ATOM     18  N   LIG d   1      -1.100  77.219 113.893  0.00  0.00     0.381 N 
ATOM     19  H   LIG d   1      -0.593  76.360 113.965  0.00  0.00    -0.090 HD
ATOM     20  H   LIG d   1      -0.497  77.908 113.479  0.00  0.00    -0.090 HD
ATOM     21  H   LIG d   1      -1.908  77.089 113.324  0.00  0.00    -0.090 HD
ENDBRANCH   5  18
BRANCH   3  22
ATOM     22  C   LIG d   1      -0.203  80.355 117.400  0.00  0.00     0.382 C 
ATOM     23  O   LIG d   1       0.705  79.789 118.056  0.00  0.00    -0.241 OA
ATOM     24  O   LIG d   1      -0.279  81.598 117.404  0.00  0.00    -0.241 OA
ENDBRANCH   3  22
TORSDOF 7
ENDMDL
MODEL 6
REMARK VINA RESULT:      -4.4      3.671      4.833
REMARK  7 active torsions:
REMARK  status: ('A' for Active; 'I' for Inactive)
REMARK    1  A    between atoms: C_2  and  C_3 
REMARK    2  A    between atoms: C_3  and  O_6 
REMARK    3  A    between atoms: C_3  and  C_4 
REMARK    4  A    between atoms: C_7  and  O_6 
REMARK    5  A    between atoms: C_9  and  C_10 
REMARK    6  A    between atoms: N_15  and  C_14 
REMARK    7  A    between atoms: N_20  and  C_19 
REMARK       I    between atoms: C_22  and  N_20 
ROOT
ATOM      1  C   LIG d   1      -1.431  77.695 115.072  0.00  0.00     0.161 C 
ATOM      2  C   LIG d   1      -2.714  77.399 114.582  0.00  0.00     0.016 C 
ATOM      3  C   LIG d   1      -3.384  76.181 114.841  0.00  0.00     0.038 C 
ATOM      4  C   LIG d   1      -2.874  75.231 115.739  0.00  0.00     0.028 C 
ATOM      5  C   LIG d   1      -1.355  75.265 115.859  0.00  0.00    -0.047 C 
ATOM      6  C   LIG d   1      -0.906  76.717 116.144  0.00  0.00     0.091 C 
ENDROOT
BRANCH   1   7
ATOM      7  O   LIG d   1      -1.398  79.048 115.568  0.00  0.00    -0.368 OA
BRANCH   7   8
ATOM      8  C   LIG d   1      -1.598  79.208 116.994  0.00  0.00     0.119 C 
BRANCH   8   9
ATOM      9  C   LIG d   1      -3.064  79.631 117.211  0.00  0.00     0.028 C 
ATOM     10  C   LIG d   1      -3.880  78.559 117.953  0.00  0.00     0.006 C 
ENDBRANCH   8   9
BRANCH   8  11
ATOM     11  C   LIG d   1      -0.757  80.362 117.548  0.00  0.00     0.028 C 
ATOM     12  C   LIG d   1       0.525  80.609 116.736  0.00  0.00     0.006 C 
ENDBRANCH   8  11
ENDBRANCH   7   8
ENDBRANCH   1   7
BRANCH   6  13
ATOM     13  N   LIG d   1       0.573  76.855 116.193  0.00  0.00    -0.311 N 
ATOM     14  C   LIG d   1       1.275  76.824 117.324  0.00  0.00     0.210 C 
ATOM     15  C   LIG d   1       2.786  77.004 117.152  0.00  0.00     0.109 C 
ATOM     16  O   LIG d   1       0.793  76.632 118.450  0.00  0.00    -0.276 OA
ATOM     17  H   LIG d   1       1.048  76.982 115.321  0.00  0.00     0.149 HD
ENDBRANCH   6  13
BRANCH   5  18
ATOM     18  N   LIG d   1      -0.971  74.322 116.927  0.00  0.00     0.381 N 
ATOM     19  H   LIG d   1      -0.153  73.815 116.652  0.00  0.00    -0.090 HD
ATOM     20  H   LIG d   1      -1.718  73.665 117.064  0.00  0.00    -0.090 HD
ATOM     21  H   LIG d   1      -0.794  74.818 117.773  0.00  0.00    -0.090 HD
ENDBRANCH   5  18
BRANCH   3  22
ATOM     22  C   LIG d   1      -4.559  75.886 114.167  0.00  0.00     0.382 C 
ATOM     23  O   LIG d   1      -4.748  76.334 113.011  0.00  0.00    -0.241 OA
ATOM     24  O   LIG d   1      -5.452  75.214 114.718  0.00  0.00    -0.241 OA
ENDBRANCH   3  22
TORSDOF 7
ENDMDL
MODEL 7
REMARK VINA RESULT:      -4.3      3.201      6.509
REMARK  7 active torsions:
REMARK  status: ('A' for Active; 'I' for Inactive)
REMARK    1  A    between atoms: C_2  and  C_3 
REMARK    2  A    between atoms: C_3  and  O_6 
REMARK    3  A    between atoms: C_3  and  C_4 
REMARK    4  A    between atoms: C_7  and  O_6 
REMARK    5  A    between atoms: C_9  and  C_10 
REMARK    6  A    between atoms: N_15  and  C_14 
REMARK    7  A    between atoms: N_20  and  C_19 
REMARK       I    between atoms: C_22  and  N_20 
ROOT
ATOM      1  C   LIG d   1      -0.973  76.465 115.207  0.00  0.00     0.161 C 
ATOM      2  C   LIG d   1      -0.577  75.858 116.411  0.00  0.00     0.016 C 
ATOM      3  C   LIG d   1      -0.233  76.587 117.572  0.00  0.00     0.038 C 
ATOM      4  C   LIG d   1      -0.407  77.977 117.655  0.00  0.00     0.028 C 
ATOM      5  C   LIG d   1      -0.324  78.679 116.304  0.00  0.00    -0.047 C 
ATOM      6  C   LIG d   1      -1.277  77.974 115.312  0.00  0.00     0.091 C 
ENDROOT
BRANCH   1   7
ATOM      7  O   LIG d   1      -2.105  75.763 114.656  0.00  0.00    -0.368 OA
BRANCH   7   8
ATOM      8  C   LIG d   1      -3.411  76.251 115.051  0.00  0.00     0.119 C 
BRANCH   8   9
ATOM      9  C   LIG d   1      -3.950  75.302 116.139  0.00  0.00     0.028 C 
ATOM     10  C   LIG d   1      -4.112  76.001 117.499  0.00  0.00     0.006 C 
ENDBRANCH   8   9
BRANCH   8  11
ATOM     11  C   LIG d   1      -4.414  76.156 113.897  0.00  0.00     0.028 C 
ATOM     12  C   LIG d   1      -5.372  74.963 114.037  0.00  0.00     0.006 C 
ENDBRANCH   8  11
ENDBRANCH   7   8
ENDBRANCH   1   7
BRANCH   6  13
ATOM     13  N   LIG d   1      -1.194  78.546 113.943  0.00  0.00    -0.311 N 
ATOM     14  C   LIG d   1      -2.046  79.456 113.475  0.00  0.00     0.210 C 
ATOM     15  C   LIG d   1      -1.793  79.897 112.030  0.00  0.00     0.109 C 
ATOM     16  O   LIG d   1      -2.968  79.964 114.131  0.00  0.00    -0.276 OA
ATOM     17  H   LIG d   1      -0.456  78.213 113.353  0.00  0.00     0.149 HD
ENDBRANCH   6  13
BRANCH   5  18
ATOM     18  N   LIG d   1      -0.660  80.099 116.519  0.00  0.00     0.381 N 
ATOM     19  H   LIG d   1      -1.285  80.186 117.295  0.00  0.00    -0.090 HD
ATOM     20  H   LIG d   1      -1.124  80.451 115.700  0.00  0.00    -0.090 HD
ATOM     21  H   LIG d   1       0.169  80.624 116.690  0.00  0.00    -0.090 HD
ENDBRANCH   5  18
BRANCH   3  22
ATOM     22  C   LIG d   1       0.331  75.929 118.655  0.00  0.00     0.382 C 
ATOM     23  O   LIG d   1       1.435  76.308 119.114  0.00  0.00    -0.241 OA
ATOM     24  O   LIG d   1      -0.229  74.932 119.149  0.00  0.00    -0.241 OA
ENDBRANCH   3  22
TORSDOF 7
ENDMDL
MODEL 8
REMARK VINA RESULT:      -4.3      2.891      5.159
REMARK  7 active torsions:
REMARK  status: ('A' for Active; 'I' for Inactive)
REMARK    1  A    between atoms: C_2  and  C_3 
REMARK    2  A    between atoms: C_3  and  O_6 
REMARK    3  A    between atoms: C_3  and  C_4 
REMARK    4  A    between atoms: C_7  and  O_6 
REMARK    5  A    between atoms: C_9  and  C_10 
REMARK    6  A    between atoms: N_15  and  C_14 
REMARK    7  A    between atoms: N_20  and  C_19 
REMARK       I    between atoms: C_22  and  N_20 
ROOT
ATOM      1  C   LIG d   1      -1.871  78.660 116.676  0.00  0.00     0.161 C 
ATOM      2  C   LIG d   1      -2.587  77.711 115.929  0.00  0.00     0.016 C 
ATOM      3  C   LIG d   1      -2.504  77.605 114.521  0.00  0.00     0.038 C 
ATOM      4  C   LIG d   1      -1.577  78.348 113.775  0.00  0.00     0.028 C 
ATOM      5  C   LIG d   1      -1.195  79.671 114.429  0.00  0.00    -0.047 C 
ATOM      6  C   LIG d   1      -0.771  79.405 115.891  0.00  0.00     0.091 C 
ENDROOT
BRANCH   1   7
ATOM      7  O   LIG d   1      -1.314  78.037 117.851  0.00  0.00    -0.368 OA
BRANCH   7   8
ATOM      8  C   LIG d   1      -0.363  76.969 117.616  0.00  0.00     0.119 C 
BRANCH   8   9
ATOM      9  C   LIG d   1      -0.871  75.724 118.370  0.00  0.00     0.028 C 
ATOM     10  C   LIG d   1      -1.346  74.615 117.417  0.00  0.00     0.006 C 
ENDBRANCH   8   9
BRANCH   8  11
ATOM     11  C   LIG d   1       1.000  77.290 118.236  0.00  0.00     0.028 C 
ATOM     12  C   LIG d   1       2.175  76.908 117.322  0.00  0.00     0.006 C 
ENDBRANCH   8  11
ENDBRANCH   7   8
ENDBRANCH   1   7
BRANCH   6  13
ATOM     13  N   LIG d   1      -0.461  80.657 116.629  0.00  0.00    -0.311 N 
ATOM     14  C   LIG d   1       0.773  81.017 116.977  0.00  0.00     0.210 C 
ATOM     15  C   LIG d   1       0.868  82.336 117.751  0.00  0.00     0.109 C 
ATOM     16  O   LIG d   1       1.801  80.386 116.691  0.00  0.00    -0.276 OA
ATOM     17  H   LIG d   1      -1.234  81.245 116.874  0.00  0.00     0.149 HD
ENDBRANCH   6  13
BRANCH   5  18
ATOM     18  N   LIG d   1      -0.123  80.277 113.617  0.00  0.00     0.381 N 
ATOM     19  H   LIG d   1       0.665  79.660 113.582  0.00  0.00    -0.090 HD
ATOM     20  H   LIG d   1       0.168  81.135 114.050  0.00  0.00    -0.090 HD
ATOM     21  H   LIG d   1      -0.454  80.457 112.695  0.00  0.00    -0.090 HD
ENDBRANCH   5  18
BRANCH   3  22
ATOM     22  C   LIG d   1      -3.383  76.776 113.841  0.00  0.00     0.382 C 
ATOM     23  O   LIG d   1      -3.697  75.662 114.326  0.00  0.00    -0.241 OA
ATOM     24  O   LIG d   1      -3.833  77.109 112.728  0.00  0.00    -0.241 OA
ENDBRANCH   3  22
TORSDOF 7
ENDMDL
MODEL 9
REMARK VINA RESULT:      -4.2      1.525      2.006
REMARK  7 active torsions:
REMARK  status: ('A' for Active; 'I' for Inactive)
REMARK    1  A    between atoms: C_2  and  C_3 
REMARK    2  A    between atoms: C_3  and  O_6 
REMARK    3  A    between atoms: C_3  and  C_4 
REMARK    4  A    between atoms: C_7  and  O_6 
REMARK    5  A    between atoms: C_9  and  C_10 
REMARK    6  A    between atoms: N_15  and  C_14 
REMARK    7  A    between atoms: N_20  and  C_19 
REMARK       I    between atoms: C_22  and  N_20 
ROOT
ATOM      1  C   LIG d   1      -0.825  78.857 114.593  0.00  0.00     0.161 C 
ATOM      2  C   LIG d   1      -1.882  78.135 114.014  0.00  0.00     0.016 C 
ATOM      3  C   LIG d   1      -2.741  77.288 114.752  0.00  0.00     0.038 C 
ATOM      4  C   LIG d   1      -2.696  77.223 116.152  0.00  0.00     0.028 C 
ATOM      5  C   LIG d   1      -1.321  77.545 116.729  0.00  0.00    -0.047 C 
ATOM      6  C   LIG d   1      -0.829  78.885 116.136  0.00  0.00     0.091 C 
ENDROOT
BRANCH   1   7
ATOM      7  O   LIG d   1      -0.804  80.198 114.067  0.00  0.00    -0.368 OA
BRANCH   7   8
ATOM      8  C   LIG d   1      -0.498  80.326 112.657  0.00  0.00     0.119 C 
BRANCH   8   9
ATOM      9  C   LIG d   1       0.914  80.933 112.543  0.00  0.00     0.028 C 
ATOM     10  C   LIG d   1       1.457  80.890 111.105  0.00  0.00     0.006 C 
ENDBRANCH   8   9
BRANCH   8  11
ATOM     11  C   LIG d   1      -1.428  81.332 111.973  0.00  0.00     0.028 C 
ATOM     12  C   LIG d   1      -2.851  81.318 112.555  0.00  0.00     0.006 C 
ENDBRANCH   8  11
ENDBRANCH   7   8
ENDBRANCH   1   7
BRANCH   6  13
ATOM     13  N   LIG d   1       0.545  79.232 116.583  0.00  0.00    -0.311 N 
ATOM     14  C   LIG d   1       0.905  80.457 116.963  0.00  0.00     0.210 C 
ATOM     15  C   LIG d   1       2.375  80.603 117.367  0.00  0.00     0.109 C 
ATOM     16  O   LIG d   1       0.138  81.430 117.033  0.00  0.00    -0.276 OA
ATOM     17  H   LIG d   1       1.223  78.496 116.587  0.00  0.00     0.149 HD
ENDBRANCH   6  13
BRANCH   5  18
ATOM     18  N   LIG d   1      -1.450  77.576 118.198  0.00  0.00     0.381 N 
ATOM     19  H   LIG d   1      -2.044  76.830 118.502  0.00  0.00    -0.090 HD
ATOM     20  H   LIG d   1      -1.873  78.446 118.469  0.00  0.00    -0.090 HD
ATOM     21  H   LIG d   1      -0.553  77.489 118.621  0.00  0.00    -0.090 HD
ENDBRANCH   5  18
BRANCH   3  22
ATOM     22  C   LIG d   1      -3.634  76.464 114.083  0.00  0.00     0.382 C 
ATOM     23  O   LIG d   1      -3.904  75.328 114.543  0.00  0.00    -0.241 OA
ATOM     24  O   LIG d   1      -4.139  76.824 113.003  0.00  0.00    -0.241 OA
ENDBRANCH   3  22
TORSDOF 7
ENDMDL
