MODEL 1
REMARK VINA RESULT:      -5.5      0.000      0.000
REMARK  7 active torsions:
REMARK  status: ('A' for Active; 'I' for Inactive)
REMARK    1  A    between atoms: C_2  and  C_3 
REMARK    2  A    between atoms: C_3  and  O_6 
REMARK    3  A    between atoms: C_3  and  C_4 
REMARK    4  A    between atoms: C_7  and  O_6 
REMARK    5  A    between atoms: C_9  and  C_10 
REMARK    6  A    between atoms: N_15  and  C_14 
REMARK    7  A    between atoms: N_20  and  C_19 
REMARK       I    between atoms: C_22  and  N_20 
ROOT
ATOM      1  C   LIG d   1      -2.437  80.383 114.375  0.00  0.00     0.161 C 
ATOM      2  C   LIG d   1      -2.068  81.593 113.764  0.00  0.00     0.016 C 
ATOM      3  C   LIG d   1      -1.524  81.672 112.461  0.00  0.00     0.038 C 
ATOM      4  C   LIG d   1      -1.451  80.554 111.618  0.00  0.00     0.028 C 
ATOM      5  C   LIG d   1      -1.342  79.233 112.373  0.00  0.00    -0.047 C 
ATOM      6  C   LIG d   1      -2.469  79.164 113.429  0.00  0.00     0.091 C 
ENDROOT
BRANCH   1   7
ATOM      7  O   LIG d   1      -3.708  80.537 115.036  0.00  0.00    -0.368 OA
BRANCH   7   8
ATOM      8  C   LIG d   1      -3.690  80.445 116.482  0.00  0.00     0.119 C 
BRANCH   8   9
ATOM      9  C   LIG d   1      -5.009  79.779 116.920  0.00  0.00     0.028 C 
ATOM     10  C   LIG d   1      -4.900  78.246 116.979  0.00  0.00     0.006 C 
ENDBRANCH   8   9
BRANCH   8  11
ATOM     11  C   LIG d   1      -3.703  81.833 117.128  0.00  0.00     0.028 C 
ATOM     12  C   LIG d   1      -2.374  82.182 117.817  0.00  0.00     0.006 C 
ENDBRANCH   8  11
ENDBRANCH   7   8
ENDBRANCH   1   7
BRANCH   6  13
ATOM     13  N   LIG d   1      -2.384  77.941 114.269  0.00  0.00    -0.311 N 
ATOM     14  C   LIG d   1      -3.064  76.825 114.009  0.00  0.00     0.210 C 
ATOM     15  C   LIG d   1      -2.848  75.688 115.013  0.00  0.00     0.109 C 
ATOM     16  O   LIG d   1      -3.800  76.658 113.025  0.00  0.00    -0.276 OA
ATOM     17  H   LIG d   1      -1.785  77.978 115.070  0.00  0.00     0.149 HD
ENDBRANCH   6  13
BRANCH   5  18
ATOM     18  N   LIG d   1      -1.414  78.145 111.379  0.00  0.00     0.381 N 
ATOM     19  H   LIG d   1      -2.366  77.865 111.251  0.00  0.00    -0.090 HD
ATOM     20  H   LIG d   1      -0.897  77.355 111.724  0.00  0.00    -0.090 HD
ATOM     21  H   LIG d   1      -1.030  78.449 110.512  0.00  0.00    -0.090 HD
ENDBRANCH   5  18
BRANCH   3  22
ATOM     22  C   LIG d   1      -1.008  82.876 112.005  0.00  0.00     0.382 C 
ATOM     23  O   LIG d   1      -1.066  83.160 110.784  0.00  0.00    -0.241 OA
ATOM     24  O   LIG d   1      -0.445  83.661 112.791  0.00  0.00    -0.241 OA
ENDBRANCH   3  22
TORSDOF 7
ENDMDL
MODEL 2
REMARK VINA RESULT:      -5.5      2.658      5.367
REMARK  7 active torsions:
REMARK  status: ('A' for Active; 'I' for Inactive)
REMARK    1  A    between atoms: C_2  and  C_3 
REMARK    2  A    between atoms: C_3  and  O_6 
REMARK    3  A    between atoms: C_3  and  C_4 
REMARK    4  A    between atoms: C_7  and  O_6 
REMARK    5  A    between atoms: C_9  and  C_10 
REMARK    6  A    between atoms: N_15  and  C_14 
REMARK    7  A    between atoms: N_20  and  C_19 
REMARK       I    between atoms: C_22  and  N_20 
ROOT
ATOM      1  C   LIG d   1      -2.126  81.489 111.980  0.00  0.00     0.161 C 
ATOM      2  C   LIG d   1      -2.821  80.343 112.403  0.00  0.00     0.016 C 
ATOM      3  C   LIG d   1      -2.441  79.028 112.048  0.00  0.00     0.038 C 
ATOM      4  C   LIG d   1      -1.245  78.760 111.366  0.00  0.00     0.028 C 
ATOM      5  C   LIG d   1      -0.778  79.915 110.486  0.00  0.00    -0.047 C 
ATOM      6  C   LIG d   1      -0.756  81.211 111.328  0.00  0.00     0.091 C 
ENDROOT
BRANCH   1   7
ATOM      7  O   LIG d   1      -1.980  82.406 113.083  0.00  0.00    -0.368 OA
BRANCH   7   8
ATOM      8  C   LIG d   1      -0.890  82.133 113.998  0.00  0.00     0.119 C 
BRANCH   8   9
ATOM      9  C   LIG d   1      -1.500  81.945 115.401  0.00  0.00     0.028 C 
ATOM     10  C   LIG d   1      -2.970  82.392 115.466  0.00  0.00     0.006 C 
ENDBRANCH   8   9
BRANCH   8  11
ATOM     11  C   LIG d   1       0.048  83.337 114.122  0.00  0.00     0.028 C 
ATOM     12  C   LIG d   1      -0.473  84.578 113.379  0.00  0.00     0.006 C 
ENDBRANCH   8  11
ENDBRANCH   7   8
ENDBRANCH   1   7
BRANCH   6  13
ATOM     13  N   LIG d   1      -0.391  82.404 110.522  0.00  0.00    -0.311 N 
ATOM     14  C   LIG d   1       0.855  82.863 110.413  0.00  0.00     0.210 C 
ATOM     15  C   LIG d   1       1.009  84.118 109.549  0.00  0.00     0.109 C 
ATOM     16  O   LIG d   1       1.852  82.330 110.924  0.00  0.00    -0.276 OA
ATOM     17  H   LIG d   1      -1.134  82.880 110.048  0.00  0.00     0.149 HD
ENDBRANCH   6  13
BRANCH   5  18
ATOM     18  N   LIG d   1       0.546  79.555 109.944  0.00  0.00     0.381 N 
ATOM     19  H   LIG d   1       1.254  80.103 110.389  0.00  0.00    -0.090 HD
ATOM     20  H   LIG d   1       0.560  79.758 108.960  0.00  0.00    -0.090 HD
ATOM     21  H   LIG d   1       0.723  78.585 110.092  0.00  0.00    -0.090 HD
ENDBRANCH   5  18
BRANCH   3  22
ATOM     22  C   LIG d   1      -3.284  77.967 112.342  0.00  0.00     0.382 C 
ATOM     23  O   LIG d   1      -4.431  77.918 111.835  0.00  0.00    -0.241 OA
ATOM     24  O   LIG d   1      -2.929  77.081 113.143  0.00  0.00    -0.241 OA
ENDBRANCH   3  22
TORSDOF 7
ENDMDL
MODEL 3
REMARK VINA RESULT:      -5.3      2.424      5.179
REMARK  7 active torsions:
REMARK  status: ('A' for Active; 'I' for Inactive)
REMARK    1  A    between atoms: C_2  and  C_3 
REMARK    2  A    between atoms: C_3  and  O_6 
REMARK    3  A    between atoms: C_3  and  C_4 
REMARK    4  A    between atoms: C_7  and  O_6 
REMARK    5  A    between atoms: C_9  and  C_10 
REMARK    6  A    between atoms: N_15  and  C_14 
REMARK    7  A    between atoms: N_20  and  C_19 
REMARK       I    between atoms: C_22  and  N_20 
ROOT
ATOM      1  C   LIG d   1      -2.175  81.035 112.483  0.00  0.00     0.161 C 
ATOM      2  C   LIG d   1      -2.836  79.889 112.956  0.00  0.00     0.016 C 
ATOM      3  C   LIG d   1      -2.564  78.584 112.486  0.00  0.00     0.038 C 
ATOM      4  C   LIG d   1      -1.498  78.317 111.613  0.00  0.00     0.028 C 
ATOM      5  C   LIG d   1      -1.131  79.501 110.725  0.00  0.00    -0.047 C 
ATOM      6  C   LIG d   1      -0.933  80.752 111.612  0.00  0.00     0.091 C 
ENDROOT
BRANCH   1   7
ATOM      7  O   LIG d   1      -1.827  81.890 113.590  0.00  0.00    -0.368 OA
BRANCH   7   8
ATOM      8  C   LIG d   1      -1.044  81.279 114.645  0.00  0.00     0.119 C 
BRANCH   8   9
ATOM      9  C   LIG d   1      -1.670  81.701 115.989  0.00  0.00     0.028 C 
ATOM     10  C   LIG d   1      -3.116  82.199 115.832  0.00  0.00     0.006 C 
ENDBRANCH   8   9
BRANCH   8  11
ATOM     11  C   LIG d   1       0.384  81.831 114.672  0.00  0.00     0.028 C 
ATOM     12  C   LIG d   1       0.463  83.300 114.226  0.00  0.00     0.006 C 
ENDBRANCH   8  11
ENDBRANCH   7   8
ENDBRANCH   1   7
BRANCH   6  13
ATOM     13  N   LIG d   1      -0.654  81.974 110.815  0.00  0.00    -0.311 N 
ATOM     14  C   LIG d   1       0.575  82.421 110.563  0.00  0.00     0.210 C 
ATOM     15  C   LIG d   1       0.638  83.710 109.738  0.00  0.00     0.109 C 
ATOM     16  O   LIG d   1       1.620  81.854 110.916  0.00  0.00    -0.276 OA
ATOM     17  H   LIG d   1      -1.444  82.479 110.463  0.00  0.00     0.149 HD
ENDBRANCH   6  13
BRANCH   5  18
ATOM     18  N   LIG d   1       0.079  79.132 109.967  0.00  0.00     0.381 N 
ATOM     19  H   LIG d   1       0.238  78.147 110.041  0.00  0.00    -0.090 HD
ATOM     20  H   LIG d   1       0.869  79.610 110.363  0.00  0.00    -0.090 HD
ATOM     21  H   LIG d   1      -0.027  79.388 109.010  0.00  0.00    -0.090 HD
ENDBRANCH   5  18
BRANCH   3  22
ATOM     22  C   LIG d   1      -3.388  77.533 112.859  0.00  0.00     0.382 C 
ATOM     23  O   LIG d   1      -2.926  76.583 113.536  0.00  0.00    -0.241 OA
ATOM     24  O   LIG d   1      -4.577  77.501 112.489  0.00  0.00    -0.241 OA
ENDBRANCH   3  22
TORSDOF 7
ENDMDL
MODEL 4
REMARK VINA RESULT:      -5.1      1.496      2.009
REMARK  7 active torsions:
REMARK  status: ('A' for Active; 'I' for Inactive)
REMARK    1  A    between atoms: C_2  and  C_3 
REMARK    2  A    between atoms: C_3  and  O_6 
REMARK    3  A    between atoms: C_3  and  C_4 
REMARK    4  A    between atoms: C_7  and  O_6 
REMARK    5  A    between atoms: C_9  and  C_10 
REMARK    6  A    between atoms: N_15  and  C_14 
REMARK    7  A    between atoms: N_20  and  C_19 
REMARK       I    between atoms: C_22  and  N_20 
ROOT
ATOM      1  C   LIG d   1      -0.690  80.248 114.464  0.00  0.00     0.161 C 
ATOM      2  C   LIG d   1      -0.825  81.533 113.911  0.00  0.00     0.016 C 
ATOM      3  C   LIG d   1      -1.165  81.767 112.559  0.00  0.00     0.038 C 
ATOM      4  C   LIG d   1      -1.544  80.725 111.699  0.00  0.00     0.028 C 
ATOM      5  C   LIG d   1      -0.934  79.378 112.074  0.00  0.00    -0.047 C 
ATOM      6  C   LIG d   1      -1.208  79.102 113.570  0.00  0.00     0.091 C 
ENDROOT
BRANCH   1   7
ATOM      7  O   LIG d   1      -1.327  80.203 115.756  0.00  0.00    -0.368 OA
BRANCH   7   8
ATOM      8  C   LIG d   1      -2.739  79.878 115.759  0.00  0.00     0.119 C 
BRANCH   8   9
ATOM      9  C   LIG d   1      -3.509  81.162 116.124  0.00  0.00     0.028 C 
ATOM     10  C   LIG d   1      -2.772  82.008 117.177  0.00  0.00     0.006 C 
ENDBRANCH   8   9
BRANCH   8  11
ATOM     11  C   LIG d   1      -3.078  78.874 116.865  0.00  0.00     0.028 C 
ATOM     12  C   LIG d   1      -1.840  78.132 117.395  0.00  0.00     0.006 C 
ENDBRANCH   8  11
ENDBRANCH   7   8
ENDBRANCH   1   7
BRANCH   6  13
ATOM     13  N   LIG d   1      -0.572  77.843 114.039  0.00  0.00    -0.311 N 
ATOM     14  C   LIG d   1      -1.198  76.668 114.054  0.00  0.00     0.210 C 
ATOM     15  C   LIG d   1      -0.367  75.500 114.596  0.00  0.00     0.109 C 
ATOM     16  O   LIG d   1      -2.351  76.475 113.640  0.00  0.00    -0.276 OA
ATOM     17  H   LIG d   1       0.373  77.903 114.364  0.00  0.00     0.149 HD
ENDBRANCH   6  13
BRANCH   5  18
ATOM     18  N   LIG d   1      -1.519  78.360 111.181  0.00  0.00     0.381 N 
ATOM     19  H   LIG d   1      -0.848  77.641 111.001  0.00  0.00    -0.090 HD
ATOM     20  H   LIG d   1      -1.759  78.794 110.307  0.00  0.00    -0.090 HD
ATOM     21  H   LIG d   1      -2.334  77.968 111.600  0.00  0.00    -0.090 HD
ENDBRANCH   5  18
BRANCH   3  22
ATOM     22  C   LIG d   1      -1.090  83.052 112.044  0.00  0.00     0.382 C 
ATOM     23  O   LIG d   1      -1.044  83.228 110.802  0.00  0.00    -0.241 OA
ATOM     24  O   LIG d   1      -1.022  84.035 112.805  0.00  0.00    -0.241 OA
ENDBRANCH   3  22
TORSDOF 7
ENDMDL
MODEL 5
REMARK VINA RESULT:      -5.0      2.863      5.459
REMARK  7 active torsions:
REMARK  status: ('A' for Active; 'I' for Inactive)
REMARK    1  A    between atoms: C_2  and  C_3 
REMARK    2  A    between atoms: C_3  and  O_6 
REMARK    3  A    between atoms: C_3  and  C_4 
REMARK    4  A    between atoms: C_7  and  O_6 
REMARK    5  A    between atoms: C_9  and  C_10 
REMARK    6  A    between atoms: N_15  and  C_14 
REMARK    7  A    between atoms: N_20  and  C_19 
REMARK       I    between atoms: C_22  and  N_20 
ROOT
ATOM      1  C   LIG d   1      -1.449  77.829 114.305  0.00  0.00     0.161 C 
ATOM      2  C   LIG d   1      -2.742  77.472 113.890  0.00  0.00     0.016 C 
ATOM      3  C   LIG d   1      -3.355  76.242 114.225  0.00  0.00     0.038 C 
ATOM      4  C   LIG d   1      -2.769  75.344 115.129  0.00  0.00     0.028 C 
ATOM      5  C   LIG d   1      -1.248  75.434 115.173  0.00  0.00    -0.047 C 
ATOM      6  C   LIG d   1      -0.838  76.910 115.384  0.00  0.00     0.091 C 
ENDROOT
BRANCH   1   7
ATOM      7  O   LIG d   1      -1.440  79.200 114.751  0.00  0.00    -0.368 OA
BRANCH   7   8
ATOM      8  C   LIG d   1      -2.719  79.880 114.747  0.00  0.00     0.119 C 
BRANCH   8   9
ATOM      9  C   LIG d   1      -2.536  81.207 113.985  0.00  0.00     0.028 C 
ATOM     10  C   LIG d   1      -2.854  81.072 112.486  0.00  0.00     0.006 C 
ENDBRANCH   8   9
BRANCH   8  11
ATOM     11  C   LIG d   1      -3.142  80.280 116.163  0.00  0.00     0.028 C 
ATOM     12  C   LIG d   1      -4.258  79.387 116.727  0.00  0.00     0.006 C 
ENDBRANCH   8  11
ENDBRANCH   7   8
ENDBRANCH   1   7
BRANCH   6  13
ATOM     13  N   LIG d   1       0.635  77.099 115.354  0.00  0.00    -0.311 N 
ATOM     14  C   LIG d   1       1.394  77.119 116.449  0.00  0.00     0.210 C 
ATOM     15  C   LIG d   1       2.888  77.347 116.197  0.00  0.00     0.109 C 
ATOM     16  O   LIG d   1       0.976  76.936 117.602  0.00  0.00    -0.276 OA
ATOM     17  H   LIG d   1       1.062  77.224 114.457  0.00  0.00     0.149 HD
ENDBRANCH   6  13
BRANCH   5  18
ATOM     18  N   LIG d   1      -0.779  74.545 116.252  0.00  0.00     0.381 N 
ATOM     19  H   LIG d   1       0.201  74.681 116.402  0.00  0.00    -0.090 HD
ATOM     20  H   LIG d   1      -0.926  73.591 115.974  0.00  0.00    -0.090 HD
ATOM     21  H   LIG d   1      -1.280  74.734 117.092  0.00  0.00    -0.090 HD
ENDBRANCH   5  18
BRANCH   3  22
ATOM     22  C   LIG d   1      -4.550  75.883 113.620  0.00  0.00     0.382 C 
ATOM     23  O   LIG d   1      -5.181  76.720 112.931  0.00  0.00    -0.241 OA
ATOM     24  O   LIG d   1      -5.028  74.746 113.793  0.00  0.00    -0.241 OA
ENDBRANCH   3  22
TORSDOF 7
ENDMDL
MODEL 6
REMARK VINA RESULT:      -4.9      2.860      4.381
REMARK  7 active torsions:
REMARK  status: ('A' for Active; 'I' for Inactive)
REMARK    1  A    between atoms: C_2  and  C_3 
REMARK    2  A    between atoms: C_3  and  O_6 
REMARK    3  A    between atoms: C_3  and  C_4 
REMARK    4  A    between atoms: C_7  and  O_6 
REMARK    5  A    between atoms: C_9  and  C_10 
REMARK    6  A    between atoms: N_15  and  C_14 
REMARK    7  A    between atoms: N_20  and  C_19 
REMARK       I    between atoms: C_22  and  N_20 
ROOT
ATOM      1  C   LIG d   1      -1.952  78.575 114.712  0.00  0.00     0.161 C 
ATOM      2  C   LIG d   1      -2.449  79.415 113.702  0.00  0.00     0.016 C 
ATOM      3  C   LIG d   1      -1.823  80.621 113.313  0.00  0.00     0.038 C 
ATOM      4  C   LIG d   1      -0.565  80.996 113.809  0.00  0.00     0.028 C 
ATOM      5  C   LIG d   1      -0.269  80.436 115.196  0.00  0.00    -0.047 C 
ATOM      6  C   LIG d   1      -0.522  78.911 115.186  0.00  0.00     0.091 C 
ENDROOT
BRANCH   1   7
ATOM      7  O   LIG d   1      -2.028  77.200 114.287  0.00  0.00    -0.368 OA
BRANCH   7   8
ATOM      8  C   LIG d   1      -2.845  76.325 115.102  0.00  0.00     0.119 C 
BRANCH   8   9
ATOM      9  C   LIG d   1      -1.937  75.194 115.622  0.00  0.00     0.028 C 
ATOM     10  C   LIG d   1      -0.691  74.992 114.743  0.00  0.00     0.006 C 
ENDBRANCH   8   9
BRANCH   8  11
ATOM     11  C   LIG d   1      -3.922  75.628 114.265  0.00  0.00     0.028 C 
ATOM     12  C   LIG d   1      -5.313  76.258 114.440  0.00  0.00     0.006 C 
ENDBRANCH   8  11
ENDBRANCH   7   8
ENDBRANCH   1   7
BRANCH   6  13
ATOM     13  N   LIG d   1      -0.337  78.298 116.527  0.00  0.00    -0.311 N 
ATOM     14  C   LIG d   1       0.707  77.535 116.846  0.00  0.00     0.210 C 
ATOM     15  C   LIG d   1       0.693  76.986 118.276  0.00  0.00     0.109 C 
ATOM     16  O   LIG d   1       1.660  77.288 116.092  0.00  0.00    -0.276 OA
ATOM     17  H   LIG d   1      -1.047  78.472 117.211  0.00  0.00     0.149 HD
ENDBRANCH   6  13
BRANCH   5  18
ATOM     18  N   LIG d   1       1.124  80.789 115.531  0.00  0.00     0.381 N 
ATOM     19  H   LIG d   1       1.742  80.431 114.830  0.00  0.00    -0.090 HD
ATOM     20  H   LIG d   1       1.364  80.365 116.409  0.00  0.00    -0.090 HD
ATOM     21  H   LIG d   1       1.219  81.778 115.594  0.00  0.00    -0.090 HD
ENDBRANCH   5  18
BRANCH   3  22
ATOM     22  C   LIG d   1      -2.475  81.487 112.448  0.00  0.00     0.382 C 
ATOM     23  O   LIG d   1      -1.815  82.160 111.620  0.00  0.00    -0.241 OA
ATOM     24  O   LIG d   1      -3.710  81.636 112.516  0.00  0.00    -0.241 OA
ENDBRANCH   3  22
TORSDOF 7
ENDMDL
MODEL 7
REMARK VINA RESULT:      -4.8      3.080      5.709
REMARK  7 active torsions:
REMARK  status: ('A' for Active; 'I' for Inactive)
REMARK    1  A    between atoms: C_2  and  C_3 
REMARK    2  A    between atoms: C_3  and  O_6 
REMARK    3  A    between atoms: C_3  and  C_4 
REMARK    4  A    between atoms: C_7  and  O_6 
REMARK    5  A    between atoms: C_9  and  C_10 
REMARK    6  A    between atoms: N_15  and  C_14 
REMARK    7  A    between atoms: N_20  and  C_19 
REMARK       I    between atoms: C_22  and  N_20 
ROOT
ATOM      1  C   LIG d   1      -1.418  77.940 114.465  0.00  0.00     0.161 C 
ATOM      2  C   LIG d   1      -2.710  77.592 114.039  0.00  0.00     0.016 C 
ATOM      3  C   LIG d   1      -3.296  76.328 114.282  0.00  0.00     0.038 C 
ATOM      4  C   LIG d   1      -2.682  75.372 115.105  0.00  0.00     0.028 C 
ATOM      5  C   LIG d   1      -1.162  75.487 115.137  0.00  0.00    -0.047 C 
ATOM      6  C   LIG d   1      -0.776  76.949 115.460  0.00  0.00     0.091 C 
ENDROOT
BRANCH   1   7
ATOM      7  O   LIG d   1      -1.427  79.270 115.019  0.00  0.00    -0.368 OA
BRANCH   7   8
ATOM      8  C   LIG d   1      -1.000  80.333 114.133  0.00  0.00     0.119 C 
BRANCH   8   9
ATOM      9  C   LIG d   1       0.085  81.142 114.869  0.00  0.00     0.028 C 
ATOM     10  C   LIG d   1      -0.241  82.644 114.926  0.00  0.00     0.006 C 
ENDBRANCH   8   9
BRANCH   8  11
ATOM     11  C   LIG d   1      -2.135  81.326 113.865  0.00  0.00     0.028 C 
ATOM     12  C   LIG d   1      -2.854  81.064 112.532  0.00  0.00     0.006 C 
ENDBRANCH   8  11
ENDBRANCH   7   8
ENDBRANCH   1   7
BRANCH   6  13
ATOM     13  N   LIG d   1       0.693  77.168 115.428  0.00  0.00    -0.311 N 
ATOM     14  C   LIG d   1       1.467  77.113 116.511  0.00  0.00     0.210 C 
ATOM     15  C   LIG d   1       2.952  77.389 116.259  0.00  0.00     0.109 C 
ATOM     16  O   LIG d   1       1.068  76.829 117.650  0.00  0.00    -0.276 OA
ATOM     17  H   LIG d   1       1.105  77.373 114.538  0.00  0.00     0.149 HD
ENDBRANCH   6  13
BRANCH   5  18
ATOM     18  N   LIG d   1      -0.663  74.524 116.136  0.00  0.00     0.381 N 
ATOM     19  H   LIG d   1      -0.043  73.872 115.698  0.00  0.00    -0.090 HD
ATOM     20  H   LIG d   1      -1.442  74.014 116.513  0.00  0.00    -0.090 HD
ATOM     21  H   LIG d   1      -0.187  75.006 116.867  0.00  0.00    -0.090 HD
ENDBRANCH   5  18
BRANCH   3  22
ATOM     22  C   LIG d   1      -4.493  75.995 113.666  0.00  0.00     0.382 C 
ATOM     23  O   LIG d   1      -5.038  76.805 112.878  0.00  0.00    -0.241 OA
ATOM     24  O   LIG d   1      -5.057  74.915 113.922  0.00  0.00    -0.241 OA
ENDBRANCH   3  22
TORSDOF 7
ENDMDL
MODEL 8
REMARK VINA RESULT:      -4.7      3.258      5.772
REMARK  7 active torsions:
REMARK  status: ('A' for Active; 'I' for Inactive)
REMARK    1  A    between atoms: C_2  and  C_3 
REMARK    2  A    between atoms: C_3  and  O_6 
REMARK    3  A    between atoms: C_3  and  C_4 
REMARK    4  A    between atoms: C_7  and  O_6 
REMARK    5  A    between atoms: C_9  and  C_10 
REMARK    6  A    between atoms: N_15  and  C_14 
REMARK    7  A    between atoms: N_20  and  C_19 
REMARK       I    between atoms: C_22  and  N_20 
ROOT
ATOM      1  C   LIG d   1      -3.957  79.293 116.146  0.00  0.00     0.161 C 
ATOM      2  C   LIG d   1      -3.435  78.345 115.250  0.00  0.00     0.016 C 
ATOM      3  C   LIG d   1      -4.040  77.091 115.004  0.00  0.00     0.038 C 
ATOM      4  C   LIG d   1      -5.298  76.759 115.529  0.00  0.00     0.028 C 
ATOM      5  C   LIG d   1      -5.619  77.478 116.835  0.00  0.00    -0.047 C 
ATOM      6  C   LIG d   1      -5.387  78.994 116.643  0.00  0.00     0.091 C 
ENDROOT
BRANCH   1   7
ATOM      7  O   LIG d   1      -3.895  80.607 115.558  0.00  0.00    -0.368 OA
BRANCH   7   8
ATOM      8  C   LIG d   1      -2.706  81.381 115.851  0.00  0.00     0.119 C 
BRANCH   8   9
ATOM      9  C   LIG d   1      -2.967  82.153 117.160  0.00  0.00     0.028 C 
ATOM     10  C   LIG d   1      -1.749  82.144 118.099  0.00  0.00     0.006 C 
ENDBRANCH   8   9
BRANCH   8  11
ATOM     11  C   LIG d   1      -2.464  82.456 114.788  0.00  0.00     0.028 C 
ATOM     12  C   LIG d   1      -0.978  82.622 114.435  0.00  0.00     0.006 C 
ENDBRANCH   8  11
ENDBRANCH   7   8
ENDBRANCH   1   7
BRANCH   6  13
ATOM     13  N   LIG d   1      -5.596  79.763 117.898  0.00  0.00    -0.311 N 
ATOM     14  C   LIG d   1      -6.306  80.888 117.958  0.00  0.00     0.210 C 
ATOM     15  C   LIG d   1      -6.380  81.532 119.346  0.00  0.00     0.109 C 
ATOM     16  O   LIG d   1      -6.907  81.397 117.001  0.00  0.00    -0.276 OA
ATOM     17  H   LIG d   1      -5.169  79.404 118.729  0.00  0.00     0.149 HD
ENDBRANCH   6  13
BRANCH   5  18
ATOM     18  N   LIG d   1      -7.010  77.147 117.196  0.00  0.00     0.381 N 
ATOM     19  H   LIG d   1      -7.259  76.260 116.806  0.00  0.00    -0.090 HD
ATOM     20  H   LIG d   1      -7.621  77.844 116.809  0.00  0.00    -0.090 HD
ATOM     21  H   LIG d   1      -7.108  77.121 118.187  0.00  0.00    -0.090 HD
ENDBRANCH   5  18
BRANCH   3  22
ATOM     22  C   LIG d   1      -3.365  76.137 114.257  0.00  0.00     0.382 C 
ATOM     23  O   LIG d   1      -3.953  75.086 113.905  0.00  0.00    -0.241 OA
ATOM     24  O   LIG d   1      -2.164  76.294 113.969  0.00  0.00    -0.241 OA
ENDBRANCH   3  22
TORSDOF 7
ENDMDL
MODEL 9
REMARK VINA RESULT:      -4.7      2.877      6.079
REMARK  7 active torsions:
REMARK  status: ('A' for Active; 'I' for Inactive)
REMARK    1  A    between atoms: C_2  and  C_3 
REMARK    2  A    between atoms: C_3  and  O_6 
REMARK    3  A    between atoms: C_3  and  C_4 
REMARK    4  A    between atoms: C_7  and  O_6 
REMARK    5  A    between atoms: C_9  and  C_10 
REMARK    6  A    between atoms: N_15  and  C_14 
REMARK    7  A    between atoms: N_20  and  C_19 
REMARK       I    between atoms: C_22  and  N_20 
ROOT
ATOM      1  C   LIG d   1      -1.036  77.106 114.030  0.00  0.00     0.161 C 
ATOM      2  C   LIG d   1      -1.084  76.119 115.028  0.00  0.00     0.016 C 
ATOM      3  C   LIG d   1      -0.956  76.400 116.408  0.00  0.00     0.038 C 
ATOM      4  C   LIG d   1      -0.922  77.714 116.897  0.00  0.00     0.028 C 
ATOM      5  C   LIG d   1      -0.364  78.719 115.895  0.00  0.00    -0.047 C 
ATOM      6  C   LIG d   1      -1.111  78.557 114.552  0.00  0.00     0.091 C 
ENDROOT
BRANCH   1   7
ATOM      7  O   LIG d   1      -2.073  76.869 113.058  0.00  0.00    -0.368 OA
BRANCH   7   8
ATOM      8  C   LIG d   1      -3.335  77.540 113.295  0.00  0.00     0.119 C 
BRANCH   8   9
ATOM      9  C   LIG d   1      -4.388  76.456 113.593  0.00  0.00     0.028 C 
ATOM     10  C   LIG d   1      -4.902  76.519 115.041  0.00  0.00     0.006 C 
ENDBRANCH   8   9
BRANCH   8  11
ATOM     11  C   LIG d   1      -3.832  78.253 112.034  0.00  0.00     0.028 C 
ATOM     12  C   LIG d   1      -2.757  78.350 110.940  0.00  0.00     0.006 C 
ENDBRANCH   8  11
ENDBRANCH   7   8
ENDBRANCH   1   7
BRANCH   6  13
ATOM     13  N   LIG d   1      -0.569  79.445 113.490  0.00  0.00    -0.311 N 
ATOM     14  C   LIG d   1      -1.092  80.632 113.190  0.00  0.00     0.210 C 
ATOM     15  C   LIG d   1      -0.392  81.377 112.049  0.00  0.00     0.109 C 
ATOM     16  O   LIG d   1      -2.050  81.153 113.782  0.00  0.00    -0.276 OA
ATOM     17  H   LIG d   1       0.227  79.113 112.981  0.00  0.00     0.149 HD
ENDBRANCH   6  13
BRANCH   5  18
ATOM     18  N   LIG d   1      -0.514  80.064 116.481  0.00  0.00     0.381 N 
ATOM     19  H   LIG d   1       0.334  80.331 116.940  0.00  0.00    -0.090 HD
ATOM     20  H   LIG d   1      -1.249  80.040 117.166  0.00  0.00    -0.090 HD
ATOM     21  H   LIG d   1      -0.736  80.724 115.769  0.00  0.00    -0.090 HD
ENDBRANCH   5  18
BRANCH   3  22
ATOM     22  C   LIG d   1      -0.820  75.357 117.312  0.00  0.00     0.382 C 
ATOM     23  O   LIG d   1      -1.063  74.180 116.953  0.00  0.00    -0.241 OA
ATOM     24  O   LIG d   1      -0.501  75.584 118.495  0.00  0.00    -0.241 OA
ENDBRANCH   3  22
TORSDOF 7
ENDMDL
