MODEL 1
REMARK VINA RESULT:      -4.9      0.000      0.000
REMARK  7 active torsions:
REMARK  status: ('A' for Active; 'I' for Inactive)
REMARK    1  A    between atoms: C_2  and  C_3 
REMARK    2  A    between atoms: C_3  and  O_6 
REMARK    3  A    between atoms: C_3  and  C_4 
REMARK    4  A    between atoms: C_7  and  O_6 
REMARK    5  A    between atoms: C_9  and  C_10 
REMARK    6  A    between atoms: N_15  and  C_14 
REMARK    7  A    between atoms: N_20  and  C_19 
REMARK       I    between atoms: C_22  and  N_20 
ROOT
ATOM      1  C   LIG d   1      -1.745  80.677 113.889  0.00  0.00     0.161 C 
ATOM      2  C   LIG d   1      -2.265  79.461 114.364  0.00  0.00     0.016 C 
ATOM      3  C   LIG d   1      -2.315  78.280 113.587  0.00  0.00     0.038 C 
ATOM      4  C   LIG d   1      -1.706  78.196 112.326  0.00  0.00     0.028 C 
ATOM      5  C   LIG d   1      -1.617  79.537 111.606  0.00  0.00    -0.047 C 
ATOM      6  C   LIG d   1      -0.976  80.575 112.556  0.00  0.00     0.091 C 
ENDROOT
BRANCH   1   7
ATOM      7  O   LIG d   1      -0.916  81.281 114.901  0.00  0.00    -0.368 OA
BRANCH   7   8
ATOM      8  C   LIG d   1      -0.194  80.368 115.764  0.00  0.00     0.119 C 
BRANCH   8   9
ATOM      9  C   LIG d   1      -0.232  80.950 117.190  0.00  0.00     0.028 C 
ATOM     10  C   LIG d   1      -1.668  81.158 117.701  0.00  0.00     0.006 C 
ENDBRANCH   8   9
BRANCH   8  11
ATOM     11  C   LIG d   1       1.290  80.305 115.391  0.00  0.00     0.028 C 
ATOM     12  C   LIG d   1       1.797  81.603 114.743  0.00  0.00     0.006 C 
ENDBRANCH   8  11
ENDBRANCH   7   8
ENDBRANCH   1   7
BRANCH   6  13
ATOM     13  N   LIG d   1      -0.928  81.935 111.959  0.00  0.00    -0.311 N 
ATOM     14  C   LIG d   1       0.137  82.420 111.323  0.00  0.00     0.210 C 
ATOM     15  C   LIG d   1      -0.017  83.852 110.802  0.00  0.00     0.109 C 
ATOM     16  O   LIG d   1       1.183  81.788 111.113  0.00  0.00    -0.276 OA
ATOM     17  H   LIG d   1      -1.746  82.505 112.056  0.00  0.00     0.149 HD
ENDBRANCH   6  13
BRANCH   5  18
ATOM     18  N   LIG d   1      -0.840  79.328 110.369  0.00  0.00     0.381 N 
ATOM     19  H   LIG d   1      -0.475  80.202 110.047  0.00  0.00    -0.090 HD
ATOM     20  H   LIG d   1      -1.450  78.961 109.661  0.00  0.00    -0.090 HD
ATOM     21  H   LIG d   1      -0.094  78.690 110.539  0.00  0.00    -0.090 HD
ENDBRANCH   5  18
BRANCH   3  22
ATOM     22  C   LIG d   1      -3.014  77.178 114.056  0.00  0.00     0.382 C 
ATOM     23  O   LIG d   1      -2.493  76.421 114.910  0.00  0.00    -0.241 OA
ATOM     24  O   LIG d   1      -4.143  76.907 113.603  0.00  0.00    -0.241 OA
ENDBRANCH   3  22
TORSDOF 7
ENDMDL
MODEL 2
REMARK VINA RESULT:      -4.8      1.976      5.101
REMARK  7 active torsions:
REMARK  status: ('A' for Active; 'I' for Inactive)
REMARK    1  A    between atoms: C_2  and  C_3 
REMARK    2  A    between atoms: C_3  and  O_6 
REMARK    3  A    between atoms: C_3  and  C_4 
REMARK    4  A    between atoms: C_7  and  O_6 
REMARK    5  A    between atoms: C_9  and  C_10 
REMARK    6  A    between atoms: N_15  and  C_14 
REMARK    7  A    between atoms: N_20  and  C_19 
REMARK       I    between atoms: C_22  and  N_20 
ROOT
ATOM      1  C   LIG d   1      -2.161  80.175 114.544  0.00  0.00     0.161 C 
ATOM      2  C   LIG d   1      -1.625  81.260 113.832  0.00  0.00     0.016 C 
ATOM      3  C   LIG d   1      -1.118  81.154 112.517  0.00  0.00     0.038 C 
ATOM      4  C   LIG d   1      -1.251  79.978 111.764  0.00  0.00     0.028 C 
ATOM      5  C   LIG d   1      -1.329  78.717 112.618  0.00  0.00    -0.047 C 
ATOM      6  C   LIG d   1      -2.417  78.909 113.699  0.00  0.00     0.091 C 
ENDROOT
BRANCH   1   7
ATOM      7  O   LIG d   1      -3.369  80.581 115.217  0.00  0.00    -0.368 OA
BRANCH   7   8
ATOM      8  C   LIG d   1      -3.296  80.668 116.661  0.00  0.00     0.119 C 
BRANCH   8   9
ATOM      9  C   LIG d   1      -1.843  80.359 117.071  0.00  0.00     0.028 C 
ATOM     10  C   LIG d   1      -1.194  81.515 117.850  0.00  0.00     0.006 C 
ENDBRANCH   8   9
BRANCH   8  11
ATOM     11  C   LIG d   1      -4.146  79.583 117.330  0.00  0.00     0.028 C 
ATOM     12  C   LIG d   1      -3.299  78.526 118.056  0.00  0.00     0.006 C 
ENDBRANCH   8  11
ENDBRANCH   7   8
ENDBRANCH   1   7
BRANCH   6  13
ATOM     13  N   LIG d   1      -2.500  77.755 114.631  0.00  0.00    -0.311 N 
ATOM     14  C   LIG d   1      -3.420  76.797 114.532  0.00  0.00     0.210 C 
ATOM     15  C   LIG d   1      -3.340  75.709 115.607  0.00  0.00     0.109 C 
ATOM     16  O   LIG d   1      -4.275  76.728 113.636  0.00  0.00    -0.276 OA
ATOM     17  H   LIG d   1      -1.825  77.715 115.370  0.00  0.00     0.149 HD
ENDBRANCH   6  13
BRANCH   5  18
ATOM     18  N   LIG d   1      -1.605  77.583 111.716  0.00  0.00     0.381 N 
ATOM     19  H   LIG d   1      -1.865  77.925 110.812  0.00  0.00    -0.090 HD
ATOM     20  H   LIG d   1      -2.374  77.053 112.086  0.00  0.00    -0.090 HD
ATOM     21  H   LIG d   1      -0.798  77.004 111.639  0.00  0.00    -0.090 HD
ENDBRANCH   5  18
BRANCH   3  22
ATOM     22  C   LIG d   1      -0.432  82.221 111.956  0.00  0.00     0.382 C 
ATOM     23  O   LIG d   1       0.667  82.583 112.439  0.00  0.00    -0.241 OA
ATOM     24  O   LIG d   1      -0.921  82.853 111.000  0.00  0.00    -0.241 OA
ENDBRANCH   3  22
TORSDOF 7
ENDMDL
MODEL 3
REMARK VINA RESULT:      -4.7      3.009      6.069
REMARK  7 active torsions:
REMARK  status: ('A' for Active; 'I' for Inactive)
REMARK    1  A    between atoms: C_2  and  C_3 
REMARK    2  A    between atoms: C_3  and  O_6 
REMARK    3  A    between atoms: C_3  and  C_4 
REMARK    4  A    between atoms: C_7  and  O_6 
REMARK    5  A    between atoms: C_9  and  C_10 
REMARK    6  A    between atoms: N_15  and  C_14 
REMARK    7  A    between atoms: N_20  and  C_19 
REMARK       I    between atoms: C_22  and  N_20 
ROOT
ATOM      1  C   LIG d   1      -2.308  78.290 114.800  0.00  0.00     0.161 C 
ATOM      2  C   LIG d   1      -2.659  79.346 113.943  0.00  0.00     0.016 C 
ATOM      3  C   LIG d   1      -1.766  80.380 113.576  0.00  0.00     0.038 C 
ATOM      4  C   LIG d   1      -0.407  80.344 113.923  0.00  0.00     0.028 C 
ATOM      5  C   LIG d   1      -0.130  79.564 115.204  0.00  0.00    -0.047 C 
ATOM      6  C   LIG d   1      -0.799  78.174 115.099  0.00  0.00     0.091 C 
ENDROOT
BRANCH   1   7
ATOM      7  O   LIG d   1      -2.811  77.046 114.274  0.00  0.00    -0.368 OA
BRANCH   7   8
ATOM      8  C   LIG d   1      -3.693  76.296 115.145  0.00  0.00     0.119 C 
BRANCH   8   9
ATOM      9  C   LIG d   1      -4.976  75.986 114.350  0.00  0.00     0.028 C 
ATOM     10  C   LIG d   1      -5.534  74.587 114.659  0.00  0.00     0.006 C 
ENDBRANCH   8   9
BRANCH   8  11
ATOM     11  C   LIG d   1      -4.148  77.140 116.338  0.00  0.00     0.028 C 
ATOM     12  C   LIG d   1      -3.947  76.427 117.685  0.00  0.00     0.006 C 
ENDBRANCH   8  11
ENDBRANCH   7   8
ENDBRANCH   1   7
BRANCH   6  13
ATOM     13  N   LIG d   1      -0.647  77.377 116.345  0.00  0.00    -0.311 N 
ATOM     14  C   LIG d   1      -0.307  76.089 116.354  0.00  0.00     0.210 C 
ATOM     15  C   LIG d   1      -0.226  75.452 117.745  0.00  0.00     0.109 C 
ATOM     16  O   LIG d   1      -0.034  75.423 115.345  0.00  0.00    -0.276 OA
ATOM     17  H   LIG d   1      -0.820  77.848 117.211  0.00  0.00     0.149 HD
ENDBRANCH   6  13
BRANCH   5  18
ATOM     18  N   LIG d   1       1.334  79.490 115.372  0.00  0.00     0.381 N 
ATOM     19  H   LIG d   1       1.782  79.584 114.483  0.00  0.00    -0.090 HD
ATOM     20  H   LIG d   1       1.572  78.591 115.752  0.00  0.00    -0.090 HD
ATOM     21  H   LIG d   1       1.643  80.211 115.986  0.00  0.00    -0.090 HD
ENDBRANCH   5  18
BRANCH   3  22
ATOM     22  C   LIG d   1      -2.241  81.485 112.886  0.00  0.00     0.382 C 
ATOM     23  O   LIG d   1      -3.438  81.525 112.515  0.00  0.00    -0.241 OA
ATOM     24  O   LIG d   1      -1.475  82.422 112.591  0.00  0.00    -0.241 OA
ENDBRANCH   3  22
TORSDOF 7
ENDMDL
MODEL 4
REMARK VINA RESULT:      -4.6      2.141      4.477
REMARK  7 active torsions:
REMARK  status: ('A' for Active; 'I' for Inactive)
REMARK    1  A    between atoms: C_2  and  C_3 
REMARK    2  A    between atoms: C_3  and  O_6 
REMARK    3  A    between atoms: C_3  and  C_4 
REMARK    4  A    between atoms: C_7  and  O_6 
REMARK    5  A    between atoms: C_9  and  C_10 
REMARK    6  A    between atoms: N_15  and  C_14 
REMARK    7  A    between atoms: N_20  and  C_19 
REMARK       I    between atoms: C_22  and  N_20 
ROOT
ATOM      1  C   LIG d   1      -0.450  80.963 112.743  0.00  0.00     0.161 C 
ATOM      2  C   LIG d   1      -1.445  80.115 112.228  0.00  0.00     0.016 C 
ATOM      3  C   LIG d   1      -2.087  79.115 112.994  0.00  0.00     0.038 C 
ATOM      4  C   LIG d   1      -1.883  78.995 114.377  0.00  0.00     0.028 C 
ATOM      5  C   LIG d   1      -0.517  79.496 114.834  0.00  0.00    -0.047 C 
ATOM      6  C   LIG d   1      -0.294  80.921 114.277  0.00  0.00     0.091 C 
ENDROOT
BRANCH   1   7
ATOM      7  O   LIG d   1      -0.683  82.315 112.300  0.00  0.00    -0.368 OA
BRANCH   7   8
ATOM      8  C   LIG d   1      -0.028  82.704 111.067  0.00  0.00     0.119 C 
BRANCH   8   9
ATOM      9  C   LIG d   1       1.435  82.230 111.151  0.00  0.00     0.028 C 
ATOM     10  C   LIG d   1       1.789  81.218 110.048  0.00  0.00     0.006 C 
ENDBRANCH   8   9
BRANCH   8  11
ATOM     11  C   LIG d   1       0.046  84.228 110.933  0.00  0.00     0.028 C 
ATOM     12  C   LIG d   1       0.933  84.680 109.761  0.00  0.00     0.006 C 
ENDBRANCH   8  11
ENDBRANCH   7   8
ENDBRANCH   1   7
BRANCH   6  13
ATOM     13  N   LIG d   1       1.054  81.453 114.607  0.00  0.00    -0.311 N 
ATOM     14  C   LIG d   1       1.316  82.153 115.709  0.00  0.00     0.210 C 
ATOM     15  C   LIG d   1       2.767  82.625 115.846  0.00  0.00     0.109 C 
ATOM     16  O   LIG d   1       0.492  82.400 116.603  0.00  0.00    -0.276 OA
ATOM     17  H   LIG d   1       1.789  81.272 113.952  0.00  0.00     0.149 HD
ENDBRANCH   6  13
BRANCH   5  18
ATOM     18  N   LIG d   1      -0.492  79.441 116.307  0.00  0.00     0.381 N 
ATOM     19  H   LIG d   1       0.451  79.521 116.633  0.00  0.00    -0.090 HD
ATOM     20  H   LIG d   1      -0.854  78.552 116.606  0.00  0.00    -0.090 HD
ATOM     21  H   LIG d   1      -1.046  80.177 116.686  0.00  0.00    -0.090 HD
ENDBRANCH   5  18
BRANCH   3  22
ATOM     22  C   LIG d   1      -2.915  78.196 112.368  0.00  0.00     0.382 C 
ATOM     23  O   LIG d   1      -3.782  77.579 113.032  0.00  0.00    -0.241 OA
ATOM     24  O   LIG d   1      -2.775  77.943 111.156  0.00  0.00    -0.241 OA
ENDBRANCH   3  22
TORSDOF 7
ENDMDL
MODEL 5
REMARK VINA RESULT:      -4.5      2.795      5.035
REMARK  7 active torsions:
REMARK  status: ('A' for Active; 'I' for Inactive)
REMARK    1  A    between atoms: C_2  and  C_3 
REMARK    2  A    between atoms: C_3  and  O_6 
REMARK    3  A    between atoms: C_3  and  C_4 
REMARK    4  A    between atoms: C_7  and  O_6 
REMARK    5  A    between atoms: C_9  and  C_10 
REMARK    6  A    between atoms: N_15  and  C_14 
REMARK    7  A    between atoms: N_20  and  C_19 
REMARK       I    between atoms: C_22  and  N_20 
ROOT
ATOM      1  C   LIG d   1       0.124  80.028 115.267  0.00  0.00     0.161 C 
ATOM      2  C   LIG d   1      -0.512  80.979 114.451  0.00  0.00     0.016 C 
ATOM      3  C   LIG d   1      -1.683  80.706 113.707  0.00  0.00     0.038 C 
ATOM      4  C   LIG d   1      -2.387  79.502 113.847  0.00  0.00     0.028 C 
ATOM      5  C   LIG d   1      -1.507  78.331 114.272  0.00  0.00    -0.047 C 
ATOM      6  C   LIG d   1      -0.692  78.743 115.520  0.00  0.00     0.091 C 
ENDROOT
BRANCH   1   7
ATOM      7  O   LIG d   1       0.503  80.634 116.519  0.00  0.00    -0.368 OA
BRANCH   7   8
ATOM      8  C   LIG d   1      -0.321  81.737 116.969  0.00  0.00     0.119 C 
BRANCH   8   9
ATOM      9  C   LIG d   1       0.619  82.812 117.549  0.00  0.00     0.028 C 
ATOM     10  C   LIG d   1      -0.128  83.840 118.414  0.00  0.00     0.006 C 
ENDBRANCH   8   9
BRANCH   8  11
ATOM     11  C   LIG d   1      -1.225  81.319 118.132  0.00  0.00     0.028 C 
ATOM     12  C   LIG d   1      -2.669  81.031 117.692  0.00  0.00     0.006 C 
ENDBRANCH   8  11
ENDBRANCH   7   8
ENDBRANCH   1   7
BRANCH   6  13
ATOM     13  N   LIG d   1       0.257  77.685 115.951  0.00  0.00    -0.311 N 
ATOM     14  C   LIG d   1      -0.020  76.794 116.903  0.00  0.00     0.210 C 
ATOM     15  C   LIG d   1       1.107  75.802 117.208  0.00  0.00     0.109 C 
ATOM     16  O   LIG d   1      -1.103  76.712 117.500  0.00  0.00    -0.276 OA
ATOM     17  H   LIG d   1       1.149  77.659 115.497  0.00  0.00     0.149 HD
ENDBRANCH   6  13
BRANCH   5  18
ATOM     18  N   LIG d   1      -2.390  77.174 114.514  0.00  0.00     0.381 N 
ATOM     19  H   LIG d   1      -2.807  76.881 113.654  0.00  0.00    -0.090 HD
ATOM     20  H   LIG d   1      -3.124  77.451 115.142  0.00  0.00    -0.090 HD
ATOM     21  H   LIG d   1      -1.868  76.424 114.911  0.00  0.00    -0.090 HD
ENDBRANCH   5  18
BRANCH   3  22
ATOM     22  C   LIG d   1      -2.138  81.631 112.780  0.00  0.00     0.382 C 
ATOM     23  O   LIG d   1      -3.350  81.651 112.456  0.00  0.00    -0.241 OA
ATOM     24  O   LIG d   1      -1.344  82.418 112.230  0.00  0.00    -0.241 OA
ENDBRANCH   3  22
TORSDOF 7
ENDMDL
MODEL 6
REMARK VINA RESULT:      -4.3      3.255      5.812
REMARK  7 active torsions:
REMARK  status: ('A' for Active; 'I' for Inactive)
REMARK    1  A    between atoms: C_2  and  C_3 
REMARK    2  A    between atoms: C_3  and  O_6 
REMARK    3  A    between atoms: C_3  and  C_4 
REMARK    4  A    between atoms: C_7  and  O_6 
REMARK    5  A    between atoms: C_9  and  C_10 
REMARK    6  A    between atoms: N_15  and  C_14 
REMARK    7  A    between atoms: N_20  and  C_19 
REMARK       I    between atoms: C_22  and  N_20 
ROOT
ATOM      1  C   LIG d   1      -2.876  79.545 116.181  0.00  0.00     0.161 C 
ATOM      2  C   LIG d   1      -2.868  80.508 115.158  0.00  0.00     0.016 C 
ATOM      3  C   LIG d   1      -2.192  80.333 113.929  0.00  0.00     0.038 C 
ATOM      4  C   LIG d   1      -1.599  79.112 113.576  0.00  0.00     0.028 C 
ATOM      5  C   LIG d   1      -1.148  78.288 114.778  0.00  0.00    -0.047 C 
ATOM      6  C   LIG d   1      -2.327  78.162 115.770  0.00  0.00     0.091 C 
ENDROOT
BRANCH   1   7
ATOM      7  O   LIG d   1      -4.205  79.416 116.721  0.00  0.00    -0.368 OA
BRANCH   7   8
ATOM      8  C   LIG d   1      -4.441  80.063 117.996  0.00  0.00     0.119 C 
BRANCH   8   9
ATOM      9  C   LIG d   1      -5.171  81.390 117.714  0.00  0.00     0.028 C 
ATOM     10  C   LIG d   1      -6.688  81.286 117.947  0.00  0.00     0.006 C 
ENDBRANCH   8   9
BRANCH   8  11
ATOM     11  C   LIG d   1      -3.124  80.460 118.671  0.00  0.00     0.028 C 
ATOM     12  C   LIG d   1      -3.071  81.951 119.041  0.00  0.00     0.006 C 
ENDBRANCH   8  11
ENDBRANCH   7   8
ENDBRANCH   1   7
BRANCH   6  13
ATOM     13  N   LIG d   1      -1.947  77.442 117.014  0.00  0.00    -0.311 N 
ATOM     14  C   LIG d   1      -2.649  76.429 117.518  0.00  0.00     0.210 C 
ATOM     15  C   LIG d   1      -2.093  75.841 118.819  0.00  0.00     0.109 C 
ATOM     16  O   LIG d   1      -3.662  75.941 116.995  0.00  0.00    -0.276 OA
ATOM     17  H   LIG d   1      -1.120  77.753 117.486  0.00  0.00     0.149 HD
ENDBRANCH   6  13
BRANCH   5  18
ATOM     18  N   LIG d   1      -0.676  76.985 114.274  0.00  0.00     0.381 N 
ATOM     19  H   LIG d   1       0.298  76.876 114.478  0.00  0.00    -0.090 HD
ATOM     20  H   LIG d   1      -0.793  76.961 113.276  0.00  0.00    -0.090 HD
ATOM     21  H   LIG d   1      -1.196  76.247 114.695  0.00  0.00    -0.090 HD
ENDBRANCH   5  18
BRANCH   3  22
ATOM     22  C   LIG d   1      -2.071  81.401 113.053  0.00  0.00     0.382 C 
ATOM     23  O   LIG d   1      -3.069  81.795 112.402  0.00  0.00    -0.241 OA
ATOM     24  O   LIG d   1      -0.966  81.947 112.872  0.00  0.00    -0.241 OA
ENDBRANCH   3  22
TORSDOF 7
ENDMDL
MODEL 7
REMARK VINA RESULT:      -4.3      3.206      6.090
REMARK  7 active torsions:
REMARK  status: ('A' for Active; 'I' for Inactive)
REMARK    1  A    between atoms: C_2  and  C_3 
REMARK    2  A    between atoms: C_3  and  O_6 
REMARK    3  A    between atoms: C_3  and  C_4 
REMARK    4  A    between atoms: C_7  and  O_6 
REMARK    5  A    between atoms: C_9  and  C_10 
REMARK    6  A    between atoms: N_15  and  C_14 
REMARK    7  A    between atoms: N_20  and  C_19 
REMARK       I    between atoms: C_22  and  N_20 
ROOT
ATOM      1  C   LIG d   1      -2.969  79.511 116.633  0.00  0.00     0.161 C 
ATOM      2  C   LIG d   1      -2.061  80.571 116.789  0.00  0.00     0.016 C 
ATOM      3  C   LIG d   1      -0.813  80.630 116.127  0.00  0.00     0.038 C 
ATOM      4  C   LIG d   1      -0.453  79.701 115.140  0.00  0.00     0.028 C 
ATOM      5  C   LIG d   1      -1.118  78.340 115.317  0.00  0.00    -0.047 C 
ATOM      6  C   LIG d   1      -2.642  78.544 115.476  0.00  0.00     0.091 C 
ENDROOT
BRANCH   1   7
ATOM      7  O   LIG d   1      -4.306  80.031 116.489  0.00  0.00    -0.368 OA
BRANCH   7   8
ATOM      8  C   LIG d   1      -5.037  80.259 117.718  0.00  0.00     0.119 C 
BRANCH   8   9
ATOM      9  C   LIG d   1      -6.244  79.301 117.725  0.00  0.00     0.028 C 
ATOM     10  C   LIG d   1      -5.886  77.912 118.280  0.00  0.00     0.006 C 
ENDBRANCH   8   9
BRANCH   8  11
ATOM     11  C   LIG d   1      -5.638  81.668 117.756  0.00  0.00     0.028 C 
ATOM     12  C   LIG d   1      -5.133  82.500 118.945  0.00  0.00     0.006 C 
ENDBRANCH   8  11
ENDBRANCH   7   8
ENDBRANCH   1   7
BRANCH   6  13
ATOM     13  N   LIG d   1      -3.360  77.269 115.738  0.00  0.00    -0.311 N 
ATOM     14  C   LIG d   1      -3.966  76.560 114.788  0.00  0.00     0.210 C 
ATOM     15  C   LIG d   1      -4.664  75.287 115.277  0.00  0.00     0.109 C 
ATOM     16  O   LIG d   1      -3.964  76.848 113.581  0.00  0.00    -0.276 OA
ATOM     17  H   LIG d   1      -3.384  76.946 116.686  0.00  0.00     0.149 HD
ENDBRANCH   6  13
BRANCH   5  18
ATOM     18  N   LIG d   1      -0.764  77.515 114.147  0.00  0.00     0.381 N 
ATOM     19  H   LIG d   1      -1.225  77.867 113.332  0.00  0.00    -0.090 HD
ATOM     20  H   LIG d   1      -1.078  76.574 114.306  0.00  0.00    -0.090 HD
ATOM     21  H   LIG d   1       0.223  77.525 114.009  0.00  0.00    -0.090 HD
ENDBRANCH   5  18
BRANCH   3  22
ATOM     22  C   LIG d   1       0.106  81.607 116.480  0.00  0.00     0.382 C 
ATOM     23  O   LIG d   1       0.919  82.040 115.627  0.00  0.00    -0.241 OA
ATOM     24  O   LIG d   1       0.163  82.028 117.651  0.00  0.00    -0.241 OA
ENDBRANCH   3  22
TORSDOF 7
ENDMDL
MODEL 8
REMARK VINA RESULT:      -4.2      1.884      5.036
REMARK  7 active torsions:
REMARK  status: ('A' for Active; 'I' for Inactive)
REMARK    1  A    between atoms: C_2  and  C_3 
REMARK    2  A    between atoms: C_3  and  O_6 
REMARK    3  A    between atoms: C_3  and  C_4 
REMARK    4  A    between atoms: C_7  and  O_6 
REMARK    5  A    between atoms: C_9  and  C_10 
REMARK    6  A    between atoms: N_15  and  C_14 
REMARK    7  A    between atoms: N_20  and  C_19 
REMARK       I    between atoms: C_22  and  N_20 
ROOT
ATOM      1  C   LIG d   1       0.432  81.105 113.368  0.00  0.00     0.161 C 
ATOM      2  C   LIG d   1       1.367  82.061 112.938  0.00  0.00     0.016 C 
ATOM      3  C   LIG d   1       1.631  82.333 111.575  0.00  0.00     0.038 C 
ATOM      4  C   LIG d   1       0.864  81.770 110.545  0.00  0.00     0.028 C 
ATOM      5  C   LIG d   1       0.251  80.423 110.912  0.00  0.00    -0.047 C 
ATOM      6  C   LIG d   1      -0.494  80.561 112.260  0.00  0.00     0.091 C 
ENDROOT
BRANCH   1   7
ATOM      7  O   LIG d   1      -0.349  81.640 114.455  0.00  0.00    -0.368 OA
BRANCH   7   8
ATOM      8  C   LIG d   1      -0.322  80.885 115.691  0.00  0.00     0.119 C 
BRANCH   8   9
ATOM      9  C   LIG d   1       0.089  81.854 116.817  0.00  0.00     0.028 C 
ATOM     10  C   LIG d   1       1.583  82.214 116.765  0.00  0.00     0.006 C 
ENDBRANCH   8   9
BRANCH   8  11
ATOM     11  C   LIG d   1       0.768  79.809 115.664  0.00  0.00     0.028 C 
ATOM     12  C   LIG d   1       0.301  78.473 116.262  0.00  0.00     0.006 C 
ENDBRANCH   8  11
ENDBRANCH   7   8
ENDBRANCH   1   7
BRANCH   6  13
ATOM     13  N   LIG d   1      -1.052  79.268 112.734  0.00  0.00    -0.311 N 
ATOM     14  C   LIG d   1      -2.305  79.122 113.159  0.00  0.00     0.210 C 
ATOM     15  C   LIG d   1      -2.671  77.709 113.623  0.00  0.00     0.109 C 
ATOM     16  O   LIG d   1      -3.159  80.022 113.165  0.00  0.00    -0.276 OA
ATOM     17  H   LIG d   1      -0.437  78.478 112.733  0.00  0.00     0.149 HD
ENDBRANCH   6  13
BRANCH   5  18
ATOM     18  N   LIG d   1      -0.632  80.018 109.802  0.00  0.00     0.381 N 
ATOM     19  H   LIG d   1      -1.130  80.814 109.458  0.00  0.00    -0.090 HD
ATOM     20  H   LIG d   1      -1.302  79.352 110.146  0.00  0.00    -0.090 HD
ATOM     21  H   LIG d   1      -0.094  79.610 109.070  0.00  0.00    -0.090 HD
ENDBRANCH   5  18
BRANCH   3  22
ATOM     22  C   LIG d   1       2.700  83.147 111.232  0.00  0.00     0.382 C 
ATOM     23  O   LIG d   1       2.911  84.207 111.868  0.00  0.00    -0.241 OA
ATOM     24  O   LIG d   1       3.430  82.856 110.265  0.00  0.00    -0.241 OA
ENDBRANCH   3  22
TORSDOF 7
ENDMDL
MODEL 9
REMARK VINA RESULT:      -4.0      3.161      6.001
REMARK  7 active torsions:
REMARK  status: ('A' for Active; 'I' for Inactive)
REMARK    1  A    between atoms: C_2  and  C_3 
REMARK    2  A    between atoms: C_3  and  O_6 
REMARK    3  A    between atoms: C_3  and  C_4 
REMARK    4  A    between atoms: C_7  and  O_6 
REMARK    5  A    between atoms: C_9  and  C_10 
REMARK    6  A    between atoms: N_15  and  C_14 
REMARK    7  A    between atoms: N_20  and  C_19 
REMARK       I    between atoms: C_22  and  N_20 
ROOT
ATOM      1  C   LIG d   1      -2.586  78.964 115.834  0.00  0.00     0.161 C 
ATOM      2  C   LIG d   1      -1.262  79.388 116.038  0.00  0.00     0.016 C 
ATOM      3  C   LIG d   1      -0.190  78.500 116.284  0.00  0.00     0.038 C 
ATOM      4  C   LIG d   1      -0.344  77.109 116.192  0.00  0.00     0.028 C 
ATOM      5  C   LIG d   1      -1.763  76.635 116.486  0.00  0.00    -0.047 C 
ATOM      6  C   LIG d   1      -2.753  77.446 115.619  0.00  0.00     0.091 C 
ENDROOT
BRANCH   1   7
ATOM      7  O   LIG d   1      -3.168  79.693 114.735  0.00  0.00    -0.368 OA
BRANCH   7   8
ATOM      8  C   LIG d   1      -2.334  79.848 113.560  0.00  0.00     0.119 C 
BRANCH   8   9
ATOM      9  C   LIG d   1      -2.467  81.309 113.087  0.00  0.00     0.028 C 
ATOM     10  C   LIG d   1      -1.201  81.812 112.372  0.00  0.00     0.006 C 
ENDBRANCH   8   9
BRANCH   8  11
ATOM     11  C   LIG d   1      -2.848  78.997 112.395  0.00  0.00     0.028 C 
ATOM     12  C   LIG d   1      -1.852  77.906 111.970  0.00  0.00     0.006 C 
ENDBRANCH   8  11
ENDBRANCH   7   8
ENDBRANCH   1   7
BRANCH   6  13
ATOM     13  N   LIG d   1      -4.170  77.104 115.906  0.00  0.00    -0.311 N 
ATOM     14  C   LIG d   1      -4.866  76.212 115.204  0.00  0.00     0.210 C 
ATOM     15  C   LIG d   1      -6.318  76.024 115.655  0.00  0.00     0.109 C 
ATOM     16  O   LIG d   1      -4.410  75.535 114.270  0.00  0.00    -0.276 OA
ATOM     17  H   LIG d   1      -4.610  77.583 116.667  0.00  0.00     0.149 HD
ENDBRANCH   6  13
BRANCH   5  18
ATOM     18  N   LIG d   1      -1.813  75.185 116.219  0.00  0.00     0.381 N 
ATOM     19  H   LIG d   1      -2.137  75.024 115.286  0.00  0.00    -0.090 HD
ATOM     20  H   LIG d   1      -2.463  74.760 116.857  0.00  0.00    -0.090 HD
ATOM     21  H   LIG d   1      -0.909  74.785 116.339  0.00  0.00    -0.090 HD
ENDBRANCH   5  18
BRANCH   3  22
ATOM     22  C   LIG d   1       1.044  79.002 116.667  0.00  0.00     0.382 C 
ATOM     23  O   LIG d   1       1.800  79.525 115.813  0.00  0.00    -0.241 OA
ATOM     24  O   LIG d   1       1.430  78.900 117.846  0.00  0.00    -0.241 OA
ENDBRANCH   3  22
TORSDOF 7
ENDMDL
