MODEL 1
REMARK VINA RESULT:      -6.0      0.000      0.000
REMARK  7 active torsions:
REMARK  status: ('A' for Active; 'I' for Inactive)
REMARK    1  A    between atoms: C_2  and  C_3 
REMARK    2  A    between atoms: C_3  and  O_6 
REMARK    3  A    between atoms: C_3  and  C_4 
REMARK    4  A    between atoms: C_7  and  O_6 
REMARK    5  A    between atoms: C_9  and  C_10 
REMARK    6  A    between atoms: N_15  and  C_14 
REMARK    7  A    between atoms: N_20  and  C_19 
REMARK       I    between atoms: C_22  and  N_20 
ROOT
ATOM      1  C   LIG d   1      -1.389  77.764 113.545  0.00  0.00     0.161 C 
ATOM      2  C   LIG d   1      -1.996  79.030 113.504  0.00  0.00     0.016 C 
ATOM      3  C   LIG d   1      -1.765  79.971 112.475  0.00  0.00     0.038 C 
ATOM      4  C   LIG d   1      -1.021  79.650 111.329  0.00  0.00     0.028 C 
ATOM      5  C   LIG d   1       0.021  78.562 111.569  0.00  0.00    -0.047 C 
ATOM      6  C   LIG d   1      -0.663  77.353 112.247  0.00  0.00     0.091 C 
ENDROOT
BRANCH   1   7
ATOM      7  O   LIG d   1      -2.364  76.767 113.911  0.00  0.00    -0.368 OA
BRANCH   7   8
ATOM      8  C   LIG d   1      -2.539  76.538 115.331  0.00  0.00     0.119 C 
BRANCH   8   9
ATOM      9  C   LIG d   1      -1.228  75.932 115.868  0.00  0.00     0.028 C 
ATOM     10  C   LIG d   1      -1.000  74.494 115.373  0.00  0.00     0.006 C 
ENDBRANCH   8   9
BRANCH   8  11
ATOM     11  C   LIG d   1      -3.614  75.480 115.596  0.00  0.00     0.028 C 
ATOM     12  C   LIG d   1      -4.769  75.537 114.584  0.00  0.00     0.006 C 
ENDBRANCH   8  11
ENDBRANCH   7   8
ENDBRANCH   1   7
BRANCH   6  13
ATOM     13  N   LIG d   1       0.303  76.277 112.594  0.00  0.00    -0.311 N 
ATOM     14  C   LIG d   1       0.594  75.264 111.780  0.00  0.00     0.210 C 
ATOM     15  C   LIG d   1       1.600  74.254 112.340  0.00  0.00     0.109 C 
ATOM     16  O   LIG d   1       0.140  75.123 110.635  0.00  0.00    -0.276 OA
ATOM     17  H   LIG d   1       0.742  76.330 113.492  0.00  0.00     0.149 HD
ENDBRANCH   6  13
BRANCH   5  18
ATOM     18  N   LIG d   1       0.625  78.229 110.266  0.00  0.00     0.381 N 
ATOM     19  H   LIG d   1       1.486  77.738 110.407  0.00  0.00    -0.090 HD
ATOM     20  H   LIG d   1       0.826  79.081 109.773  0.00  0.00    -0.090 HD
ATOM     21  H   LIG d   1      -0.002  77.668 109.733  0.00  0.00    -0.090 HD
ENDBRANCH   5  18
BRANCH   3  22
ATOM     22  C   LIG d   1      -2.247  81.265 112.605  0.00  0.00     0.382 C 
ATOM     23  O   LIG d   1      -3.396  81.462 113.069  0.00  0.00    -0.241 OA
ATOM     24  O   LIG d   1      -1.565  82.235 112.223  0.00  0.00    -0.241 OA
ENDBRANCH   3  22
TORSDOF 7
ENDMDL
MODEL 2
REMARK VINA RESULT:      -5.6      2.304      3.259
REMARK  7 active torsions:
REMARK  status: ('A' for Active; 'I' for Inactive)
REMARK    1  A    between atoms: C_2  and  C_3 
REMARK    2  A    between atoms: C_3  and  O_6 
REMARK    3  A    between atoms: C_3  and  C_4 
REMARK    4  A    between atoms: C_7  and  O_6 
REMARK    5  A    between atoms: C_9  and  C_10 
REMARK    6  A    between atoms: N_15  and  C_14 
REMARK    7  A    between atoms: N_20  and  C_19 
REMARK       I    between atoms: C_22  and  N_20 
ROOT
ATOM      1  C   LIG d   1      -2.843  78.339 115.330  0.00  0.00     0.161 C 
ATOM      2  C   LIG d   1      -2.994  79.504 114.560  0.00  0.00     0.016 C 
ATOM      3  C   LIG d   1      -2.221  79.782 113.409  0.00  0.00     0.038 C 
ATOM      4  C   LIG d   1      -1.341  78.837 112.861  0.00  0.00     0.028 C 
ATOM      5  C   LIG d   1      -0.789  77.855 113.889  0.00  0.00    -0.047 C 
ATOM      6  C   LIG d   1      -1.966  77.246 114.684  0.00  0.00     0.091 C 
ENDROOT
BRANCH   1   7
ATOM      7  O   LIG d   1      -4.138  77.807 115.670  0.00  0.00    -0.368 OA
BRANCH   7   8
ATOM      8  C   LIG d   1      -4.739  78.320 116.884  0.00  0.00     0.119 C 
BRANCH   8   9
ATOM      9  C   LIG d   1      -4.210  77.472 118.057  0.00  0.00     0.028 C 
ATOM     10  C   LIG d   1      -4.415  78.159 119.418  0.00  0.00     0.006 C 
ENDBRANCH   8   9
BRANCH   8  11
ATOM     11  C   LIG d   1      -6.257  78.112 116.886  0.00  0.00     0.028 C 
ATOM     12  C   LIG d   1      -6.666  76.710 116.406  0.00  0.00     0.006 C 
ENDBRANCH   8  11
ENDBRANCH   7   8
ENDBRANCH   1   7
BRANCH   6  13
ATOM     13  N   LIG d   1      -1.508  76.338 115.768  0.00  0.00    -0.311 N 
ATOM     14  C   LIG d   1      -1.290  75.036 115.590  0.00  0.00     0.210 C 
ATOM     15  C   LIG d   1      -0.841  74.278 116.843  0.00  0.00     0.109 C 
ATOM     16  O   LIG d   1      -1.394  74.443 114.505  0.00  0.00    -0.276 OA
ATOM     17  H   LIG d   1      -1.369  76.742 116.673  0.00  0.00     0.149 HD
ENDBRANCH   6  13
BRANCH   5  18
ATOM     18  N   LIG d   1       0.002  76.845 113.161  0.00  0.00     0.381 N 
ATOM     19  H   LIG d   1       0.196  77.170 112.235  0.00  0.00    -0.090 HD
ATOM     20  H   LIG d   1      -0.537  75.999 113.092  0.00  0.00    -0.090 HD
ATOM     21  H   LIG d   1       0.854  76.666 113.644  0.00  0.00    -0.090 HD
ENDBRANCH   5  18
BRANCH   3  22
ATOM     22  C   LIG d   1      -2.294  81.034 112.818  0.00  0.00     0.382 C 
ATOM     23  O   LIG d   1      -3.404  81.607 112.698  0.00  0.00    -0.241 OA
ATOM     24  O   LIG d   1      -1.271  81.579 112.362  0.00  0.00    -0.241 OA
ENDBRANCH   3  22
TORSDOF 7
ENDMDL
MODEL 3
REMARK VINA RESULT:      -5.2      2.561      4.236
REMARK  7 active torsions:
REMARK  status: ('A' for Active; 'I' for Inactive)
REMARK    1  A    between atoms: C_2  and  C_3 
REMARK    2  A    between atoms: C_3  and  O_6 
REMARK    3  A    between atoms: C_3  and  C_4 
REMARK    4  A    between atoms: C_7  and  O_6 
REMARK    5  A    between atoms: C_9  and  C_10 
REMARK    6  A    between atoms: N_15  and  C_14 
REMARK    7  A    between atoms: N_20  and  C_19 
REMARK       I    between atoms: C_22  and  N_20 
ROOT
ATOM      1  C   LIG d   1      -2.447  77.477 116.001  0.00  0.00     0.161 C 
ATOM      2  C   LIG d   1      -2.890  77.940 114.751  0.00  0.00     0.016 C 
ATOM      3  C   LIG d   1      -2.146  77.792 113.558  0.00  0.00     0.038 C 
ATOM      4  C   LIG d   1      -0.969  77.031 113.508  0.00  0.00     0.028 C 
ATOM      5  C   LIG d   1      -0.227  76.975 114.840  0.00  0.00    -0.047 C 
ATOM      6  C   LIG d   1      -1.217  76.547 115.948  0.00  0.00     0.091 C 
ENDROOT
BRANCH   1   7
ATOM      7  O   LIG d   1      -3.533  76.833 116.696  0.00  0.00    -0.368 OA
BRANCH   7   8
ATOM      8  C   LIG d   1      -4.728  76.581 115.917  0.00  0.00     0.119 C 
BRANCH   8   9
ATOM      9  C   LIG d   1      -5.941  76.916 116.807  0.00  0.00     0.028 C 
ATOM     10  C   LIG d   1      -6.174  78.430 116.936  0.00  0.00     0.006 C 
ENDBRANCH   8   9
BRANCH   8  11
ATOM     11  C   LIG d   1      -4.871  75.094 115.580  0.00  0.00     0.028 C 
ATOM     12  C   LIG d   1      -5.401  74.853 114.158  0.00  0.00     0.006 C 
ENDBRANCH   8  11
ENDBRANCH   7   8
ENDBRANCH   1   7
BRANCH   6  13
ATOM     13  N   LIG d   1      -0.593  76.549 117.297  0.00  0.00    -0.311 N 
ATOM     14  C   LIG d   1      -0.113  75.454 117.883  0.00  0.00     0.210 C 
ATOM     15  C   LIG d   1       0.470  75.673 119.283  0.00  0.00     0.109 C 
ATOM     16  O   LIG d   1      -0.086  74.327 117.364  0.00  0.00    -0.276 OA
ATOM     17  H   LIG d   1      -0.546  77.426 117.777  0.00  0.00     0.149 HD
ENDBRANCH   6  13
BRANCH   5  18
ATOM     18  N   LIG d   1       0.903  76.040 114.682  0.00  0.00     0.381 N 
ATOM     19  H   LIG d   1       1.216  75.732 115.581  0.00  0.00    -0.090 HD
ATOM     20  H   LIG d   1       1.661  76.520 114.230  0.00  0.00    -0.090 HD
ATOM     21  H   LIG d   1       0.623  75.256 114.134  0.00  0.00    -0.090 HD
ENDBRANCH   5  18
BRANCH   3  22
ATOM     22  C   LIG d   1      -2.559  78.442 112.405  0.00  0.00     0.382 C 
ATOM     23  O   LIG d   1      -2.744  79.683 112.418  0.00  0.00    -0.241 OA
ATOM     24  O   LIG d   1      -2.791  77.798 111.365  0.00  0.00    -0.241 OA
ENDBRANCH   3  22
TORSDOF 7
ENDMDL
MODEL 4
REMARK VINA RESULT:      -5.1      3.258      5.830
REMARK  7 active torsions:
REMARK  status: ('A' for Active; 'I' for Inactive)
REMARK    1  A    between atoms: C_2  and  C_3 
REMARK    2  A    between atoms: C_3  and  O_6 
REMARK    3  A    between atoms: C_3  and  C_4 
REMARK    4  A    between atoms: C_7  and  O_6 
REMARK    5  A    between atoms: C_9  and  C_10 
REMARK    6  A    between atoms: N_15  and  C_14 
REMARK    7  A    between atoms: N_20  and  C_19 
REMARK       I    between atoms: C_22  and  N_20 
ROOT
ATOM      1  C   LIG d   1      -2.879  78.180 115.561  0.00  0.00     0.161 C 
ATOM      2  C   LIG d   1      -1.572  78.439 116.004  0.00  0.00     0.016 C 
ATOM      3  C   LIG d   1      -0.719  77.445 116.535  0.00  0.00     0.038 C 
ATOM      4  C   LIG d   1      -1.064  76.085 116.518  0.00  0.00     0.028 C 
ATOM      5  C   LIG d   1      -2.569  75.842 116.545  0.00  0.00    -0.047 C 
ATOM      6  C   LIG d   1      -3.233  76.684 115.431  0.00  0.00     0.091 C 
ENDROOT
BRANCH   1   7
ATOM      7  O   LIG d   1      -3.116  78.861 114.312  0.00  0.00    -0.368 OA
BRANCH   7   8
ATOM      8  C   LIG d   1      -2.103  78.688 113.290  0.00  0.00     0.119 C 
BRANCH   8   9
ATOM      9  C   LIG d   1      -1.572  80.087 112.923  0.00  0.00     0.028 C 
ATOM     10  C   LIG d   1      -2.676  81.158 112.945  0.00  0.00     0.006 C 
ENDBRANCH   8   9
BRANCH   8  11
ATOM     11  C   LIG d   1      -2.706  78.130 111.997  0.00  0.00     0.028 C 
ATOM     12  C   LIG d   1      -1.673  77.997 110.867  0.00  0.00     0.006 C 
ENDBRANCH   8  11
ENDBRANCH   7   8
ENDBRANCH   1   7
BRANCH   6  13
ATOM     13  N   LIG d   1      -4.715  76.569 115.441  0.00  0.00    -0.311 N 
ATOM     14  C   LIG d   1      -5.391  75.730 114.659  0.00  0.00     0.210 C 
ATOM     15  C   LIG d   1      -6.914  75.786 114.814  0.00  0.00     0.109 C 
ATOM     16  O   LIG d   1      -4.873  74.921 113.875  0.00  0.00    -0.276 OA
ATOM     17  H   LIG d   1      -5.214  77.167 116.071  0.00  0.00     0.149 HD
ENDBRANCH   6  13
BRANCH   5  18
ATOM     18  N   LIG d   1      -2.790  74.393 116.384  0.00  0.00     0.381 N 
ATOM     19  H   LIG d   1      -2.571  74.119 115.446  0.00  0.00    -0.090 HD
ATOM     20  H   LIG d   1      -3.759  74.190 116.553  0.00  0.00    -0.090 HD
ATOM     21  H   LIG d   1      -2.220  73.888 117.026  0.00  0.00    -0.090 HD
ENDBRANCH   5  18
BRANCH   3  22
ATOM     22  C   LIG d   1       0.480  77.812 117.128  0.00  0.00     0.382 C 
ATOM     23  O   LIG d   1       0.873  79.002 117.062  0.00  0.00    -0.241 OA
ATOM     24  O   LIG d   1       1.194  76.961 117.689  0.00  0.00    -0.241 OA
ENDBRANCH   3  22
TORSDOF 7
ENDMDL
MODEL 5
REMARK VINA RESULT:      -5.1      2.378      4.081
REMARK  7 active torsions:
REMARK  status: ('A' for Active; 'I' for Inactive)
REMARK    1  A    between atoms: C_2  and  C_3 
REMARK    2  A    between atoms: C_3  and  O_6 
REMARK    3  A    between atoms: C_3  and  C_4 
REMARK    4  A    between atoms: C_7  and  O_6 
REMARK    5  A    between atoms: C_9  and  C_10 
REMARK    6  A    between atoms: N_15  and  C_14 
REMARK    7  A    between atoms: N_20  and  C_19 
REMARK       I    between atoms: C_22  and  N_20 
ROOT
ATOM      1  C   LIG d   1      -3.096  76.431 114.832  0.00  0.00     0.161 C 
ATOM      2  C   LIG d   1      -3.196  77.560 114.003  0.00  0.00     0.016 C 
ATOM      3  C   LIG d   1      -2.084  78.162 113.371  0.00  0.00     0.038 C 
ATOM      4  C   LIG d   1      -0.807  77.581 113.404  0.00  0.00     0.028 C 
ATOM      5  C   LIG d   1      -0.564  76.723 114.641  0.00  0.00    -0.047 C 
ATOM      6  C   LIG d   1      -1.728  75.717 114.791  0.00  0.00     0.091 C 
ENDROOT
BRANCH   1   7
ATOM      7  O   LIG d   1      -4.155  75.503 114.524  0.00  0.00    -0.368 OA
BRANCH   7   8
ATOM      8  C   LIG d   1      -5.168  75.330 115.544  0.00  0.00     0.119 C 
BRANCH   8   9
ATOM      9  C   LIG d   1      -6.541  75.365 114.845  0.00  0.00     0.028 C 
ATOM     10  C   LIG d   1      -6.449  75.877 113.397  0.00  0.00     0.006 C 
ENDBRANCH   8   9
BRANCH   8  11
ATOM     11  C   LIG d   1      -5.181  76.509 116.522  0.00  0.00     0.028 C 
ATOM     12  C   LIG d   1      -6.602  76.919 116.942  0.00  0.00     0.006 C 
ENDBRANCH   8  11
ENDBRANCH   7   8
ENDBRANCH   1   7
BRANCH   6  13
ATOM     13  N   LIG d   1      -1.612  74.895 116.023  0.00  0.00    -0.311 N 
ATOM     14  C   LIG d   1      -1.608  75.411 117.251  0.00  0.00     0.210 C 
ATOM     15  C   LIG d   1      -1.459  74.389 118.382  0.00  0.00     0.109 C 
ATOM     16  O   LIG d   1      -1.747  76.616 117.512  0.00  0.00    -0.276 OA
ATOM     17  H   LIG d   1      -1.527  73.904 115.905  0.00  0.00     0.149 HD
ENDBRANCH   6  13
BRANCH   5  18
ATOM     18  N   LIG d   1       0.748  76.069 114.480  0.00  0.00     0.381 N 
ATOM     19  H   LIG d   1       1.459  76.763 114.357  0.00  0.00    -0.090 HD
ATOM     20  H   LIG d   1       0.725  75.492 113.657  0.00  0.00    -0.090 HD
ATOM     21  H   LIG d   1       0.952  75.512 115.280  0.00  0.00    -0.090 HD
ENDBRANCH   5  18
BRANCH   3  22
ATOM     22  C   LIG d   1      -2.235  79.382 112.729  0.00  0.00     0.382 C 
ATOM     23  O   LIG d   1      -1.522  79.660 111.735  0.00  0.00    -0.241 OA
ATOM     24  O   LIG d   1      -3.045  80.225 113.158  0.00  0.00    -0.241 OA
ENDBRANCH   3  22
TORSDOF 7
ENDMDL
MODEL 6
REMARK VINA RESULT:      -4.9      3.056      4.685
REMARK  7 active torsions:
REMARK  status: ('A' for Active; 'I' for Inactive)
REMARK    1  A    between atoms: C_2  and  C_3 
REMARK    2  A    between atoms: C_3  and  O_6 
REMARK    3  A    between atoms: C_3  and  C_4 
REMARK    4  A    between atoms: C_7  and  O_6 
REMARK    5  A    between atoms: C_9  and  C_10 
REMARK    6  A    between atoms: N_15  and  C_14 
REMARK    7  A    between atoms: N_20  and  C_19 
REMARK       I    between atoms: C_22  and  N_20 
ROOT
ATOM      1  C   LIG d   1      -3.086  77.424 114.927  0.00  0.00     0.161 C 
ATOM      2  C   LIG d   1      -2.871  77.476 113.540  0.00  0.00     0.016 C 
ATOM      3  C   LIG d   1      -1.854  78.251 112.938  0.00  0.00     0.038 C 
ATOM      4  C   LIG d   1      -0.879  78.914 113.698  0.00  0.00     0.028 C 
ATOM      5  C   LIG d   1      -1.358  79.299 115.094  0.00  0.00    -0.047 C 
ATOM      6  C   LIG d   1      -1.963  78.052 115.779  0.00  0.00     0.091 C 
ENDROOT
BRANCH   1   7
ATOM      7  O   LIG d   1      -3.322  76.062 115.335  0.00  0.00    -0.368 OA
BRANCH   7   8
ATOM      8  C   LIG d   1      -4.686  75.730 115.692  0.00  0.00     0.119 C 
BRANCH   8   9
ATOM      9  C   LIG d   1      -5.310  74.986 114.496  0.00  0.00     0.028 C 
ATOM     10  C   LIG d   1      -6.479  75.762 113.867  0.00  0.00     0.006 C 
ENDBRANCH   8   9
BRANCH   8  11
ATOM     11  C   LIG d   1      -5.536  76.991 115.873  0.00  0.00     0.028 C 
ATOM     12  C   LIG d   1      -6.006  77.190 117.323  0.00  0.00     0.006 C 
ENDBRANCH   8  11
ENDBRANCH   7   8
ENDBRANCH   1   7
BRANCH   6  13
ATOM     13  N   LIG d   1      -2.532  78.360 117.117  0.00  0.00    -0.311 N 
ATOM     14  C   LIG d   1      -2.333  77.599 118.191  0.00  0.00     0.210 C 
ATOM     15  C   LIG d   1      -3.027  78.087 119.467  0.00  0.00     0.109 C 
ATOM     16  O   LIG d   1      -1.621  76.584 118.217  0.00  0.00    -0.276 OA
ATOM     17  H   LIG d   1      -3.097  79.184 117.193  0.00  0.00     0.149 HD
ENDBRANCH   6  13
BRANCH   5  18
ATOM     18  N   LIG d   1      -0.203  79.856 115.824  0.00  0.00     0.381 N 
ATOM     19  H   LIG d   1       0.467  79.134 116.000  0.00  0.00    -0.090 HD
ATOM     20  H   LIG d   1      -0.519  80.215 116.707  0.00  0.00    -0.090 HD
ATOM     21  H   LIG d   1       0.217  80.586 115.291  0.00  0.00    -0.090 HD
ENDBRANCH   5  18
BRANCH   3  22
ATOM     22  C   LIG d   1      -1.828  78.401 111.560  0.00  0.00     0.382 C 
ATOM     23  O   LIG d   1      -2.519  77.647 110.834  0.00  0.00    -0.241 OA
ATOM     24  O   LIG d   1      -1.090  79.253 111.031  0.00  0.00    -0.241 OA
ENDBRANCH   3  22
TORSDOF 7
ENDMDL
MODEL 7
REMARK VINA RESULT:      -4.7      2.542      4.703
REMARK  7 active torsions:
REMARK  status: ('A' for Active; 'I' for Inactive)
REMARK    1  A    between atoms: C_2  and  C_3 
REMARK    2  A    between atoms: C_3  and  O_6 
REMARK    3  A    between atoms: C_3  and  C_4 
REMARK    4  A    between atoms: C_7  and  O_6 
REMARK    5  A    between atoms: C_9  and  C_10 
REMARK    6  A    between atoms: N_15  and  C_14 
REMARK    7  A    between atoms: N_20  and  C_19 
REMARK       I    between atoms: C_22  and  N_20 
ROOT
ATOM      1  C   LIG d   1      -2.021  76.595 114.753  0.00  0.00     0.161 C 
ATOM      2  C   LIG d   1      -1.901  76.434 116.143  0.00  0.00     0.016 C 
ATOM      3  C   LIG d   1      -1.108  77.275 116.958  0.00  0.00     0.038 C 
ATOM      4  C   LIG d   1      -0.497  78.433 116.455  0.00  0.00     0.028 C 
ATOM      5  C   LIG d   1      -0.178  78.352 114.966  0.00  0.00    -0.047 C 
ATOM      6  C   LIG d   1      -1.451  77.919 114.203  0.00  0.00     0.091 C 
ENDROOT
BRANCH   1   7
ATOM      7  O   LIG d   1      -3.399  76.442 114.360  0.00  0.00    -0.368 OA
BRANCH   7   8
ATOM      8  C   LIG d   1      -4.288  75.885 115.360  0.00  0.00     0.119 C 
BRANCH   8   9
ATOM      9  C   LIG d   1      -5.076  74.741 114.693  0.00  0.00     0.028 C 
ATOM     10  C   LIG d   1      -6.349  74.372 115.473  0.00  0.00     0.006 C 
ENDBRANCH   8   9
BRANCH   8  11
ATOM     11  C   LIG d   1      -5.345  76.905 115.795  0.00  0.00     0.028 C 
ATOM     12  C   LIG d   1      -5.132  77.408 117.231  0.00  0.00     0.006 C 
ENDBRANCH   8  11
ENDBRANCH   7   8
ENDBRANCH   1   7
BRANCH   6  13
ATOM     13  N   LIG d   1      -1.205  77.734 112.749  0.00  0.00    -0.311 N 
ATOM     14  C   LIG d   1      -1.425  78.683 111.841  0.00  0.00     0.210 C 
ATOM     15  C   LIG d   1      -1.124  78.277 110.395  0.00  0.00     0.109 C 
ATOM     16  O   LIG d   1      -1.810  79.833 112.100  0.00  0.00    -0.276 OA
ATOM     17  H   LIG d   1      -0.861  76.840 112.455  0.00  0.00     0.149 HD
ENDBRANCH   6  13
BRANCH   5  18
ATOM     18  N   LIG d   1       0.327  79.673 114.546  0.00  0.00     0.381 N 
ATOM     19  H   LIG d   1       1.327  79.683 114.590  0.00  0.00    -0.090 HD
ATOM     20  H   LIG d   1      -0.023  80.371 115.177  0.00  0.00    -0.090 HD
ATOM     21  H   LIG d   1       0.027  79.873 113.617  0.00  0.00    -0.090 HD
ENDBRANCH   5  18
BRANCH   3  22
ATOM     22  C   LIG d   1      -0.887  76.937 118.284  0.00  0.00     0.382 C 
ATOM     23  O   LIG d   1      -1.477  77.563 119.197  0.00  0.00    -0.241 OA
ATOM     24  O   LIG d   1      -0.072  76.043 118.581  0.00  0.00    -0.241 OA
ENDBRANCH   3  22
TORSDOF 7
ENDMDL
MODEL 8
REMARK VINA RESULT:      -4.5      4.155      7.284
REMARK  7 active torsions:
REMARK  status: ('A' for Active; 'I' for Inactive)
REMARK    1  A    between atoms: C_2  and  C_3 
REMARK    2  A    between atoms: C_3  and  O_6 
REMARK    3  A    between atoms: C_3  and  C_4 
REMARK    4  A    between atoms: C_7  and  O_6 
REMARK    5  A    between atoms: C_9  and  C_10 
REMARK    6  A    between atoms: N_15  and  C_14 
REMARK    7  A    between atoms: N_20  and  C_19 
REMARK       I    between atoms: C_22  and  N_20 
ROOT
ATOM      1  C   LIG d   1      -3.820  77.898 116.050  0.00  0.00     0.161 C 
ATOM      2  C   LIG d   1      -4.250  76.790 115.302  0.00  0.00     0.016 C 
ATOM      3  C   LIG d   1      -5.502  76.162 115.490  0.00  0.00     0.038 C 
ATOM      4  C   LIG d   1      -6.480  76.697 116.342  0.00  0.00     0.028 C 
ATOM      5  C   LIG d   1      -5.899  77.520 117.487  0.00  0.00    -0.047 C 
ATOM      6  C   LIG d   1      -4.917  78.564 116.907  0.00  0.00     0.091 C 
ENDROOT
BRANCH   1   7
ATOM      7  O   LIG d   1      -3.207  78.869 115.179  0.00  0.00    -0.368 OA
BRANCH   7   8
ATOM      8  C   LIG d   1      -2.403  78.337 114.098  0.00  0.00     0.119 C 
BRANCH   8   9
ATOM      9  C   LIG d   1      -0.927  78.436 114.527  0.00  0.00     0.028 C 
ATOM     10  C   LIG d   1      -0.323  77.064 114.874  0.00  0.00     0.006 C 
ENDBRANCH   8   9
BRANCH   8  11
ATOM     11  C   LIG d   1      -2.518  79.202 112.839  0.00  0.00     0.028 C 
ATOM     12  C   LIG d   1      -1.739  80.522 112.950  0.00  0.00     0.006 C 
ENDBRANCH   8  11
ENDBRANCH   7   8
ENDBRANCH   1   7
BRANCH   6  13
ATOM     13  N   LIG d   1      -4.241  79.356 117.968  0.00  0.00    -0.311 N 
ATOM     14  C   LIG d   1      -4.732  80.492 118.460  0.00  0.00     0.210 C 
ATOM     15  C   LIG d   1      -3.866  81.160 119.533  0.00  0.00     0.109 C 
ATOM     16  O   LIG d   1      -5.818  80.993 118.133  0.00  0.00    -0.276 OA
ATOM     17  H   LIG d   1      -3.369  79.005 118.313  0.00  0.00     0.149 HD
ENDBRANCH   6  13
BRANCH   5  18
ATOM     18  N   LIG d   1      -7.029  78.130 118.214  0.00  0.00     0.381 N 
ATOM     19  H   LIG d   1      -7.758  78.365 117.571  0.00  0.00    -0.090 HD
ATOM     20  H   LIG d   1      -6.713  78.976 118.655  0.00  0.00    -0.090 HD
ATOM     21  H   LIG d   1      -7.373  77.497 118.902  0.00  0.00    -0.090 HD
ENDBRANCH   5  18
BRANCH   3  22
ATOM     22  C   LIG d   1      -5.772  74.962 114.850  0.00  0.00     0.382 C 
ATOM     23  O   LIG d   1      -6.634  74.180 115.320  0.00  0.00    -0.241 OA
ATOM     24  O   LIG d   1      -5.134  74.630 113.833  0.00  0.00    -0.241 OA
ENDBRANCH   3  22
TORSDOF 7
ENDMDL
MODEL 9
REMARK VINA RESULT:      -4.4      3.185      4.359
REMARK  7 active torsions:
REMARK  status: ('A' for Active; 'I' for Inactive)
REMARK    1  A    between atoms: C_2  and  C_3 
REMARK    2  A    between atoms: C_3  and  O_6 
REMARK    3  A    between atoms: C_3  and  C_4 
REMARK    4  A    between atoms: C_7  and  O_6 
REMARK    5  A    between atoms: C_9  and  C_10 
REMARK    6  A    between atoms: N_15  and  C_14 
REMARK    7  A    between atoms: N_20  and  C_19 
REMARK       I    between atoms: C_22  and  N_20 
ROOT
ATOM      1  C   LIG d   1      -1.615  78.435 115.369  0.00  0.00     0.161 C 
ATOM      2  C   LIG d   1      -2.277  77.909 114.247  0.00  0.00     0.016 C 
ATOM      3  C   LIG d   1      -1.943  78.249 112.916  0.00  0.00     0.038 C 
ATOM      4  C   LIG d   1      -0.818  79.029 112.611  0.00  0.00     0.028 C 
ATOM      5  C   LIG d   1      -0.425  79.990 113.728  0.00  0.00    -0.047 C 
ATOM      6  C   LIG d   1      -0.314  79.201 115.052  0.00  0.00     0.091 C 
ENDROOT
BRANCH   1   7
ATOM      7  O   LIG d   1      -1.359  77.385 116.323  0.00  0.00    -0.368 OA
BRANCH   7   8
ATOM      8  C   LIG d   1      -2.473  76.507 116.619  0.00  0.00     0.119 C 
BRANCH   8   9
ATOM      9  C   LIG d   1      -2.845  76.714 118.100  0.00  0.00     0.028 C 
ATOM     10  C   LIG d   1      -4.125  77.549 118.273  0.00  0.00     0.006 C 
ENDBRANCH   8   9
BRANCH   8  11
ATOM     11  C   LIG d   1      -2.068  75.035 116.504  0.00  0.00     0.028 C 
ATOM     12  C   LIG d   1      -1.660  74.422 117.853  0.00  0.00     0.006 C 
ENDBRANCH   8  11
ENDBRANCH   7   8
ENDBRANCH   1   7
BRANCH   6  13
ATOM     13  N   LIG d   1      -0.015  80.080 116.213  0.00  0.00    -0.311 N 
ATOM     14  C   LIG d   1       0.836  79.751 117.182  0.00  0.00     0.210 C 
ATOM     15  C   LIG d   1       0.983  80.793 118.296  0.00  0.00     0.109 C 
ATOM     16  O   LIG d   1       1.509  78.709 117.209  0.00  0.00    -0.276 OA
ATOM     17  H   LIG d   1      -0.494  80.959 116.254  0.00  0.00     0.149 HD
ENDBRANCH   6  13
BRANCH   5  18
ATOM     18  N   LIG d   1       0.839  80.639 113.333  0.00  0.00     0.381 N 
ATOM     19  H   LIG d   1       0.646  81.447 112.776  0.00  0.00    -0.090 HD
ATOM     20  H   LIG d   1       1.376  79.995 112.780  0.00  0.00    -0.090 HD
ATOM     21  H   LIG d   1       1.355  80.902 114.144  0.00  0.00    -0.090 HD
ENDBRANCH   5  18
BRANCH   3  22
ATOM     22  C   LIG d   1      -2.763  77.840 111.876  0.00  0.00     0.382 C 
ATOM     23  O   LIG d   1      -3.972  77.585 112.094  0.00  0.00    -0.241 OA
ATOM     24  O   LIG d   1      -2.299  77.680 110.731  0.00  0.00    -0.241 OA
ENDBRANCH   3  22
TORSDOF 7
ENDMDL
