MODEL 1
REMARK VINA RESULT:      -4.9      0.000      0.000
REMARK  7 active torsions:
REMARK  status: ('A' for Active; 'I' for Inactive)
REMARK    1  A    between atoms: C_2  and  C_3 
REMARK    2  A    between atoms: C_3  and  O_6 
REMARK    3  A    between atoms: C_3  and  C_4 
REMARK    4  A    between atoms: C_7  and  O_6 
REMARK    5  A    between atoms: C_9  and  C_10 
REMARK    6  A    between atoms: N_15  and  C_14 
REMARK    7  A    between atoms: N_20  and  C_19 
REMARK       I    between atoms: C_22  and  N_20 
ROOT
ATOM      1  C   LIG d   1      -3.305  77.725 115.614  0.00  0.00     0.161 C 
ATOM      2  C   LIG d   1      -3.283  78.711 114.613  0.00  0.00     0.016 C 
ATOM      3  C   LIG d   1      -2.341  78.729 113.559  0.00  0.00     0.038 C 
ATOM      4  C   LIG d   1      -1.445  77.670 113.347  0.00  0.00     0.028 C 
ATOM      5  C   LIG d   1      -1.097  76.907 114.621  0.00  0.00    -0.047 C 
ATOM      6  C   LIG d   1      -2.406  76.502 115.336  0.00  0.00     0.091 C 
ENDROOT
BRANCH   1   7
ATOM      7  O   LIG d   1      -4.662  77.305 115.856  0.00  0.00    -0.368 OA
BRANCH   7   8
ATOM      8  C   LIG d   1      -5.190  77.582 117.176  0.00  0.00     0.119 C 
BRANCH   8   9
ATOM      9  C   LIG d   1      -6.660  77.120 117.194  0.00  0.00     0.028 C 
ATOM     10  C   LIG d   1      -6.859  75.768 116.489  0.00  0.00     0.006 C 
ENDBRANCH   8   9
BRANCH   8  11
ATOM     11  C   LIG d   1      -5.234  79.088 117.454  0.00  0.00     0.028 C 
ATOM     12  C   LIG d   1      -6.563  79.539 118.080  0.00  0.00     0.006 C 
ENDBRANCH   8  11
ENDBRANCH   7   8
ENDBRANCH   1   7
BRANCH   6  13
ATOM     13  N   LIG d   1      -2.156  75.824 116.635  0.00  0.00    -0.311 N 
ATOM     14  C   LIG d   1      -2.837  74.757 117.049  0.00  0.00     0.210 C 
ATOM     15  C   LIG d   1      -2.433  74.226 118.428  0.00  0.00     0.109 C 
ATOM     16  O   LIG d   1      -3.716  74.180 116.390  0.00  0.00    -0.276 OA
ATOM     17  H   LIG d   1      -1.439  76.208 117.219  0.00  0.00     0.149 HD
ENDBRANCH   6  13
BRANCH   5  18
ATOM     18  N   LIG d   1      -0.268  75.750 114.235  0.00  0.00     0.381 N 
ATOM     19  H   LIG d   1       0.655  75.856 114.607  0.00  0.00    -0.090 HD
ATOM     20  H   LIG d   1      -0.202  75.717 113.233  0.00  0.00    -0.090 HD
ATOM     21  H   LIG d   1      -0.676  74.908 114.576  0.00  0.00    -0.090 HD
ENDBRANCH   5  18
BRANCH   3  22
ATOM     22  C   LIG d   1      -2.263  79.834 112.726  0.00  0.00     0.382 C 
ATOM     23  O   LIG d   1      -3.164  80.706 112.755  0.00  0.00    -0.241 OA
ATOM     24  O   LIG d   1      -1.325  79.949 111.914  0.00  0.00    -0.241 OA
ENDBRANCH   3  22
TORSDOF 7
ENDMDL
MODEL 2
REMARK VINA RESULT:      -4.8      1.274      2.043
REMARK  7 active torsions:
REMARK  status: ('A' for Active; 'I' for Inactive)
REMARK    1  A    between atoms: C_2  and  C_3 
REMARK    2  A    between atoms: C_3  and  O_6 
REMARK    3  A    between atoms: C_3  and  C_4 
REMARK    4  A    between atoms: C_7  and  O_6 
REMARK    5  A    between atoms: C_9  and  C_10 
REMARK    6  A    between atoms: N_15  and  C_14 
REMARK    7  A    between atoms: N_20  and  C_19 
REMARK       I    between atoms: C_22  and  N_20 
ROOT
ATOM      1  C   LIG d   1      -2.198  77.453 116.608  0.00  0.00     0.161 C 
ATOM      2  C   LIG d   1      -2.369  78.291 115.493  0.00  0.00     0.016 C 
ATOM      3  C   LIG d   1      -1.878  77.981 114.204  0.00  0.00     0.038 C 
ATOM      4  C   LIG d   1      -1.310  76.733 113.907  0.00  0.00     0.028 C 
ATOM      5  C   LIG d   1      -0.664  76.060 115.113  0.00  0.00    -0.047 C 
ATOM      6  C   LIG d   1      -1.678  76.038 116.279  0.00  0.00     0.091 C 
ENDROOT
BRANCH   1   7
ATOM      7  O   LIG d   1      -3.428  77.375 117.354  0.00  0.00    -0.368 OA
BRANCH   7   8
ATOM      8  C   LIG d   1      -4.602  77.925 116.707  0.00  0.00     0.119 C 
BRANCH   8   9
ATOM      9  C   LIG d   1      -5.209  78.971 117.662  0.00  0.00     0.028 C 
ATOM     10  C   LIG d   1      -6.735  78.828 117.796  0.00  0.00     0.006 C 
ENDBRANCH   8   9
BRANCH   8  11
ATOM     11  C   LIG d   1      -5.689  76.862 116.526  0.00  0.00     0.028 C 
ATOM     12  C   LIG d   1      -5.365  75.863 115.404  0.00  0.00     0.006 C 
ENDBRANCH   8  11
ENDBRANCH   7   8
ENDBRANCH   1   7
BRANCH   6  13
ATOM     13  N   LIG d   1      -1.098  75.472 117.525  0.00  0.00    -0.311 N 
ATOM     14  C   LIG d   1      -1.752  74.628 118.321  0.00  0.00     0.210 C 
ATOM     15  C   LIG d   1      -0.978  74.180 119.565  0.00  0.00     0.109 C 
ATOM     16  O   LIG d   1      -2.889  74.183 118.099  0.00  0.00    -0.276 OA
ATOM     17  H   LIG d   1      -0.168  75.755 117.765  0.00  0.00     0.149 HD
ENDBRANCH   6  13
BRANCH   5  18
ATOM     18  N   LIG d   1      -0.236  74.712 114.694  0.00  0.00     0.381 N 
ATOM     19  H   LIG d   1      -0.842  74.024 115.094  0.00  0.00    -0.090 HD
ATOM     20  H   LIG d   1       0.696  74.546 115.034  0.00  0.00    -0.090 HD
ATOM     21  H   LIG d   1      -0.252  74.642 113.701  0.00  0.00    -0.090 HD
ENDBRANCH   5  18
BRANCH   3  22
ATOM     22  C   LIG d   1      -1.918  78.941 113.204  0.00  0.00     0.382 C 
ATOM     23  O   LIG d   1      -0.871  79.550 112.879  0.00  0.00    -0.241 OA
ATOM     24  O   LIG d   1      -2.996  79.237 112.655  0.00  0.00    -0.241 OA
ENDBRANCH   3  22
TORSDOF 7
ENDMDL
MODEL 3
REMARK VINA RESULT:      -4.6      1.862      2.573
REMARK  7 active torsions:
REMARK  status: ('A' for Active; 'I' for Inactive)
REMARK    1  A    between atoms: C_2  and  C_3 
REMARK    2  A    between atoms: C_3  and  O_6 
REMARK    3  A    between atoms: C_3  and  C_4 
REMARK    4  A    between atoms: C_7  and  O_6 
REMARK    5  A    between atoms: C_9  and  C_10 
REMARK    6  A    between atoms: N_15  and  C_14 
REMARK    7  A    between atoms: N_20  and  C_19 
REMARK       I    between atoms: C_22  and  N_20 
ROOT
ATOM      1  C   LIG d   1      -2.571  76.650 116.613  0.00  0.00     0.161 C 
ATOM      2  C   LIG d   1      -2.694  77.578 115.565  0.00  0.00     0.016 C 
ATOM      3  C   LIG d   1      -1.925  77.522 114.381  0.00  0.00     0.038 C 
ATOM      4  C   LIG d   1      -1.080  76.438 114.096  0.00  0.00     0.028 C 
ATOM      5  C   LIG d   1      -0.547  75.742 115.344  0.00  0.00    -0.047 C 
ATOM      6  C   LIG d   1      -1.734  75.399 116.273  0.00  0.00     0.091 C 
ENDROOT
BRANCH   1   7
ATOM      7  O   LIG d   1      -3.878  76.267 117.083  0.00  0.00    -0.368 OA
BRANCH   7   8
ATOM      8  C   LIG d   1      -4.913  76.162 116.074  0.00  0.00     0.119 C 
BRANCH   8   9
ATOM      9  C   LIG d   1      -6.181  76.830 116.639  0.00  0.00     0.028 C 
ATOM     10  C   LIG d   1      -5.886  78.193 117.289  0.00  0.00     0.006 C 
ENDBRANCH   8   9
BRANCH   8  11
ATOM     11  C   LIG d   1      -5.301  74.701 115.824  0.00  0.00     0.028 C 
ATOM     12  C   LIG d   1      -6.446  74.226 116.732  0.00  0.00     0.006 C 
ENDBRANCH   8  11
ENDBRANCH   7   8
ENDBRANCH   1   7
BRANCH   6  13
ATOM     13  N   LIG d   1      -1.293  74.790 117.555  0.00  0.00    -0.311 N 
ATOM     14  C   LIG d   1      -0.414  75.364 118.374  0.00  0.00     0.210 C 
ATOM     15  C   LIG d   1      -0.083  74.558 119.634  0.00  0.00     0.109 C 
ATOM     16  O   LIG d   1       0.099  76.478 118.193  0.00  0.00    -0.276 OA
ATOM     17  H   LIG d   1      -1.684  73.900 117.796  0.00  0.00     0.149 HD
ENDBRANCH   6  13
BRANCH   5  18
ATOM     18  N   LIG d   1       0.204  74.552 114.903  0.00  0.00     0.381 N 
ATOM     19  H   LIG d   1      -0.399  73.753 114.896  0.00  0.00    -0.090 HD
ATOM     20  H   LIG d   1       0.950  74.378 115.554  0.00  0.00    -0.090 HD
ATOM     21  H   LIG d   1       0.578  74.703 113.992  0.00  0.00    -0.090 HD
ENDBRANCH   5  18
BRANCH   3  22
ATOM     22  C   LIG d   1      -1.966  78.578 113.483  0.00  0.00     0.382 C 
ATOM     23  O   LIG d   1      -3.009  78.796 112.820  0.00  0.00    -0.241 OA
ATOM     24  O   LIG d   1      -0.960  79.288 113.296  0.00  0.00    -0.241 OA
ENDBRANCH   3  22
TORSDOF 7
ENDMDL
MODEL 4
REMARK VINA RESULT:      -4.6      3.326      4.676
REMARK  7 active torsions:
REMARK  status: ('A' for Active; 'I' for Inactive)
REMARK    1  A    between atoms: C_2  and  C_3 
REMARK    2  A    between atoms: C_3  and  O_6 
REMARK    3  A    between atoms: C_3  and  C_4 
REMARK    4  A    between atoms: C_7  and  O_6 
REMARK    5  A    between atoms: C_9  and  C_10 
REMARK    6  A    between atoms: N_15  and  C_14 
REMARK    7  A    between atoms: N_20  and  C_19 
REMARK       I    between atoms: C_22  and  N_20 
ROOT
ATOM      1  C   LIG d   1      -1.235  77.759 115.978  0.00  0.00     0.161 C 
ATOM      2  C   LIG d   1      -2.593  77.541 115.693  0.00  0.00     0.016 C 
ATOM      3  C   LIG d   1      -3.257  76.321 115.955  0.00  0.00     0.038 C 
ATOM      4  C   LIG d   1      -2.641  75.279 116.665  0.00  0.00     0.028 C 
ATOM      5  C   LIG d   1      -1.123  75.265 116.524  0.00  0.00    -0.047 C 
ATOM      6  C   LIG d   1      -0.575  76.673 116.854  0.00  0.00     0.091 C 
ENDROOT
BRANCH   1   7
ATOM      7  O   LIG d   1      -1.064  79.058 116.578  0.00  0.00    -0.368 OA
BRANCH   7   8
ATOM      8  C   LIG d   1      -0.955  79.084 118.022  0.00  0.00     0.119 C 
BRANCH   8   9
ATOM      9  C   LIG d   1      -2.328  79.503 118.583  0.00  0.00     0.028 C 
ATOM     10  C   LIG d   1      -3.040  78.351 119.312  0.00  0.00     0.006 C 
ENDBRANCH   8   9
BRANCH   8  11
ATOM     11  C   LIG d   1       0.021  80.168 118.488  0.00  0.00     0.028 C 
ATOM     12  C   LIG d   1      -0.687  81.460 118.925  0.00  0.00     0.006 C 
ENDBRANCH   8  11
ENDBRANCH   7   8
ENDBRANCH   1   7
BRANCH   6  13
ATOM     13  N   LIG d   1       0.895  76.769 116.659  0.00  0.00    -0.311 N 
ATOM     14  C   LIG d   1       1.777  76.609 117.644  0.00  0.00     0.210 C 
ATOM     15  C   LIG d   1       3.243  76.770 117.231  0.00  0.00     0.109 C 
ATOM     16  O   LIG d   1       1.486  76.318 118.814  0.00  0.00    -0.276 OA
ATOM     17  H   LIG d   1       1.220  76.972 115.734  0.00  0.00     0.149 HD
ENDBRANCH   6  13
BRANCH   5  18
ATOM     18  N   LIG d   1      -0.601  74.218 117.422  0.00  0.00     0.381 N 
ATOM     19  H   LIG d   1      -1.119  74.217 118.278  0.00  0.00    -0.090 HD
ATOM     20  H   LIG d   1       0.359  74.421 117.635  0.00  0.00    -0.090 HD
ATOM     21  H   LIG d   1      -0.671  73.326 116.983  0.00  0.00    -0.090 HD
ENDBRANCH   5  18
BRANCH   3  22
ATOM     22  C   LIG d   1      -4.540  76.118 115.470  0.00  0.00     0.382 C 
ATOM     23  O   LIG d   1      -5.410  75.587 116.202  0.00  0.00    -0.241 OA
ATOM     24  O   LIG d   1      -4.827  76.420 114.296  0.00  0.00    -0.241 OA
ENDBRANCH   3  22
TORSDOF 7
ENDMDL
MODEL 5
REMARK VINA RESULT:      -4.5      2.164      2.766
REMARK  7 active torsions:
REMARK  status: ('A' for Active; 'I' for Inactive)
REMARK    1  A    between atoms: C_2  and  C_3 
REMARK    2  A    between atoms: C_3  and  O_6 
REMARK    3  A    between atoms: C_3  and  C_4 
REMARK    4  A    between atoms: C_7  and  O_6 
REMARK    5  A    between atoms: C_9  and  C_10 
REMARK    6  A    between atoms: N_15  and  C_14 
REMARK    7  A    between atoms: N_20  and  C_19 
REMARK       I    between atoms: C_22  and  N_20 
ROOT
ATOM      1  C   LIG d   1      -2.498  75.572 116.633  0.00  0.00     0.161 C 
ATOM      2  C   LIG d   1      -2.965  76.450 115.640  0.00  0.00     0.016 C 
ATOM      3  C   LIG d   1      -2.179  76.873 114.544  0.00  0.00     0.038 C 
ATOM      4  C   LIG d   1      -0.915  76.324 114.281  0.00  0.00     0.028 C 
ATOM      5  C   LIG d   1      -0.205  75.815 115.531  0.00  0.00    -0.047 C 
ATOM      6  C   LIG d   1      -1.160  74.876 116.303  0.00  0.00     0.091 C 
ENDROOT
BRANCH   1   7
ATOM      7  O   LIG d   1      -3.511  74.592 116.934  0.00  0.00    -0.368 OA
BRANCH   7   8
ATOM      8  C   LIG d   1      -4.276  74.818 118.144  0.00  0.00     0.119 C 
BRANCH   8   9
ATOM      9  C   LIG d   1      -5.704  75.213 117.722  0.00  0.00     0.028 C 
ATOM     10  C   LIG d   1      -6.192  74.426 116.494  0.00  0.00     0.006 C 
ENDBRANCH   8   9
BRANCH   8  11
ATOM     11  C   LIG d   1      -3.738  76.019 118.927  0.00  0.00     0.028 C 
ATOM     12  C   LIG d   1      -4.758  76.582 119.930  0.00  0.00     0.006 C 
ENDBRANCH   8  11
ENDBRANCH   7   8
ENDBRANCH   1   7
BRANCH   6  13
ATOM     13  N   LIG d   1      -0.574  74.400 117.583  0.00  0.00    -0.311 N 
ATOM     14  C   LIG d   1      -0.147  75.218 118.544  0.00  0.00     0.210 C 
ATOM     15  C   LIG d   1       0.441  74.519 119.773  0.00  0.00     0.109 C 
ATOM     16  O   LIG d   1      -0.229  76.454 118.507  0.00  0.00    -0.276 OA
ATOM     17  H   LIG d   1      -0.498  73.409 117.709  0.00  0.00     0.149 HD
ENDBRANCH   6  13
BRANCH   5  18
ATOM     18  N   LIG d   1       1.036  75.146 115.096  0.00  0.00     0.381 N 
ATOM     19  H   LIG d   1       0.861  74.173 114.945  0.00  0.00    -0.090 HD
ATOM     20  H   LIG d   1       1.724  75.233 115.824  0.00  0.00    -0.090 HD
ATOM     21  H   LIG d   1       1.374  75.565 114.258  0.00  0.00    -0.090 HD
ENDBRANCH   5  18
BRANCH   3  22
ATOM     22  C   LIG d   1      -2.642  77.886 113.717  0.00  0.00     0.382 C 
ATOM     23  O   LIG d   1      -3.500  77.634 112.838  0.00  0.00    -0.241 OA
ATOM     24  O   LIG d   1      -2.179  79.039 113.811  0.00  0.00    -0.241 OA
ENDBRANCH   3  22
TORSDOF 7
ENDMDL
MODEL 6
REMARK VINA RESULT:      -4.3      2.740      3.896
REMARK  7 active torsions:
REMARK  status: ('A' for Active; 'I' for Inactive)
REMARK    1  A    between atoms: C_2  and  C_3 
REMARK    2  A    between atoms: C_3  and  O_6 
REMARK    3  A    between atoms: C_3  and  C_4 
REMARK    4  A    between atoms: C_7  and  O_6 
REMARK    5  A    between atoms: C_9  and  C_10 
REMARK    6  A    between atoms: N_15  and  C_14 
REMARK    7  A    between atoms: N_20  and  C_19 
REMARK       I    between atoms: C_22  and  N_20 
ROOT
ATOM      1  C   LIG d   1      -2.138  77.700 115.541  0.00  0.00     0.161 C 
ATOM      2  C   LIG d   1      -1.638  76.707 114.682  0.00  0.00     0.016 C 
ATOM      3  C   LIG d   1      -0.608  75.810 115.046  0.00  0.00     0.038 C 
ATOM      4  C   LIG d   1      -0.109  75.746 116.356  0.00  0.00     0.028 C 
ATOM      5  C   LIG d   1      -0.228  77.063 117.114  0.00  0.00    -0.047 C 
ATOM      6  C   LIG d   1      -1.683  77.573 117.010  0.00  0.00     0.091 C 
ENDROOT
BRANCH   1   7
ATOM      7  O   LIG d   1      -3.577  77.734 115.463  0.00  0.00    -0.368 OA
BRANCH   7   8
ATOM      8  C   LIG d   1      -4.288  76.974 116.470  0.00  0.00     0.119 C 
BRANCH   8   9
ATOM      9  C   LIG d   1      -4.671  75.619 115.843  0.00  0.00     0.028 C 
ATOM     10  C   LIG d   1      -5.996  75.069 116.397  0.00  0.00     0.006 C 
ENDBRANCH   8   9
BRANCH   8  11
ATOM     11  C   LIG d   1      -5.617  77.641 116.837  0.00  0.00     0.028 C 
ATOM     12  C   LIG d   1      -5.431  79.022 117.486  0.00  0.00     0.006 C 
ENDBRANCH   8  11
ENDBRANCH   7   8
ENDBRANCH   1   7
BRANCH   6  13
ATOM     13  N   LIG d   1      -1.867  78.900 117.654  0.00  0.00    -0.311 N 
ATOM     14  C   LIG d   1      -2.253  79.053 118.920  0.00  0.00     0.210 C 
ATOM     15  C   LIG d   1      -2.399  80.507 119.379  0.00  0.00     0.109 C 
ATOM     16  O   LIG d   1      -2.456  78.123 119.715  0.00  0.00    -0.276 OA
ATOM     17  H   LIG d   1      -1.693  79.708 117.090  0.00  0.00     0.149 HD
ENDBRANCH   6  13
BRANCH   5  18
ATOM     18  N   LIG d   1       0.201  76.817 118.504  0.00  0.00     0.381 N 
ATOM     19  H   LIG d   1       1.185  76.637 118.529  0.00  0.00    -0.090 HD
ATOM     20  H   LIG d   1      -0.277  76.005 118.853  0.00  0.00    -0.090 HD
ATOM     21  H   LIG d   1      -0.014  77.607 119.072  0.00  0.00    -0.090 HD
ENDBRANCH   5  18
BRANCH   3  22
ATOM     22  C   LIG d   1      -0.038  74.990 114.084  0.00  0.00     0.382 C 
ATOM     23  O   LIG d   1       1.118  74.534 114.253  0.00  0.00    -0.241 OA
ATOM     24  O   LIG d   1      -0.648  74.738 113.027  0.00  0.00    -0.241 OA
ENDBRANCH   3  22
TORSDOF 7
ENDMDL
MODEL 7
REMARK VINA RESULT:      -4.2      2.789      4.949
REMARK  7 active torsions:
REMARK  status: ('A' for Active; 'I' for Inactive)
REMARK    1  A    between atoms: C_2  and  C_3 
REMARK    2  A    between atoms: C_3  and  O_6 
REMARK    3  A    between atoms: C_3  and  C_4 
REMARK    4  A    between atoms: C_7  and  O_6 
REMARK    5  A    between atoms: C_9  and  C_10 
REMARK    6  A    between atoms: N_15  and  C_14 
REMARK    7  A    between atoms: N_20  and  C_19 
REMARK       I    between atoms: C_22  and  N_20 
ROOT
ATOM      1  C   LIG d   1      -2.311  75.256 116.257  0.00  0.00     0.161 C 
ATOM      2  C   LIG d   1      -1.253  74.694 115.523  0.00  0.00     0.016 C 
ATOM      3  C   LIG d   1      -0.688  75.305 114.380  0.00  0.00     0.038 C 
ATOM      4  C   LIG d   1      -1.046  76.601 113.979  0.00  0.00     0.028 C 
ATOM      5  C   LIG d   1      -2.461  76.993 114.390  0.00  0.00    -0.047 C 
ATOM      6  C   LIG d   1      -2.639  76.721 115.901  0.00  0.00     0.091 C 
ENDROOT
BRANCH   1   7
ATOM      7  O   LIG d   1      -2.047  75.131 117.669  0.00  0.00    -0.368 OA
BRANCH   7   8
ATOM      8  C   LIG d   1      -0.661  75.258 118.071  0.00  0.00     0.119 C 
BRANCH   8   9
ATOM      9  C   LIG d   1      -0.419  74.258 119.219  0.00  0.00     0.028 C 
ATOM     10  C   LIG d   1       0.924  74.494 119.930  0.00  0.00     0.006 C 
ENDBRANCH   8   9
BRANCH   8  11
ATOM     11  C   LIG d   1      -0.378  76.639 118.671  0.00  0.00     0.028 C 
ATOM     12  C   LIG d   1       0.532  77.499 117.781  0.00  0.00     0.006 C 
ENDBRANCH   8  11
ENDBRANCH   7   8
ENDBRANCH   1   7
BRANCH   6  13
ATOM     13  N   LIG d   1      -4.022  76.998 116.368  0.00  0.00    -0.311 N 
ATOM     14  C   LIG d   1      -5.097  76.373 115.890  0.00  0.00     0.210 C 
ATOM     15  C   LIG d   1      -6.430  76.824 116.495  0.00  0.00     0.109 C 
ATOM     16  O   LIG d   1      -5.069  75.465 115.046  0.00  0.00    -0.276 OA
ATOM     17  H   LIG d   1      -4.133  77.699 117.074  0.00  0.00     0.149 HD
ENDBRANCH   6  13
BRANCH   5  18
ATOM     18  N   LIG d   1      -2.653  78.412 114.031  0.00  0.00     0.381 N 
ATOM     19  H   LIG d   1      -3.400  78.800 114.571  0.00  0.00    -0.090 HD
ATOM     20  H   LIG d   1      -2.902  78.471 113.060  0.00  0.00    -0.090 HD
ATOM     21  H   LIG d   1      -1.813  78.922 114.198  0.00  0.00    -0.090 HD
ENDBRANCH   5  18
BRANCH   3  22
ATOM     22  C   LIG d   1       0.217  74.601 113.601  0.00  0.00     0.382 C 
ATOM     23  O   LIG d   1       1.285  74.180 114.107  0.00  0.00    -0.241 OA
ATOM     24  O   LIG d   1      -0.000  74.420 112.388  0.00  0.00    -0.241 OA
ENDBRANCH   3  22
TORSDOF 7
ENDMDL
MODEL 8
REMARK VINA RESULT:      -4.2      2.773      3.321
REMARK  7 active torsions:
REMARK  status: ('A' for Active; 'I' for Inactive)
REMARK    1  A    between atoms: C_2  and  C_3 
REMARK    2  A    between atoms: C_3  and  O_6 
REMARK    3  A    between atoms: C_3  and  C_4 
REMARK    4  A    between atoms: C_7  and  O_6 
REMARK    5  A    between atoms: C_9  and  C_10 
REMARK    6  A    between atoms: N_15  and  C_14 
REMARK    7  A    between atoms: N_20  and  C_19 
REMARK       I    between atoms: C_22  and  N_20 
ROOT
ATOM      1  C   LIG d   1      -3.514  77.949 117.532  0.00  0.00     0.161 C 
ATOM      2  C   LIG d   1      -2.500  78.870 117.840  0.00  0.00     0.016 C 
ATOM      3  C   LIG d   1      -1.159  78.722 117.417  0.00  0.00     0.038 C 
ATOM      4  C   LIG d   1      -0.771  77.712 116.524  0.00  0.00     0.028 C 
ATOM      5  C   LIG d   1      -1.654  76.471 116.592  0.00  0.00    -0.047 C 
ATOM      6  C   LIG d   1      -3.133  76.900 116.465  0.00  0.00     0.091 C 
ENDROOT
BRANCH   1   7
ATOM      7  O   LIG d   1      -4.710  78.651 117.138  0.00  0.00    -0.368 OA
BRANCH   7   8
ATOM      8  C   LIG d   1      -5.755  78.740 118.138  0.00  0.00     0.119 C 
BRANCH   8   9
ATOM      9  C   LIG d   1      -6.895  77.800 117.701  0.00  0.00     0.028 C 
ATOM     10  C   LIG d   1      -7.060  76.598 118.646  0.00  0.00     0.006 C 
ENDBRANCH   8   9
BRANCH   8  11
ATOM     11  C   LIG d   1      -6.375  80.140 118.173  0.00  0.00     0.028 C 
ATOM     12  C   LIG d   1      -6.137  80.864 119.508  0.00  0.00     0.006 C 
ENDBRANCH   8  11
ENDBRANCH   7   8
ENDBRANCH   1   7
BRANCH   6  13
ATOM     13  N   LIG d   1      -4.070  75.755 116.606  0.00  0.00    -0.311 N 
ATOM     14  C   LIG d   1      -4.978  75.433 115.686  0.00  0.00     0.210 C 
ATOM     15  C   LIG d   1      -5.856  74.228 116.039  0.00  0.00     0.109 C 
ATOM     16  O   LIG d   1      -5.117  76.011 114.598  0.00  0.00    -0.276 OA
ATOM     17  H   LIG d   1      -4.005  75.213 117.445  0.00  0.00     0.149 HD
ENDBRANCH   6  13
BRANCH   5  18
ATOM     18  N   LIG d   1      -1.223  75.558 115.516  0.00  0.00     0.381 N 
ATOM     19  H   LIG d   1      -0.350  75.868 115.138  0.00  0.00    -0.090 HD
ATOM     20  H   LIG d   1      -1.908  75.575 114.781  0.00  0.00    -0.090 HD
ATOM     21  H   LIG d   1      -1.130  74.632 115.871  0.00  0.00    -0.090 HD
ENDBRANCH   5  18
BRANCH   3  22
ATOM     22  C   LIG d   1      -0.182  79.566 117.922  0.00  0.00     0.382 C 
ATOM     23  O   LIG d   1      -0.019  79.667 119.161  0.00  0.00    -0.241 OA
ATOM     24  O   LIG d   1       0.509  80.262 117.154  0.00  0.00    -0.241 OA
ENDBRANCH   3  22
TORSDOF 7
ENDMDL
MODEL 9
REMARK VINA RESULT:      -3.9      3.080      5.234
REMARK  7 active torsions:
REMARK  status: ('A' for Active; 'I' for Inactive)
REMARK    1  A    between atoms: C_2  and  C_3 
REMARK    2  A    between atoms: C_3  and  O_6 
REMARK    3  A    between atoms: C_3  and  C_4 
REMARK    4  A    between atoms: C_7  and  O_6 
REMARK    5  A    between atoms: C_9  and  C_10 
REMARK    6  A    between atoms: N_15  and  C_14 
REMARK    7  A    between atoms: N_20  and  C_19 
REMARK       I    between atoms: C_22  and  N_20 
ROOT
ATOM      1  C   LIG d   1      -2.042  78.430 116.585  0.00  0.00     0.161 C 
ATOM      2  C   LIG d   1      -0.694  78.663 116.905  0.00  0.00     0.016 C 
ATOM      3  C   LIG d   1       0.050  77.842 117.784  0.00  0.00     0.038 C 
ATOM      4  C   LIG d   1      -0.465  76.639 118.289  0.00  0.00     0.028 C 
ATOM      5  C   LIG d   1      -1.986  76.629 118.396  0.00  0.00    -0.047 C 
ATOM      6  C   LIG d   1      -2.588  77.060 117.039  0.00  0.00     0.091 C 
ENDROOT
BRANCH   1   7
ATOM      7  O   LIG d   1      -2.246  78.607 115.170  0.00  0.00    -0.368 OA
BRANCH   7   8
ATOM      8  C   LIG d   1      -1.178  78.140 114.309  0.00  0.00     0.119 C 
BRANCH   8   9
ATOM      9  C   LIG d   1      -1.184  79.022 113.045  0.00  0.00     0.028 C 
ATOM     10  C   LIG d   1      -2.607  79.387 112.591  0.00  0.00     0.006 C 
ENDBRANCH   8   9
BRANCH   8  11
ATOM     11  C   LIG d   1      -1.445  76.717 113.811  0.00  0.00     0.028 C 
ATOM     12  C   LIG d   1      -0.510  75.677 114.450  0.00  0.00     0.006 C 
ENDBRANCH   8  11
ENDBRANCH   7   8
ENDBRANCH   1   7
BRANCH   6  13
ATOM     13  N   LIG d   1      -4.070  77.158 117.082  0.00  0.00    -0.311 N 
ATOM     14  C   LIG d   1      -4.872  76.528 116.225  0.00  0.00     0.210 C 
ATOM     15  C   LIG d   1      -6.368  76.781 116.434  0.00  0.00     0.109 C 
ATOM     16  O   LIG d   1      -4.487  75.757 115.333  0.00  0.00    -0.276 OA
ATOM     17  H   LIG d   1      -4.469  77.738 117.795  0.00  0.00     0.149 HD
ENDBRANCH   6  13
BRANCH   5  18
ATOM     18  N   LIG d   1      -2.395  75.271 118.804  0.00  0.00     0.381 N 
ATOM     19  H   LIG d   1      -2.024  74.599 118.163  0.00  0.00    -0.090 HD
ATOM     20  H   LIG d   1      -3.398  75.212 118.778  0.00  0.00    -0.090 HD
ATOM     21  H   LIG d   1      -2.068  75.079 119.725  0.00  0.00    -0.090 HD
ENDBRANCH   5  18
BRANCH   3  22
ATOM     22  C   LIG d   1       1.310  78.245 118.198  0.00  0.00     0.382 C 
ATOM     23  O   LIG d   1       2.075  77.426 118.763  0.00  0.00    -0.241 OA
ATOM     24  O   LIG d   1       1.675  79.427 118.054  0.00  0.00    -0.241 OA
ENDBRANCH   3  22
TORSDOF 7
ENDMDL
