MODEL 1
REMARK VINA RESULT:      -5.8      0.000      0.000
REMARK  7 active torsions:
REMARK  status: ('A' for Active; 'I' for Inactive)
REMARK    1  A    between atoms: C_2  and  C_3 
REMARK    2  A    between atoms: C_3  and  O_6 
REMARK    3  A    between atoms: C_3  and  C_4 
REMARK    4  A    between atoms: C_7  and  O_6 
REMARK    5  A    between atoms: C_9  and  C_10 
REMARK    6  A    between atoms: N_15  and  C_14 
REMARK    7  A    between atoms: N_20  and  C_19 
REMARK       I    between atoms: C_22  and  N_20 
ROOT
ATOM      1  C   LIG d   1      -2.757  77.550 116.021  0.00  0.00     0.161 C 
ATOM      2  C   LIG d   1      -3.065  78.422 114.964  0.00  0.00     0.016 C 
ATOM      3  C   LIG d   1      -2.291  78.519 113.785  0.00  0.00     0.038 C 
ATOM      4  C   LIG d   1      -1.234  77.636 113.517  0.00  0.00     0.028 C 
ATOM      5  C   LIG d   1      -0.577  77.078 114.774  0.00  0.00    -0.047 C 
ATOM      6  C   LIG d   1      -1.672  76.500 115.699  0.00  0.00     0.091 C 
ENDROOT
BRANCH   1   7
ATOM      7  O   LIG d   1      -3.958  76.903 116.487  0.00  0.00    -0.368 OA
BRANCH   7   8
ATOM      8  C   LIG d   1      -4.979  76.661 115.488  0.00  0.00     0.119 C 
BRANCH   8   9
ATOM      9  C   LIG d   1      -6.347  76.782 116.187  0.00  0.00     0.028 C 
ATOM     10  C   LIG d   1      -6.347  77.847 117.297  0.00  0.00     0.006 C 
ENDBRANCH   8   9
BRANCH   8  11
ATOM     11  C   LIG d   1      -4.917  75.223 114.964  0.00  0.00     0.028 C 
ATOM     12  C   LIG d   1      -6.307  74.633 114.677  0.00  0.00     0.006 C 
ENDBRANCH   8  11
ENDBRANCH   7   8
ENDBRANCH   1   7
BRANCH   6  13
ATOM     13  N   LIG d   1      -1.124  76.009 116.990  0.00  0.00    -0.311 N 
ATOM     14  C   LIG d   1      -1.580  74.926 117.616  0.00  0.00     0.210 C 
ATOM     15  C   LIG d   1      -0.887  74.607 118.945  0.00  0.00     0.109 C 
ATOM     16  O   LIG d   1      -2.471  74.181 117.182  0.00  0.00    -0.276 OA
ATOM     17  H   LIG d   1      -0.377  76.537 117.398  0.00  0.00     0.149 HD
ENDBRANCH   6  13
BRANCH   5  18
ATOM     18  N   LIG d   1       0.413  76.070 114.350  0.00  0.00     0.381 N 
ATOM     19  H   LIG d   1       1.127  75.982 115.046  0.00  0.00    -0.090 HD
ATOM     20  H   LIG d   1       0.842  76.375 113.495  0.00  0.00    -0.090 HD
ATOM     21  H   LIG d   1      -0.034  75.190 114.211  0.00  0.00    -0.090 HD
ENDBRANCH   5  18
BRANCH   3  22
ATOM     22  C   LIG d   1      -2.547  79.535 112.876  0.00  0.00     0.382 C 
ATOM     23  O   LIG d   1      -3.217  80.536 113.228  0.00  0.00    -0.241 OA
ATOM     24  O   LIG d   1      -2.154  79.442 111.698  0.00  0.00    -0.241 OA
ENDBRANCH   3  22
TORSDOF 7
ENDMDL
MODEL 2
REMARK VINA RESULT:      -5.6      2.519      4.327
REMARK  7 active torsions:
REMARK  status: ('A' for Active; 'I' for Inactive)
REMARK    1  A    between atoms: C_2  and  C_3 
REMARK    2  A    between atoms: C_3  and  O_6 
REMARK    3  A    between atoms: C_3  and  C_4 
REMARK    4  A    between atoms: C_7  and  O_6 
REMARK    5  A    between atoms: C_9  and  C_10 
REMARK    6  A    between atoms: N_15  and  C_14 
REMARK    7  A    between atoms: N_20  and  C_19 
REMARK       I    between atoms: C_22  and  N_20 
ROOT
ATOM      1  C   LIG d   1      -1.378  77.819 113.493  0.00  0.00     0.161 C 
ATOM      2  C   LIG d   1      -2.078  79.036 113.520  0.00  0.00     0.016 C 
ATOM      3  C   LIG d   1      -2.015  79.993 112.481  0.00  0.00     0.038 C 
ATOM      4  C   LIG d   1      -1.362  79.728 111.268  0.00  0.00     0.028 C 
ATOM      5  C   LIG d   1      -0.225  78.722 111.399  0.00  0.00    -0.047 C 
ATOM      6  C   LIG d   1      -0.750  77.464 112.129  0.00  0.00     0.091 C 
ENDROOT
BRANCH   1   7
ATOM      7  O   LIG d   1      -2.237  76.752 113.942  0.00  0.00    -0.368 OA
BRANCH   7   8
ATOM      8  C   LIG d   1      -2.264  76.513 115.370  0.00  0.00     0.119 C 
BRANCH   8   9
ATOM      9  C   LIG d   1      -0.952  75.797 115.745  0.00  0.00     0.028 C 
ATOM     10  C   LIG d   1      -0.858  74.387 115.137  0.00  0.00     0.006 C 
ENDBRANCH   8   9
BRANCH   8  11
ATOM     11  C   LIG d   1      -3.381  75.538 115.752  0.00  0.00     0.028 C 
ATOM     12  C   LIG d   1      -4.483  75.447 114.684  0.00  0.00     0.006 C 
ENDBRANCH   8  11
ENDBRANCH   7   8
ENDBRANCH   1   7
BRANCH   6  13
ATOM     13  N   LIG d   1       0.321  76.463 112.374  0.00  0.00    -0.311 N 
ATOM     14  C   LIG d   1       0.737  75.595 111.454  0.00  0.00     0.210 C 
ATOM     15  C   LIG d   1       1.837  74.636 111.920  0.00  0.00     0.109 C 
ATOM     16  O   LIG d   1       0.323  75.549 110.286  0.00  0.00    -0.276 OA
ATOM     17  H   LIG d   1       0.735  76.451 113.286  0.00  0.00     0.149 HD
ENDBRANCH   6  13
BRANCH   5  18
ATOM     18  N   LIG d   1       0.276  78.435 110.042  0.00  0.00     0.381 N 
ATOM     19  H   LIG d   1      -0.090  79.107 109.397  0.00  0.00    -0.090 HD
ATOM     20  H   LIG d   1      -0.042  77.524 109.763  0.00  0.00    -0.090 HD
ATOM     21  H   LIG d   1       1.272  78.464 110.032  0.00  0.00    -0.090 HD
ENDBRANCH   5  18
BRANCH   3  22
ATOM     22  C   LIG d   1      -2.577  81.247 112.666  0.00  0.00     0.382 C 
ATOM     23  O   LIG d   1      -3.810  81.413 112.499  0.00  0.00    -0.241 OA
ATOM     24  O   LIG d   1      -1.861  82.224 112.955  0.00  0.00    -0.241 OA
ENDBRANCH   3  22
TORSDOF 7
ENDMDL
MODEL 3
REMARK VINA RESULT:      -5.6      1.739      4.945
REMARK  7 active torsions:
REMARK  status: ('A' for Active; 'I' for Inactive)
REMARK    1  A    between atoms: C_2  and  C_3 
REMARK    2  A    between atoms: C_3  and  O_6 
REMARK    3  A    between atoms: C_3  and  C_4 
REMARK    4  A    between atoms: C_7  and  O_6 
REMARK    5  A    between atoms: C_9  and  C_10 
REMARK    6  A    between atoms: N_15  and  C_14 
REMARK    7  A    between atoms: N_20  and  C_19 
REMARK       I    between atoms: C_22  and  N_20 
ROOT
ATOM      1  C   LIG d   1      -1.915  75.839 114.937  0.00  0.00     0.161 C 
ATOM      2  C   LIG d   1      -1.795  75.186 116.175  0.00  0.00     0.016 C 
ATOM      3  C   LIG d   1      -1.035  75.695 117.253  0.00  0.00     0.038 C 
ATOM      4  C   LIG d   1      -0.461  76.975 117.217  0.00  0.00     0.028 C 
ATOM      5  C   LIG d   1      -0.133  77.451 115.806  0.00  0.00    -0.047 C 
ATOM      6  C   LIG d   1      -1.387  77.289 114.917  0.00  0.00     0.091 C 
ENDROOT
BRANCH   1   7
ATOM      7  O   LIG d   1      -3.285  75.799 114.494  0.00  0.00    -0.368 OA
BRANCH   7   8
ATOM      8  C   LIG d   1      -4.282  75.576 115.522  0.00  0.00     0.119 C 
BRANCH   8   9
ATOM      9  C   LIG d   1      -5.352  74.637 114.932  0.00  0.00     0.028 C 
ATOM     10  C   LIG d   1      -6.657  75.376 114.591  0.00  0.00     0.006 C 
ENDBRANCH   8   9
BRANCH   8  11
ATOM     11  C   LIG d   1      -5.024  76.870 115.869  0.00  0.00     0.028 C 
ATOM     12  C   LIG d   1      -4.386  77.625 117.046  0.00  0.00     0.006 C 
ENDBRANCH   8  11
ENDBRANCH   7   8
ENDBRANCH   1   7
BRANCH   6  13
ATOM     13  N   LIG d   1      -1.128  77.653 113.499  0.00  0.00    -0.311 N 
ATOM     14  C   LIG d   1      -1.943  78.423 112.780  0.00  0.00     0.210 C 
ATOM     15  C   LIG d   1      -1.499  78.659 111.333  0.00  0.00     0.109 C 
ATOM     16  O   LIG d   1      -2.974  78.959 113.212  0.00  0.00    -0.276 OA
ATOM     17  H   LIG d   1      -0.297  77.287 113.079  0.00  0.00     0.149 HD
ENDBRANCH   6  13
BRANCH   5  18
ATOM     18  N   LIG d   1       0.330  78.849 115.904  0.00  0.00     0.381 N 
ATOM     19  H   LIG d   1      -0.454  79.469 115.858  0.00  0.00    -0.090 HD
ATOM     20  H   LIG d   1       0.934  79.046 115.125  0.00  0.00    -0.090 HD
ATOM     21  H   LIG d   1       0.822  78.986 116.759  0.00  0.00    -0.090 HD
ENDBRANCH   5  18
BRANCH   3  22
ATOM     22  C   LIG d   1      -0.809  74.904 118.369  0.00  0.00     0.382 C 
ATOM     23  O   LIG d   1      -1.729  74.180 118.821  0.00  0.00    -0.241 OA
ATOM     24  O   LIG d   1       0.289  74.937 118.956  0.00  0.00    -0.241 OA
ENDBRANCH   3  22
TORSDOF 7
ENDMDL
MODEL 4
REMARK VINA RESULT:      -5.3      1.535      2.182
REMARK  7 active torsions:
REMARK  status: ('A' for Active; 'I' for Inactive)
REMARK    1  A    between atoms: C_2  and  C_3 
REMARK    2  A    between atoms: C_3  and  O_6 
REMARK    3  A    between atoms: C_3  and  C_4 
REMARK    4  A    between atoms: C_7  and  O_6 
REMARK    5  A    between atoms: C_9  and  C_10 
REMARK    6  A    between atoms: N_15  and  C_14 
REMARK    7  A    between atoms: N_20  and  C_19 
REMARK       I    between atoms: C_22  and  N_20 
ROOT
ATOM      1  C   LIG d   1      -2.834  77.742 115.879  0.00  0.00     0.161 C 
ATOM      2  C   LIG d   1      -3.065  78.656 114.837  0.00  0.00     0.016 C 
ATOM      3  C   LIG d   1      -2.293  78.697 113.653  0.00  0.00     0.038 C 
ATOM      4  C   LIG d   1      -1.327  77.722 113.363  0.00  0.00     0.028 C 
ATOM      5  C   LIG d   1      -0.717  77.084 114.607  0.00  0.00    -0.047 C 
ATOM      6  C   LIG d   1      -1.857  76.599 115.532  0.00  0.00     0.091 C 
ENDROOT
BRANCH   1   7
ATOM      7  O   LIG d   1      -4.088  77.205 116.344  0.00  0.00    -0.368 OA
BRANCH   7   8
ATOM      8  C   LIG d   1      -4.574  77.722 117.607  0.00  0.00     0.119 C 
BRANCH   8   9
ATOM      9  C   LIG d   1      -5.634  78.795 117.292  0.00  0.00     0.028 C 
ATOM     10  C   LIG d   1      -6.258  79.395 118.563  0.00  0.00     0.006 C 
ENDBRANCH   8   9
BRANCH   8  11
ATOM     11  C   LIG d   1      -3.468  78.457 118.370  0.00  0.00     0.028 C 
ATOM     12  C   LIG d   1      -3.035  77.720 119.648  0.00  0.00     0.006 C 
ENDBRANCH   8  11
ENDBRANCH   7   8
ENDBRANCH   1   7
BRANCH   6  13
ATOM     13  N   LIG d   1      -1.349  76.038 116.811  0.00  0.00    -0.311 N 
ATOM     14  C   LIG d   1      -1.809  74.911 117.351  0.00  0.00     0.210 C 
ATOM     15  C   LIG d   1      -1.162  74.522 118.684  0.00  0.00     0.109 C 
ATOM     16  O   LIG d   1      -2.670  74.180 116.838  0.00  0.00    -0.276 OA
ATOM     17  H   LIG d   1      -0.628  76.551 117.280  0.00  0.00     0.149 HD
ENDBRANCH   6  13
BRANCH   5  18
ATOM     18  N   LIG d   1       0.169  75.993 114.160  0.00  0.00     0.381 N 
ATOM     19  H   LIG d   1       0.631  76.258 113.313  0.00  0.00    -0.090 HD
ATOM     20  H   LIG d   1      -0.388  75.178 113.975  0.00  0.00    -0.090 HD
ATOM     21  H   LIG d   1       0.843  75.791 114.865  0.00  0.00    -0.090 HD
ENDBRANCH   5  18
BRANCH   3  22
ATOM     22  C   LIG d   1      -2.457  79.747 112.762  0.00  0.00     0.382 C 
ATOM     23  O   LIG d   1      -1.768  79.794 111.715  0.00  0.00    -0.241 OA
ATOM     24  O   LIG d   1      -3.253  80.671 113.014  0.00  0.00    -0.241 OA
ENDBRANCH   3  22
TORSDOF 7
ENDMDL
MODEL 5
REMARK VINA RESULT:      -5.2      2.443      4.889
REMARK  7 active torsions:
REMARK  status: ('A' for Active; 'I' for Inactive)
REMARK    1  A    between atoms: C_2  and  C_3 
REMARK    2  A    between atoms: C_3  and  O_6 
REMARK    3  A    between atoms: C_3  and  C_4 
REMARK    4  A    between atoms: C_7  and  O_6 
REMARK    5  A    between atoms: C_9  and  C_10 
REMARK    6  A    between atoms: N_15  and  C_14 
REMARK    7  A    between atoms: N_20  and  C_19 
REMARK       I    between atoms: C_22  and  N_20 
ROOT
ATOM      1  C   LIG d   1      -3.017  78.000 115.282  0.00  0.00     0.161 C 
ATOM      2  C   LIG d   1      -1.729  78.328 115.736  0.00  0.00     0.016 C 
ATOM      3  C   LIG d   1      -0.885  77.416 116.410  0.00  0.00     0.038 C 
ATOM      4  C   LIG d   1      -1.216  76.060 116.544  0.00  0.00     0.028 C 
ATOM      5  C   LIG d   1      -2.719  75.801 116.549  0.00  0.00    -0.047 C 
ATOM      6  C   LIG d   1      -3.352  76.494 115.320  0.00  0.00     0.091 C 
ENDROOT
BRANCH   1   7
ATOM      7  O   LIG d   1      -3.215  78.523 113.954  0.00  0.00    -0.368 OA
BRANCH   7   8
ATOM      8  C   LIG d   1      -2.115  79.285 113.398  0.00  0.00     0.119 C 
BRANCH   8   9
ATOM      9  C   LIG d   1      -2.697  80.599 112.840  0.00  0.00     0.028 C 
ATOM     10  C   LIG d   1      -1.611  81.654 112.572  0.00  0.00     0.006 C 
ENDBRANCH   8   9
BRANCH   8  11
ATOM     11  C   LIG d   1      -1.496  78.572 112.192  0.00  0.00     0.028 C 
ATOM     12  C   LIG d   1      -2.531  78.222 111.111  0.00  0.00     0.006 C 
ENDBRANCH   8  11
ENDBRANCH   7   8
ENDBRANCH   1   7
BRANCH   6  13
ATOM     13  N   LIG d   1      -4.832  76.361 115.294  0.00  0.00    -0.311 N 
ATOM     14  C   LIG d   1      -5.475  75.471 114.541  0.00  0.00     0.210 C 
ATOM     15  C   LIG d   1      -7.002  75.516 114.648  0.00  0.00     0.109 C 
ATOM     16  O   LIG d   1      -4.924  74.626 113.819  0.00  0.00    -0.276 OA
ATOM     17  H   LIG d   1      -5.356  76.987 115.874  0.00  0.00     0.149 HD
ENDBRANCH   6  13
BRANCH   5  18
ATOM     18  N   LIG d   1      -2.920  74.339 116.555  0.00  0.00     0.381 N 
ATOM     19  H   LIG d   1      -2.038  73.877 116.654  0.00  0.00    -0.090 HD
ATOM     20  H   LIG d   1      -3.325  74.063 115.678  0.00  0.00    -0.090 HD
ATOM     21  H   LIG d   1      -3.524  74.081 117.304  0.00  0.00    -0.090 HD
ENDBRANCH   5  18
BRANCH   3  22
ATOM     22  C   LIG d   1       0.288  77.868 116.995  0.00  0.00     0.382 C 
ATOM     23  O   LIG d   1       0.568  79.091 116.975  0.00  0.00    -0.241 OA
ATOM     24  O   LIG d   1       1.092  77.064 117.503  0.00  0.00    -0.241 OA
ENDBRANCH   3  22
TORSDOF 7
ENDMDL
MODEL 6
REMARK VINA RESULT:      -5.2      2.522      4.375
REMARK  7 active torsions:
REMARK  status: ('A' for Active; 'I' for Inactive)
REMARK    1  A    between atoms: C_2  and  C_3 
REMARK    2  A    between atoms: C_3  and  O_6 
REMARK    3  A    between atoms: C_3  and  C_4 
REMARK    4  A    between atoms: C_7  and  O_6 
REMARK    5  A    between atoms: C_9  and  C_10 
REMARK    6  A    between atoms: N_15  and  C_14 
REMARK    7  A    between atoms: N_20  and  C_19 
REMARK       I    between atoms: C_22  and  N_20 
ROOT
ATOM      1  C   LIG d   1      -1.338  77.869 113.536  0.00  0.00     0.161 C 
ATOM      2  C   LIG d   1      -2.044  79.084 113.552  0.00  0.00     0.016 C 
ATOM      3  C   LIG d   1      -2.052  79.994 112.470  0.00  0.00     0.038 C 
ATOM      4  C   LIG d   1      -1.472  79.679 111.232  0.00  0.00     0.028 C 
ATOM      5  C   LIG d   1      -0.322  78.684 111.338  0.00  0.00    -0.047 C 
ATOM      6  C   LIG d   1      -0.792  77.457 112.153  0.00  0.00     0.091 C 
ENDROOT
BRANCH   1   7
ATOM      7  O   LIG d   1      -2.160  76.819 114.083  0.00  0.00    -0.368 OA
BRANCH   7   8
ATOM      8  C   LIG d   1      -1.628  76.131 115.242  0.00  0.00     0.119 C 
BRANCH   8   9
ATOM      9  C   LIG d   1      -2.820  75.521 116.006  0.00  0.00     0.028 C 
ATOM     10  C   LIG d   1      -3.972  75.119 115.070  0.00  0.00     0.006 C 
ENDBRANCH   8   9
BRANCH   8  11
ATOM     11  C   LIG d   1      -0.978  77.112 116.222  0.00  0.00     0.028 C 
ATOM     12  C   LIG d   1      -1.988  77.741 117.195  0.00  0.00     0.006 C 
ENDBRANCH   8  11
ENDBRANCH   7   8
ENDBRANCH   1   7
BRANCH   6  13
ATOM     13  N   LIG d   1       0.299  76.473 112.376  0.00  0.00    -0.311 N 
ATOM     14  C   LIG d   1       0.710  75.611 111.447  0.00  0.00     0.210 C 
ATOM     15  C   LIG d   1       1.834  74.670 111.890  0.00  0.00     0.109 C 
ATOM     16  O   LIG d   1       0.272  75.559 110.288  0.00  0.00    -0.276 OA
ATOM     17  H   LIG d   1       0.732  76.467 113.279  0.00  0.00     0.149 HD
ENDBRANCH   6  13
BRANCH   5  18
ATOM     18  N   LIG d   1       0.098  78.340 109.966  0.00  0.00     0.381 N 
ATOM     19  H   LIG d   1       1.069  78.099 109.959  0.00  0.00    -0.090 HD
ATOM     20  H   LIG d   1      -0.032  79.143 109.376  0.00  0.00    -0.090 HD
ATOM     21  H   LIG d   1      -0.444  77.576 109.625  0.00  0.00    -0.090 HD
ENDBRANCH   5  18
BRANCH   3  22
ATOM     22  C   LIG d   1      -2.611  81.252 112.635  0.00  0.00     0.382 C 
ATOM     23  O   LIG d   1      -1.889  82.218 112.981  0.00  0.00    -0.241 OA
ATOM     24  O   LIG d   1      -3.835  81.424 112.485  0.00  0.00    -0.241 OA
ENDBRANCH   3  22
TORSDOF 7
ENDMDL
MODEL 7
REMARK VINA RESULT:      -5.0      2.442      5.063
REMARK  7 active torsions:
REMARK  status: ('A' for Active; 'I' for Inactive)
REMARK    1  A    between atoms: C_2  and  C_3 
REMARK    2  A    between atoms: C_3  and  O_6 
REMARK    3  A    between atoms: C_3  and  C_4 
REMARK    4  A    between atoms: C_7  and  O_6 
REMARK    5  A    between atoms: C_9  and  C_10 
REMARK    6  A    between atoms: N_15  and  C_14 
REMARK    7  A    between atoms: N_20  and  C_19 
REMARK       I    between atoms: C_22  and  N_20 
ROOT
ATOM      1  C   LIG d   1      -1.757  77.908 114.839  0.00  0.00     0.161 C 
ATOM      2  C   LIG d   1      -2.923  77.300 114.346  0.00  0.00     0.016 C 
ATOM      3  C   LIG d   1      -3.886  76.678 115.174  0.00  0.00     0.038 C 
ATOM      4  C   LIG d   1      -3.821  76.756 116.574  0.00  0.00     0.028 C 
ATOM      5  C   LIG d   1      -2.402  76.922 117.106  0.00  0.00    -0.047 C 
ATOM      6  C   LIG d   1      -1.725  78.100 116.370  0.00  0.00     0.091 C 
ENDROOT
BRANCH   1   7
ATOM      7  O   LIG d   1      -1.543  79.168 114.172  0.00  0.00    -0.368 OA
BRANCH   7   8
ATOM      8  C   LIG d   1      -2.354  79.411 112.996  0.00  0.00     0.119 C 
BRANCH   8   9
ATOM      9  C   LIG d   1      -1.464  79.172 111.761  0.00  0.00     0.028 C 
ATOM     10  C   LIG d   1      -2.083  78.165 110.777  0.00  0.00     0.006 C 
ENDBRANCH   8   9
BRANCH   8  11
ATOM     11  C   LIG d   1      -2.782  80.879 112.909  0.00  0.00     0.028 C 
ATOM     12  C   LIG d   1      -1.608  81.825 112.607  0.00  0.00     0.006 C 
ENDBRANCH   8  11
ENDBRANCH   7   8
ENDBRANCH   1   7
BRANCH   6  13
ATOM     13  N   LIG d   1      -0.305  78.278 116.771  0.00  0.00    -0.311 N 
ATOM     14  C   LIG d   1       0.081  79.074 117.767  0.00  0.00     0.210 C 
ATOM     15  C   LIG d   1       1.594  79.128 118.002  0.00  0.00     0.109 C 
ATOM     16  O   LIG d   1      -0.688  79.715 118.499  0.00  0.00    -0.276 OA
ATOM     17  H   LIG d   1       0.383  77.771 116.250  0.00  0.00     0.149 HD
ENDBRANCH   6  13
BRANCH   5  18
ATOM     18  N   LIG d   1      -2.495  77.128 118.564  0.00  0.00     0.381 N 
ATOM     19  H   LIG d   1      -2.680  76.256 119.018  0.00  0.00    -0.090 HD
ATOM     20  H   LIG d   1      -3.258  77.753 118.756  0.00  0.00    -0.090 HD
ATOM     21  H   LIG d   1      -1.644  77.516 118.908  0.00  0.00    -0.090 HD
ENDBRANCH   5  18
BRANCH   3  22
ATOM     22  C   LIG d   1      -4.907  75.934 114.602  0.00  0.00     0.382 C 
ATOM     23  O   LIG d   1      -4.640  74.882 113.974  0.00  0.00    -0.241 OA
ATOM     24  O   LIG d   1      -6.087  76.326 114.669  0.00  0.00    -0.241 OA
ENDBRANCH   3  22
TORSDOF 7
ENDMDL
MODEL 8
REMARK VINA RESULT:      -4.7      2.683      5.058
REMARK  7 active torsions:
REMARK  status: ('A' for Active; 'I' for Inactive)
REMARK    1  A    between atoms: C_2  and  C_3 
REMARK    2  A    between atoms: C_3  and  O_6 
REMARK    3  A    between atoms: C_3  and  C_4 
REMARK    4  A    between atoms: C_7  and  O_6 
REMARK    5  A    between atoms: C_9  and  C_10 
REMARK    6  A    between atoms: N_15  and  C_14 
REMARK    7  A    between atoms: N_20  and  C_19 
REMARK       I    between atoms: C_22  and  N_20 
ROOT
ATOM      1  C   LIG d   1      -2.819  76.656 117.710  0.00  0.00     0.161 C 
ATOM      2  C   LIG d   1      -1.661  76.793 118.492  0.00  0.00     0.016 C 
ATOM      3  C   LIG d   1      -0.444  76.132 118.204  0.00  0.00     0.038 C 
ATOM      4  C   LIG d   1      -0.260  75.402 117.020  0.00  0.00     0.028 C 
ATOM      5  C   LIG d   1      -1.553  74.824 116.456  0.00  0.00    -0.047 C 
ATOM      6  C   LIG d   1      -2.605  75.952 116.353  0.00  0.00     0.091 C 
ENDROOT
BRANCH   1   7
ATOM      7  O   LIG d   1      -3.432  77.945 117.514  0.00  0.00    -0.368 OA
BRANCH   7   8
ATOM      8  C   LIG d   1      -4.629  78.207 118.288  0.00  0.00     0.119 C 
BRANCH   8   9
ATOM      9  C   LIG d   1      -5.779  78.453 117.293  0.00  0.00     0.028 C 
ATOM     10  C   LIG d   1      -6.717  79.584 117.749  0.00  0.00     0.006 C 
ENDBRANCH   8   9
BRANCH   8  11
ATOM     11  C   LIG d   1      -4.501  79.505 119.090  0.00  0.00     0.028 C 
ATOM     12  C   LIG d   1      -3.092  79.712 119.670  0.00  0.00     0.006 C 
ENDBRANCH   8  11
ENDBRANCH   7   8
ENDBRANCH   1   7
BRANCH   6  13
ATOM     13  N   LIG d   1      -3.926  75.455 115.890  0.00  0.00    -0.311 N 
ATOM     14  C   LIG d   1      -4.471  75.798 114.724  0.00  0.00     0.210 C 
ATOM     15  C   LIG d   1      -5.849  75.189 114.450  0.00  0.00     0.109 C 
ATOM     16  O   LIG d   1      -3.929  76.524 113.877  0.00  0.00    -0.276 OA
ATOM     17  H   LIG d   1      -4.421  74.837 116.502  0.00  0.00     0.149 HD
ENDBRANCH   6  13
BRANCH   5  18
ATOM     18  N   LIG d   1      -1.236  74.208 115.154  0.00  0.00     0.381 N 
ATOM     19  H   LIG d   1      -0.753  73.344 115.297  0.00  0.00    -0.090 HD
ATOM     20  H   LIG d   1      -0.633  74.826 114.641  0.00  0.00    -0.090 HD
ATOM     21  H   LIG d   1      -2.075  74.047 114.640  0.00  0.00    -0.090 HD
ENDBRANCH   5  18
BRANCH   3  22
ATOM     22  C   LIG d   1       0.591  76.164 119.125  0.00  0.00     0.382 C 
ATOM     23  O   LIG d   1       0.983  77.262 119.590  0.00  0.00    -0.241 OA
ATOM     24  O   LIG d   1       1.168  75.114 119.465  0.00  0.00    -0.241 OA
ENDBRANCH   3  22
TORSDOF 7
ENDMDL
MODEL 9
REMARK VINA RESULT:      -4.4      2.224      5.067
REMARK  7 active torsions:
REMARK  status: ('A' for Active; 'I' for Inactive)
REMARK    1  A    between atoms: C_2  and  C_3 
REMARK    2  A    between atoms: C_3  and  O_6 
REMARK    3  A    between atoms: C_3  and  C_4 
REMARK    4  A    between atoms: C_7  and  O_6 
REMARK    5  A    between atoms: C_9  and  C_10 
REMARK    6  A    between atoms: N_15  and  C_14 
REMARK    7  A    between atoms: N_20  and  C_19 
REMARK       I    between atoms: C_22  and  N_20 
ROOT
ATOM      1  C   LIG d   1      -1.697  77.851 114.509  0.00  0.00     0.161 C 
ATOM      2  C   LIG d   1      -2.805  78.191 115.303  0.00  0.00     0.016 C 
ATOM      3  C   LIG d   1      -2.963  77.765 116.642  0.00  0.00     0.038 C 
ATOM      4  C   LIG d   1      -1.945  77.090 117.330  0.00  0.00     0.028 C 
ATOM      5  C   LIG d   1      -1.023  76.289 116.416  0.00  0.00    -0.047 C 
ATOM      6  C   LIG d   1      -0.524  77.208 115.278  0.00  0.00     0.091 C 
ENDROOT
BRANCH   1   7
ATOM      7  O   LIG d   1      -1.244  79.009 113.780  0.00  0.00    -0.368 OA
BRANCH   7   8
ATOM      8  C   LIG d   1      -2.033  79.383 112.624  0.00  0.00     0.119 C 
BRANCH   8   9
ATOM      9  C   LIG d   1      -1.110  79.315 111.392  0.00  0.00     0.028 C 
ATOM     10  C   LIG d   1      -0.760  77.870 111.000  0.00  0.00     0.006 C 
ENDBRANCH   8   9
BRANCH   8  11
ATOM     11  C   LIG d   1      -2.489  80.842 112.710  0.00  0.00     0.028 C 
ATOM     12  C   LIG d   1      -1.340  81.839 112.494  0.00  0.00     0.006 C 
ENDBRANCH   8  11
ENDBRANCH   7   8
ENDBRANCH   1   7
BRANCH   6  13
ATOM     13  N   LIG d   1       0.316  76.481 114.290  0.00  0.00    -0.311 N 
ATOM     14  C   LIG d   1       0.096  75.219 113.928  0.00  0.00     0.210 C 
ATOM     15  C   LIG d   1       1.093  74.654 112.911  0.00  0.00     0.109 C 
ATOM     16  O   LIG d   1      -0.850  74.524 114.327  0.00  0.00    -0.276 OA
ATOM     17  H   LIG d   1       1.088  76.981 113.893  0.00  0.00     0.149 HD
ENDBRANCH   6  13
BRANCH   5  18
ATOM     18  N   LIG d   1       0.070  75.750 117.246  0.00  0.00     0.381 N 
ATOM     19  H   LIG d   1       0.197  76.326 118.055  0.00  0.00    -0.090 HD
ATOM     20  H   LIG d   1       0.922  75.766 116.713  0.00  0.00    -0.090 HD
ATOM     21  H   LIG d   1      -0.140  74.817 117.523  0.00  0.00    -0.090 HD
ENDBRANCH   5  18
BRANCH   3  22
ATOM     22  C   LIG d   1      -4.168  77.979 117.293  0.00  0.00     0.382 C 
ATOM     23  O   LIG d   1      -5.218  78.156 116.629  0.00  0.00    -0.241 OA
ATOM     24  O   LIG d   1      -4.212  78.042 118.537  0.00  0.00    -0.241 OA
ENDBRANCH   3  22
TORSDOF 7
ENDMDL
