MODEL 1
REMARK VINA RESULT:      -5.3      0.000      0.000
REMARK  7 active torsions:
REMARK  status: ('A' for Active; 'I' for Inactive)
REMARK    1  A    between atoms: C_2  and  C_3 
REMARK    2  A    between atoms: C_3  and  O_6 
REMARK    3  A    between atoms: C_3  and  C_4 
REMARK    4  A    between atoms: C_7  and  O_6 
REMARK    5  A    between atoms: C_9  and  C_10 
REMARK    6  A    between atoms: N_15  and  C_14 
REMARK    7  A    between atoms: N_20  and  C_19 
REMARK       I    between atoms: C_22  and  N_20 
ROOT
ATOM      1  C   LIG d   1      -0.293  82.573 112.330  0.00  0.00     0.161 C 
ATOM      2  C   LIG d   1      -1.403  81.898 112.866  0.00  0.00     0.016 C 
ATOM      3  C   LIG d   1      -1.751  80.573 112.517  0.00  0.00     0.038 C 
ATOM      4  C   LIG d   1      -0.919  79.774 111.719  0.00  0.00     0.028 C 
ATOM      5  C   LIG d   1      -0.053  80.576 110.753  0.00  0.00    -0.047 C 
ATOM      6  C   LIG d   1       0.688  81.679 111.543  0.00  0.00     0.091 C 
ENDROOT
BRANCH   1   7
ATOM      7  O   LIG d   1       0.402  83.278 113.378  0.00  0.00    -0.368 OA
BRANCH   7   8
ATOM      8  C   LIG d   1       0.170  82.805 114.728  0.00  0.00     0.119 C 
BRANCH   8   9
ATOM      9  C   LIG d   1       0.056  84.042 115.639  0.00  0.00     0.028 C 
ATOM     10  C   LIG d   1      -0.503  83.697 117.029  0.00  0.00     0.006 C 
ENDBRANCH   8   9
BRANCH   8  11
ATOM     11  C   LIG d   1       1.374  82.020 115.258  0.00  0.00     0.028 C 
ATOM     12  C   LIG d   1       1.167  80.498 115.196  0.00  0.00     0.006 C 
ENDBRANCH   8  11
ENDBRANCH   7   8
ENDBRANCH   1   7
BRANCH   6  13
ATOM     13  N   LIG d   1       1.493  82.564 110.661  0.00  0.00    -0.311 N 
ATOM     14  C   LIG d   1       2.779  82.352 110.386  0.00  0.00     0.210 C 
ATOM     15  C   LIG d   1       3.425  83.397 109.471  0.00  0.00     0.109 C 
ATOM     16  O   LIG d   1       3.437  81.381 110.788  0.00  0.00    -0.276 OA
ATOM     17  H   LIG d   1       1.029  83.359 110.267  0.00  0.00     0.149 HD
ENDBRANCH   6  13
BRANCH   5  18
ATOM     18  N   LIG d   1       0.860  79.632 110.083  0.00  0.00     0.381 N 
ATOM     19  H   LIG d   1       1.544  80.138 109.556  0.00  0.00    -0.090 HD
ATOM     20  H   LIG d   1       0.330  79.063 109.447  0.00  0.00    -0.090 HD
ATOM     21  H   LIG d   1       1.311  79.056 110.759  0.00  0.00    -0.090 HD
ENDBRANCH   5  18
BRANCH   3  22
ATOM     22  C   LIG d   1      -2.963  80.047 112.938  0.00  0.00     0.382 C 
ATOM     23  O   LIG d   1      -3.570  80.567 113.904  0.00  0.00    -0.241 OA
ATOM     24  O   LIG d   1      -3.435  79.032 112.391  0.00  0.00    -0.241 OA
ENDBRANCH   3  22
TORSDOF 7
ENDMDL
MODEL 2
REMARK VINA RESULT:      -4.8      2.246      2.886
REMARK  7 active torsions:
REMARK  status: ('A' for Active; 'I' for Inactive)
REMARK    1  A    between atoms: C_2  and  C_3 
REMARK    2  A    between atoms: C_3  and  O_6 
REMARK    3  A    between atoms: C_3  and  C_4 
REMARK    4  A    between atoms: C_7  and  O_6 
REMARK    5  A    between atoms: C_9  and  C_10 
REMARK    6  A    between atoms: N_15  and  C_14 
REMARK    7  A    between atoms: N_20  and  C_19 
REMARK       I    between atoms: C_22  and  N_20 
ROOT
ATOM      1  C   LIG d   1      -2.632  81.536 113.385  0.00  0.00     0.161 C 
ATOM      2  C   LIG d   1      -2.952  80.335 114.038  0.00  0.00     0.016 C 
ATOM      3  C   LIG d   1      -2.288  79.112 113.788  0.00  0.00     0.038 C 
ATOM      4  C   LIG d   1      -1.150  79.040 112.970  0.00  0.00     0.028 C 
ATOM      5  C   LIG d   1      -1.104  80.126 111.901  0.00  0.00    -0.047 C 
ATOM      6  C   LIG d   1      -1.321  81.501 112.572  0.00  0.00     0.091 C 
ENDROOT
BRANCH   1   7
ATOM      7  O   LIG d   1      -2.603  82.618 114.337  0.00  0.00    -0.368 OA
BRANCH   7   8
ATOM      8  C   LIG d   1      -1.777  82.412 115.509  0.00  0.00     0.119 C 
BRANCH   8   9
ATOM      9  C   LIG d   1      -2.643  82.720 116.746  0.00  0.00     0.028 C 
ATOM     10  C   LIG d   1      -1.802  82.912 118.019  0.00  0.00     0.006 C 
ENDBRANCH   8   9
BRANCH   8  11
ATOM     11  C   LIG d   1      -0.623  83.417 115.562  0.00  0.00     0.028 C 
ATOM     12  C   LIG d   1      -0.894  84.679 114.728  0.00  0.00     0.006 C 
ENDBRANCH   8  11
ENDBRANCH   7   8
ENDBRANCH   1   7
BRANCH   6  13
ATOM     13  N   LIG d   1      -1.374  82.611 111.585  0.00  0.00    -0.311 N 
ATOM     14  C   LIG d   1      -0.326  83.377 111.287  0.00  0.00     0.210 C 
ATOM     15  C   LIG d   1      -0.602  84.478 110.258  0.00  0.00     0.109 C 
ATOM     16  O   LIG d   1       0.814  83.229 111.753  0.00  0.00    -0.276 OA
ATOM     17  H   LIG d   1      -2.252  82.781 111.136  0.00  0.00     0.149 HD
ENDBRANCH   6  13
BRANCH   5  18
ATOM     18  N   LIG d   1       0.197  80.017 111.213  0.00  0.00     0.381 N 
ATOM     19  H   LIG d   1       0.754  79.311 111.651  0.00  0.00    -0.090 HD
ATOM     20  H   LIG d   1       0.680  80.895 111.291  0.00  0.00    -0.090 HD
ATOM     21  H   LIG d   1       0.057  79.792 110.252  0.00  0.00    -0.090 HD
ENDBRANCH   5  18
BRANCH   3  22
ATOM     22  C   LIG d   1      -2.787  77.936 114.327  0.00  0.00     0.382 C 
ATOM     23  O   LIG d   1      -2.277  76.834 114.009  0.00  0.00    -0.241 OA
ATOM     24  O   LIG d   1      -3.768  77.959 115.094  0.00  0.00    -0.241 OA
ENDBRANCH   3  22
TORSDOF 7
ENDMDL
MODEL 3
REMARK VINA RESULT:      -4.7      3.830      5.384
REMARK  7 active torsions:
REMARK  status: ('A' for Active; 'I' for Inactive)
REMARK    1  A    between atoms: C_2  and  C_3 
REMARK    2  A    between atoms: C_3  and  O_6 
REMARK    3  A    between atoms: C_3  and  C_4 
REMARK    4  A    between atoms: C_7  and  O_6 
REMARK    5  A    between atoms: C_9  and  C_10 
REMARK    6  A    between atoms: N_15  and  C_14 
REMARK    7  A    between atoms: N_20  and  C_19 
REMARK       I    between atoms: C_22  and  N_20 
ROOT
ATOM      1  C   LIG d   1      -1.061  80.448 115.863  0.00  0.00     0.161 C 
ATOM      2  C   LIG d   1      -1.779  81.151 114.881  0.00  0.00     0.016 C 
ATOM      3  C   LIG d   1      -2.336  80.537 113.735  0.00  0.00     0.038 C 
ATOM      4  C   LIG d   1      -2.341  79.144 113.569  0.00  0.00     0.028 C 
ATOM      5  C   LIG d   1      -1.188  78.445 114.282  0.00  0.00    -0.047 C 
ATOM      6  C   LIG d   1      -1.152  78.912 115.755  0.00  0.00     0.091 C 
ENDROOT
BRANCH   1   7
ATOM      7  O   LIG d   1      -1.471  80.884 117.174  0.00  0.00    -0.368 OA
BRANCH   7   8
ATOM      8  C   LIG d   1      -2.110  82.182 117.244  0.00  0.00     0.119 C 
BRANCH   8   9
ATOM      9  C   LIG d   1      -1.145  83.134 117.977  0.00  0.00     0.028 C 
ATOM     10  C   LIG d   1      -0.191  83.859 117.013  0.00  0.00     0.006 C 
ENDBRANCH   8   9
BRANCH   8  11
ATOM     11  C   LIG d   1      -3.372  82.137 118.111  0.00  0.00     0.028 C 
ATOM     12  C   LIG d   1      -4.665  82.216 117.285  0.00  0.00     0.006 C 
ENDBRANCH   8  11
ENDBRANCH   7   8
ENDBRANCH   1   7
BRANCH   6  13
ATOM     13  N   LIG d   1      -0.002  78.340 116.502  0.00  0.00    -0.311 N 
ATOM     14  C   LIG d   1      -0.083  77.231 117.236  0.00  0.00     0.210 C 
ATOM     15  C   LIG d   1       1.216  76.826 117.941  0.00  0.00     0.109 C 
ATOM     16  O   LIG d   1      -1.098  76.527 117.344  0.00  0.00    -0.276 OA
ATOM     17  H   LIG d   1       0.869  78.830 116.445  0.00  0.00     0.149 HD
ENDBRANCH   6  13
BRANCH   5  18
ATOM     18  N   LIG d   1      -1.393  76.991 114.141  0.00  0.00     0.381 N 
ATOM     19  H   LIG d   1      -0.937  76.663 113.313  0.00  0.00    -0.090 HD
ATOM     20  H   LIG d   1      -2.377  76.809 114.052  0.00  0.00    -0.090 HD
ATOM     21  H   LIG d   1      -1.031  76.517 114.938  0.00  0.00    -0.090 HD
ENDBRANCH   5  18
BRANCH   3  22
ATOM     22  C   LIG d   1      -2.861  81.324 112.721  0.00  0.00     0.382 C 
ATOM     23  O   LIG d   1      -2.093  81.892 111.908  0.00  0.00    -0.241 OA
ATOM     24  O   LIG d   1      -4.090  81.507 112.636  0.00  0.00    -0.241 OA
ENDBRANCH   3  22
TORSDOF 7
ENDMDL
MODEL 4
REMARK VINA RESULT:      -4.7      2.134      4.734
REMARK  7 active torsions:
REMARK  status: ('A' for Active; 'I' for Inactive)
REMARK    1  A    between atoms: C_2  and  C_3 
REMARK    2  A    between atoms: C_3  and  O_6 
REMARK    3  A    between atoms: C_3  and  C_4 
REMARK    4  A    between atoms: C_7  and  O_6 
REMARK    5  A    between atoms: C_9  and  C_10 
REMARK    6  A    between atoms: N_15  and  C_14 
REMARK    7  A    between atoms: N_20  and  C_19 
REMARK       I    between atoms: C_22  and  N_20 
ROOT
ATOM      1  C   LIG d   1       0.335  81.368 114.006  0.00  0.00     0.161 C 
ATOM      2  C   LIG d   1       0.958  82.466 113.390  0.00  0.00     0.016 C 
ATOM      3  C   LIG d   1       1.037  82.631 111.988  0.00  0.00     0.038 C 
ATOM      4  C   LIG d   1       0.360  81.779 111.102  0.00  0.00     0.028 C 
ATOM      5  C   LIG d   1       0.142  80.376 111.659  0.00  0.00    -0.047 C 
ATOM      6  C   LIG d   1      -0.505  80.487 113.058  0.00  0.00     0.091 C 
ENDROOT
BRANCH   1   7
ATOM      7  O   LIG d   1      -0.469  81.821 115.113  0.00  0.00    -0.368 OA
BRANCH   7   8
ATOM      8  C   LIG d   1      -1.498  82.792 114.799  0.00  0.00     0.119 C 
BRANCH   8   9
ATOM      9  C   LIG d   1      -1.432  83.899 115.869  0.00  0.00     0.028 C 
ATOM     10  C   LIG d   1      -0.299  83.668 116.883  0.00  0.00     0.006 C 
ENDBRANCH   8   9
BRANCH   8  11
ATOM     11  C   LIG d   1      -2.897  82.183 114.932  0.00  0.00     0.028 C 
ATOM     12  C   LIG d   1      -2.984  81.125 116.043  0.00  0.00     0.006 C 
ENDBRANCH   8  11
ENDBRANCH   7   8
ENDBRANCH   1   7
BRANCH   6  13
ATOM     13  N   LIG d   1      -0.676  79.162 113.710  0.00  0.00    -0.311 N 
ATOM     14  C   LIG d   1      -1.819  78.479 113.693  0.00  0.00     0.210 C 
ATOM     15  C   LIG d   1      -1.785  77.143 114.443  0.00  0.00     0.109 C 
ATOM     16  O   LIG d   1      -2.849  78.836 113.102  0.00  0.00    -0.276 OA
ATOM     17  H   LIG d   1       0.119  78.782 114.187  0.00  0.00     0.149 HD
ENDBRANCH   6  13
BRANCH   5  18
ATOM     18  N   LIG d   1      -0.693  79.638 110.692  0.00  0.00     0.381 N 
ATOM     19  H   LIG d   1      -0.122  79.014 110.159  0.00  0.00    -0.090 HD
ATOM     20  H   LIG d   1      -1.117  80.295 110.061  0.00  0.00    -0.090 HD
ATOM     21  H   LIG d   1      -1.399  79.125 111.173  0.00  0.00    -0.090 HD
ENDBRANCH   5  18
BRANCH   3  22
ATOM     22  C   LIG d   1       1.832  83.635 111.457  0.00  0.00     0.382 C 
ATOM     23  O   LIG d   1       2.262  84.552 112.198  0.00  0.00    -0.241 OA
ATOM     24  O   LIG d   1       2.089  83.660 110.239  0.00  0.00    -0.241 OA
ENDBRANCH   3  22
TORSDOF 7
ENDMDL
MODEL 5
REMARK VINA RESULT:      -4.7      3.135      5.694
REMARK  7 active torsions:
REMARK  status: ('A' for Active; 'I' for Inactive)
REMARK    1  A    between atoms: C_2  and  C_3 
REMARK    2  A    between atoms: C_3  and  O_6 
REMARK    3  A    between atoms: C_3  and  C_4 
REMARK    4  A    between atoms: C_7  and  O_6 
REMARK    5  A    between atoms: C_9  and  C_10 
REMARK    6  A    between atoms: N_15  and  C_14 
REMARK    7  A    between atoms: N_20  and  C_19 
REMARK       I    between atoms: C_22  and  N_20 
ROOT
ATOM      1  C   LIG d   1      -2.183  80.267 114.754  0.00  0.00     0.161 C 
ATOM      2  C   LIG d   1      -2.192  81.660 114.575  0.00  0.00     0.016 C 
ATOM      3  C   LIG d   1      -1.706  82.298 113.411  0.00  0.00     0.038 C 
ATOM      4  C   LIG d   1      -1.313  81.573 112.276  0.00  0.00     0.028 C 
ATOM      5  C   LIG d   1      -0.813  80.169 112.599  0.00  0.00    -0.047 C 
ATOM      6  C   LIG d   1      -1.861  79.454 113.482  0.00  0.00     0.091 C 
ENDROOT
BRANCH   1   7
ATOM      7  O   LIG d   1      -3.438  79.838 115.318  0.00  0.00    -0.368 OA
BRANCH   7   8
ATOM      8  C   LIG d   1      -3.489  79.747 116.763  0.00  0.00     0.119 C 
BRANCH   8   9
ATOM      9  C   LIG d   1      -3.655  78.259 117.128  0.00  0.00     0.028 C 
ATOM     10  C   LIG d   1      -5.045  77.716 116.757  0.00  0.00     0.006 C 
ENDBRANCH   8   9
BRANCH   8  11
ATOM     11  C   LIG d   1      -4.733  80.443 117.321  0.00  0.00     0.028 C 
ATOM     12  C   LIG d   1      -4.539  81.957 117.501  0.00  0.00     0.006 C 
ENDBRANCH   8  11
ENDBRANCH   7   8
ENDBRANCH   1   7
BRANCH   6  13
ATOM     13  N   LIG d   1      -1.412  78.104 113.913  0.00  0.00    -0.311 N 
ATOM     14  C   LIG d   1      -2.224  77.050 113.987  0.00  0.00     0.210 C 
ATOM     15  C   LIG d   1      -1.563  75.757 114.473  0.00  0.00     0.109 C 
ATOM     16  O   LIG d   1      -3.422  77.057 113.664  0.00  0.00    -0.276 OA
ATOM     17  H   LIG d   1      -0.448  78.002 114.163  0.00  0.00     0.149 HD
ENDBRANCH   6  13
BRANCH   5  18
ATOM     18  N   LIG d   1      -0.568  79.478 111.318  0.00  0.00     0.381 N 
ATOM     19  H   LIG d   1       0.111  79.983 110.786  0.00  0.00    -0.090 HD
ATOM     20  H   LIG d   1      -1.425  79.452 110.794  0.00  0.00    -0.090 HD
ATOM     21  H   LIG d   1      -0.246  78.551 111.487  0.00  0.00    -0.090 HD
ENDBRANCH   5  18
BRANCH   3  22
ATOM     22  C   LIG d   1      -1.571  83.678 113.389  0.00  0.00     0.382 C 
ATOM     23  O   LIG d   1      -1.948  84.360 114.373  0.00  0.00    -0.241 OA
ATOM     24  O   LIG d   1      -1.119  84.253 112.381  0.00  0.00    -0.241 OA
ENDBRANCH   3  22
TORSDOF 7
ENDMDL
MODEL 6
REMARK VINA RESULT:      -4.5      1.747      1.967
REMARK  7 active torsions:
REMARK  status: ('A' for Active; 'I' for Inactive)
REMARK    1  A    between atoms: C_2  and  C_3 
REMARK    2  A    between atoms: C_3  and  O_6 
REMARK    3  A    between atoms: C_3  and  C_4 
REMARK    4  A    between atoms: C_7  and  O_6 
REMARK    5  A    between atoms: C_9  and  C_10 
REMARK    6  A    between atoms: N_15  and  C_14 
REMARK    7  A    between atoms: N_20  and  C_19 
REMARK       I    between atoms: C_22  and  N_20 
ROOT
ATOM      1  C   LIG d   1      -0.397  82.365 113.341  0.00  0.00     0.161 C 
ATOM      2  C   LIG d   1      -1.315  81.681 114.154  0.00  0.00     0.016 C 
ATOM      3  C   LIG d   1      -1.855  80.416 113.825  0.00  0.00     0.038 C 
ATOM      4  C   LIG d   1      -1.395  79.677 112.726  0.00  0.00     0.028 C 
ATOM      5  C   LIG d   1      -0.838  80.545 111.602  0.00  0.00    -0.047 C 
ATOM      6  C   LIG d   1       0.202  81.525 112.193  0.00  0.00     0.091 C 
ENDROOT
BRANCH   1   7
ATOM      7  O   LIG d   1       0.655  82.923 114.154  0.00  0.00    -0.368 OA
BRANCH   7   8
ATOM      8  C   LIG d   1       0.483  82.804 115.588  0.00  0.00     0.119 C 
BRANCH   8   9
ATOM      9  C   LIG d   1       0.415  84.230 116.166  0.00  0.00     0.028 C 
ATOM     10  C   LIG d   1       0.607  84.255 117.692  0.00  0.00     0.006 C 
ENDBRANCH   8   9
BRANCH   8  11
ATOM     11  C   LIG d   1       1.707  82.158 116.244  0.00  0.00     0.028 C 
ATOM     12  C   LIG d   1       1.776  80.640 116.013  0.00  0.00     0.006 C 
ENDBRANCH   8  11
ENDBRANCH   7   8
ENDBRANCH   1   7
BRANCH   6  13
ATOM     13  N   LIG d   1       0.734  82.468 111.176  0.00  0.00    -0.311 N 
ATOM     14  C   LIG d   1      -0.035  83.291 110.466  0.00  0.00     0.210 C 
ATOM     15  C   LIG d   1       0.715  84.166 109.456  0.00  0.00     0.109 C 
ATOM     16  O   LIG d   1      -1.263  83.403 110.599  0.00  0.00    -0.276 OA
ATOM     17  H   LIG d   1       1.724  82.465 111.026  0.00  0.00     0.149 HD
ENDBRANCH   6  13
BRANCH   5  18
ATOM     18  N   LIG d   1      -0.269  79.644 110.583  0.00  0.00     0.381 N 
ATOM     19  H   LIG d   1       0.658  79.375 110.848  0.00  0.00    -0.090 HD
ATOM     20  H   LIG d   1      -0.217  80.134 109.708  0.00  0.00    -0.090 HD
ATOM     21  H   LIG d   1      -0.842  78.834 110.485  0.00  0.00    -0.090 HD
ENDBRANCH   5  18
BRANCH   3  22
ATOM     22  C   LIG d   1      -2.897  79.897 114.579  0.00  0.00     0.382 C 
ATOM     23  O   LIG d   1      -3.255  78.705 114.416  0.00  0.00    -0.241 OA
ATOM     24  O   LIG d   1      -3.513  80.617 115.387  0.00  0.00    -0.241 OA
ENDBRANCH   3  22
TORSDOF 7
ENDMDL
MODEL 7
REMARK VINA RESULT:      -4.4      4.290      6.947
REMARK  7 active torsions:
REMARK  status: ('A' for Active; 'I' for Inactive)
REMARK    1  A    between atoms: C_2  and  C_3 
REMARK    2  A    between atoms: C_3  and  O_6 
REMARK    3  A    between atoms: C_3  and  C_4 
REMARK    4  A    between atoms: C_7  and  O_6 
REMARK    5  A    between atoms: C_9  and  C_10 
REMARK    6  A    between atoms: N_15  and  C_14 
REMARK    7  A    between atoms: N_20  and  C_19 
REMARK       I    between atoms: C_22  and  N_20 
ROOT
ATOM      1  C   LIG d   1      -2.540  78.375 115.062  0.00  0.00     0.161 C 
ATOM      2  C   LIG d   1      -2.921  79.248 114.029  0.00  0.00     0.016 C 
ATOM      3  C   LIG d   1      -2.073  80.250 113.506  0.00  0.00     0.038 C 
ATOM      4  C   LIG d   1      -0.725  80.350 113.878  0.00  0.00     0.028 C 
ATOM      5  C   LIG d   1      -0.442  79.817 115.278  0.00  0.00    -0.047 C 
ATOM      6  C   LIG d   1      -1.036  78.395 115.404  0.00  0.00     0.091 C 
ENDROOT
BRANCH   1   7
ATOM      7  O   LIG d   1      -2.965  77.033 114.749  0.00  0.00    -0.368 OA
BRANCH   7   8
ATOM      8  C   LIG d   1      -4.288  76.660 115.207  0.00  0.00     0.119 C 
BRANCH   8   9
ATOM      9  C   LIG d   1      -4.117  75.859 116.512  0.00  0.00     0.028 C 
ATOM     10  C   LIG d   1      -3.332  74.553 116.301  0.00  0.00     0.006 C 
ENDBRANCH   8   9
BRANCH   8  11
ATOM     11  C   LIG d   1      -4.967  75.699 114.227  0.00  0.00     0.028 C 
ATOM     12  C   LIG d   1      -6.468  75.525 114.506  0.00  0.00     0.006 C 
ENDBRANCH   8  11
ENDBRANCH   7   8
ENDBRANCH   1   7
BRANCH   6  13
ATOM     13  N   LIG d   1      -0.877  77.833 116.770  0.00  0.00    -0.311 N 
ATOM     14  C   LIG d   1      -0.469  76.588 117.008  0.00  0.00     0.210 C 
ATOM     15  C   LIG d   1      -0.393  76.203 118.489  0.00  0.00     0.109 C 
ATOM     16  O   LIG d   1      -0.131  75.775 116.134  0.00  0.00    -0.276 OA
ATOM     17  H   LIG d   1      -1.100  78.434 117.539  0.00  0.00     0.149 HD
ENDBRANCH   6  13
BRANCH   5  18
ATOM     18  N   LIG d   1       1.018  79.854 115.483  0.00  0.00     0.381 N 
ATOM     19  H   LIG d   1       1.485  79.820 114.599  0.00  0.00    -0.090 HD
ATOM     20  H   LIG d   1       1.292  79.047 116.016  0.00  0.00    -0.090 HD
ATOM     21  H   LIG d   1       1.273  80.684 115.970  0.00  0.00    -0.090 HD
ENDBRANCH   5  18
BRANCH   3  22
ATOM     22  C   LIG d   1      -2.585  81.193 112.627  0.00  0.00     0.382 C 
ATOM     23  O   LIG d   1      -3.782  81.557 112.725  0.00  0.00    -0.241 OA
ATOM     24  O   LIG d   1      -1.878  81.652 111.710  0.00  0.00    -0.241 OA
ENDBRANCH   3  22
TORSDOF 7
ENDMDL
MODEL 8
REMARK VINA RESULT:      -4.2      4.833      7.190
REMARK  7 active torsions:
REMARK  status: ('A' for Active; 'I' for Inactive)
REMARK    1  A    between atoms: C_2  and  C_3 
REMARK    2  A    between atoms: C_3  and  O_6 
REMARK    3  A    between atoms: C_3  and  C_4 
REMARK    4  A    between atoms: C_7  and  O_6 
REMARK    5  A    between atoms: C_9  and  C_10 
REMARK    6  A    between atoms: N_15  and  C_14 
REMARK    7  A    between atoms: N_20  and  C_19 
REMARK       I    between atoms: C_22  and  N_20 
ROOT
ATOM      1  C   LIG d   1      -2.997  79.291 115.737  0.00  0.00     0.161 C 
ATOM      2  C   LIG d   1      -2.474  78.129 115.145  0.00  0.00     0.016 C 
ATOM      3  C   LIG d   1      -2.763  76.823 115.606  0.00  0.00     0.038 C 
ATOM      4  C   LIG d   1      -3.720  76.584 116.603  0.00  0.00     0.028 C 
ATOM      5  C   LIG d   1      -3.894  77.751 117.569  0.00  0.00    -0.047 C 
ATOM      6  C   LIG d   1      -4.130  79.044 116.755  0.00  0.00     0.091 C 
ENDROOT
BRANCH   1   7
ATOM      7  O   LIG d   1      -3.433  80.207 114.714  0.00  0.00    -0.368 OA
BRANCH   7   8
ATOM      8  C   LIG d   1      -2.515  81.277 114.383  0.00  0.00     0.119 C 
BRANCH   8   9
ATOM      9  C   LIG d   1      -3.035  82.559 115.062  0.00  0.00     0.028 C 
ATOM     10  C   LIG d   1      -2.080  83.075 116.151  0.00  0.00     0.006 C 
ENDBRANCH   8   9
BRANCH   8  11
ATOM     11  C   LIG d   1      -2.529  81.579 112.881  0.00  0.00     0.028 C 
ATOM     12  C   LIG d   1      -1.168  81.331 112.211  0.00  0.00     0.006 C 
ENDBRANCH   8  11
ENDBRANCH   7   8
ENDBRANCH   1   7
BRANCH   6  13
ATOM     13  N   LIG d   1      -4.226  80.249 117.621  0.00  0.00    -0.311 N 
ATOM     14  C   LIG d   1      -5.356  80.929 117.807  0.00  0.00     0.210 C 
ATOM     15  C   LIG d   1      -5.231  82.151 118.722  0.00  0.00     0.109 C 
ATOM     16  O   LIG d   1      -6.456  80.618 117.328  0.00  0.00    -0.276 OA
ATOM     17  H   LIG d   1      -3.387  80.553 118.074  0.00  0.00     0.149 HD
ENDBRANCH   6  13
BRANCH   5  18
ATOM     18  N   LIG d   1      -5.015  77.422 118.469  0.00  0.00     0.381 N 
ATOM     19  H   LIG d   1      -5.695  78.155 118.446  0.00  0.00    -0.090 HD
ATOM     20  H   LIG d   1      -4.666  77.344 119.408  0.00  0.00    -0.090 HD
ATOM     21  H   LIG d   1      -5.435  76.562 118.191  0.00  0.00    -0.090 HD
ENDBRANCH   5  18
BRANCH   3  22
ATOM     22  C   LIG d   1      -2.060  75.743 115.094  0.00  0.00     0.382 C 
ATOM     23  O   LIG d   1      -1.619  74.859 115.868  0.00  0.00    -0.241 OA
ATOM     24  O   LIG d   1      -1.824  75.664 113.874  0.00  0.00    -0.241 OA
ENDBRANCH   3  22
TORSDOF 7
ENDMDL
MODEL 9
REMARK VINA RESULT:      -4.2      1.865      4.739
REMARK  7 active torsions:
REMARK  status: ('A' for Active; 'I' for Inactive)
REMARK    1  A    between atoms: C_2  and  C_3 
REMARK    2  A    between atoms: C_3  and  O_6 
REMARK    3  A    between atoms: C_3  and  C_4 
REMARK    4  A    between atoms: C_7  and  O_6 
REMARK    5  A    between atoms: C_9  and  C_10 
REMARK    6  A    between atoms: N_15  and  C_14 
REMARK    7  A    between atoms: N_20  and  C_19 
REMARK       I    between atoms: C_22  and  N_20 
ROOT
ATOM      1  C   LIG d   1       0.271  82.051 113.791  0.00  0.00     0.161 C 
ATOM      2  C   LIG d   1       1.132  82.799 112.971  0.00  0.00     0.016 C 
ATOM      3  C   LIG d   1       1.245  82.601 111.576  0.00  0.00     0.038 C 
ATOM      4  C   LIG d   1       0.387  81.738 110.878  0.00  0.00     0.028 C 
ATOM      5  C   LIG d   1      -0.151  80.596 111.733  0.00  0.00    -0.047 C 
ATOM      6  C   LIG d   1      -0.752  81.182 113.031  0.00  0.00     0.091 C 
ENDROOT
BRANCH   1   7
ATOM      7  O   LIG d   1      -0.403  82.925 114.717  0.00  0.00    -0.368 OA
BRANCH   7   8
ATOM      8  C   LIG d   1      -0.062  82.757 116.116  0.00  0.00     0.119 C 
BRANCH   8   9
ATOM      9  C   LIG d   1      -1.135  83.490 116.945  0.00  0.00     0.028 C 
ATOM     10  C   LIG d   1      -1.424  82.787 118.282  0.00  0.00     0.006 C 
ENDBRANCH   8   9
BRANCH   8  11
ATOM     11  C   LIG d   1       1.258  83.455 116.454  0.00  0.00     0.028 C 
ATOM     12  C   LIG d   1       2.294  82.503 117.073  0.00  0.00     0.006 C 
ENDBRANCH   8  11
ENDBRANCH   7   8
ENDBRANCH   1   7
BRANCH   6  13
ATOM     13  N   LIG d   1      -1.226  80.125 113.963  0.00  0.00    -0.311 N 
ATOM     14  C   LIG d   1      -2.496  79.733 114.042  0.00  0.00     0.210 C 
ATOM     15  C   LIG d   1      -2.773  78.644 115.084  0.00  0.00     0.109 C 
ATOM     16  O   LIG d   1      -3.414  80.161 113.327  0.00  0.00    -0.276 OA
ATOM     17  H   LIG d   1      -0.541  79.702 114.559  0.00  0.00     0.149 HD
ENDBRANCH   6  13
BRANCH   5  18
ATOM     18  N   LIG d   1      -1.136  79.857 110.921  0.00  0.00     0.381 N 
ATOM     19  H   LIG d   1      -2.042  80.265 111.034  0.00  0.00    -0.090 HD
ATOM     20  H   LIG d   1      -1.175  78.906 111.244  0.00  0.00    -0.090 HD
ATOM     21  H   LIG d   1      -0.871  79.879 109.961  0.00  0.00    -0.090 HD
ENDBRANCH   5  18
BRANCH   3  22
ATOM     22  C   LIG d   1       2.251  83.243 110.870  0.00  0.00     0.382 C 
ATOM     23  O   LIG d   1       1.973  83.897 109.837  0.00  0.00    -0.241 OA
ATOM     24  O   LIG d   1       3.440  83.138 111.228  0.00  0.00    -0.241 OA
ENDBRANCH   3  22
TORSDOF 7
ENDMDL
