MODEL 1
REMARK VINA RESULT:      -5.4      0.000      0.000
REMARK  7 active torsions:
REMARK  status: ('A' for Active; 'I' for Inactive)
REMARK    1  A    between atoms: C_2  and  C_3 
REMARK    2  A    between atoms: C_3  and  O_6 
REMARK    3  A    between atoms: C_3  and  C_4 
REMARK    4  A    between atoms: C_7  and  O_6 
REMARK    5  A    between atoms: C_9  and  C_10 
REMARK    6  A    between atoms: N_15  and  C_14 
REMARK    7  A    between atoms: N_20  and  C_19 
REMARK       I    between atoms: C_22  and  N_20 
ROOT
ATOM      1  C   LIG d   1      -2.170  75.535 115.359  0.00  0.00     0.161 C 
ATOM      2  C   LIG d   1      -2.068  74.915 116.615  0.00  0.00     0.016 C 
ATOM      3  C   LIG d   1      -1.243  75.398 117.657  0.00  0.00     0.038 C 
ATOM      4  C   LIG d   1      -0.575  76.628 117.563  0.00  0.00     0.028 C 
ATOM      5  C   LIG d   1      -0.249  77.033 116.130  0.00  0.00    -0.047 C 
ATOM      6  C   LIG d   1      -1.535  76.939 115.277  0.00  0.00     0.091 C 
ENDROOT
BRANCH   1   7
ATOM      7  O   LIG d   1      -3.552  75.586 114.950  0.00  0.00    -0.368 OA
BRANCH   7   8
ATOM      8  C   LIG d   1      -4.532  75.584 116.016  0.00  0.00     0.119 C 
BRANCH   8   9
ATOM      9  C   LIG d   1      -5.743  74.764 115.530  0.00  0.00     0.028 C 
ATOM     10  C   LIG d   1      -7.059  75.214 116.187  0.00  0.00     0.006 C 
ENDBRANCH   8   9
BRANCH   8  11
ATOM     11  C   LIG d   1      -5.075  76.992 116.277  0.00  0.00     0.028 C 
ATOM     12  C   LIG d   1      -4.464  77.644 117.528  0.00  0.00     0.006 C 
ENDBRANCH   8  11
ENDBRANCH   7   8
ENDBRANCH   1   7
BRANCH   6  13
ATOM     13  N   LIG d   1      -1.287  77.237 113.842  0.00  0.00    -0.311 N 
ATOM     14  C   LIG d   1      -2.057  78.047 113.118  0.00  0.00     0.210 C 
ATOM     15  C   LIG d   1      -1.636  78.202 111.654  0.00  0.00     0.109 C 
ATOM     16  O   LIG d   1      -3.031  78.677 113.558  0.00  0.00    -0.276 OA
ATOM     17  H   LIG d   1      -0.499  76.792 113.413  0.00  0.00     0.149 HD
ENDBRANCH   6  13
BRANCH   5  18
ATOM     18  N   LIG d   1       0.321  78.393 116.169  0.00  0.00     0.381 N 
ATOM     19  H   LIG d   1      -0.177  78.987 115.536  0.00  0.00    -0.090 HD
ATOM     20  H   LIG d   1       1.281  78.352 115.875  0.00  0.00    -0.090 HD
ATOM     21  H   LIG d   1       0.264  78.760 117.094  0.00  0.00    -0.090 HD
ENDBRANCH   5  18
BRANCH   3  22
ATOM     22  C   LIG d   1      -1.048  74.627 118.793  0.00  0.00     0.382 C 
ATOM     23  O   LIG d   1      -2.036  74.181 119.424  0.00  0.00    -0.241 OA
ATOM     24  O   LIG d   1       0.102  74.410 119.220  0.00  0.00    -0.241 OA
ENDBRANCH   3  22
TORSDOF 7
ENDMDL
MODEL 2
REMARK VINA RESULT:      -5.3      5.087      7.762
REMARK  7 active torsions:
REMARK  status: ('A' for Active; 'I' for Inactive)
REMARK    1  A    between atoms: C_2  and  C_3 
REMARK    2  A    between atoms: C_3  and  O_6 
REMARK    3  A    between atoms: C_3  and  C_4 
REMARK    4  A    between atoms: C_7  and  O_6 
REMARK    5  A    between atoms: C_9  and  C_10 
REMARK    6  A    between atoms: N_15  and  C_14 
REMARK    7  A    between atoms: N_20  and  C_19 
REMARK       I    between atoms: C_22  and  N_20 
ROOT
ATOM      1  C   LIG d   1      -0.626  80.881 112.014  0.00  0.00     0.161 C 
ATOM      2  C   LIG d   1      -1.618  80.020 112.513  0.00  0.00     0.016 C 
ATOM      3  C   LIG d   1      -1.815  78.703 112.039  0.00  0.00     0.038 C 
ATOM      4  C   LIG d   1      -0.930  78.101 111.133  0.00  0.00     0.028 C 
ATOM      5  C   LIG d   1      -0.216  79.100 110.228  0.00  0.00    -0.047 C 
ATOM      6  C   LIG d   1       0.420  80.204 111.104  0.00  0.00     0.091 C 
ENDROOT
BRANCH   1   7
ATOM      7  O   LIG d   1       0.025  81.561 113.106  0.00  0.00    -0.368 OA
BRANCH   7   8
ATOM      8  C   LIG d   1      -0.419  82.914 113.370  0.00  0.00     0.119 C 
BRANCH   8   9
ATOM      9  C   LIG d   1      -0.791  83.551 112.017  0.00  0.00     0.028 C 
ATOM     10  C   LIG d   1       0.175  84.678 111.613  0.00  0.00     0.006 C 
ENDBRANCH   8   9
BRANCH   8  11
ATOM     11  C   LIG d   1       0.719  83.776 113.924  0.00  0.00     0.028 C 
ATOM     12  C   LIG d   1       1.745  82.962 114.730  0.00  0.00     0.006 C 
ENDBRANCH   8  11
ENDBRANCH   7   8
ENDBRANCH   1   7
BRANCH   6  13
ATOM     13  N   LIG d   1       1.067  81.268 110.293  0.00  0.00    -0.311 N 
ATOM     14  C   LIG d   1       2.252  81.798 110.591  0.00  0.00     0.210 C 
ATOM     15  C   LIG d   1       2.728  82.896 109.634  0.00  0.00     0.109 C 
ATOM     16  O   LIG d   1       2.969  81.440 111.537  0.00  0.00    -0.276 OA
ATOM     17  H   LIG d   1       0.568  81.595 109.489  0.00  0.00     0.149 HD
ENDBRANCH   6  13
BRANCH   5  18
ATOM     18  N   LIG d   1       0.774  78.351 109.432  0.00  0.00     0.381 N 
ATOM     19  H   LIG d   1       1.243  78.973 108.803  0.00  0.00    -0.090 HD
ATOM     20  H   LIG d   1       0.295  77.655 108.888  0.00  0.00    -0.090 HD
ATOM     21  H   LIG d   1       1.437  77.915 110.034  0.00  0.00    -0.090 HD
ENDBRANCH   5  18
BRANCH   3  22
ATOM     22  C   LIG d   1      -2.932  77.987 112.443  0.00  0.00     0.382 C 
ATOM     23  O   LIG d   1      -3.693  77.477 111.586  0.00  0.00    -0.241 OA
ATOM     24  O   LIG d   1      -3.213  77.884 113.652  0.00  0.00    -0.241 OA
ENDBRANCH   3  22
TORSDOF 7
ENDMDL
MODEL 3
REMARK VINA RESULT:      -4.9      1.691      4.965
REMARK  7 active torsions:
REMARK  status: ('A' for Active; 'I' for Inactive)
REMARK    1  A    between atoms: C_2  and  C_3 
REMARK    2  A    between atoms: C_3  and  O_6 
REMARK    3  A    between atoms: C_3  and  C_4 
REMARK    4  A    between atoms: C_7  and  O_6 
REMARK    5  A    between atoms: C_9  and  C_10 
REMARK    6  A    between atoms: N_15  and  C_14 
REMARK    7  A    between atoms: N_20  and  C_19 
REMARK       I    between atoms: C_22  and  N_20 
ROOT
ATOM      1  C   LIG d   1      -3.233  77.109 116.544  0.00  0.00     0.161 C 
ATOM      2  C   LIG d   1      -3.613  77.624 115.293  0.00  0.00     0.016 C 
ATOM      3  C   LIG d   1      -2.757  77.646 114.168  0.00  0.00     0.038 C 
ATOM      4  C   LIG d   1      -1.505  77.013 114.177  0.00  0.00     0.028 C 
ATOM      5  C   LIG d   1      -0.880  76.926 115.565  0.00  0.00    -0.047 C 
ATOM      6  C   LIG d   1      -1.911  76.315 116.542  0.00  0.00     0.091 C 
ENDROOT
BRANCH   1   7
ATOM      7  O   LIG d   1      -4.300  76.306 117.086  0.00  0.00    -0.368 OA
BRANCH   7   8
ATOM      8  C   LIG d   1      -5.647  76.748 116.787  0.00  0.00     0.119 C 
BRANCH   8   9
ATOM      9  C   LIG d   1      -6.129  77.601 117.976  0.00  0.00     0.028 C 
ATOM     10  C   LIG d   1      -7.055  78.749 117.538  0.00  0.00     0.006 C 
ENDBRANCH   8   9
BRANCH   8  11
ATOM     11  C   LIG d   1      -6.618  75.567 116.715  0.00  0.00     0.028 C 
ATOM     12  C   LIG d   1      -6.255  74.563 115.609  0.00  0.00     0.006 C 
ENDBRANCH   8  11
ENDBRANCH   7   8
ENDBRANCH   1   7
BRANCH   6  13
ATOM     13  N   LIG d   1      -1.410  76.271 117.940  0.00  0.00    -0.311 N 
ATOM     14  C   LIG d   1      -0.786  75.217 118.463  0.00  0.00     0.210 C 
ATOM     15  C   LIG d   1      -0.369  75.374 119.929  0.00  0.00     0.109 C 
ATOM     16  O   LIG d   1      -0.508  74.180 117.843  0.00  0.00    -0.276 OA
ATOM     17  H   LIG d   1      -1.565  77.083 118.506  0.00  0.00     0.149 HD
ENDBRANCH   6  13
BRANCH   5  18
ATOM     18  N   LIG d   1       0.353  76.124 115.450  0.00  0.00     0.381 N 
ATOM     19  H   LIG d   1       1.066  76.662 115.000  0.00  0.00    -0.090 HD
ATOM     20  H   LIG d   1       0.163  75.316 114.884  0.00  0.00    -0.090 HD
ATOM     21  H   LIG d   1       0.661  75.840 116.354  0.00  0.00    -0.090 HD
ENDBRANCH   5  18
BRANCH   3  22
ATOM     22  C   LIG d   1      -3.135  78.341 113.030  0.00  0.00     0.382 C 
ATOM     23  O   LIG d   1      -3.139  79.596 113.034  0.00  0.00    -0.241 OA
ATOM     24  O   LIG d   1      -3.515  77.730 112.013  0.00  0.00    -0.241 OA
ENDBRANCH   3  22
TORSDOF 7
ENDMDL
MODEL 4
REMARK VINA RESULT:      -4.8      2.261      5.199
REMARK  7 active torsions:
REMARK  status: ('A' for Active; 'I' for Inactive)
REMARK    1  A    between atoms: C_2  and  C_3 
REMARK    2  A    between atoms: C_3  and  O_6 
REMARK    3  A    between atoms: C_3  and  C_4 
REMARK    4  A    between atoms: C_7  and  O_6 
REMARK    5  A    between atoms: C_9  and  C_10 
REMARK    6  A    between atoms: N_15  and  C_14 
REMARK    7  A    between atoms: N_20  and  C_19 
REMARK       I    between atoms: C_22  and  N_20 
ROOT
ATOM      1  C   LIG d   1      -2.054  77.091 114.620  0.00  0.00     0.161 C 
ATOM      2  C   LIG d   1      -3.313  76.645 114.185  0.00  0.00     0.016 C 
ATOM      3  C   LIG d   1      -4.292  76.111 115.054  0.00  0.00     0.038 C 
ATOM      4  C   LIG d   1      -4.134  76.127 116.448  0.00  0.00     0.028 C 
ATOM      5  C   LIG d   1      -2.676  76.103 116.893  0.00  0.00    -0.047 C 
ATOM      6  C   LIG d   1      -1.906  77.219 116.150  0.00  0.00     0.091 C 
ENDROOT
BRANCH   1   7
ATOM      7  O   LIG d   1      -1.731  78.341 113.979  0.00  0.00    -0.368 OA
BRANCH   7   8
ATOM      8  C   LIG d   1      -2.424  78.618 112.737  0.00  0.00     0.119 C 
BRANCH   8   9
ATOM      9  C   LIG d   1      -1.370  78.638 111.613  0.00  0.00     0.028 C 
ATOM     10  C   LIG d   1      -1.076  77.234 111.059  0.00  0.00     0.006 C 
ENDBRANCH   8   9
BRANCH   8  11
ATOM     11  C   LIG d   1      -3.037  80.022 112.743  0.00  0.00     0.028 C 
ATOM     12  C   LIG d   1      -2.019  81.119 112.394  0.00  0.00     0.006 C 
ENDBRANCH   8  11
ENDBRANCH   7   8
ENDBRANCH   1   7
BRANCH   6  13
ATOM     13  N   LIG d   1      -0.454  77.212 116.464  0.00  0.00    -0.311 N 
ATOM     14  C   LIG d   1       0.109  78.030 117.352  0.00  0.00     0.210 C 
ATOM     15  C   LIG d   1       1.624  77.870 117.509  0.00  0.00     0.109 C 
ATOM     16  O   LIG d   1      -0.508  78.850 118.048  0.00  0.00    -0.276 OA
ATOM     17  H   LIG d   1       0.117  76.556 115.968  0.00  0.00     0.149 HD
ENDBRANCH   6  13
BRANCH   5  18
ATOM     18  N   LIG d   1      -2.654  76.263 118.359  0.00  0.00     0.381 N 
ATOM     19  H   LIG d   1      -1.789  76.679 118.642  0.00  0.00    -0.090 HD
ATOM     20  H   LIG d   1      -2.722  75.355 118.786  0.00  0.00    -0.090 HD
ATOM     21  H   LIG d   1      -3.417  76.833 118.651  0.00  0.00    -0.090 HD
ENDBRANCH   5  18
BRANCH   3  22
ATOM     22  C   LIG d   1      -5.429  75.516 114.527  0.00  0.00     0.382 C 
ATOM     23  O   LIG d   1      -5.895  75.916 113.433  0.00  0.00    -0.241 OA
ATOM     24  O   LIG d   1      -6.018  74.615 115.153  0.00  0.00    -0.241 OA
ENDBRANCH   3  22
TORSDOF 7
ENDMDL
MODEL 5
REMARK VINA RESULT:      -4.4      2.347      4.608
REMARK  7 active torsions:
REMARK  status: ('A' for Active; 'I' for Inactive)
REMARK    1  A    between atoms: C_2  and  C_3 
REMARK    2  A    between atoms: C_3  and  O_6 
REMARK    3  A    between atoms: C_3  and  C_4 
REMARK    4  A    between atoms: C_7  and  O_6 
REMARK    5  A    between atoms: C_9  and  C_10 
REMARK    6  A    between atoms: N_15  and  C_14 
REMARK    7  A    between atoms: N_20  and  C_19 
REMARK       I    between atoms: C_22  and  N_20 
ROOT
ATOM      1  C   LIG d   1      -2.032  76.964 114.819  0.00  0.00     0.161 C 
ATOM      2  C   LIG d   1      -0.908  77.601 115.371  0.00  0.00     0.016 C 
ATOM      3  C   LIG d   1      -0.314  77.211 116.593  0.00  0.00     0.038 C 
ATOM      4  C   LIG d   1      -0.716  76.053 117.276  0.00  0.00     0.028 C 
ATOM      5  C   LIG d   1      -2.170  75.672 117.019  0.00  0.00    -0.047 C 
ATOM      6  C   LIG d   1      -2.416  75.630 115.493  0.00  0.00     0.091 C 
ENDROOT
BRANCH   1   7
ATOM      7  O   LIG d   1      -1.840  76.773 113.403  0.00  0.00    -0.368 OA
BRANCH   7   8
ATOM      8  C   LIG d   1      -1.735  77.977 112.606  0.00  0.00     0.119 C 
BRANCH   8   9
ATOM      9  C   LIG d   1      -3.077  78.727 112.721  0.00  0.00     0.028 C 
ATOM     10  C   LIG d   1      -2.905  80.253 112.651  0.00  0.00     0.006 C 
ENDBRANCH   8   9
BRANCH   8  11
ATOM     11  C   LIG d   1      -1.581  77.649 111.118  0.00  0.00     0.028 C 
ATOM     12  C   LIG d   1      -0.598  78.586 110.399  0.00  0.00     0.006 C 
ENDBRANCH   8  11
ENDBRANCH   7   8
ENDBRANCH   1   7
BRANCH   6  13
ATOM     13  N   LIG d   1      -3.835  75.347 115.156  0.00  0.00    -0.311 N 
ATOM     14  C   LIG d   1      -4.827  76.206 115.381  0.00  0.00     0.210 C 
ATOM     15  C   LIG d   1      -6.218  75.708 114.976  0.00  0.00     0.109 C 
ATOM     16  O   LIG d   1      -4.684  77.346 115.848  0.00  0.00    -0.276 OA
ATOM     17  H   LIG d   1      -4.037  74.457 114.744  0.00  0.00     0.149 HD
ENDBRANCH   6  13
BRANCH   5  18
ATOM     18  N   LIG d   1      -2.414  74.375 117.679  0.00  0.00     0.381 N 
ATOM     19  H   LIG d   1      -3.312  74.024 117.414  0.00  0.00    -0.090 HD
ATOM     20  H   LIG d   1      -2.411  74.512 118.675  0.00  0.00    -0.090 HD
ATOM     21  H   LIG d   1      -1.705  73.724 117.424  0.00  0.00    -0.090 HD
ENDBRANCH   5  18
BRANCH   3  22
ATOM     22  C   LIG d   1       0.668  78.005 117.165  0.00  0.00     0.382 C 
ATOM     23  O   LIG d   1       1.636  77.474 117.760  0.00  0.00    -0.241 OA
ATOM     24  O   LIG d   1       0.574  79.247 117.131  0.00  0.00    -0.241 OA
ENDBRANCH   3  22
TORSDOF 7
ENDMDL
MODEL 6
REMARK VINA RESULT:      -4.3      1.106      1.795
REMARK  7 active torsions:
REMARK  status: ('A' for Active; 'I' for Inactive)
REMARK    1  A    between atoms: C_2  and  C_3 
REMARK    2  A    between atoms: C_3  and  O_6 
REMARK    3  A    between atoms: C_3  and  C_4 
REMARK    4  A    between atoms: C_7  and  O_6 
REMARK    5  A    between atoms: C_9  and  C_10 
REMARK    6  A    between atoms: N_15  and  C_14 
REMARK    7  A    between atoms: N_20  and  C_19 
REMARK       I    between atoms: C_22  and  N_20 
ROOT
ATOM      1  C   LIG d   1      -1.224  75.101 115.712  0.00  0.00     0.161 C 
ATOM      2  C   LIG d   1      -0.829  74.664 116.987  0.00  0.00     0.016 C 
ATOM      3  C   LIG d   1      -0.130  75.479 117.908  0.00  0.00     0.038 C 
ATOM      4  C   LIG d   1       0.091  76.843 117.671  0.00  0.00     0.028 C 
ATOM      5  C   LIG d   1       0.157  77.198 116.189  0.00  0.00    -0.047 C 
ATOM      6  C   LIG d   1      -1.089  76.621 115.479  0.00  0.00     0.091 C 
ENDROOT
BRANCH   1   7
ATOM      7  O   LIG d   1      -2.573  74.671 115.443  0.00  0.00    -0.368 OA
BRANCH   7   8
ATOM      8  C   LIG d   1      -3.625  75.581 115.848  0.00  0.00     0.119 C 
BRANCH   8   9
ATOM      9  C   LIG d   1      -4.223  75.043 117.162  0.00  0.00     0.028 C 
ATOM     10  C   LIG d   1      -4.004  76.003 118.343  0.00  0.00     0.006 C 
ENDBRANCH   8   9
BRANCH   8  11
ATOM     11  C   LIG d   1      -4.782  75.577 114.844  0.00  0.00     0.028 C 
ATOM     12  C   LIG d   1      -6.050  74.910 115.400  0.00  0.00     0.006 C 
ENDBRANCH   8  11
ENDBRANCH   7   8
ENDBRANCH   1   7
BRANCH   6  13
ATOM     13  N   LIG d   1      -1.062  76.850 114.011  0.00  0.00    -0.311 N 
ATOM     14  C   LIG d   1      -1.916  77.653 113.379  0.00  0.00     0.210 C 
ATOM     15  C   LIG d   1      -1.726  77.732 111.860  0.00  0.00     0.109 C 
ATOM     16  O   LIG d   1      -2.791  78.333 113.935  0.00  0.00    -0.276 OA
ATOM     17  H   LIG d   1      -0.363  76.362 113.486  0.00  0.00     0.149 HD
ENDBRANCH   6  13
BRANCH   5  18
ATOM     18  N   LIG d   1       0.252  78.666 116.086  0.00  0.00     0.381 N 
ATOM     19  H   LIG d   1      -0.353  79.093 116.758  0.00  0.00    -0.090 HD
ATOM     20  H   LIG d   1      -0.046  78.948 115.169  0.00  0.00    -0.090 HD
ATOM     21  H   LIG d   1       1.192  78.959 116.242  0.00  0.00    -0.090 HD
ENDBRANCH   5  18
BRANCH   3  22
ATOM     22  C   LIG d   1       0.392  74.918 119.064  0.00  0.00     0.382 C 
ATOM     23  O   LIG d   1       1.592  75.116 119.370  0.00  0.00    -0.241 OA
ATOM     24  O   LIG d   1      -0.311  74.180 119.780  0.00  0.00    -0.241 OA
ENDBRANCH   3  22
TORSDOF 7
ENDMDL
MODEL 7
REMARK VINA RESULT:      -4.1      2.888      5.121
REMARK  7 active torsions:
REMARK  status: ('A' for Active; 'I' for Inactive)
REMARK    1  A    between atoms: C_2  and  C_3 
REMARK    2  A    between atoms: C_3  and  O_6 
REMARK    3  A    between atoms: C_3  and  C_4 
REMARK    4  A    between atoms: C_7  and  O_6 
REMARK    5  A    between atoms: C_9  and  C_10 
REMARK    6  A    between atoms: N_15  and  C_14 
REMARK    7  A    between atoms: N_20  and  C_19 
REMARK       I    between atoms: C_22  and  N_20 
ROOT
ATOM      1  C   LIG d   1      -4.600  76.152 118.224  0.00  0.00     0.161 C 
ATOM      2  C   LIG d   1      -5.592  77.137 118.083  0.00  0.00     0.016 C 
ATOM      3  C   LIG d   1      -5.387  78.499 118.401  0.00  0.00     0.038 C 
ATOM      4  C   LIG d   1      -4.121  78.999 118.742  0.00  0.00     0.028 C 
ATOM      5  C   LIG d   1      -3.211  77.957 119.384  0.00  0.00    -0.047 C 
ATOM      6  C   LIG d   1      -3.181  76.697 118.488  0.00  0.00     0.091 C 
ENDROOT
BRANCH   1   7
ATOM      7  O   LIG d   1      -4.599  75.291 117.069  0.00  0.00    -0.368 OA
BRANCH   7   8
ATOM      8  C   LIG d   1      -5.055  75.886 115.829  0.00  0.00     0.119 C 
BRANCH   8   9
ATOM      9  C   LIG d   1      -6.010  74.882 115.157  0.00  0.00     0.028 C 
ATOM     10  C   LIG d   1      -6.931  74.180 116.169  0.00  0.00     0.006 C 
ENDBRANCH   8   9
BRANCH   8  11
ATOM     11  C   LIG d   1      -3.899  76.070 114.841  0.00  0.00     0.028 C 
ATOM     12  C   LIG d   1      -3.214  77.439 114.973  0.00  0.00     0.006 C 
ENDBRANCH   8  11
ENDBRANCH   7   8
ENDBRANCH   1   7
BRANCH   6  13
ATOM     13  N   LIG d   1      -2.380  75.597 119.085  0.00  0.00    -0.311 N 
ATOM     14  C   LIG d   1      -1.097  75.384 118.797  0.00  0.00     0.210 C 
ATOM     15  C   LIG d   1      -0.466  74.183 119.508  0.00  0.00     0.109 C 
ATOM     16  O   LIG d   1      -0.414  76.095 118.045  0.00  0.00    -0.276 OA
ATOM     17  H   LIG d   1      -2.848  74.990 119.730  0.00  0.00     0.149 HD
ENDBRANCH   6  13
BRANCH   5  18
ATOM     18  N   LIG d   1      -1.883  78.573 119.560  0.00  0.00     0.381 N 
ATOM     19  H   LIG d   1      -1.793  78.923 120.493  0.00  0.00    -0.090 HD
ATOM     20  H   LIG d   1      -1.796  79.346 118.924  0.00  0.00    -0.090 HD
ATOM     21  H   LIG d   1      -1.169  77.902 119.379  0.00  0.00    -0.090 HD
ENDBRANCH   5  18
BRANCH   3  22
ATOM     22  C   LIG d   1      -6.466  79.370 118.419  0.00  0.00     0.382 C 
ATOM     23  O   LIG d   1      -6.891  79.819 119.511  0.00  0.00    -0.241 OA
ATOM     24  O   LIG d   1      -7.047  79.678 117.362  0.00  0.00    -0.241 OA
ENDBRANCH   3  22
TORSDOF 7
ENDMDL
MODEL 8
REMARK VINA RESULT:      -3.9      2.525      6.142
REMARK  7 active torsions:
REMARK  status: ('A' for Active; 'I' for Inactive)
REMARK    1  A    between atoms: C_2  and  C_3 
REMARK    2  A    between atoms: C_3  and  O_6 
REMARK    3  A    between atoms: C_3  and  C_4 
REMARK    4  A    between atoms: C_7  and  O_6 
REMARK    5  A    between atoms: C_9  and  C_10 
REMARK    6  A    between atoms: N_15  and  C_14 
REMARK    7  A    between atoms: N_20  and  C_19 
REMARK       I    between atoms: C_22  and  N_20 
ROOT
ATOM      1  C   LIG d   1      -1.399  76.879 115.988  0.00  0.00     0.161 C 
ATOM      2  C   LIG d   1      -1.449  77.515 114.736  0.00  0.00     0.016 C 
ATOM      3  C   LIG d   1      -2.554  77.421 113.860  0.00  0.00     0.038 C 
ATOM      4  C   LIG d   1      -3.755  76.805 114.244  0.00  0.00     0.028 C 
ATOM      5  C   LIG d   1      -3.568  75.718 115.298  0.00  0.00    -0.047 C 
ATOM      6  C   LIG d   1      -2.742  76.294 116.471  0.00  0.00     0.091 C 
ENDROOT
BRANCH   1   7
ATOM      7  O   LIG d   1      -0.863  77.784 116.974  0.00  0.00    -0.368 OA
BRANCH   7   8
ATOM      8  C   LIG d   1       0.466  77.478 117.464  0.00  0.00     0.119 C 
BRANCH   8   9
ATOM      9  C   LIG d   1       0.313  76.878 118.874  0.00  0.00     0.028 C 
ATOM     10  C   LIG d   1       0.944  75.479 118.989  0.00  0.00     0.006 C 
ENDBRANCH   8   9
BRANCH   8  11
ATOM     11  C   LIG d   1       1.297  78.751 117.652  0.00  0.00     0.028 C 
ATOM     12  C   LIG d   1       2.801  78.467 117.788  0.00  0.00     0.006 C 
ENDBRANCH   8  11
ENDBRANCH   7   8
ENDBRANCH   1   7
BRANCH   6  13
ATOM     13  N   LIG d   1      -2.442  75.273 117.508  0.00  0.00    -0.311 N 
ATOM     14  C   LIG d   1      -2.924  75.323 118.748  0.00  0.00     0.210 C 
ATOM     15  C   LIG d   1      -2.474  74.181 119.664  0.00  0.00     0.109 C 
ATOM     16  O   LIG d   1      -3.708  76.188 119.168  0.00  0.00    -0.276 OA
ATOM     17  H   LIG d   1      -1.839  74.519 117.244  0.00  0.00     0.149 HD
ENDBRANCH   6  13
BRANCH   5  18
ATOM     18  N   LIG d   1      -4.908  75.257 115.705  0.00  0.00     0.381 N 
ATOM     19  H   LIG d   1      -5.437  76.028 116.063  0.00  0.00    -0.090 HD
ATOM     20  H   LIG d   1      -4.809  74.576 116.437  0.00  0.00    -0.090 HD
ATOM     21  H   LIG d   1      -5.381  74.853 114.927  0.00  0.00    -0.090 HD
ENDBRANCH   5  18
BRANCH   3  22
ATOM     22  C   LIG d   1      -2.451  77.914 112.568  0.00  0.00     0.382 C 
ATOM     23  O   LIG d   1      -2.232  77.129 111.613  0.00  0.00    -0.241 OA
ATOM     24  O   LIG d   1      -2.529  79.138 112.350  0.00  0.00    -0.241 OA
ENDBRANCH   3  22
TORSDOF 7
ENDMDL
MODEL 9
REMARK VINA RESULT:      -3.5      2.530      6.047
REMARK  7 active torsions:
REMARK  status: ('A' for Active; 'I' for Inactive)
REMARK    1  A    between atoms: C_2  and  C_3 
REMARK    2  A    between atoms: C_3  and  O_6 
REMARK    3  A    between atoms: C_3  and  C_4 
REMARK    4  A    between atoms: C_7  and  O_6 
REMARK    5  A    between atoms: C_9  and  C_10 
REMARK    6  A    between atoms: N_15  and  C_14 
REMARK    7  A    between atoms: N_20  and  C_19 
REMARK       I    between atoms: C_22  and  N_20 
ROOT
ATOM      1  C   LIG d   1      -1.365  77.059 115.658  0.00  0.00     0.161 C 
ATOM      2  C   LIG d   1      -1.445  77.661 114.391  0.00  0.00     0.016 C 
ATOM      3  C   LIG d   1      -2.571  77.545 113.543  0.00  0.00     0.038 C 
ATOM      4  C   LIG d   1      -3.762  76.940 113.972  0.00  0.00     0.028 C 
ATOM      5  C   LIG d   1      -3.550  75.882 115.050  0.00  0.00    -0.047 C 
ATOM      6  C   LIG d   1      -2.698  76.489 116.188  0.00  0.00     0.091 C 
ENDROOT
BRANCH   1   7
ATOM      7  O   LIG d   1      -0.806  77.990 116.606  0.00  0.00    -0.368 OA
BRANCH   7   8
ATOM      8  C   LIG d   1       0.060  77.423 117.620  0.00  0.00     0.119 C 
BRANCH   8   9
ATOM      9  C   LIG d   1      -0.499  77.840 118.994  0.00  0.00     0.028 C 
ATOM     10  C   LIG d   1      -1.231  79.192 118.943  0.00  0.00     0.006 C 
ENDBRANCH   8   9
BRANCH   8  11
ATOM     11  C   LIG d   1       1.465  78.029 117.553  0.00  0.00     0.028 C 
ATOM     12  C   LIG d   1       2.318  77.693 118.787  0.00  0.00     0.006 C 
ENDBRANCH   8  11
ENDBRANCH   7   8
ENDBRANCH   1   7
BRANCH   6  13
ATOM     13  N   LIG d   1      -2.373  75.495 117.244  0.00  0.00    -0.311 N 
ATOM     14  C   LIG d   1      -3.051  75.392 118.386  0.00  0.00     0.210 C 
ATOM     15  C   LIG d   1      -2.538  74.314 119.347  0.00  0.00     0.109 C 
ATOM     16  O   LIG d   1      -4.047  76.068 118.681  0.00  0.00    -0.276 OA
ATOM     17  H   LIG d   1      -1.598  74.885 117.074  0.00  0.00     0.149 HD
ENDBRANCH   6  13
BRANCH   5  18
ATOM     18  N   LIG d   1      -4.881  75.433 115.501  0.00  0.00     0.381 N 
ATOM     19  H   LIG d   1      -5.425  76.222 115.790  0.00  0.00    -0.090 HD
ATOM     20  H   LIG d   1      -4.768  74.823 116.291  0.00  0.00    -0.090 HD
ATOM     21  H   LIG d   1      -5.347  74.952 114.764  0.00  0.00    -0.090 HD
ENDBRANCH   5  18
BRANCH   3  22
ATOM     22  C   LIG d   1      -2.497  78.002 112.237  0.00  0.00     0.382 C 
ATOM     23  O   LIG d   1      -2.452  77.183 111.287  0.00  0.00    -0.241 OA
ATOM     24  O   LIG d   1      -2.431  79.223 111.998  0.00  0.00    -0.241 OA
ENDBRANCH   3  22
TORSDOF 7
ENDMDL
