MODEL 1
REMARK VINA RESULT:      -5.0      0.000      0.000
REMARK  7 active torsions:
REMARK  status: ('A' for Active; 'I' for Inactive)
REMARK    1  A    between atoms: C_2  and  C_3 
REMARK    2  A    between atoms: C_3  and  O_6 
REMARK    3  A    between atoms: C_3  and  C_4 
REMARK    4  A    between atoms: C_7  and  O_6 
REMARK    5  A    between atoms: C_9  and  C_10 
REMARK    6  A    between atoms: N_15  and  C_14 
REMARK    7  A    between atoms: N_20  and  C_19 
REMARK       I    between atoms: C_22  and  N_20 
ROOT
ATOM      1  C   LIG d   1      -0.866  80.538 112.509  0.00  0.00     0.161 C 
ATOM      2  C   LIG d   1      -1.850  79.640 112.956  0.00  0.00     0.016 C 
ATOM      3  C   LIG d   1      -2.004  78.333 112.440  0.00  0.00     0.038 C 
ATOM      4  C   LIG d   1      -1.081  77.778 111.541  0.00  0.00     0.028 C 
ATOM      5  C   LIG d   1      -0.368  78.819 110.685  0.00  0.00    -0.047 C 
ATOM      6  C   LIG d   1       0.219  79.911 111.609  0.00  0.00     0.091 C 
ENDROOT
BRANCH   1   7
ATOM      7  O   LIG d   1      -0.260  81.200 113.637  0.00  0.00    -0.368 OA
BRANCH   7   8
ATOM      8  C   LIG d   1       0.790  80.469 114.317  0.00  0.00     0.119 C 
BRANCH   8   9
ATOM      9  C   LIG d   1       0.361  80.303 115.787  0.00  0.00     0.028 C 
ATOM     10  C   LIG d   1      -0.095  78.870 116.108  0.00  0.00     0.006 C 
ENDBRANCH   8   9
BRANCH   8  11
ATOM     11  C   LIG d   1       2.091  81.276 114.362  0.00  0.00     0.028 C 
ATOM     12  C   LIG d   1       2.738  81.286 115.756  0.00  0.00     0.006 C 
ENDBRANCH   8  11
ENDBRANCH   7   8
ENDBRANCH   1   7
BRANCH   6  13
ATOM     13  N   LIG d   1       0.862  81.013 110.846  0.00  0.00    -0.311 N 
ATOM     14  C   LIG d   1       2.167  81.058 110.583  0.00  0.00     0.210 C 
ATOM     15  C   LIG d   1       2.626  82.292 109.800  0.00  0.00     0.109 C 
ATOM     16  O   LIG d   1       2.982  80.178 110.896  0.00  0.00    -0.276 OA
ATOM     17  H   LIG d   1       0.268  81.753 110.527  0.00  0.00     0.149 HD
ENDBRANCH   6  13
BRANCH   5  18
ATOM     18  N   LIG d   1       0.661  78.116 109.895  0.00  0.00     0.381 N 
ATOM     19  H   LIG d   1       1.202  78.780 109.377  0.00  0.00    -0.090 HD
ATOM     20  H   LIG d   1       0.206  77.503 109.242  0.00  0.00    -0.090 HD
ATOM     21  H   LIG d   1       1.254  77.591 110.498  0.00  0.00    -0.090 HD
ENDBRANCH   5  18
BRANCH   3  22
ATOM     22  C   LIG d   1      -3.114  77.581 112.793  0.00  0.00     0.382 C 
ATOM     23  O   LIG d   1      -2.997  76.635 113.609  0.00  0.00    -0.241 OA
ATOM     24  O   LIG d   1      -4.223  77.808 112.273  0.00  0.00    -0.241 OA
ENDBRANCH   3  22
TORSDOF 7
ENDMDL
MODEL 2
REMARK VINA RESULT:      -4.8      3.336      6.110
REMARK  7 active torsions:
REMARK  status: ('A' for Active; 'I' for Inactive)
REMARK    1  A    between atoms: C_2  and  C_3 
REMARK    2  A    between atoms: C_3  and  O_6 
REMARK    3  A    between atoms: C_3  and  C_4 
REMARK    4  A    between atoms: C_7  and  O_6 
REMARK    5  A    between atoms: C_9  and  C_10 
REMARK    6  A    between atoms: N_15  and  C_14 
REMARK    7  A    between atoms: N_20  and  C_19 
REMARK       I    between atoms: C_22  and  N_20 
ROOT
ATOM      1  C   LIG d   1      -2.247  78.186 115.045  0.00  0.00     0.161 C 
ATOM      2  C   LIG d   1      -2.710  79.125 114.108  0.00  0.00     0.016 C 
ATOM      3  C   LIG d   1      -1.945  80.233 113.674  0.00  0.00     0.038 C 
ATOM      4  C   LIG d   1      -0.600  80.393 114.037  0.00  0.00     0.028 C 
ATOM      5  C   LIG d   1      -0.252  79.749 115.375  0.00  0.00    -0.047 C 
ATOM      6  C   LIG d   1      -0.741  78.282 115.367  0.00  0.00     0.091 C 
ENDROOT
BRANCH   1   7
ATOM      7  O   LIG d   1      -2.582  76.854 114.607  0.00  0.00    -0.368 OA
BRANCH   7   8
ATOM      8  C   LIG d   1      -3.529  76.132 115.432  0.00  0.00     0.119 C 
BRANCH   8   9
ATOM      9  C   LIG d   1      -4.818  75.950 114.607  0.00  0.00     0.028 C 
ATOM     10  C   LIG d   1      -5.460  74.569 114.817  0.00  0.00     0.006 C 
ENDBRANCH   8   9
BRANCH   8  11
ATOM     11  C   LIG d   1      -3.944  76.954 116.656  0.00  0.00     0.028 C 
ATOM     12  C   LIG d   1      -3.763  76.190 117.977  0.00  0.00     0.006 C 
ENDBRANCH   8  11
ENDBRANCH   7   8
ENDBRANCH   1   7
BRANCH   6  13
ATOM     13  N   LIG d   1      -0.516  77.603 116.670  0.00  0.00    -0.311 N 
ATOM     14  C   LIG d   1      -0.051  76.360 116.778  0.00  0.00     0.210 C 
ATOM     15  C   LIG d   1       0.087  75.844 118.214  0.00  0.00     0.109 C 
ATOM     16  O   LIG d   1       0.290  75.647 115.823  0.00  0.00    -0.276 OA
ATOM     17  H   LIG d   1      -0.737  78.121 117.498  0.00  0.00     0.149 HD
ENDBRANCH   6  13
BRANCH   5  18
ATOM     18  N   LIG d   1       1.205  79.871 115.563  0.00  0.00     0.381 N 
ATOM     19  H   LIG d   1       1.455  79.566 116.483  0.00  0.00    -0.090 HD
ATOM     20  H   LIG d   1       1.465  80.838 115.471  0.00  0.00    -0.090 HD
ATOM     21  H   LIG d   1       1.685  79.324 114.882  0.00  0.00    -0.090 HD
ENDBRANCH   5  18
BRANCH   3  22
ATOM     22  C   LIG d   1      -2.540  81.216 112.899  0.00  0.00     0.382 C 
ATOM     23  O   LIG d   1      -1.852  82.167 112.456  0.00  0.00    -0.241 OA
ATOM     24  O   LIG d   1      -3.765  81.189 112.673  0.00  0.00    -0.241 OA
ENDBRANCH   3  22
TORSDOF 7
ENDMDL
MODEL 3
REMARK VINA RESULT:      -4.7      4.004      6.286
REMARK  7 active torsions:
REMARK  status: ('A' for Active; 'I' for Inactive)
REMARK    1  A    between atoms: C_2  and  C_3 
REMARK    2  A    between atoms: C_3  and  O_6 
REMARK    3  A    between atoms: C_3  and  C_4 
REMARK    4  A    between atoms: C_7  and  O_6 
REMARK    5  A    between atoms: C_9  and  C_10 
REMARK    6  A    between atoms: N_15  and  C_14 
REMARK    7  A    between atoms: N_20  and  C_19 
REMARK       I    between atoms: C_22  and  N_20 
ROOT
ATOM      1  C   LIG d   1      -2.863  78.531 115.933  0.00  0.00     0.161 C 
ATOM      2  C   LIG d   1      -3.065  79.635 115.089  0.00  0.00     0.016 C 
ATOM      3  C   LIG d   1      -2.470  79.758 113.812  0.00  0.00     0.038 C 
ATOM      4  C   LIG d   1      -1.748  78.707 113.227  0.00  0.00     0.028 C 
ATOM      5  C   LIG d   1      -1.098  77.777 114.246  0.00  0.00    -0.047 C 
ATOM      6  C   LIG d   1      -2.168  77.326 115.266  0.00  0.00     0.091 C 
ENDROOT
BRANCH   1   7
ATOM      7  O   LIG d   1      -4.117  78.127 116.517  0.00  0.00    -0.368 OA
BRANCH   7   8
ATOM      8  C   LIG d   1      -4.369  78.586 117.868  0.00  0.00     0.119 C 
BRANCH   8   9
ATOM      9  C   LIG d   1      -4.717  77.350 118.720  0.00  0.00     0.028 C 
ATOM     10  C   LIG d   1      -4.917  76.086 117.866  0.00  0.00     0.006 C 
ENDBRANCH   8   9
BRANCH   8  11
ATOM     11  C   LIG d   1      -5.610  79.482 117.929  0.00  0.00     0.028 C 
ATOM     12  C   LIG d   1      -5.270  80.977 117.820  0.00  0.00     0.006 C 
ENDBRANCH   8  11
ENDBRANCH   7   8
ENDBRANCH   1   7
BRANCH   6  13
ATOM     13  N   LIG d   1      -1.599  76.480 116.348  0.00  0.00    -0.311 N 
ATOM     14  C   LIG d   1      -1.599  75.149 116.315  0.00  0.00     0.210 C 
ATOM     15  C   LIG d   1      -0.980  74.471 117.541  0.00  0.00     0.109 C 
ATOM     16  O   LIG d   1      -2.025  74.465 115.372  0.00  0.00    -0.276 OA
ATOM     17  H   LIG d   1      -1.204  76.954 117.137  0.00  0.00     0.149 HD
ENDBRANCH   6  13
BRANCH   5  18
ATOM     18  N   LIG d   1      -0.496  76.654 113.504  0.00  0.00     0.381 N 
ATOM     19  H   LIG d   1      -1.062  75.836 113.610  0.00  0.00    -0.090 HD
ATOM     20  H   LIG d   1       0.412  76.460 113.888  0.00  0.00    -0.090 HD
ATOM     21  H   LIG d   1      -0.414  76.887 112.539  0.00  0.00    -0.090 HD
ENDBRANCH   5  18
BRANCH   3  22
ATOM     22  C   LIG d   1      -2.562  80.958 113.123  0.00  0.00     0.382 C 
ATOM     23  O   LIG d   1      -1.553  81.696 113.013  0.00  0.00    -0.241 OA
ATOM     24  O   LIG d   1      -3.651  81.332 112.649  0.00  0.00    -0.241 OA
ENDBRANCH   3  22
TORSDOF 7
ENDMDL
MODEL 4
REMARK VINA RESULT:      -4.6      2.318      4.193
REMARK  7 active torsions:
REMARK  status: ('A' for Active; 'I' for Inactive)
REMARK    1  A    between atoms: C_2  and  C_3 
REMARK    2  A    between atoms: C_3  and  O_6 
REMARK    3  A    between atoms: C_3  and  C_4 
REMARK    4  A    between atoms: C_7  and  O_6 
REMARK    5  A    between atoms: C_9  and  C_10 
REMARK    6  A    between atoms: N_15  and  C_14 
REMARK    7  A    between atoms: N_20  and  C_19 
REMARK       I    between atoms: C_22  and  N_20 
ROOT
ATOM      1  C   LIG d   1      -0.084  80.159 113.048  0.00  0.00     0.161 C 
ATOM      2  C   LIG d   1      -1.164  79.565 112.375  0.00  0.00     0.016 C 
ATOM      3  C   LIG d   1      -2.038  78.630 112.977  0.00  0.00     0.038 C 
ATOM      4  C   LIG d   1      -1.981  78.339 114.348  0.00  0.00     0.028 C 
ATOM      5  C   LIG d   1      -0.594  78.531 114.951  0.00  0.00    -0.047 C 
ATOM      6  C   LIG d   1      -0.074  79.937 114.576  0.00  0.00     0.091 C 
ENDROOT
BRANCH   1   7
ATOM      7  O   LIG d   1      -0.035  81.567 112.746  0.00  0.00    -0.368 OA
BRANCH   7   8
ATOM      8  C   LIG d   1       1.154  82.031 112.060  0.00  0.00     0.119 C 
BRANCH   8   9
ATOM      9  C   LIG d   1       0.697  82.734 110.767  0.00  0.00     0.028 C 
ATOM     10  C   LIG d   1      -0.648  83.459 110.937  0.00  0.00     0.006 C 
ENDBRANCH   8   9
BRANCH   8  11
ATOM     11  C   LIG d   1       2.023  80.857 111.598  0.00  0.00     0.028 C 
ATOM     12  C   LIG d   1       2.492  81.000 110.141  0.00  0.00     0.006 C 
ENDBRANCH   8  11
ENDBRANCH   7   8
ENDBRANCH   1   7
BRANCH   6  13
ATOM     13  N   LIG d   1       1.312  80.176 115.055  0.00  0.00    -0.311 N 
ATOM     14  C   LIG d   1       1.615  81.042 116.020  0.00  0.00     0.210 C 
ATOM     15  C   LIG d   1       3.108  81.149 116.348  0.00  0.00     0.109 C 
ATOM     16  O   LIG d   1       0.787  81.709 116.658  0.00  0.00    -0.276 OA
ATOM     17  H   LIG d   1       2.044  79.654 114.614  0.00  0.00     0.149 HD
ENDBRANCH   6  13
BRANCH   5  18
ATOM     18  N   LIG d   1      -0.709  78.327 116.407  0.00  0.00     0.381 N 
ATOM     19  H   LIG d   1      -0.271  77.465 116.664  0.00  0.00    -0.090 HD
ATOM     20  H   LIG d   1      -1.682  78.272 116.652  0.00  0.00    -0.090 HD
ATOM     21  H   LIG d   1      -0.279  79.083 116.893  0.00  0.00    -0.090 HD
ENDBRANCH   5  18
BRANCH   3  22
ATOM     22  C   LIG d   1      -2.957  77.946 112.195  0.00  0.00     0.382 C 
ATOM     23  O   LIG d   1      -2.632  77.545 111.052  0.00  0.00    -0.241 OA
ATOM     24  O   LIG d   1      -4.120  77.764 112.602  0.00  0.00    -0.241 OA
ENDBRANCH   3  22
TORSDOF 7
ENDMDL
MODEL 5
REMARK VINA RESULT:      -4.6      2.222      4.194
REMARK  7 active torsions:
REMARK  status: ('A' for Active; 'I' for Inactive)
REMARK    1  A    between atoms: C_2  and  C_3 
REMARK    2  A    between atoms: C_3  and  O_6 
REMARK    3  A    between atoms: C_3  and  C_4 
REMARK    4  A    between atoms: C_7  and  O_6 
REMARK    5  A    between atoms: C_9  and  C_10 
REMARK    6  A    between atoms: N_15  and  C_14 
REMARK    7  A    between atoms: N_20  and  C_19 
REMARK       I    between atoms: C_22  and  N_20 
ROOT
ATOM      1  C   LIG d   1      -0.026  80.048 112.691  0.00  0.00     0.161 C 
ATOM      2  C   LIG d   1      -1.150  79.396 112.158  0.00  0.00     0.016 C 
ATOM      3  C   LIG d   1      -2.043  78.623 112.935  0.00  0.00     0.038 C 
ATOM      4  C   LIG d   1      -1.956  78.574 114.335  0.00  0.00     0.028 C 
ATOM      5  C   LIG d   1      -0.544  78.805 114.863  0.00  0.00    -0.047 C 
ATOM      6  C   LIG d   1       0.022  80.098 114.232  0.00  0.00     0.091 C 
ENDROOT
BRANCH   1   7
ATOM      7  O   LIG d   1       0.073  81.378 112.143  0.00  0.00    -0.368 OA
BRANCH   7   8
ATOM      8  C   LIG d   1       0.783  81.499 110.887  0.00  0.00     0.119 C 
BRANCH   8   9
ATOM      9  C   LIG d   1       2.290  81.413 111.197  0.00  0.00     0.028 C 
ATOM     10  C   LIG d   1       2.971  80.235 110.480  0.00  0.00     0.006 C 
ENDBRANCH   8   9
BRANCH   8  11
ATOM     11  C   LIG d   1       0.577  82.881 110.260  0.00  0.00     0.028 C 
ATOM     12  C   LIG d   1      -0.639  83.622 110.839  0.00  0.00     0.006 C 
ENDBRANCH   8  11
ENDBRANCH   7   8
ENDBRANCH   1   7
BRANCH   6  13
ATOM     13  N   LIG d   1       1.431  80.353 114.631  0.00  0.00    -0.311 N 
ATOM     14  C   LIG d   1       1.773  81.096 115.682  0.00  0.00     0.210 C 
ATOM     15  C   LIG d   1       3.281  81.248 115.903  0.00  0.00     0.109 C 
ATOM     16  O   LIG d   1       0.971  81.617 116.471  0.00  0.00    -0.276 OA
ATOM     17  H   LIG d   1       2.147  79.942 114.064  0.00  0.00     0.149 HD
ENDBRANCH   6  13
BRANCH   5  18
ATOM     18  N   LIG d   1      -0.622  78.866 116.334  0.00  0.00     0.381 N 
ATOM     19  H   LIG d   1      -1.494  78.483 116.643  0.00  0.00    -0.090 HD
ATOM     20  H   LIG d   1      -0.581  79.827 116.623  0.00  0.00    -0.090 HD
ATOM     21  H   LIG d   1       0.134  78.357 116.737  0.00  0.00    -0.090 HD
ENDBRANCH   5  18
BRANCH   3  22
ATOM     22  C   LIG d   1      -3.012  77.855 112.309  0.00  0.00     0.382 C 
ATOM     23  O   LIG d   1      -2.869  77.522 111.108  0.00  0.00    -0.241 OA
ATOM     24  O   LIG d   1      -4.050  77.529 112.916  0.00  0.00    -0.241 OA
ENDBRANCH   3  22
TORSDOF 7
ENDMDL
MODEL 6
REMARK VINA RESULT:      -4.5      3.466      5.210
REMARK  7 active torsions:
REMARK  status: ('A' for Active; 'I' for Inactive)
REMARK    1  A    between atoms: C_2  and  C_3 
REMARK    2  A    between atoms: C_3  and  O_6 
REMARK    3  A    between atoms: C_3  and  C_4 
REMARK    4  A    between atoms: C_7  and  O_6 
REMARK    5  A    between atoms: C_9  and  C_10 
REMARK    6  A    between atoms: N_15  and  C_14 
REMARK    7  A    between atoms: N_20  and  C_19 
REMARK       I    between atoms: C_22  and  N_20 
ROOT
ATOM      1  C   LIG d   1      -1.587  77.058 114.003  0.00  0.00     0.161 C 
ATOM      2  C   LIG d   1      -2.366  78.215 114.167  0.00  0.00     0.016 C 
ATOM      3  C   LIG d   1      -2.507  79.206 113.168  0.00  0.00     0.038 C 
ATOM      4  C   LIG d   1      -1.995  79.032 111.874  0.00  0.00     0.028 C 
ATOM      5  C   LIG d   1      -0.778  78.114 111.822  0.00  0.00    -0.047 C 
ATOM      6  C   LIG d   1      -1.112  76.797 112.559  0.00  0.00     0.091 C 
ENDROOT
BRANCH   1   7
ATOM      7  O   LIG d   1      -2.301  75.913 114.510  0.00  0.00    -0.368 OA
BRANCH   7   8
ATOM      8  C   LIG d   1      -2.131  75.629 115.921  0.00  0.00     0.119 C 
BRANCH   8   9
ATOM      9  C   LIG d   1      -1.013  74.576 116.050  0.00  0.00     0.028 C 
ATOM     10  C   LIG d   1      -0.745  74.181 117.512  0.00  0.00     0.006 C 
ENDBRANCH   8   9
BRANCH   8  11
ATOM     11  C   LIG d   1      -3.380  74.969 116.511  0.00  0.00     0.028 C 
ATOM     12  C   LIG d   1      -3.986  75.772 117.673  0.00  0.00     0.006 C 
ENDBRANCH   8  11
ENDBRANCH   7   8
ENDBRANCH   1   7
BRANCH   6  13
ATOM     13  N   LIG d   1       0.052  75.876 112.628  0.00  0.00    -0.311 N 
ATOM     14  C   LIG d   1       0.403  75.061 111.634  0.00  0.00     0.210 C 
ATOM     15  C   LIG d   1       1.623  74.180 111.919  0.00  0.00     0.109 C 
ATOM     16  O   LIG d   1      -0.162  75.008 110.531  0.00  0.00    -0.276 OA
ATOM     17  H   LIG d   1       0.585  75.877 113.475  0.00  0.00     0.149 HD
ENDBRANCH   6  13
BRANCH   5  18
ATOM     18  N   LIG d   1      -0.434  77.911 110.402  0.00  0.00     0.381 N 
ATOM     19  H   LIG d   1      -1.011  78.492 109.827  0.00  0.00    -0.090 HD
ATOM     20  H   LIG d   1      -0.609  76.952 110.159  0.00  0.00    -0.090 HD
ATOM     21  H   LIG d   1       0.526  78.131 110.250  0.00  0.00    -0.090 HD
ENDBRANCH   5  18
BRANCH   3  22
ATOM     22  C   LIG d   1      -3.132  80.406 113.474  0.00  0.00     0.382 C 
ATOM     23  O   LIG d   1      -3.552  81.146 112.552  0.00  0.00    -0.241 OA
ATOM     24  O   LIG d   1      -3.241  80.778 114.658  0.00  0.00    -0.241 OA
ENDBRANCH   3  22
TORSDOF 7
ENDMDL
MODEL 7
REMARK VINA RESULT:      -4.5      2.009      2.397
REMARK  7 active torsions:
REMARK  status: ('A' for Active; 'I' for Inactive)
REMARK    1  A    between atoms: C_2  and  C_3 
REMARK    2  A    between atoms: C_3  and  O_6 
REMARK    3  A    between atoms: C_3  and  C_4 
REMARK    4  A    between atoms: C_7  and  O_6 
REMARK    5  A    between atoms: C_9  and  C_10 
REMARK    6  A    between atoms: N_15  and  C_14 
REMARK    7  A    between atoms: N_20  and  C_19 
REMARK       I    between atoms: C_22  and  N_20 
ROOT
ATOM      1  C   LIG d   1      -1.312  80.473 113.701  0.00  0.00     0.161 C 
ATOM      2  C   LIG d   1      -2.256  79.444 113.854  0.00  0.00     0.016 C 
ATOM      3  C   LIG d   1      -2.309  78.306 113.017  0.00  0.00     0.038 C 
ATOM      4  C   LIG d   1      -1.319  78.044 112.059  0.00  0.00     0.028 C 
ATOM      5  C   LIG d   1      -0.637  79.302 111.533  0.00  0.00    -0.047 C 
ATOM      6  C   LIG d   1      -0.155  80.150 112.732  0.00  0.00     0.091 C 
ENDROOT
BRANCH   1   7
ATOM      7  O   LIG d   1      -0.793  80.855 114.991  0.00  0.00    -0.368 OA
BRANCH   7   8
ATOM      8  C   LIG d   1      -1.029  79.923 116.075  0.00  0.00     0.119 C 
BRANCH   8   9
ATOM      9  C   LIG d   1      -1.182  80.746 117.368  0.00  0.00     0.028 C 
ATOM     10  C   LIG d   1      -2.512  80.467 118.088  0.00  0.00     0.006 C 
ENDBRANCH   8   9
BRANCH   8  11
ATOM     11  C   LIG d   1       0.186  79.021 116.309  0.00  0.00     0.028 C 
ATOM     12  C   LIG d   1      -0.167  77.525 116.278  0.00  0.00     0.006 C 
ENDBRANCH   8  11
ENDBRANCH   7   8
ENDBRANCH   1   7
BRANCH   6  13
ATOM     13  N   LIG d   1       0.449  81.440 112.308  0.00  0.00    -0.311 N 
ATOM     14  C   LIG d   1      -0.251  82.433 111.761  0.00  0.00     0.210 C 
ATOM     15  C   LIG d   1       0.570  83.668 111.378  0.00  0.00     0.109 C 
ATOM     16  O   LIG d   1      -1.479  82.420 111.585  0.00  0.00    -0.276 OA
ATOM     17  H   LIG d   1       1.435  81.548 112.442  0.00  0.00     0.149 HD
ENDBRANCH   6  13
BRANCH   5  18
ATOM     18  N   LIG d   1       0.464  78.876 110.648  0.00  0.00     0.381 N 
ATOM     19  H   LIG d   1       1.135  79.613 110.562  0.00  0.00    -0.090 HD
ATOM     20  H   LIG d   1       0.090  78.682 109.735  0.00  0.00    -0.090 HD
ATOM     21  H   LIG d   1       0.901  78.060 111.016  0.00  0.00    -0.090 HD
ENDBRANCH   5  18
BRANCH   3  22
ATOM     22  C   LIG d   1      -3.384  77.435 113.109  0.00  0.00     0.382 C 
ATOM     23  O   LIG d   1      -3.327  76.447 113.880  0.00  0.00    -0.241 OA
ATOM     24  O   LIG d   1      -4.393  77.599 112.397  0.00  0.00    -0.241 OA
ENDBRANCH   3  22
TORSDOF 7
ENDMDL
MODEL 8
REMARK VINA RESULT:      -4.4      3.920      6.257
REMARK  7 active torsions:
REMARK  status: ('A' for Active; 'I' for Inactive)
REMARK    1  A    between atoms: C_2  and  C_3 
REMARK    2  A    between atoms: C_3  and  O_6 
REMARK    3  A    between atoms: C_3  and  C_4 
REMARK    4  A    between atoms: C_7  and  O_6 
REMARK    5  A    between atoms: C_9  and  C_10 
REMARK    6  A    between atoms: N_15  and  C_14 
REMARK    7  A    between atoms: N_20  and  C_19 
REMARK       I    between atoms: C_22  and  N_20 
ROOT
ATOM      1  C   LIG d   1      -1.907  79.438 116.377  0.00  0.00     0.161 C 
ATOM      2  C   LIG d   1      -2.381  80.349 115.418  0.00  0.00     0.016 C 
ATOM      3  C   LIG d   1      -2.312  80.118 114.025  0.00  0.00     0.038 C 
ATOM      4  C   LIG d   1      -1.897  78.886 113.497  0.00  0.00     0.028 C 
ATOM      5  C   LIG d   1      -0.938  78.128 114.409  0.00  0.00    -0.047 C 
ATOM      6  C   LIG d   1      -1.553  78.042 115.824  0.00  0.00     0.091 C 
ENDROOT
BRANCH   1   7
ATOM      7  O   LIG d   1      -2.857  79.324 117.455  0.00  0.00    -0.368 OA
BRANCH   7   8
ATOM      8  C   LIG d   1      -4.255  79.334 117.075  0.00  0.00     0.119 C 
BRANCH   8   9
ATOM      9  C   LIG d   1      -4.949  80.442 117.892  0.00  0.00     0.028 C 
ATOM     10  C   LIG d   1      -4.000  81.105 118.905  0.00  0.00     0.006 C 
ENDBRANCH   8   9
BRANCH   8  11
ATOM     11  C   LIG d   1      -4.953  78.033 117.483  0.00  0.00     0.028 C 
ATOM     12  C   LIG d   1      -6.447  78.228 117.788  0.00  0.00     0.006 C 
ENDBRANCH   8  11
ENDBRANCH   7   8
ENDBRANCH   1   7
BRANCH   6  13
ATOM     13  N   LIG d   1      -0.642  77.389 116.800  0.00  0.00    -0.311 N 
ATOM     14  C   LIG d   1      -0.978  76.316 117.513  0.00  0.00     0.210 C 
ATOM     15  C   LIG d   1       0.103  75.814 118.476  0.00  0.00     0.109 C 
ATOM     16  O   LIG d   1      -2.057  75.713 117.417  0.00  0.00    -0.276 OA
ATOM     17  H   LIG d   1       0.266  77.795 116.918  0.00  0.00     0.149 HD
ENDBRANCH   6  13
BRANCH   5  18
ATOM     18  N   LIG d   1      -0.696  76.806 113.801  0.00  0.00     0.381 N 
ATOM     19  H   LIG d   1       0.127  76.397 114.196  0.00  0.00    -0.090 HD
ATOM     20  H   LIG d   1      -0.548  76.924 112.814  0.00  0.00    -0.090 HD
ATOM     21  H   LIG d   1      -1.480  76.211 113.958  0.00  0.00    -0.090 HD
ENDBRANCH   5  18
BRANCH   3  22
ATOM     22  C   LIG d   1      -2.622  81.141 113.143  0.00  0.00     0.382 C 
ATOM     23  O   LIG d   1      -3.758  81.190 112.613  0.00  0.00    -0.241 OA
ATOM     24  O   LIG d   1      -1.766  81.992 112.835  0.00  0.00    -0.241 OA
ENDBRANCH   3  22
TORSDOF 7
ENDMDL
MODEL 9
REMARK VINA RESULT:      -4.3      4.367      7.059
REMARK  7 active torsions:
REMARK  status: ('A' for Active; 'I' for Inactive)
REMARK    1  A    between atoms: C_2  and  C_3 
REMARK    2  A    between atoms: C_3  and  O_6 
REMARK    3  A    between atoms: C_3  and  C_4 
REMARK    4  A    between atoms: C_7  and  O_6 
REMARK    5  A    between atoms: C_9  and  C_10 
REMARK    6  A    between atoms: N_15  and  C_14 
REMARK    7  A    between atoms: N_20  and  C_19 
REMARK       I    between atoms: C_22  and  N_20 
ROOT
ATOM      1  C   LIG d   1      -2.820  77.191 116.438  0.00  0.00     0.161 C 
ATOM      2  C   LIG d   1      -3.253  77.598 115.165  0.00  0.00     0.016 C 
ATOM      3  C   LIG d   1      -2.478  77.443 113.993  0.00  0.00     0.038 C 
ATOM      4  C   LIG d   1      -1.270  76.729 113.992  0.00  0.00     0.028 C 
ATOM      5  C   LIG d   1      -0.557  76.742 115.340  0.00  0.00    -0.047 C 
ATOM      6  C   LIG d   1      -1.554  76.309 116.439  0.00  0.00     0.091 C 
ENDROOT
BRANCH   1   7
ATOM      7  O   LIG d   1      -3.895  76.524 117.130  0.00  0.00    -0.368 OA
BRANCH   7   8
ATOM      8  C   LIG d   1      -5.090  76.266 116.352  0.00  0.00     0.119 C 
BRANCH   8   9
ATOM      9  C   LIG d   1      -6.287  76.830 117.143  0.00  0.00     0.028 C 
ATOM     10  C   LIG d   1      -6.057  78.279 117.602  0.00  0.00     0.006 C 
ENDBRANCH   8   9
BRANCH   8  11
ATOM     11  C   LIG d   1      -5.359  74.764 116.226  0.00  0.00     0.028 C 
ATOM     12  C   LIG d   1      -5.198  74.249 114.787  0.00  0.00     0.006 C 
ENDBRANCH   8  11
ENDBRANCH   7   8
ENDBRANCH   1   7
BRANCH   6  13
ATOM     13  N   LIG d   1      -0.961  76.376 117.800  0.00  0.00    -0.311 N 
ATOM     14  C   LIG d   1      -0.449  75.319 118.430  0.00  0.00     0.210 C 
ATOM     15  C   LIG d   1       0.093  75.603 119.834  0.00  0.00     0.109 C 
ATOM     16  O   LIG d   1      -0.364  74.181 117.946  0.00  0.00    -0.276 OA
ATOM     17  H   LIG d   1      -0.960  77.268 118.254  0.00  0.00     0.149 HD
ENDBRANCH   6  13
BRANCH   5  18
ATOM     18  N   LIG d   1       0.612  75.849 115.235  0.00  0.00     0.381 N 
ATOM     19  H   LIG d   1       0.321  74.948 114.912  0.00  0.00    -0.090 HD
ATOM     20  H   LIG d   1       1.021  75.741 116.146  0.00  0.00    -0.090 HD
ATOM     21  H   LIG d   1       1.281  76.235 114.606  0.00  0.00    -0.090 HD
ENDBRANCH   5  18
BRANCH   3  22
ATOM     22  C   LIG d   1      -2.890  78.042 112.813  0.00  0.00     0.382 C 
ATOM     23  O   LIG d   1      -2.775  77.428 111.725  0.00  0.00    -0.241 OA
ATOM     24  O   LIG d   1      -3.334  79.206 112.816  0.00  0.00    -0.241 OA
ENDBRANCH   3  22
TORSDOF 7
ENDMDL
