MODEL 1
REMARK VINA RESULT:      -5.9      0.000      0.000
REMARK  7 active torsions:
REMARK  status: ('A' for Active; 'I' for Inactive)
REMARK    1  A    between atoms: C_2  and  C_3 
REMARK    2  A    between atoms: C_3  and  O_6 
REMARK    3  A    between atoms: C_3  and  C_4 
REMARK    4  A    between atoms: C_7  and  O_6 
REMARK    5  A    between atoms: C_9  and  C_10 
REMARK    6  A    between atoms: N_15  and  C_14 
REMARK    7  A    between atoms: N_20  and  C_19 
REMARK       I    between atoms: C_22  and  N_20 
ROOT
ATOM      1  C   LIG d   1      -2.845  77.869 114.103  0.00  0.00     0.161 C 
ATOM      2  C   LIG d   1      -3.062  79.062 113.392  0.00  0.00     0.016 C 
ATOM      3  C   LIG d   1      -2.168  80.156 113.417  0.00  0.00     0.038 C 
ATOM      4  C   LIG d   1      -0.913  80.074 114.039  0.00  0.00     0.028 C 
ATOM      5  C   LIG d   1      -0.871  79.073 115.189  0.00  0.00    -0.047 C 
ATOM      6  C   LIG d   1      -1.429  77.719 114.697  0.00  0.00     0.091 C 
ENDROOT
BRANCH   1   7
ATOM      7  O   LIG d   1      -3.161  76.738 113.267  0.00  0.00    -0.368 OA
BRANCH   7   8
ATOM      8  C   LIG d   1      -4.439  76.102 113.511  0.00  0.00     0.119 C 
BRANCH   8   9
ATOM      9  C   LIG d   1      -5.486  76.812 112.631  0.00  0.00     0.028 C 
ATOM     10  C   LIG d   1      -6.871  76.869 113.297  0.00  0.00     0.006 C 
ENDBRANCH   8   9
BRANCH   8  11
ATOM     11  C   LIG d   1      -4.905  76.322 114.953  0.00  0.00     0.028 C 
ATOM     12  C   LIG d   1      -4.908  75.029 115.783  0.00  0.00     0.006 C 
ENDBRANCH   8  11
ENDBRANCH   7   8
ENDBRANCH   1   7
BRANCH   6  13
ATOM     13  N   LIG d   1      -1.502  76.707 115.783  0.00  0.00    -0.311 N 
ATOM     14  C   LIG d   1      -1.141  75.435 115.625  0.00  0.00     0.210 C 
ATOM     15  C   LIG d   1      -1.315  74.555 116.867  0.00  0.00     0.109 C 
ATOM     16  O   LIG d   1      -0.663  74.959 114.585  0.00  0.00    -0.276 OA
ATOM     17  H   LIG d   1      -1.850  77.015 116.670  0.00  0.00     0.149 HD
ENDBRANCH   6  13
BRANCH   5  18
ATOM     18  N   LIG d   1       0.526  78.988 115.655  0.00  0.00     0.381 N 
ATOM     19  H   LIG d   1       1.138  79.370 114.962  0.00  0.00    -0.090 HD
ATOM     20  H   LIG d   1       0.765  78.021 115.789  0.00  0.00    -0.090 HD
ATOM     21  H   LIG d   1       0.631  79.486 116.512  0.00  0.00    -0.090 HD
ENDBRANCH   5  18
BRANCH   3  22
ATOM     22  C   LIG d   1      -2.543  81.364 112.849  0.00  0.00     0.382 C 
ATOM     23  O   LIG d   1      -1.667  82.177 112.469  0.00  0.00    -0.241 OA
ATOM     24  O   LIG d   1      -3.747  81.669 112.752  0.00  0.00    -0.241 OA
ENDBRANCH   3  22
TORSDOF 7
ENDMDL
MODEL 2
REMARK VINA RESULT:      -5.5      0.597      1.483
REMARK  7 active torsions:
REMARK  status: ('A' for Active; 'I' for Inactive)
REMARK    1  A    between atoms: C_2  and  C_3 
REMARK    2  A    between atoms: C_3  and  O_6 
REMARK    3  A    between atoms: C_3  and  C_4 
REMARK    4  A    between atoms: C_7  and  O_6 
REMARK    5  A    between atoms: C_9  and  C_10 
REMARK    6  A    between atoms: N_15  and  C_14 
REMARK    7  A    between atoms: N_20  and  C_19 
REMARK       I    between atoms: C_22  and  N_20 
ROOT
ATOM      1  C   LIG d   1      -2.732  78.073 114.573  0.00  0.00     0.161 C 
ATOM      2  C   LIG d   1      -2.994  79.179 113.748  0.00  0.00     0.016 C 
ATOM      3  C   LIG d   1      -2.093  80.255 113.579  0.00  0.00     0.038 C 
ATOM      4  C   LIG d   1      -0.795  80.226 114.111  0.00  0.00     0.028 C 
ATOM      5  C   LIG d   1      -0.673  79.363 115.363  0.00  0.00    -0.047 C 
ATOM      6  C   LIG d   1      -1.276  77.970 115.073  0.00  0.00     0.091 C 
ENDROOT
BRANCH   1   7
ATOM      7  O   LIG d   1      -3.117  76.858 113.899  0.00  0.00    -0.368 OA
BRANCH   7   8
ATOM      8  C   LIG d   1      -4.473  76.403 114.131  0.00  0.00     0.119 C 
BRANCH   8   9
ATOM      9  C   LIG d   1      -4.412  74.888 114.406  0.00  0.00     0.028 C 
ATOM     10  C   LIG d   1      -5.301  74.470 115.590  0.00  0.00     0.006 C 
ENDBRANCH   8   9
BRANCH   8  11
ATOM     11  C   LIG d   1      -5.334  76.553 112.874  0.00  0.00     0.028 C 
ATOM     12  C   LIG d   1      -6.808  76.851 113.193  0.00  0.00     0.006 C 
ENDBRANCH   8  11
ENDBRANCH   7   8
ENDBRANCH   1   7
BRANCH   6  13
ATOM     13  N   LIG d   1      -1.273  77.091 116.271  0.00  0.00    -0.311 N 
ATOM     14  C   LIG d   1      -0.936  75.803 116.235  0.00  0.00     0.210 C 
ATOM     15  C   LIG d   1      -1.020  75.074 117.580  0.00  0.00     0.109 C 
ATOM     16  O   LIG d   1      -0.544  75.203 115.223  0.00  0.00    -0.276 OA
ATOM     17  H   LIG d   1      -1.548  77.504 117.141  0.00  0.00     0.149 HD
ENDBRANCH   6  13
BRANCH   5  18
ATOM     18  N   LIG d   1       0.755  79.311 115.730  0.00  0.00     0.381 N 
ATOM     19  H   LIG d   1       1.064  80.217 116.018  0.00  0.00    -0.090 HD
ATOM     20  H   LIG d   1       1.288  79.037 114.923  0.00  0.00    -0.090 HD
ATOM     21  H   LIG d   1       0.893  78.655 116.467  0.00  0.00    -0.090 HD
ENDBRANCH   5  18
BRANCH   3  22
ATOM     22  C   LIG d   1      -2.502  81.395 112.905  0.00  0.00     0.382 C 
ATOM     23  O   LIG d   1      -1.653  82.233 112.515  0.00  0.00    -0.241 OA
ATOM     24  O   LIG d   1      -3.714  81.619 112.720  0.00  0.00    -0.241 OA
ENDBRANCH   3  22
TORSDOF 7
ENDMDL
MODEL 3
REMARK VINA RESULT:      -5.4      1.663      2.195
REMARK  7 active torsions:
REMARK  status: ('A' for Active; 'I' for Inactive)
REMARK    1  A    between atoms: C_2  and  C_3 
REMARK    2  A    between atoms: C_3  and  O_6 
REMARK    3  A    between atoms: C_3  and  C_4 
REMARK    4  A    between atoms: C_7  and  O_6 
REMARK    5  A    between atoms: C_9  and  C_10 
REMARK    6  A    between atoms: N_15  and  C_14 
REMARK    7  A    between atoms: N_20  and  C_19 
REMARK       I    between atoms: C_22  and  N_20 
ROOT
ATOM      1  C   LIG d   1      -2.073  78.621 115.176  0.00  0.00     0.161 C 
ATOM      2  C   LIG d   1      -2.532  79.531 114.208  0.00  0.00     0.016 C 
ATOM      3  C   LIG d   1      -1.751  80.602 113.717  0.00  0.00     0.038 C 
ATOM      4  C   LIG d   1      -0.397  80.748 114.051  0.00  0.00     0.028 C 
ATOM      5  C   LIG d   1      -0.041  80.152 115.409  0.00  0.00    -0.047 C 
ATOM      6  C   LIG d   1      -0.561  78.698 115.470  0.00  0.00     0.091 C 
ENDROOT
BRANCH   1   7
ATOM      7  O   LIG d   1      -2.443  77.280 114.800  0.00  0.00    -0.368 OA
BRANCH   7   8
ATOM      8  C   LIG d   1      -3.765  76.846 115.205  0.00  0.00     0.119 C 
BRANCH   8   9
ATOM      9  C   LIG d   1      -3.705  76.522 116.710  0.00  0.00     0.028 C 
ATOM     10  C   LIG d   1      -4.539  77.499 117.555  0.00  0.00     0.006 C 
ENDBRANCH   8   9
BRANCH   8  11
ATOM     11  C   LIG d   1      -4.153  75.531 114.522  0.00  0.00     0.028 C 
ATOM     12  C   LIG d   1      -5.241  74.761 115.287  0.00  0.00     0.006 C 
ENDBRANCH   8  11
ENDBRANCH   7   8
ENDBRANCH   1   7
BRANCH   6  13
ATOM     13  N   LIG d   1      -0.328  78.068 116.797  0.00  0.00    -0.311 N 
ATOM     14  C   LIG d   1       0.181  76.847 116.949  0.00  0.00     0.210 C 
ATOM     15  C   LIG d   1       0.320  76.382 118.402  0.00  0.00     0.109 C 
ATOM     16  O   LIG d   1       0.562  76.118 116.021  0.00  0.00    -0.276 OA
ATOM     17  H   LIG d   1      -0.579  78.602 117.605  0.00  0.00     0.149 HD
ENDBRANCH   6  13
BRANCH   5  18
ATOM     18  N   LIG d   1       1.422  80.251 115.569  0.00  0.00     0.381 N 
ATOM     19  H   LIG d   1       1.877  79.666 114.897  0.00  0.00    -0.090 HD
ATOM     20  H   LIG d   1       1.671  79.928 116.487  0.00  0.00    -0.090 HD
ATOM     21  H   LIG d   1       1.715  81.195 115.450  0.00  0.00    -0.090 HD
ENDBRANCH   5  18
BRANCH   3  22
ATOM     22  C   LIG d   1      -2.338  81.566 112.911  0.00  0.00     0.382 C 
ATOM     23  O   LIG d   1      -3.578  81.555 112.721  0.00  0.00    -0.241 OA
ATOM     24  O   LIG d   1      -1.638  82.420 112.335  0.00  0.00    -0.241 OA
ENDBRANCH   3  22
TORSDOF 7
ENDMDL
MODEL 4
REMARK VINA RESULT:      -5.3      3.119      6.173
REMARK  7 active torsions:
REMARK  status: ('A' for Active; 'I' for Inactive)
REMARK    1  A    between atoms: C_2  and  C_3 
REMARK    2  A    between atoms: C_3  and  O_6 
REMARK    3  A    between atoms: C_3  and  C_4 
REMARK    4  A    between atoms: C_7  and  O_6 
REMARK    5  A    between atoms: C_9  and  C_10 
REMARK    6  A    between atoms: N_15  and  C_14 
REMARK    7  A    between atoms: N_20  and  C_19 
REMARK       I    between atoms: C_22  and  N_20 
ROOT
ATOM      1  C   LIG d   1      -1.363  80.667 112.576  0.00  0.00     0.161 C 
ATOM      2  C   LIG d   1      -2.325  79.705 112.928  0.00  0.00     0.016 C 
ATOM      3  C   LIG d   1      -2.335  78.390 112.410  0.00  0.00     0.038 C 
ATOM      4  C   LIG d   1      -1.288  77.897 111.616  0.00  0.00     0.028 C 
ATOM      5  C   LIG d   1      -0.563  78.983 110.829  0.00  0.00    -0.047 C 
ATOM      6  C   LIG d   1      -0.151  80.115 111.798  0.00  0.00     0.091 C 
ENDROOT
BRANCH   1   7
ATOM      7  O   LIG d   1      -0.924  81.372 113.754  0.00  0.00    -0.368 OA
BRANCH   7   8
ATOM      8  C   LIG d   1      -0.113  80.614 114.685  0.00  0.00     0.119 C 
BRANCH   8   9
ATOM      9  C   LIG d   1      -0.746  80.767 116.082  0.00  0.00     0.028 C 
ATOM     10  C   LIG d   1      -1.445  79.480 116.553  0.00  0.00     0.006 C 
ENDBRANCH   8   9
BRANCH   8  11
ATOM     11  C   LIG d   1       1.293  81.207 114.810  0.00  0.00     0.028 C 
ATOM     12  C   LIG d   1       1.577  81.779 116.208  0.00  0.00     0.006 C 
ENDBRANCH   8  11
ENDBRANCH   7   8
ENDBRANCH   1   7
BRANCH   6  13
ATOM     13  N   LIG d   1       0.491  81.257 111.096  0.00  0.00    -0.311 N 
ATOM     14  C   LIG d   1       1.810  81.432 111.033  0.00  0.00     0.210 C 
ATOM     15  C   LIG d   1       2.261  82.685 110.277  0.00  0.00     0.109 C 
ATOM     16  O   LIG d   1       2.650  80.650 111.505  0.00  0.00    -0.276 OA
ATOM     17  H   LIG d   1      -0.116  81.923 110.658  0.00  0.00     0.149 HD
ENDBRANCH   6  13
BRANCH   5  18
ATOM     18  N   LIG d   1       0.588  78.352 110.155  0.00  0.00     0.381 N 
ATOM     19  H   LIG d   1       0.737  78.783 109.265  0.00  0.00    -0.090 HD
ATOM     20  H   LIG d   1       0.383  77.380 110.004  0.00  0.00    -0.090 HD
ATOM     21  H   LIG d   1       1.405  78.443 110.718  0.00  0.00    -0.090 HD
ENDBRANCH   5  18
BRANCH   3  22
ATOM     22  C   LIG d   1      -3.421  77.564 112.654  0.00  0.00     0.382 C 
ATOM     23  O   LIG d   1      -3.285  76.543 113.371  0.00  0.00    -0.241 OA
ATOM     24  O   LIG d   1      -4.526  77.802 112.130  0.00  0.00    -0.241 OA
ENDBRANCH   3  22
TORSDOF 7
ENDMDL
MODEL 5
REMARK VINA RESULT:      -5.1      1.945      2.551
REMARK  7 active torsions:
REMARK  status: ('A' for Active; 'I' for Inactive)
REMARK    1  A    between atoms: C_2  and  C_3 
REMARK    2  A    between atoms: C_3  and  O_6 
REMARK    3  A    between atoms: C_3  and  C_4 
REMARK    4  A    between atoms: C_7  and  O_6 
REMARK    5  A    between atoms: C_9  and  C_10 
REMARK    6  A    between atoms: N_15  and  C_14 
REMARK    7  A    between atoms: N_20  and  C_19 
REMARK       I    between atoms: C_22  and  N_20 
ROOT
ATOM      1  C   LIG d   1      -2.084  79.212 115.933  0.00  0.00     0.161 C 
ATOM      2  C   LIG d   1      -2.562  79.890 114.799  0.00  0.00     0.016 C 
ATOM      3  C   LIG d   1      -1.748  80.703 113.978  0.00  0.00     0.038 C 
ATOM      4  C   LIG d   1      -0.357  80.774 114.150  0.00  0.00     0.028 C 
ATOM      5  C   LIG d   1       0.090  80.508 115.584  0.00  0.00    -0.047 C 
ATOM      6  C   LIG d   1      -0.547  79.188 116.072  0.00  0.00     0.091 C 
ENDROOT
BRANCH   1   7
ATOM      7  O   LIG d   1      -2.611  77.871 115.958  0.00  0.00    -0.368 OA
BRANCH   7   8
ATOM      8  C   LIG d   1      -2.445  77.098 114.744  0.00  0.00     0.119 C 
BRANCH   8   9
ATOM      9  C   LIG d   1      -3.746  76.302 114.521  0.00  0.00     0.028 C 
ATOM     10  C   LIG d   1      -4.544  76.811 113.309  0.00  0.00     0.006 C 
ENDBRANCH   8   9
BRANCH   8  11
ATOM     11  C   LIG d   1      -1.346  76.042 114.901  0.00  0.00     0.028 C 
ATOM     12  C   LIG d   1      -1.628  75.053 116.043  0.00  0.00     0.006 C 
ENDBRANCH   8  11
ENDBRANCH   7   8
ENDBRANCH   1   7
BRANCH   6  13
ATOM     13  N   LIG d   1      -0.229  78.896 117.494  0.00  0.00    -0.311 N 
ATOM     14  C   LIG d   1       0.507  77.856 117.882  0.00  0.00     0.210 C 
ATOM     15  C   LIG d   1       0.698  77.729 119.397  0.00  0.00     0.109 C 
ATOM     16  O   LIG d   1       1.046  77.045 117.115  0.00  0.00    -0.276 OA
ATOM     17  H   LIG d   1      -0.601  79.522 118.182  0.00  0.00     0.149 HD
ENDBRANCH   6  13
BRANCH   5  18
ATOM     18  N   LIG d   1       1.565  80.476 115.592  0.00  0.00     0.381 N 
ATOM     19  H   LIG d   1       1.895  80.335 116.525  0.00  0.00    -0.090 HD
ATOM     20  H   LIG d   1       1.911  81.361 115.265  0.00  0.00    -0.090 HD
ATOM     21  H   LIG d   1       1.893  79.745 115.001  0.00  0.00    -0.090 HD
ENDBRANCH   5  18
BRANCH   3  22
ATOM     22  C   LIG d   1      -2.330  81.489 112.996  0.00  0.00     0.382 C 
ATOM     23  O   LIG d   1      -1.630  82.305 112.348  0.00  0.00    -0.241 OA
ATOM     24  O   LIG d   1      -3.555  81.425 112.779  0.00  0.00    -0.241 OA
ENDBRANCH   3  22
TORSDOF 7
ENDMDL
MODEL 6
REMARK VINA RESULT:      -5.1      2.551      4.892
REMARK  7 active torsions:
REMARK  status: ('A' for Active; 'I' for Inactive)
REMARK    1  A    between atoms: C_2  and  C_3 
REMARK    2  A    between atoms: C_3  and  O_6 
REMARK    3  A    between atoms: C_3  and  C_4 
REMARK    4  A    between atoms: C_7  and  O_6 
REMARK    5  A    between atoms: C_9  and  C_10 
REMARK    6  A    between atoms: N_15  and  C_14 
REMARK    7  A    between atoms: N_20  and  C_19 
REMARK       I    between atoms: C_22  and  N_20 
ROOT
ATOM      1  C   LIG d   1      -0.952  77.146 115.197  0.00  0.00     0.161 C 
ATOM      2  C   LIG d   1      -2.210  76.880 114.630  0.00  0.00     0.016 C 
ATOM      3  C   LIG d   1      -3.035  75.806 115.036  0.00  0.00     0.038 C 
ATOM      4  C   LIG d   1      -2.722  75.010 116.148  0.00  0.00     0.028 C 
ATOM      5  C   LIG d   1      -1.225  74.925 116.430  0.00  0.00    -0.047 C 
ATOM      6  C   LIG d   1      -0.643  76.356 116.485  0.00  0.00     0.091 C 
ENDROOT
BRANCH   1   7
ATOM      7  O   LIG d   1      -0.811  78.562 115.431  0.00  0.00    -0.368 OA
BRANCH   7   8
ATOM      8  C   LIG d   1      -1.935  79.388 115.039  0.00  0.00     0.119 C 
BRANCH   8   9
ATOM      9  C   LIG d   1      -1.405  80.463 114.072  0.00  0.00     0.028 C 
ATOM     10  C   LIG d   1      -2.520  81.081 113.212  0.00  0.00     0.006 C 
ENDBRANCH   8   9
BRANCH   8  11
ATOM     11  C   LIG d   1      -2.502  80.161 116.234  0.00  0.00     0.028 C 
ATOM     12  C   LIG d   1      -3.771  79.516 116.813  0.00  0.00     0.006 C 
ENDBRANCH   8  11
ENDBRANCH   7   8
ENDBRANCH   1   7
BRANCH   6  13
ATOM     13  N   LIG d   1       0.831  76.361 116.673  0.00  0.00    -0.311 N 
ATOM     14  C   LIG d   1       1.418  76.487 117.862  0.00  0.00     0.210 C 
ATOM     15  C   LIG d   1       2.950  76.488 117.830  0.00  0.00     0.109 C 
ATOM     16  O   LIG d   1       0.816  76.566 118.943  0.00  0.00    -0.276 OA
ATOM     17  H   LIG d   1       1.396  76.271 115.852  0.00  0.00     0.149 HD
ENDBRANCH   6  13
BRANCH   5  18
ATOM     18  N   LIG d   1      -1.051  74.180 117.691  0.00  0.00     0.381 N 
ATOM     19  H   LIG d   1      -0.493  73.365 117.529  0.00  0.00    -0.090 HD
ATOM     20  H   LIG d   1      -1.953  73.885 118.021  0.00  0.00    -0.090 HD
ATOM     21  H   LIG d   1      -0.613  74.761 118.372  0.00  0.00    -0.090 HD
ENDBRANCH   5  18
BRANCH   3  22
ATOM     22  C   LIG d   1      -4.169  75.495 114.302  0.00  0.00     0.382 C 
ATOM     23  O   LIG d   1      -4.959  74.611 114.712  0.00  0.00    -0.241 OA
ATOM     24  O   LIG d   1      -4.389  76.056 113.212  0.00  0.00    -0.241 OA
ENDBRANCH   3  22
TORSDOF 7
ENDMDL
MODEL 7
REMARK VINA RESULT:      -4.9      2.868      3.769
REMARK  7 active torsions:
REMARK  status: ('A' for Active; 'I' for Inactive)
REMARK    1  A    between atoms: C_2  and  C_3 
REMARK    2  A    between atoms: C_3  and  O_6 
REMARK    3  A    between atoms: C_3  and  C_4 
REMARK    4  A    between atoms: C_7  and  O_6 
REMARK    5  A    between atoms: C_9  and  C_10 
REMARK    6  A    between atoms: N_15  and  C_14 
REMARK    7  A    between atoms: N_20  and  C_19 
REMARK       I    between atoms: C_22  and  N_20 
ROOT
ATOM      1  C   LIG d   1      -2.536  79.168 116.415  0.00  0.00     0.161 C 
ATOM      2  C   LIG d   1      -2.740  80.182 115.465  0.00  0.00     0.016 C 
ATOM      3  C   LIG d   1      -2.383  80.055 114.102  0.00  0.00     0.038 C 
ATOM      4  C   LIG d   1      -1.935  78.840 113.564  0.00  0.00     0.028 C 
ATOM      5  C   LIG d   1      -1.239  77.945 114.585  0.00  0.00    -0.047 C 
ATOM      6  C   LIG d   1      -2.150  77.796 115.824  0.00  0.00     0.091 C 
ENDROOT
BRANCH   1   7
ATOM      7  O   LIG d   1      -3.701  79.043 117.254  0.00  0.00    -0.368 OA
BRANCH   7   8
ATOM      8  C   LIG d   1      -4.330  80.283 117.661  0.00  0.00     0.119 C 
BRANCH   8   9
ATOM      9  C   LIG d   1      -3.730  80.681 119.023  0.00  0.00     0.028 C 
ATOM     10  C   LIG d   1      -3.385  82.178 119.098  0.00  0.00     0.006 C 
ENDBRANCH   8   9
BRANCH   8  11
ATOM     11  C   LIG d   1      -5.828  80.090 117.918  0.00  0.00     0.028 C 
ATOM     12  C   LIG d   1      -6.329  78.698 117.502  0.00  0.00     0.006 C 
ENDBRANCH   8  11
ENDBRANCH   7   8
ENDBRANCH   1   7
BRANCH   6  13
ATOM     13  N   LIG d   1      -1.509  77.004 116.907  0.00  0.00    -0.311 N 
ATOM     14  C   LIG d   1      -1.726  75.703 117.090  0.00  0.00     0.210 C 
ATOM     15  C   LIG d   1      -0.981  75.084 118.277  0.00  0.00     0.109 C 
ATOM     16  O   LIG d   1      -2.440  74.996 116.364  0.00  0.00    -0.276 OA
ATOM     17  H   LIG d   1      -0.890  77.493 117.524  0.00  0.00     0.149 HD
ENDBRANCH   6  13
BRANCH   5  18
ATOM     18  N   LIG d   1      -0.946  76.659 113.924  0.00  0.00     0.381 N 
ATOM     19  H   LIG d   1      -0.045  76.330 114.207  0.00  0.00    -0.090 HD
ATOM     20  H   LIG d   1      -0.932  76.800 112.929  0.00  0.00    -0.090 HD
ATOM     21  H   LIG d   1      -1.643  75.987 114.161  0.00  0.00    -0.090 HD
ENDBRANCH   5  18
BRANCH   3  22
ATOM     22  C   LIG d   1      -2.438  81.163 113.271  0.00  0.00     0.382 C 
ATOM     23  O   LIG d   1      -3.523  81.493 112.736  0.00  0.00    -0.241 OA
ATOM     24  O   LIG d   1      -1.405  81.812 113.015  0.00  0.00    -0.241 OA
ENDBRANCH   3  22
TORSDOF 7
ENDMDL
MODEL 8
REMARK VINA RESULT:      -4.8      2.890      5.037
REMARK  7 active torsions:
REMARK  status: ('A' for Active; 'I' for Inactive)
REMARK    1  A    between atoms: C_2  and  C_3 
REMARK    2  A    between atoms: C_3  and  O_6 
REMARK    3  A    between atoms: C_3  and  C_4 
REMARK    4  A    between atoms: C_7  and  O_6 
REMARK    5  A    between atoms: C_9  and  C_10 
REMARK    6  A    between atoms: N_15  and  C_14 
REMARK    7  A    between atoms: N_20  and  C_19 
REMARK       I    between atoms: C_22  and  N_20 
ROOT
ATOM      1  C   LIG d   1      -0.442  77.900 115.593  0.00  0.00     0.161 C 
ATOM      2  C   LIG d   1      -1.651  77.882 114.878  0.00  0.00     0.016 C 
ATOM      3  C   LIG d   1      -2.467  76.734 114.758  0.00  0.00     0.038 C 
ATOM      4  C   LIG d   1      -2.204  75.559 115.477  0.00  0.00     0.028 C 
ATOM      5  C   LIG d   1      -0.728  75.370 115.810  0.00  0.00    -0.047 C 
ATOM      6  C   LIG d   1      -0.195  76.659 116.476  0.00  0.00     0.091 C 
ENDROOT
BRANCH   1   7
ATOM      7  O   LIG d   1      -0.361  79.102 116.385  0.00  0.00    -0.368 OA
BRANCH   7   8
ATOM      8  C   LIG d   1      -1.274  79.190 117.506  0.00  0.00     0.119 C 
BRANCH   8   9
ATOM      9  C   LIG d   1      -2.112  80.470 117.321  0.00  0.00     0.028 C 
ATOM     10  C   LIG d   1      -3.587  80.166 117.009  0.00  0.00     0.006 C 
ENDBRANCH   8   9
BRANCH   8  11
ATOM     11  C   LIG d   1      -0.520  79.386 118.825  0.00  0.00     0.028 C 
ATOM     12  C   LIG d   1       0.938  79.828 118.618  0.00  0.00     0.006 C 
ENDBRANCH   8  11
ENDBRANCH   7   8
ENDBRANCH   1   7
BRANCH   6  13
ATOM     13  N   LIG d   1       1.263  76.591 116.758  0.00  0.00    -0.311 N 
ATOM     14  C   LIG d   1       1.765  76.329 117.963  0.00  0.00     0.210 C 
ATOM     15  C   LIG d   1       3.295  76.325 118.039  0.00  0.00     0.109 C 
ATOM     16  O   LIG d   1       1.090  76.067 118.969  0.00  0.00    -0.276 OA
ATOM     17  H   LIG d   1       1.884  76.760 115.991  0.00  0.00     0.149 HD
ENDBRANCH   6  13
BRANCH   5  18
ATOM     18  N   LIG d   1      -0.614  74.182 116.676  0.00  0.00     0.381 N 
ATOM     19  H   LIG d   1       0.286  73.761 116.558  0.00  0.00    -0.090 HD
ATOM     20  H   LIG d   1      -1.313  73.513 116.403  0.00  0.00    -0.090 HD
ATOM     21  H   LIG d   1      -0.746  74.441 117.629  0.00  0.00    -0.090 HD
ENDBRANCH   5  18
BRANCH   3  22
ATOM     22  C   LIG d   1      -3.540  76.743 113.880  0.00  0.00     0.382 C 
ATOM     23  O   LIG d   1      -4.116  75.668 113.584  0.00  0.00    -0.241 OA
ATOM     24  O   LIG d   1      -3.911  77.805 113.346  0.00  0.00    -0.241 OA
ENDBRANCH   3  22
TORSDOF 7
ENDMDL
MODEL 9
REMARK VINA RESULT:      -4.7      2.567      4.311
REMARK  7 active torsions:
REMARK  status: ('A' for Active; 'I' for Inactive)
REMARK    1  A    between atoms: C_2  and  C_3 
REMARK    2  A    between atoms: C_3  and  O_6 
REMARK    3  A    between atoms: C_3  and  C_4 
REMARK    4  A    between atoms: C_7  and  O_6 
REMARK    5  A    between atoms: C_9  and  C_10 
REMARK    6  A    between atoms: N_15  and  C_14 
REMARK    7  A    between atoms: N_20  and  C_19 
REMARK       I    between atoms: C_22  and  N_20 
ROOT
ATOM      1  C   LIG d   1      -1.917  79.853 114.327  0.00  0.00     0.161 C 
ATOM      2  C   LIG d   1      -0.938  80.793 113.966  0.00  0.00     0.016 C 
ATOM      3  C   LIG d   1      -0.243  80.759 112.735  0.00  0.00     0.038 C 
ATOM      4  C   LIG d   1      -0.592  79.866 111.711  0.00  0.00     0.028 C 
ATOM      5  C   LIG d   1      -1.229  78.578 112.223  0.00  0.00    -0.047 C 
ATOM      6  C   LIG d   1      -2.389  78.937 113.178  0.00  0.00     0.091 C 
ENDROOT
BRANCH   1   7
ATOM      7  O   LIG d   1      -3.043  80.526 114.926  0.00  0.00    -0.368 OA
BRANCH   7   8
ATOM      8  C   LIG d   1      -3.142  80.442 116.369  0.00  0.00     0.119 C 
BRANCH   8   9
ATOM      9  C   LIG d   1      -1.744  80.081 116.908  0.00  0.00     0.028 C 
ATOM     10  C   LIG d   1      -1.123  81.219 117.736  0.00  0.00     0.006 C 
ENDBRANCH   8   9
BRANCH   8  11
ATOM     11  C   LIG d   1      -4.053  79.288 116.798  0.00  0.00     0.028 C 
ATOM     12  C   LIG d   1      -3.274  78.104 117.394  0.00  0.00     0.006 C 
ENDBRANCH   8  11
ENDBRANCH   7   8
ENDBRANCH   1   7
BRANCH   6  13
ATOM     13  N   LIG d   1      -3.013  77.735 113.789  0.00  0.00    -0.311 N 
ATOM     14  C   LIG d   1      -4.085  77.127 113.282  0.00  0.00     0.210 C 
ATOM     15  C   LIG d   1      -4.579  75.916 114.080  0.00  0.00     0.109 C 
ATOM     16  O   LIG d   1      -4.653  77.457 112.231  0.00  0.00    -0.276 OA
ATOM     17  H   LIG d   1      -2.597  77.381 114.628  0.00  0.00     0.149 HD
ENDBRANCH   6  13
BRANCH   5  18
ATOM     18  N   LIG d   1      -1.666  77.800 111.048  0.00  0.00     0.381 N 
ATOM     19  H   LIG d   1      -2.456  77.236 111.291  0.00  0.00    -0.090 HD
ATOM     20  H   LIG d   1      -0.919  77.192 110.764  0.00  0.00    -0.090 HD
ATOM     21  H   LIG d   1      -1.905  78.415 110.302  0.00  0.00    -0.090 HD
ENDBRANCH   5  18
BRANCH   3  22
ATOM     22  C   LIG d   1       0.840  81.602 112.533  0.00  0.00     0.382 C 
ATOM     23  O   LIG d   1       2.007  81.168 112.681  0.00  0.00    -0.241 OA
ATOM     24  O   LIG d   1       0.662  82.801 112.249  0.00  0.00    -0.241 OA
ENDBRANCH   3  22
TORSDOF 7
ENDMDL
