MODEL 1
REMARK VINA RESULT:      -5.4      0.000      0.000
REMARK  7 active torsions:
REMARK  status: ('A' for Active; 'I' for Inactive)
REMARK    1  A    between atoms: C_2  and  C_3 
REMARK    2  A    between atoms: C_3  and  O_6 
REMARK    3  A    between atoms: C_3  and  C_4 
REMARK    4  A    between atoms: C_7  and  O_6 
REMARK    5  A    between atoms: C_9  and  C_10 
REMARK    6  A    between atoms: N_15  and  C_14 
REMARK    7  A    between atoms: N_20  and  C_19 
REMARK       I    between atoms: C_22  and  N_20 
ROOT
ATOM      1  C   LIG d   1      -2.769  77.776 114.633  0.00  0.00     0.161 C 
ATOM      2  C   LIG d   1      -2.922  78.808 113.692  0.00  0.00     0.016 C 
ATOM      3  C   LIG d   1      -1.983  79.851 113.521  0.00  0.00     0.038 C 
ATOM      4  C   LIG d   1      -0.744  79.849 114.180  0.00  0.00     0.028 C 
ATOM      5  C   LIG d   1      -0.766  79.100 115.508  0.00  0.00    -0.047 C 
ATOM      6  C   LIG d   1      -1.371  77.695 115.282  0.00  0.00     0.091 C 
ENDROOT
BRANCH   1   7
ATOM      7  O   LIG d   1      -3.116  76.513 114.032  0.00  0.00    -0.368 OA
BRANCH   7   8
ATOM      8  C   LIG d   1      -4.104  75.722 114.737  0.00  0.00     0.119 C 
BRANCH   8   9
ATOM      9  C   LIG d   1      -5.111  75.201 113.693  0.00  0.00     0.028 C 
ATOM     10  C   LIG d   1      -6.140  76.269 113.286  0.00  0.00     0.006 C 
ENDBRANCH   8   9
BRANCH   8  11
ATOM     11  C   LIG d   1      -4.927  76.587 115.697  0.00  0.00     0.028 C 
ATOM     12  C   LIG d   1      -5.059  75.963 117.096  0.00  0.00     0.006 C 
ENDBRANCH   8  11
ENDBRANCH   7   8
ENDBRANCH   1   7
BRANCH   6  13
ATOM     13  N   LIG d   1      -1.507  76.927 116.547  0.00  0.00    -0.311 N 
ATOM     14  C   LIG d   1      -1.100  75.666 116.685  0.00  0.00     0.210 C 
ATOM     15  C   LIG d   1      -1.353  75.053 118.067  0.00  0.00     0.109 C 
ATOM     16  O   LIG d   1      -0.526  75.007 115.805  0.00  0.00    -0.276 OA
ATOM     17  H   LIG d   1      -1.934  77.395 117.322  0.00  0.00     0.149 HD
ENDBRANCH   6  13
BRANCH   5  18
ATOM     18  N   LIG d   1       0.618  79.058 116.018  0.00  0.00     0.381 N 
ATOM     19  H   LIG d   1       0.966  78.121 115.976  0.00  0.00    -0.090 HD
ATOM     20  H   LIG d   1       0.619  79.351 116.979  0.00  0.00    -0.090 HD
ATOM     21  H   LIG d   1       1.199  79.660 115.479  0.00  0.00    -0.090 HD
ENDBRANCH   5  18
BRANCH   3  22
ATOM     22  C   LIG d   1      -2.297  80.933 112.713  0.00  0.00     0.382 C 
ATOM     23  O   LIG d   1      -3.497  81.220 112.488  0.00  0.00    -0.241 OA
ATOM     24  O   LIG d   1      -1.395  81.599 112.170  0.00  0.00    -0.241 OA
ENDBRANCH   3  22
TORSDOF 7
ENDMDL
MODEL 2
REMARK VINA RESULT:      -5.3      1.486      1.720
REMARK  7 active torsions:
REMARK  status: ('A' for Active; 'I' for Inactive)
REMARK    1  A    between atoms: C_2  and  C_3 
REMARK    2  A    between atoms: C_3  and  O_6 
REMARK    3  A    between atoms: C_3  and  C_4 
REMARK    4  A    between atoms: C_7  and  O_6 
REMARK    5  A    between atoms: C_9  and  C_10 
REMARK    6  A    between atoms: N_15  and  C_14 
REMARK    7  A    between atoms: N_20  and  C_19 
REMARK       I    between atoms: C_22  and  N_20 
ROOT
ATOM      1  C   LIG d   1      -3.065  78.102 116.044  0.00  0.00     0.161 C 
ATOM      2  C   LIG d   1      -3.223  78.887 114.890  0.00  0.00     0.016 C 
ATOM      3  C   LIG d   1      -2.357  78.814 113.775  0.00  0.00     0.038 C 
ATOM      4  C   LIG d   1      -1.356  77.836 113.676  0.00  0.00     0.028 C 
ATOM      5  C   LIG d   1      -0.841  77.358 115.030  0.00  0.00    -0.047 C 
ATOM      6  C   LIG d   1      -2.045  76.952 115.910  0.00  0.00     0.091 C 
ENDROOT
BRANCH   1   7
ATOM      7  O   LIG d   1      -4.345  77.590 116.466  0.00  0.00    -0.368 OA
BRANCH   7   8
ATOM      8  C   LIG d   1      -4.655  76.234 116.059  0.00  0.00     0.119 C 
BRANCH   8   9
ATOM      9  C   LIG d   1      -5.764  76.314 114.992  0.00  0.00     0.028 C 
ATOM     10  C   LIG d   1      -5.273  75.875 113.602  0.00  0.00     0.006 C 
ENDBRANCH   8   9
BRANCH   8  11
ATOM     11  C   LIG d   1      -5.259  75.430 117.213  0.00  0.00     0.028 C 
ATOM     12  C   LIG d   1      -6.517  74.648 116.800  0.00  0.00     0.006 C 
ENDBRANCH   8  11
ENDBRANCH   7   8
ENDBRANCH   1   7
BRANCH   6  13
ATOM     13  N   LIG d   1      -1.635  76.551 117.281  0.00  0.00    -0.311 N 
ATOM     14  C   LIG d   1      -1.457  75.285 117.653  0.00  0.00     0.210 C 
ATOM     15  C   LIG d   1      -1.054  75.091 119.118  0.00  0.00     0.109 C 
ATOM     16  O   LIG d   1      -1.563  74.305 116.899  0.00  0.00    -0.276 OA
ATOM     17  H   LIG d   1      -1.497  77.285 117.949  0.00  0.00     0.149 HD
ENDBRANCH   6  13
BRANCH   5  18
ATOM     18  N   LIG d   1       0.096  76.246 114.783  0.00  0.00     0.381 N 
ATOM     19  H   LIG d   1       0.676  76.460 113.997  0.00  0.00    -0.090 HD
ATOM     20  H   LIG d   1      -0.431  75.418 114.569  0.00  0.00    -0.090 HD
ATOM     21  H   LIG d   1       0.660  76.090 115.589  0.00  0.00    -0.090 HD
ENDBRANCH   5  18
BRANCH   3  22
ATOM     22  C   LIG d   1      -2.464  79.752 112.760  0.00  0.00     0.382 C 
ATOM     23  O   LIG d   1      -3.236  80.732 112.890  0.00  0.00    -0.241 OA
ATOM     24  O   LIG d   1      -1.832  79.607 111.696  0.00  0.00    -0.241 OA
ENDBRANCH   3  22
TORSDOF 7
ENDMDL
MODEL 3
REMARK VINA RESULT:      -5.2      0.658      1.506
REMARK  7 active torsions:
REMARK  status: ('A' for Active; 'I' for Inactive)
REMARK    1  A    between atoms: C_2  and  C_3 
REMARK    2  A    between atoms: C_3  and  O_6 
REMARK    3  A    between atoms: C_3  and  C_4 
REMARK    4  A    between atoms: C_7  and  O_6 
REMARK    5  A    between atoms: C_9  and  C_10 
REMARK    6  A    between atoms: N_15  and  C_14 
REMARK    7  A    between atoms: N_20  and  C_19 
REMARK       I    between atoms: C_22  and  N_20 
ROOT
ATOM      1  C   LIG d   1      -2.813  77.979 114.946  0.00  0.00     0.161 C 
ATOM      2  C   LIG d   1      -2.939  78.883 113.877  0.00  0.00     0.016 C 
ATOM      3  C   LIG d   1      -1.955  79.846 113.553  0.00  0.00     0.038 C 
ATOM      4  C   LIG d   1      -0.704  79.870 114.187  0.00  0.00     0.028 C 
ATOM      5  C   LIG d   1      -0.731  79.307 115.603  0.00  0.00    -0.047 C 
ATOM      6  C   LIG d   1      -1.407  77.917 115.578  0.00  0.00     0.091 C 
ENDROOT
BRANCH   1   7
ATOM      7  O   LIG d   1      -3.233  76.665 114.526  0.00  0.00    -0.368 OA
BRANCH   7   8
ATOM      8  C   LIG d   1      -4.603  76.307 114.829  0.00  0.00     0.119 C 
BRANCH   8   9
ATOM      9  C   LIG d   1      -4.572  75.297 115.992  0.00  0.00     0.028 C 
ATOM     10  C   LIG d   1      -5.975  74.790 116.367  0.00  0.00     0.006 C 
ENDBRANCH   8   9
BRANCH   8  11
ATOM     11  C   LIG d   1      -5.255  75.561 113.661  0.00  0.00     0.028 C 
ATOM     12  C   LIG d   1      -6.326  76.397 112.943  0.00  0.00     0.006 C 
ENDBRANCH   8  11
ENDBRANCH   7   8
ENDBRANCH   1   7
BRANCH   6  13
ATOM     13  N   LIG d   1      -1.551  77.331 116.937  0.00  0.00    -0.311 N 
ATOM     14  C   LIG d   1      -1.202  76.081 117.237  0.00  0.00     0.210 C 
ATOM     15  C   LIG d   1      -1.452  75.672 118.692  0.00  0.00     0.109 C 
ATOM     16  O   LIG d   1      -0.680  75.283 116.445  0.00  0.00    -0.276 OA
ATOM     17  H   LIG d   1      -1.937  77.920 117.648  0.00  0.00     0.149 HD
ENDBRANCH   6  13
BRANCH   5  18
ATOM     18  N   LIG d   1       0.659  79.265 116.093  0.00  0.00     0.381 N 
ATOM     19  H   LIG d   1       1.161  80.063 115.758  0.00  0.00    -0.090 HD
ATOM     20  H   LIG d   1       1.105  78.439 115.735  0.00  0.00    -0.090 HD
ATOM     21  H   LIG d   1       0.670  79.252 117.089  0.00  0.00    -0.090 HD
ENDBRANCH   5  18
BRANCH   3  22
ATOM     22  C   LIG d   1      -2.236  80.824 112.611  0.00  0.00     0.382 C 
ATOM     23  O   LIG d   1      -3.396  81.295 112.523  0.00  0.00    -0.241 OA
ATOM     24  O   LIG d   1      -1.355  81.210 111.820  0.00  0.00    -0.241 OA
ENDBRANCH   3  22
TORSDOF 7
ENDMDL
MODEL 4
REMARK VINA RESULT:      -4.9      2.306      3.139
REMARK  7 active torsions:
REMARK  status: ('A' for Active; 'I' for Inactive)
REMARK    1  A    between atoms: C_2  and  C_3 
REMARK    2  A    between atoms: C_3  and  O_6 
REMARK    3  A    between atoms: C_3  and  C_4 
REMARK    4  A    between atoms: C_7  and  O_6 
REMARK    5  A    between atoms: C_9  and  C_10 
REMARK    6  A    between atoms: N_15  and  C_14 
REMARK    7  A    between atoms: N_20  and  C_19 
REMARK       I    between atoms: C_22  and  N_20 
ROOT
ATOM      1  C   LIG d   1      -2.872  78.673 115.935  0.00  0.00     0.161 C 
ATOM      2  C   LIG d   1      -2.980  79.670 114.951  0.00  0.00     0.016 C 
ATOM      3  C   LIG d   1      -2.268  79.638 113.730  0.00  0.00     0.038 C 
ATOM      4  C   LIG d   1      -1.510  78.523 113.342  0.00  0.00     0.028 C 
ATOM      5  C   LIG d   1      -0.971  77.719 114.520  0.00  0.00    -0.047 C 
ATOM      6  C   LIG d   1      -2.136  77.394 115.482  0.00  0.00     0.091 C 
ENDROOT
BRANCH   1   7
ATOM      7  O   LIG d   1      -4.180  78.344 116.443  0.00  0.00    -0.368 OA
BRANCH   7   8
ATOM      8  C   LIG d   1      -4.520  78.900 117.737  0.00  0.00     0.119 C 
BRANCH   8   9
ATOM      9  C   LIG d   1      -4.881  77.724 118.666  0.00  0.00     0.028 C 
ATOM     10  C   LIG d   1      -3.960  77.643 119.895  0.00  0.00     0.006 C 
ENDBRANCH   8   9
BRANCH   8  11
ATOM     11  C   LIG d   1      -5.786  79.759 117.660  0.00  0.00     0.028 C 
ATOM     12  C   LIG d   1      -5.556  81.203 118.134  0.00  0.00     0.006 C 
ENDBRANCH   8  11
ENDBRANCH   7   8
ENDBRANCH   1   7
BRANCH   6  13
ATOM     13  N   LIG d   1      -1.681  76.681 116.704  0.00  0.00    -0.311 N 
ATOM     14  C   LIG d   1      -2.270  75.583 117.174  0.00  0.00     0.210 C 
ATOM     15  C   LIG d   1      -1.654  75.017 118.457  0.00  0.00     0.109 C 
ATOM     16  O   LIG d   1      -3.224  75.005 116.632  0.00  0.00    -0.276 OA
ATOM     17  H   LIG d   1      -0.893  77.064 117.189  0.00  0.00     0.149 HD
ENDBRANCH   6  13
BRANCH   5  18
ATOM     18  N   LIG d   1      -0.319  76.513 113.974  0.00  0.00     0.381 N 
ATOM     19  H   LIG d   1      -0.231  76.596 112.981  0.00  0.00    -0.090 HD
ATOM     20  H   LIG d   1      -0.894  75.714 114.174  0.00  0.00    -0.090 HD
ATOM     21  H   LIG d   1       0.581  76.396 114.386  0.00  0.00    -0.090 HD
ENDBRANCH   5  18
BRANCH   3  22
ATOM     22  C   LIG d   1      -2.279  80.749 112.900  0.00  0.00     0.382 C 
ATOM     23  O   LIG d   1      -1.199  81.289 112.562  0.00  0.00    -0.241 OA
ATOM     24  O   LIG d   1      -3.357  81.243 112.520  0.00  0.00    -0.241 OA
ENDBRANCH   3  22
TORSDOF 7
ENDMDL
MODEL 5
REMARK VINA RESULT:      -4.7      2.803      3.736
REMARK  7 active torsions:
REMARK  status: ('A' for Active; 'I' for Inactive)
REMARK    1  A    between atoms: C_2  and  C_3 
REMARK    2  A    between atoms: C_3  and  O_6 
REMARK    3  A    between atoms: C_3  and  C_4 
REMARK    4  A    between atoms: C_7  and  O_6 
REMARK    5  A    between atoms: C_9  and  C_10 
REMARK    6  A    between atoms: N_15  and  C_14 
REMARK    7  A    between atoms: N_20  and  C_19 
REMARK       I    between atoms: C_22  and  N_20 
ROOT
ATOM      1  C   LIG d   1      -3.896  76.951 116.817  0.00  0.00     0.161 C 
ATOM      2  C   LIG d   1      -4.692  78.000 117.306  0.00  0.00     0.016 C 
ATOM      3  C   LIG d   1      -4.401  79.366 117.085  0.00  0.00     0.038 C 
ATOM      4  C   LIG d   1      -3.370  79.774 116.226  0.00  0.00     0.028 C 
ATOM      5  C   LIG d   1      -2.235  78.762 116.117  0.00  0.00    -0.047 C 
ATOM      6  C   LIG d   1      -2.830  77.375 115.785  0.00  0.00     0.091 C 
ENDROOT
BRANCH   1   7
ATOM      7  O   LIG d   1      -4.736  75.913 116.273  0.00  0.00    -0.368 OA
BRANCH   7   8
ATOM      8  C   LIG d   1      -6.065  76.318 115.863  0.00  0.00     0.119 C 
BRANCH   8   9
ATOM      9  C   LIG d   1      -7.056  75.268 116.402  0.00  0.00     0.028 C 
ATOM     10  C   LIG d   1      -6.788  74.909 117.874  0.00  0.00     0.006 C 
ENDBRANCH   8   9
BRANCH   8  11
ATOM     11  C   LIG d   1      -6.217  76.275 114.340  0.00  0.00     0.028 C 
ATOM     12  C   LIG d   1      -5.236  75.299 113.671  0.00  0.00     0.006 C 
ENDBRANCH   8  11
ENDBRANCH   7   8
ENDBRANCH   1   7
BRANCH   6  13
ATOM     13  N   LIG d   1      -1.795  76.309 115.744  0.00  0.00    -0.311 N 
ATOM     14  C   LIG d   1      -1.128  75.978 114.640  0.00  0.00     0.210 C 
ATOM     15  C   LIG d   1      -0.119  74.838 114.812  0.00  0.00     0.109 C 
ATOM     16  O   LIG d   1      -1.252  76.541 113.542  0.00  0.00    -0.276 OA
ATOM     17  H   LIG d   1      -1.609  75.821 116.598  0.00  0.00     0.149 HD
ENDBRANCH   6  13
BRANCH   5  18
ATOM     18  N   LIG d   1      -1.298  79.251 115.088  0.00  0.00     0.381 N 
ATOM     19  H   LIG d   1      -0.538  78.609 114.990  0.00  0.00    -0.090 HD
ATOM     20  H   LIG d   1      -0.927  80.137 115.381  0.00  0.00    -0.090 HD
ATOM     21  H   LIG d   1      -1.772  79.353 114.217  0.00  0.00    -0.090 HD
ENDBRANCH   5  18
BRANCH   3  22
ATOM     22  C   LIG d   1      -5.122  80.340 117.759  0.00  0.00     0.382 C 
ATOM     23  O   LIG d   1      -4.636  80.885 118.779  0.00  0.00    -0.241 OA
ATOM     24  O   LIG d   1      -6.269  80.649 117.386  0.00  0.00    -0.241 OA
ENDBRANCH   3  22
TORSDOF 7
ENDMDL
MODEL 6
REMARK VINA RESULT:      -4.5      3.090      6.055
REMARK  7 active torsions:
REMARK  status: ('A' for Active; 'I' for Inactive)
REMARK    1  A    between atoms: C_2  and  C_3 
REMARK    2  A    between atoms: C_3  and  O_6 
REMARK    3  A    between atoms: C_3  and  C_4 
REMARK    4  A    between atoms: C_7  and  O_6 
REMARK    5  A    between atoms: C_9  and  C_10 
REMARK    6  A    between atoms: N_15  and  C_14 
REMARK    7  A    between atoms: N_20  and  C_19 
REMARK       I    between atoms: C_22  and  N_20 
ROOT
ATOM      1  C   LIG d   1      -3.744  78.299 115.905  0.00  0.00     0.161 C 
ATOM      2  C   LIG d   1      -4.001  77.135 115.161  0.00  0.00     0.016 C 
ATOM      3  C   LIG d   1      -5.178  76.365 115.303  0.00  0.00     0.038 C 
ATOM      4  C   LIG d   1      -6.253  76.793 116.097  0.00  0.00     0.028 C 
ATOM      5  C   LIG d   1      -5.832  77.698 117.250  0.00  0.00    -0.047 C 
ATOM      6  C   LIG d   1      -4.953  78.842 116.694  0.00  0.00     0.091 C 
ENDROOT
BRANCH   1   7
ATOM      7  O   LIG d   1      -3.208  79.322 115.042  0.00  0.00    -0.368 OA
BRANCH   7   8
ATOM      8  C   LIG d   1      -2.138  78.912 114.155  0.00  0.00     0.119 C 
BRANCH   8   9
ATOM      9  C   LIG d   1      -0.840  79.568 114.663  0.00  0.00     0.028 C 
ATOM     10  C   LIG d   1      -0.309  78.904 115.945  0.00  0.00     0.006 C 
ENDBRANCH   8   9
BRANCH   8  11
ATOM     11  C   LIG d   1      -2.345  79.462 112.741  0.00  0.00     0.028 C 
ATOM     12  C   LIG d   1      -2.608  80.976 112.724  0.00  0.00     0.006 C 
ENDBRANCH   8  11
ENDBRANCH   7   8
ENDBRANCH   1   7
BRANCH   6  13
ATOM     13  N   LIG d   1      -4.429  79.726 117.768  0.00  0.00    -0.311 N 
ATOM     14  C   LIG d   1      -5.009  80.871 118.123  0.00  0.00     0.210 C 
ATOM     15  C   LIG d   1      -4.294  81.640 119.239  0.00  0.00     0.109 C 
ATOM     16  O   LIG d   1      -6.066  81.307 117.643  0.00  0.00    -0.276 OA
ATOM     17  H   LIG d   1      -3.592  79.433 118.232  0.00  0.00     0.149 HD
ENDBRANCH   6  13
BRANCH   5  18
ATOM     18  N   LIG d   1      -7.060  78.180 117.909  0.00  0.00     0.381 N 
ATOM     19  H   LIG d   1      -7.635  77.402 118.166  0.00  0.00    -0.090 HD
ATOM     20  H   LIG d   1      -7.573  78.752 117.262  0.00  0.00    -0.090 HD
ATOM     21  H   LIG d   1      -6.826  78.711 118.719  0.00  0.00    -0.090 HD
ENDBRANCH   5  18
BRANCH   3  22
ATOM     22  C   LIG d   1      -5.272  75.131 114.678  0.00  0.00     0.382 C 
ATOM     23  O   LIG d   1      -4.813  74.979 113.520  0.00  0.00    -0.241 OA
ATOM     24  O   LIG d   1      -5.848  74.180 115.239  0.00  0.00    -0.241 OA
ENDBRANCH   3  22
TORSDOF 7
ENDMDL
MODEL 7
REMARK VINA RESULT:      -4.5      2.547      4.683
REMARK  7 active torsions:
REMARK  status: ('A' for Active; 'I' for Inactive)
REMARK    1  A    between atoms: C_2  and  C_3 
REMARK    2  A    between atoms: C_3  and  O_6 
REMARK    3  A    between atoms: C_3  and  C_4 
REMARK    4  A    between atoms: C_7  and  O_6 
REMARK    5  A    between atoms: C_9  and  C_10 
REMARK    6  A    between atoms: N_15  and  C_14 
REMARK    7  A    between atoms: N_20  and  C_19 
REMARK       I    between atoms: C_22  and  N_20 
ROOT
ATOM      1  C   LIG d   1      -2.080  77.540 115.526  0.00  0.00     0.161 C 
ATOM      2  C   LIG d   1      -3.274  77.312 114.822  0.00  0.00     0.016 C 
ATOM      3  C   LIG d   1      -4.105  76.189 115.043  0.00  0.00     0.038 C 
ATOM      4  C   LIG d   1      -3.873  75.290 116.095  0.00  0.00     0.028 C 
ATOM      5  C   LIG d   1      -2.407  75.202 116.504  0.00  0.00    -0.047 C 
ATOM      6  C   LIG d   1      -1.869  76.629 116.753  0.00  0.00     0.091 C 
ENDROOT
BRANCH   1   7
ATOM      7  O   LIG d   1      -1.997  78.927 115.911  0.00  0.00    -0.368 OA
BRANCH   7   8
ATOM      8  C   LIG d   1      -2.525  79.258 117.219  0.00  0.00     0.119 C 
BRANCH   8   9
ATOM      9  C   LIG d   1      -3.847  80.020 117.005  0.00  0.00     0.028 C 
ATOM     10  C   LIG d   1      -5.078  79.174 117.373  0.00  0.00     0.006 C 
ENDBRANCH   8   9
BRANCH   8  11
ATOM     11  C   LIG d   1      -1.608  80.237 117.958  0.00  0.00     0.028 C 
ATOM     12  C   LIG d   1      -2.366  81.123 118.959  0.00  0.00     0.006 C 
ENDBRANCH   8  11
ENDBRANCH   7   8
ENDBRANCH   1   7
BRANCH   6  13
ATOM     13  N   LIG d   1      -0.418  76.640 117.077  0.00  0.00    -0.311 N 
ATOM     14  C   LIG d   1       0.056  76.671 118.321  0.00  0.00     0.210 C 
ATOM     15  C   LIG d   1       1.584  76.697 118.431  0.00  0.00     0.109 C 
ATOM     16  O   LIG d   1      -0.644  76.647 119.345  0.00  0.00    -0.276 OA
ATOM     17  H   LIG d   1       0.221  76.629 116.306  0.00  0.00     0.149 HD
ENDBRANCH   6  13
BRANCH   5  18
ATOM     18  N   LIG d   1      -2.328  74.338 117.696  0.00  0.00     0.381 N 
ATOM     19  H   LIG d   1      -1.797  74.794 118.411  0.00  0.00    -0.090 HD
ATOM     20  H   LIG d   1      -1.857  73.485 117.449  0.00  0.00    -0.090 HD
ATOM     21  H   LIG d   1      -3.244  74.134 118.031  0.00  0.00    -0.090 HD
ENDBRANCH   5  18
BRANCH   3  22
ATOM     22  C   LIG d   1      -5.160  75.935 114.179  0.00  0.00     0.382 C 
ATOM     23  O   LIG d   1      -5.014  75.123 113.234  0.00  0.00    -0.241 OA
ATOM     24  O   LIG d   1      -6.241  76.540 114.307  0.00  0.00    -0.241 OA
ENDBRANCH   3  22
TORSDOF 7
ENDMDL
MODEL 8
REMARK VINA RESULT:      -4.5      1.884      4.930
REMARK  7 active torsions:
REMARK  status: ('A' for Active; 'I' for Inactive)
REMARK    1  A    between atoms: C_2  and  C_3 
REMARK    2  A    between atoms: C_3  and  O_6 
REMARK    3  A    between atoms: C_3  and  C_4 
REMARK    4  A    between atoms: C_7  and  O_6 
REMARK    5  A    between atoms: C_9  and  C_10 
REMARK    6  A    between atoms: N_15  and  C_14 
REMARK    7  A    between atoms: N_20  and  C_19 
REMARK       I    between atoms: C_22  and  N_20 
ROOT
ATOM      1  C   LIG d   1      -1.372  75.924 115.081  0.00  0.00     0.161 C 
ATOM      2  C   LIG d   1      -1.139  75.493 116.397  0.00  0.00     0.016 C 
ATOM      3  C   LIG d   1      -0.696  76.351 117.430  0.00  0.00     0.038 C 
ATOM      4  C   LIG d   1      -0.599  77.739 117.251  0.00  0.00     0.028 C 
ATOM      5  C   LIG d   1      -0.337  78.146 115.805  0.00  0.00    -0.047 C 
ATOM      6  C   LIG d   1      -1.378  77.456 114.893  0.00  0.00     0.091 C 
ENDROOT
BRANCH   1   7
ATOM      7  O   LIG d   1      -2.601  75.355 114.590  0.00  0.00    -0.368 OA
BRANCH   7   8
ATOM      8  C   LIG d   1      -3.819  76.040 114.972  0.00  0.00     0.119 C 
BRANCH   8   9
ATOM      9  C   LIG d   1      -4.468  75.229 116.111  0.00  0.00     0.028 C 
ATOM     10  C   LIG d   1      -4.448  75.981 117.452  0.00  0.00     0.006 C 
ENDBRANCH   8   9
BRANCH   8  11
ATOM     11  C   LIG d   1      -4.843  76.033 113.834  0.00  0.00     0.028 C 
ATOM     12  C   LIG d   1      -6.292  76.141 114.336  0.00  0.00     0.006 C 
ENDBRANCH   8  11
ENDBRANCH   7   8
ENDBRANCH   1   7
BRANCH   6  13
ATOM     13  N   LIG d   1      -1.142  77.734 113.453  0.00  0.00    -0.311 N 
ATOM     14  C   LIG d   1      -1.984  78.434 112.694  0.00  0.00     0.210 C 
ATOM     15  C   LIG d   1      -1.560  78.586 111.229  0.00  0.00     0.109 C 
ATOM     16  O   LIG d   1      -3.025  78.969 113.101  0.00  0.00    -0.276 OA
ATOM     17  H   LIG d   1      -0.305  77.363 113.047  0.00  0.00     0.149 HD
ENDBRANCH   6  13
BRANCH   5  18
ATOM     18  N   LIG d   1      -0.397  79.618 115.739  0.00  0.00     0.381 N 
ATOM     19  H   LIG d   1       0.253  79.953 115.055  0.00  0.00    -0.090 HD
ATOM     20  H   LIG d   1      -0.136  79.995 116.633  0.00  0.00    -0.090 HD
ATOM     21  H   LIG d   1      -1.319  79.912 115.503  0.00  0.00    -0.090 HD
ENDBRANCH   5  18
BRANCH   3  22
ATOM     22  C   LIG d   1      -0.305  75.815 118.648  0.00  0.00     0.382 C 
ATOM     23  O   LIG d   1       0.896  75.509 118.842  0.00  0.00    -0.241 OA
ATOM     24  O   LIG d   1      -1.147  75.593 119.539  0.00  0.00    -0.241 OA
ENDBRANCH   3  22
TORSDOF 7
ENDMDL
MODEL 9
REMARK VINA RESULT:      -4.5      2.386      4.194
REMARK  7 active torsions:
REMARK  status: ('A' for Active; 'I' for Inactive)
REMARK    1  A    between atoms: C_2  and  C_3 
REMARK    2  A    between atoms: C_3  and  O_6 
REMARK    3  A    between atoms: C_3  and  C_4 
REMARK    4  A    between atoms: C_7  and  O_6 
REMARK    5  A    between atoms: C_9  and  C_10 
REMARK    6  A    between atoms: N_15  and  C_14 
REMARK    7  A    between atoms: N_20  and  C_19 
REMARK       I    between atoms: C_22  and  N_20 
ROOT
ATOM      1  C   LIG d   1      -2.447  77.640 115.007  0.00  0.00     0.161 C 
ATOM      2  C   LIG d   1      -2.377  77.806 116.400  0.00  0.00     0.016 C 
ATOM      3  C   LIG d   1      -1.495  78.713 117.032  0.00  0.00     0.038 C 
ATOM      4  C   LIG d   1      -0.724  79.629 116.301  0.00  0.00     0.028 C 
ATOM      5  C   LIG d   1      -0.389  79.150 114.892  0.00  0.00    -0.047 C 
ATOM      6  C   LIG d   1      -1.693  78.709 114.189  0.00  0.00     0.091 C 
ENDROOT
BRANCH   1   7
ATOM      7  O   LIG d   1      -3.825  77.570 114.591  0.00  0.00    -0.368 OA
BRANCH   7   8
ATOM      8  C   LIG d   1      -4.573  76.419 115.053  0.00  0.00     0.119 C 
BRANCH   8   9
ATOM      9  C   LIG d   1      -5.009  75.621 113.809  0.00  0.00     0.028 C 
ATOM     10  C   LIG d   1      -6.178  76.288 113.064  0.00  0.00     0.006 C 
ENDBRANCH   8   9
BRANCH   8  11
ATOM     11  C   LIG d   1      -5.874  76.840 115.742  0.00  0.00     0.028 C 
ATOM     12  C   LIG d   1      -5.900  76.481 117.236  0.00  0.00     0.006 C 
ENDBRANCH   8  11
ENDBRANCH   7   8
ENDBRANCH   1   7
BRANCH   6  13
ATOM     13  N   LIG d   1      -1.445  78.148 112.835  0.00  0.00    -0.311 N 
ATOM     14  C   LIG d   1      -1.485  78.876 111.721  0.00  0.00     0.210 C 
ATOM     15  C   LIG d   1      -1.219  78.097 110.429  0.00  0.00     0.109 C 
ATOM     16  O   LIG d   1      -1.684  80.100 111.683  0.00  0.00    -0.276 OA
ATOM     17  H   LIG d   1      -1.245  77.168 112.777  0.00  0.00     0.149 HD
ENDBRANCH   6  13
BRANCH   5  18
ATOM     18  N   LIG d   1       0.298  80.256 114.198  0.00  0.00     0.381 N 
ATOM     19  H   LIG d   1       1.036  79.892 113.629  0.00  0.00    -0.090 HD
ATOM     20  H   LIG d   1       0.701  80.870 114.883  0.00  0.00    -0.090 HD
ATOM     21  H   LIG d   1      -0.351  80.757 113.632  0.00  0.00    -0.090 HD
ENDBRANCH   5  18
BRANCH   3  22
ATOM     22  C   LIG d   1      -1.348  78.681 118.411  0.00  0.00     0.382 C 
ATOM     23  O   LIG d   1      -1.416  77.588 119.023  0.00  0.00    -0.241 OA
ATOM     24  O   LIG d   1      -1.194  79.736 119.054  0.00  0.00    -0.241 OA
ENDBRANCH   3  22
TORSDOF 7
ENDMDL
