MODEL 1
REMARK VINA RESULT:      -5.5      0.000      0.000
REMARK  7 active torsions:
REMARK  status: ('A' for Active; 'I' for Inactive)
REMARK    1  A    between atoms: C_2  and  C_3 
REMARK    2  A    between atoms: C_3  and  O_6 
REMARK    3  A    between atoms: C_3  and  C_4 
REMARK    4  A    between atoms: C_7  and  O_6 
REMARK    5  A    between atoms: C_9  and  C_10 
REMARK    6  A    between atoms: N_15  and  C_14 
REMARK    7  A    between atoms: N_20  and  C_19 
REMARK       I    between atoms: C_22  and  N_20 
ROOT
ATOM      1  C   LIG d   1      -0.559  80.950 112.301  0.00  0.00     0.161 C 
ATOM      2  C   LIG d   1      -1.611  80.034 112.464  0.00  0.00     0.016 C 
ATOM      3  C   LIG d   1      -1.727  78.840 111.714  0.00  0.00     0.038 C 
ATOM      4  C   LIG d   1      -0.710  78.406 110.851  0.00  0.00     0.028 C 
ATOM      5  C   LIG d   1       0.129  79.545 110.281  0.00  0.00    -0.047 C 
ATOM      6  C   LIG d   1       0.618  80.438 111.444  0.00  0.00     0.091 C 
ENDROOT
BRANCH   1   7
ATOM      7  O   LIG d   1      -0.086  81.385 113.591  0.00  0.00    -0.368 OA
BRANCH   7   8
ATOM      8  C   LIG d   1       0.349  80.341 114.497  0.00  0.00     0.119 C 
BRANCH   8   9
ATOM      9  C   LIG d   1      -0.404  80.538 115.827  0.00  0.00     0.028 C 
ATOM     10  C   LIG d   1      -1.421  79.416 116.098  0.00  0.00     0.006 C 
ENDBRANCH   8   9
BRANCH   8  11
ATOM     11  C   LIG d   1       1.833  80.487 114.845  0.00  0.00     0.028 C 
ATOM     12  C   LIG d   1       2.292  81.953 114.892  0.00  0.00     0.006 C 
ENDBRANCH   8  11
ENDBRANCH   7   8
ENDBRANCH   1   7
BRANCH   6  13
ATOM     13  N   LIG d   1       1.376  81.624 110.967  0.00  0.00    -0.311 N 
ATOM     14  C   LIG d   1       2.689  81.771 111.134  0.00  0.00     0.210 C 
ATOM     15  C   LIG d   1       3.269  83.078 110.584  0.00  0.00     0.109 C 
ATOM     16  O   LIG d   1       3.434  80.927 111.656  0.00  0.00    -0.276 OA
ATOM     17  H   LIG d   1       0.854  82.343 110.504  0.00  0.00     0.149 HD
ENDBRANCH   6  13
BRANCH   5  18
ATOM     18  N   LIG d   1       1.233  78.942 109.511  0.00  0.00     0.381 N 
ATOM     19  H   LIG d   1       1.353  79.435 108.648  0.00  0.00    -0.090 HD
ATOM     20  H   LIG d   1       1.000  77.988 109.300  0.00  0.00    -0.090 HD
ATOM     21  H   LIG d   1       2.077  78.976 110.041  0.00  0.00    -0.090 HD
ENDBRANCH   5  18
BRANCH   3  22
ATOM     22  C   LIG d   1      -2.889  78.088 111.795  0.00  0.00     0.382 C 
ATOM     23  O   LIG d   1      -3.294  77.451 110.793  0.00  0.00    -0.241 OA
ATOM     24  O   LIG d   1      -3.560  78.074 112.844  0.00  0.00    -0.241 OA
ENDBRANCH   3  22
TORSDOF 7
ENDMDL
MODEL 2
REMARK VINA RESULT:      -5.4      3.809      6.265
REMARK  7 active torsions:
REMARK  status: ('A' for Active; 'I' for Inactive)
REMARK    1  A    between atoms: C_2  and  C_3 
REMARK    2  A    between atoms: C_3  and  O_6 
REMARK    3  A    between atoms: C_3  and  C_4 
REMARK    4  A    between atoms: C_7  and  O_6 
REMARK    5  A    between atoms: C_9  and  C_10 
REMARK    6  A    between atoms: N_15  and  C_14 
REMARK    7  A    between atoms: N_20  and  C_19 
REMARK       I    between atoms: C_22  and  N_20 
ROOT
ATOM      1  C   LIG d   1      -2.371  78.926 115.891  0.00  0.00     0.161 C 
ATOM      2  C   LIG d   1      -2.624  80.051 115.088  0.00  0.00     0.016 C 
ATOM      3  C   LIG d   1      -2.369  80.088 113.698  0.00  0.00     0.038 C 
ATOM      4  C   LIG d   1      -1.982  78.943 112.985  0.00  0.00     0.028 C 
ATOM      5  C   LIG d   1      -1.232  77.924 113.836  0.00  0.00    -0.047 C 
ATOM      6  C   LIG d   1      -2.054  77.633 115.112  0.00  0.00     0.091 C 
ENDROOT
BRANCH   1   7
ATOM      7  O   LIG d   1      -3.476  78.711 116.792  0.00  0.00    -0.368 OA
BRANCH   7   8
ATOM      8  C   LIG d   1      -4.761  78.453 116.174  0.00  0.00     0.119 C 
BRANCH   8   9
ATOM      9  C   LIG d   1      -5.819  79.258 116.953  0.00  0.00     0.028 C 
ATOM     10  C   LIG d   1      -5.407  80.726 117.157  0.00  0.00     0.006 C 
ENDBRANCH   8   9
BRANCH   8  11
ATOM     11  C   LIG d   1      -5.171  76.986 116.330  0.00  0.00     0.028 C 
ATOM     12  C   LIG d   1      -5.576  76.335 114.998  0.00  0.00     0.006 C 
ENDBRANCH   8  11
ENDBRANCH   7   8
ENDBRANCH   1   7
BRANCH   6  13
ATOM     13  N   LIG d   1      -1.352  76.709 116.040  0.00  0.00    -0.311 N 
ATOM     14  C   LIG d   1      -1.533  75.389 116.038  0.00  0.00     0.210 C 
ATOM     15  C   LIG d   1      -0.726  74.624 117.091  0.00  0.00     0.109 C 
ATOM     16  O   LIG d   1      -2.262  74.777 115.242  0.00  0.00    -0.276 OA
ATOM     17  H   LIG d   1      -0.719  77.118 116.699  0.00  0.00     0.149 HD
ENDBRANCH   6  13
BRANCH   5  18
ATOM     18  N   LIG d   1      -1.011  76.725 113.004  0.00  0.00     0.381 N 
ATOM     19  H   LIG d   1      -1.329  75.912 113.492  0.00  0.00    -0.090 HD
ATOM     20  H   LIG d   1      -0.026  76.625 112.833  0.00  0.00    -0.090 HD
ATOM     21  H   LIG d   1      -1.499  76.815 112.140  0.00  0.00    -0.090 HD
ENDBRANCH   5  18
BRANCH   3  22
ATOM     22  C   LIG d   1      -2.461  81.290 113.014  0.00  0.00     0.382 C 
ATOM     23  O   LIG d   1      -1.516  82.114 113.063  0.00  0.00    -0.241 OA
ATOM     24  O   LIG d   1      -3.496  81.580 112.384  0.00  0.00    -0.241 OA
ENDBRANCH   3  22
TORSDOF 7
ENDMDL
MODEL 3
REMARK VINA RESULT:      -5.3      1.605      1.950
REMARK  7 active torsions:
REMARK  status: ('A' for Active; 'I' for Inactive)
REMARK    1  A    between atoms: C_2  and  C_3 
REMARK    2  A    between atoms: C_3  and  O_6 
REMARK    3  A    between atoms: C_3  and  C_4 
REMARK    4  A    between atoms: C_7  and  O_6 
REMARK    5  A    between atoms: C_9  and  C_10 
REMARK    6  A    between atoms: N_15  and  C_14 
REMARK    7  A    between atoms: N_20  and  C_19 
REMARK       I    between atoms: C_22  and  N_20 
ROOT
ATOM      1  C   LIG d   1      -1.560  80.318 113.242  0.00  0.00     0.161 C 
ATOM      2  C   LIG d   1      -2.389  79.386 113.888  0.00  0.00     0.016 C 
ATOM      3  C   LIG d   1      -2.579  78.062 113.428  0.00  0.00     0.038 C 
ATOM      4  C   LIG d   1      -1.830  77.532 112.367  0.00  0.00     0.028 C 
ATOM      5  C   LIG d   1      -1.355  78.587 111.374  0.00  0.00    -0.047 C 
ATOM      6  C   LIG d   1      -0.649  79.723 112.148  0.00  0.00     0.091 C 
ENDROOT
BRANCH   1   7
ATOM      7  O   LIG d   1      -0.774  81.030 114.217  0.00  0.00    -0.368 OA
BRANCH   7   8
ATOM      8  C   LIG d   1       0.083  80.220 115.060  0.00  0.00     0.119 C 
BRANCH   8   9
ATOM      9  C   LIG d   1       0.056  80.834 116.473  0.00  0.00     0.028 C 
ATOM     10  C   LIG d   1      -1.363  80.883 117.064  0.00  0.00     0.006 C 
ENDBRANCH   8   9
BRANCH   8  11
ATOM     11  C   LIG d   1       1.545  80.302 114.610  0.00  0.00     0.028 C 
ATOM     12  C   LIG d   1       1.971  81.728 114.225  0.00  0.00     0.006 C 
ENDBRANCH   8  11
ENDBRANCH   7   8
ENDBRANCH   1   7
BRANCH   6  13
ATOM     13  N   LIG d   1      -0.227  80.838 111.260  0.00  0.00    -0.311 N 
ATOM     14  C   LIG d   1       0.991  80.931 110.729  0.00  0.00     0.210 C 
ATOM     15  C   LIG d   1       1.223  82.170 109.858  0.00  0.00     0.109 C 
ATOM     16  O   LIG d   1       1.890  80.090 110.870  0.00  0.00    -0.276 OA
ATOM     17  H   LIG d   1      -0.905  81.549 111.067  0.00  0.00     0.149 HD
ENDBRANCH   6  13
BRANCH   5  18
ATOM     18  N   LIG d   1      -0.473  77.917 110.399  0.00  0.00     0.381 N 
ATOM     19  H   LIG d   1       0.370  77.624 110.851  0.00  0.00    -0.090 HD
ATOM     20  H   LIG d   1      -0.232  78.571 109.676  0.00  0.00    -0.090 HD
ATOM     21  H   LIG d   1      -0.938  77.129 110.004  0.00  0.00    -0.090 HD
ENDBRANCH   5  18
BRANCH   3  22
ATOM     22  C   LIG d   1      -3.557  77.267 114.005  0.00  0.00     0.382 C 
ATOM     23  O   LIG d   1      -4.420  77.782 114.757  0.00  0.00    -0.241 OA
ATOM     24  O   LIG d   1      -3.561  76.036 113.820  0.00  0.00    -0.241 OA
ENDBRANCH   3  22
TORSDOF 7
ENDMDL
MODEL 4
REMARK VINA RESULT:      -5.3      3.117      5.907
REMARK  7 active torsions:
REMARK  status: ('A' for Active; 'I' for Inactive)
REMARK    1  A    between atoms: C_2  and  C_3 
REMARK    2  A    between atoms: C_3  and  O_6 
REMARK    3  A    between atoms: C_3  and  C_4 
REMARK    4  A    between atoms: C_7  and  O_6 
REMARK    5  A    between atoms: C_9  and  C_10 
REMARK    6  A    between atoms: N_15  and  C_14 
REMARK    7  A    between atoms: N_20  and  C_19 
REMARK       I    between atoms: C_22  and  N_20 
ROOT
ATOM      1  C   LIG d   1      -2.348  79.488 114.604  0.00  0.00     0.161 C 
ATOM      2  C   LIG d   1      -1.889  80.661 113.982  0.00  0.00     0.016 C 
ATOM      3  C   LIG d   1      -1.196  80.668 112.749  0.00  0.00     0.038 C 
ATOM      4  C   LIG d   1      -1.046  79.507 111.976  0.00  0.00     0.028 C 
ATOM      5  C   LIG d   1      -1.049  78.225 112.802  0.00  0.00    -0.047 C 
ATOM      6  C   LIG d   1      -2.291  78.223 113.721  0.00  0.00     0.091 C 
ENDROOT
BRANCH   1   7
ATOM      7  O   LIG d   1      -3.685  79.690 115.104  0.00  0.00    -0.368 OA
BRANCH   7   8
ATOM      8  C   LIG d   1      -3.813  79.832 116.540  0.00  0.00     0.119 C 
BRANCH   8   9
ATOM      9  C   LIG d   1      -4.430  78.526 117.080  0.00  0.00     0.028 C 
ATOM     10  C   LIG d   1      -3.490  77.792 118.051  0.00  0.00     0.006 C 
ENDBRANCH   8   9
BRANCH   8  11
ATOM     11  C   LIG d   1      -4.813  80.933 116.904  0.00  0.00     0.028 C 
ATOM     12  C   LIG d   1      -6.198  80.381 117.279  0.00  0.00     0.006 C 
ENDBRANCH   8  11
ENDBRANCH   7   8
ENDBRANCH   1   7
BRANCH   6  13
ATOM     13  N   LIG d   1      -2.327  77.043 114.624  0.00  0.00    -0.311 N 
ATOM     14  C   LIG d   1      -3.264  76.099 114.561  0.00  0.00     0.210 C 
ATOM     15  C   LIG d   1      -3.126  74.980 115.597  0.00  0.00     0.109 C 
ATOM     16  O   LIG d   1      -4.179  76.067 113.724  0.00  0.00    -0.276 OA
ATOM     17  H   LIG d   1      -1.603  76.974 115.313  0.00  0.00     0.149 HD
ENDBRANCH   6  13
BRANCH   5  18
ATOM     18  N   LIG d   1      -1.024  77.089 111.861  0.00  0.00     0.381 N 
ATOM     19  H   LIG d   1      -1.728  76.425 112.114  0.00  0.00    -0.090 HD
ATOM     20  H   LIG d   1      -0.128  76.638 111.920  0.00  0.00    -0.090 HD
ATOM     21  H   LIG d   1      -1.180  77.413 110.932  0.00  0.00    -0.090 HD
ENDBRANCH   5  18
BRANCH   3  22
ATOM     22  C   LIG d   1      -0.609  81.841 112.298  0.00  0.00     0.382 C 
ATOM     23  O   LIG d   1       0.360  82.337 112.922  0.00  0.00    -0.241 OA
ATOM     24  O   LIG d   1      -1.065  82.432 111.301  0.00  0.00    -0.241 OA
ENDBRANCH   3  22
TORSDOF 7
ENDMDL
MODEL 5
REMARK VINA RESULT:      -4.9      1.565      2.110
REMARK  7 active torsions:
REMARK  status: ('A' for Active; 'I' for Inactive)
REMARK    1  A    between atoms: C_2  and  C_3 
REMARK    2  A    between atoms: C_3  and  O_6 
REMARK    3  A    between atoms: C_3  and  C_4 
REMARK    4  A    between atoms: C_7  and  O_6 
REMARK    5  A    between atoms: C_9  and  C_10 
REMARK    6  A    between atoms: N_15  and  C_14 
REMARK    7  A    between atoms: N_20  and  C_19 
REMARK       I    between atoms: C_22  and  N_20 
ROOT
ATOM      1  C   LIG d   1      -1.259  80.075 113.289  0.00  0.00     0.161 C 
ATOM      2  C   LIG d   1      -2.237  79.114 113.597  0.00  0.00     0.016 C 
ATOM      3  C   LIG d   1      -2.461  77.955 112.819  0.00  0.00     0.038 C 
ATOM      4  C   LIG d   1      -1.615  77.599 111.758  0.00  0.00     0.028 C 
ATOM      5  C   LIG d   1      -0.930  78.793 111.103  0.00  0.00    -0.047 C 
ATOM      6  C   LIG d   1      -0.253  79.648 112.200  0.00  0.00     0.091 C 
ENDROOT
BRANCH   1   7
ATOM      7  O   LIG d   1      -0.563  80.464 114.489  0.00  0.00    -0.368 OA
BRANCH   7   8
ATOM      8  C   LIG d   1      -0.940  79.766 115.701  0.00  0.00     0.119 C 
BRANCH   8   9
ATOM      9  C   LIG d   1      -1.236  80.829 116.776  0.00  0.00     0.028 C 
ATOM     10  C   LIG d   1       0.047  81.415 117.390  0.00  0.00     0.006 C 
ENDBRANCH   8   9
BRANCH   8  11
ATOM     11  C   LIG d   1       0.225  78.942 116.255  0.00  0.00     0.028 C 
ATOM     12  C   LIG d   1      -0.028  77.427 116.183  0.00  0.00     0.006 C 
ENDBRANCH   8  11
ENDBRANCH   7   8
ENDBRANCH   1   7
BRANCH   6  13
ATOM     13  N   LIG d   1       0.369  80.882 111.654  0.00  0.00    -0.311 N 
ATOM     14  C   LIG d   1       1.644  81.210 111.855  0.00  0.00     0.210 C 
ATOM     15  C   LIG d   1       2.079  82.535 111.220  0.00  0.00     0.109 C 
ATOM     16  O   LIG d   1       2.465  80.514 112.472  0.00  0.00    -0.276 OA
ATOM     17  H   LIG d   1      -0.217  81.488 111.115  0.00  0.00     0.149 HD
ENDBRANCH   6  13
BRANCH   5  18
ATOM     18  N   LIG d   1       0.025  78.269 110.108  0.00  0.00     0.381 N 
ATOM     19  H   LIG d   1       0.423  79.026 109.589  0.00  0.00    -0.090 HD
ATOM     20  H   LIG d   1      -0.469  77.672 109.467  0.00  0.00    -0.090 HD
ATOM     21  H   LIG d   1       0.745  77.755 110.565  0.00  0.00    -0.090 HD
ENDBRANCH   5  18
BRANCH   3  22
ATOM     22  C   LIG d   1      -3.567  77.159 113.075  0.00  0.00     0.382 C 
ATOM     23  O   LIG d   1      -3.462  76.167 113.836  0.00  0.00    -0.241 OA
ATOM     24  O   LIG d   1      -4.657  77.393 112.521  0.00  0.00    -0.241 OA
ENDBRANCH   3  22
TORSDOF 7
ENDMDL
MODEL 6
REMARK VINA RESULT:      -4.9      3.526      6.001
REMARK  7 active torsions:
REMARK  status: ('A' for Active; 'I' for Inactive)
REMARK    1  A    between atoms: C_2  and  C_3 
REMARK    2  A    between atoms: C_3  and  O_6 
REMARK    3  A    between atoms: C_3  and  C_4 
REMARK    4  A    between atoms: C_7  and  O_6 
REMARK    5  A    between atoms: C_9  and  C_10 
REMARK    6  A    between atoms: N_15  and  C_14 
REMARK    7  A    between atoms: N_20  and  C_19 
REMARK       I    between atoms: C_22  and  N_20 
ROOT
ATOM      1  C   LIG d   1      -2.274  79.405 116.209  0.00  0.00     0.161 C 
ATOM      2  C   LIG d   1      -2.669  80.132 115.074  0.00  0.00     0.016 C 
ATOM      3  C   LIG d   1      -1.772  80.539 114.059  0.00  0.00     0.038 C 
ATOM      4  C   LIG d   1      -0.436  80.112 114.036  0.00  0.00     0.028 C 
ATOM      5  C   LIG d   1       0.124  79.799 115.419  0.00  0.00    -0.047 C 
ATOM      6  C   LIG d   1      -0.841  78.835 116.145  0.00  0.00     0.091 C 
ENDROOT
BRANCH   1   7
ATOM      7  O   LIG d   1      -3.222  78.350 116.467  0.00  0.00    -0.368 OA
BRANCH   7   8
ATOM      8  C   LIG d   1      -3.940  77.843 115.316  0.00  0.00     0.119 C 
BRANCH   8   9
ATOM      9  C   LIG d   1      -5.313  77.346 115.809  0.00  0.00     0.028 C 
ATOM     10  C   LIG d   1      -5.803  76.111 115.035  0.00  0.00     0.006 C 
ENDBRANCH   8   9
BRANCH   8  11
ATOM     11  C   LIG d   1      -3.250  76.608 114.728  0.00  0.00     0.028 C 
ATOM     12  C   LIG d   1      -2.474  76.918 113.438  0.00  0.00     0.006 C 
ENDBRANCH   8  11
ENDBRANCH   7   8
ENDBRANCH   1   7
BRANCH   6  13
ATOM     13  N   LIG d   1      -0.411  78.543 117.537  0.00  0.00    -0.311 N 
ATOM     14  C   LIG d   1      -0.164  77.314 117.986  0.00  0.00     0.210 C 
ATOM     15  C   LIG d   1       0.249  77.234 119.459  0.00  0.00     0.109 C 
ATOM     16  O   LIG d   1      -0.216  76.285 117.295  0.00  0.00    -0.276 OA
ATOM     17  H   LIG d   1      -0.313  79.323 118.157  0.00  0.00     0.149 HD
ENDBRANCH   6  13
BRANCH   5  18
ATOM     18  N   LIG d   1       1.475  79.236 115.236  0.00  0.00     0.381 N 
ATOM     19  H   LIG d   1       1.628  79.029 114.269  0.00  0.00    -0.090 HD
ATOM     20  H   LIG d   1       1.543  78.378 115.756  0.00  0.00    -0.090 HD
ATOM     21  H   LIG d   1       2.161  79.883 115.557  0.00  0.00    -0.090 HD
ENDBRANCH   5  18
BRANCH   3  22
ATOM     22  C   LIG d   1      -2.201  81.416 113.074  0.00  0.00     0.382 C 
ATOM     23  O   LIG d   1      -1.505  82.417 112.780  0.00  0.00    -0.241 OA
ATOM     24  O   LIG d   1      -3.296  81.242 112.507  0.00  0.00    -0.241 OA
ENDBRANCH   3  22
TORSDOF 7
ENDMDL
MODEL 7
REMARK VINA RESULT:      -4.7      3.706      5.212
REMARK  7 active torsions:
REMARK  status: ('A' for Active; 'I' for Inactive)
REMARK    1  A    between atoms: C_2  and  C_3 
REMARK    2  A    between atoms: C_3  and  O_6 
REMARK    3  A    between atoms: C_3  and  C_4 
REMARK    4  A    between atoms: C_7  and  O_6 
REMARK    5  A    between atoms: C_9  and  C_10 
REMARK    6  A    between atoms: N_15  and  C_14 
REMARK    7  A    between atoms: N_20  and  C_19 
REMARK       I    between atoms: C_22  and  N_20 
ROOT
ATOM      1  C   LIG d   1      -2.660  78.342 114.765  0.00  0.00     0.161 C 
ATOM      2  C   LIG d   1      -3.719  77.430 114.906  0.00  0.00     0.016 C 
ATOM      3  C   LIG d   1      -3.530  76.055 115.179  0.00  0.00     0.038 C 
ATOM      4  C   LIG d   1      -2.266  75.526 115.481  0.00  0.00     0.028 C 
ATOM      5  C   LIG d   1      -1.116  76.308 114.855  0.00  0.00    -0.047 C 
ATOM      6  C   LIG d   1      -1.281  77.806 115.202  0.00  0.00     0.091 C 
ENDROOT
BRANCH   1   7
ATOM      7  O   LIG d   1      -2.969  79.561 115.470  0.00  0.00    -0.368 OA
BRANCH   7   8
ATOM      8  C   LIG d   1      -3.842  79.430 116.619  0.00  0.00     0.119 C 
BRANCH   8   9
ATOM      9  C   LIG d   1      -4.660  80.731 116.730  0.00  0.00     0.028 C 
ATOM     10  C   LIG d   1      -6.017  80.514 117.422  0.00  0.00     0.006 C 
ENDBRANCH   8   9
BRANCH   8  11
ATOM     11  C   LIG d   1      -3.040  79.342 117.920  0.00  0.00     0.028 C 
ATOM     12  C   LIG d   1      -3.108  77.951 118.570  0.00  0.00     0.006 C 
ENDBRANCH   8  11
ENDBRANCH   7   8
ENDBRANCH   1   7
BRANCH   6  13
ATOM     13  N   LIG d   1      -0.244  78.654 114.558  0.00  0.00    -0.311 N 
ATOM     14  C   LIG d   1       0.478  79.558 115.218  0.00  0.00     0.210 C 
ATOM     15  C   LIG d   1       1.478  80.338 114.360  0.00  0.00     0.109 C 
ATOM     16  O   LIG d   1       0.407  79.765 116.439  0.00  0.00    -0.276 OA
ATOM     17  H   LIG d   1      -0.099  78.529 113.575  0.00  0.00     0.149 HD
ENDBRANCH   6  13
BRANCH   5  18
ATOM     18  N   LIG d   1       0.143  75.732 115.363  0.00  0.00     0.381 N 
ATOM     19  H   LIG d   1       0.411  74.952 114.797  0.00  0.00    -0.090 HD
ATOM     20  H   LIG d   1      -0.004  75.405 116.302  0.00  0.00    -0.090 HD
ATOM     21  H   LIG d   1       0.862  76.422 115.353  0.00  0.00    -0.090 HD
ENDBRANCH   5  18
BRANCH   3  22
ATOM     22  C   LIG d   1      -4.608  75.187 115.112  0.00  0.00     0.382 C 
ATOM     23  O   LIG d   1      -4.705  74.379 114.156  0.00  0.00    -0.241 OA
ATOM     24  O   LIG d   1      -5.509  75.230 115.971  0.00  0.00    -0.241 OA
ENDBRANCH   3  22
TORSDOF 7
ENDMDL
MODEL 8
REMARK VINA RESULT:      -4.7      3.606      6.797
REMARK  7 active torsions:
REMARK  status: ('A' for Active; 'I' for Inactive)
REMARK    1  A    between atoms: C_2  and  C_3 
REMARK    2  A    between atoms: C_3  and  O_6 
REMARK    3  A    between atoms: C_3  and  C_4 
REMARK    4  A    between atoms: C_7  and  O_6 
REMARK    5  A    between atoms: C_9  and  C_10 
REMARK    6  A    between atoms: N_15  and  C_14 
REMARK    7  A    between atoms: N_20  and  C_19 
REMARK       I    between atoms: C_22  and  N_20 
ROOT
ATOM      1  C   LIG d   1      -3.149  79.106 115.819  0.00  0.00     0.161 C 
ATOM      2  C   LIG d   1      -2.177  80.114 115.930  0.00  0.00     0.016 C 
ATOM      3  C   LIG d   1      -0.951  80.094 115.226  0.00  0.00     0.038 C 
ATOM      4  C   LIG d   1      -0.677  79.134 114.241  0.00  0.00     0.028 C 
ATOM      5  C   LIG d   1      -1.412  77.816 114.459  0.00  0.00    -0.047 C 
ATOM      6  C   LIG d   1      -2.916  78.108 114.665  0.00  0.00     0.091 C 
ENDROOT
BRANCH   1   7
ATOM      7  O   LIG d   1      -4.458  79.699 115.712  0.00  0.00    -0.368 OA
BRANCH   7   8
ATOM      8  C   LIG d   1      -5.365  79.444 116.812  0.00  0.00     0.119 C 
BRANCH   8   9
ATOM      9  C   LIG d   1      -5.815  80.810 117.367  0.00  0.00     0.028 C 
ATOM     10  C   LIG d   1      -4.775  81.430 118.314  0.00  0.00     0.006 C 
ENDBRANCH   8   9
BRANCH   8  11
ATOM     11  C   LIG d   1      -4.650  78.750 117.975  0.00  0.00     0.028 C 
ATOM     12  C   LIG d   1      -5.217  77.354 118.276  0.00  0.00     0.006 C 
ENDBRANCH   8  11
ENDBRANCH   7   8
ENDBRANCH   1   7
BRANCH   6  13
ATOM     13  N   LIG d   1      -3.695  76.879 114.969  0.00  0.00    -0.311 N 
ATOM     14  C   LIG d   1      -4.648  76.400 114.172  0.00  0.00     0.210 C 
ATOM     15  C   LIG d   1      -5.342  75.133 114.682  0.00  0.00     0.109 C 
ATOM     16  O   LIG d   1      -4.963  76.885 113.075  0.00  0.00    -0.276 OA
ATOM     17  H   LIG d   1      -3.483  76.404 115.825  0.00  0.00     0.149 HD
ENDBRANCH   6  13
BRANCH   5  18
ATOM     18  N   LIG d   1      -1.145  76.958 113.289  0.00  0.00     0.381 N 
ATOM     19  H   LIG d   1      -0.279  76.472 113.416  0.00  0.00    -0.090 HD
ATOM     20  H   LIG d   1      -1.064  77.537 112.473  0.00  0.00    -0.090 HD
ATOM     21  H   LIG d   1      -1.886  76.303 113.170  0.00  0.00    -0.090 HD
ENDBRANCH   5  18
BRANCH   3  22
ATOM     22  C   LIG d   1       0.034  81.021 115.535  0.00  0.00     0.382 C 
ATOM     23  O   LIG d   1       0.040  81.578 116.659  0.00  0.00    -0.241 OA
ATOM     24  O   LIG d   1       0.889  81.339 114.687  0.00  0.00    -0.241 OA
ENDBRANCH   3  22
TORSDOF 7
ENDMDL
MODEL 9
REMARK VINA RESULT:      -4.6      2.869      5.263
REMARK  7 active torsions:
REMARK  status: ('A' for Active; 'I' for Inactive)
REMARK    1  A    between atoms: C_2  and  C_3 
REMARK    2  A    between atoms: C_3  and  O_6 
REMARK    3  A    between atoms: C_3  and  C_4 
REMARK    4  A    between atoms: C_7  and  O_6 
REMARK    5  A    between atoms: C_9  and  C_10 
REMARK    6  A    between atoms: N_15  and  C_14 
REMARK    7  A    between atoms: N_20  and  C_19 
REMARK       I    between atoms: C_22  and  N_20 
ROOT
ATOM      1  C   LIG d   1      -0.518  79.311 114.761  0.00  0.00     0.161 C 
ATOM      2  C   LIG d   1      -0.524  80.532 114.066  0.00  0.00     0.016 C 
ATOM      3  C   LIG d   1      -0.914  80.655 112.713  0.00  0.00     0.038 C 
ATOM      4  C   LIG d   1      -1.472  79.583 112.002  0.00  0.00     0.028 C 
ATOM      5  C   LIG d   1      -1.015  78.218 112.505  0.00  0.00    -0.047 C 
ATOM      6  C   LIG d   1      -1.229  78.150 114.035  0.00  0.00     0.091 C 
ENDROOT
BRANCH   1   7
ATOM      7  O   LIG d   1      -1.075  79.495 116.077  0.00  0.00    -0.368 OA
BRANCH   7   8
ATOM      8  C   LIG d   1      -2.047  80.561 116.215  0.00  0.00     0.119 C 
BRANCH   8   9
ATOM      9  C   LIG d   1      -1.866  81.174 117.617  0.00  0.00     0.028 C 
ATOM     10  C   LIG d   1      -0.678  80.560 118.377  0.00  0.00     0.006 C 
ENDBRANCH   8   9
BRANCH   8  11
ATOM     11  C   LIG d   1      -3.478  80.017 116.192  0.00  0.00     0.028 C 
ATOM     12  C   LIG d   1      -4.423  80.788 117.127  0.00  0.00     0.006 C 
ENDBRANCH   8  11
ENDBRANCH   7   8
ENDBRANCH   1   7
BRANCH   6  13
ATOM     13  N   LIG d   1      -0.729  76.879 114.621  0.00  0.00    -0.311 N 
ATOM     14  C   LIG d   1      -1.505  75.820 114.845  0.00  0.00     0.210 C 
ATOM     15  C   LIG d   1      -0.793  74.619 115.475  0.00  0.00     0.109 C 
ATOM     16  O   LIG d   1      -2.708  75.751 114.553  0.00  0.00    -0.276 OA
ATOM     17  H   LIG d   1       0.243  76.838 114.859  0.00  0.00     0.149 HD
ENDBRANCH   6  13
BRANCH   5  18
ATOM     18  N   LIG d   1      -1.777  77.193 111.768  0.00  0.00     0.381 N 
ATOM     19  H   LIG d   1      -1.665  77.330 110.784  0.00  0.00    -0.090 HD
ATOM     20  H   LIG d   1      -2.752  77.289 111.992  0.00  0.00    -0.090 HD
ATOM     21  H   LIG d   1      -1.459  76.283 112.023  0.00  0.00    -0.090 HD
ENDBRANCH   5  18
BRANCH   3  22
ATOM     22  C   LIG d   1      -0.709  81.853 112.045  0.00  0.00     0.382 C 
ATOM     23  O   LIG d   1      -1.129  82.927 112.541  0.00  0.00    -0.241 OA
ATOM     24  O   LIG d   1      -0.150  81.869 110.933  0.00  0.00    -0.241 OA
ENDBRANCH   3  22
TORSDOF 7
ENDMDL
