MODEL 1
REMARK VINA RESULT:      -5.1      0.000      0.000
REMARK  7 active torsions:
REMARK  status: ('A' for Active; 'I' for Inactive)
REMARK    1  A    between atoms: C_2  and  C_3 
REMARK    2  A    between atoms: C_3  and  O_6 
REMARK    3  A    between atoms: C_3  and  C_4 
REMARK    4  A    between atoms: C_7  and  O_6 
REMARK    5  A    between atoms: C_9  and  C_10 
REMARK    6  A    between atoms: N_15  and  C_14 
REMARK    7  A    between atoms: N_20  and  C_19 
REMARK       I    between atoms: C_22  and  N_20 
ROOT
ATOM      1  C   LIG d   1      -3.311  78.240 115.668  0.00  0.00     0.161 C 
ATOM      2  C   LIG d   1      -3.363  79.344 114.802  0.00  0.00     0.016 C 
ATOM      3  C   LIG d   1      -2.495  79.510 113.698  0.00  0.00     0.038 C 
ATOM      4  C   LIG d   1      -1.609  78.500 113.295  0.00  0.00     0.028 C 
ATOM      5  C   LIG d   1      -1.170  77.588 114.435  0.00  0.00    -0.047 C 
ATOM      6  C   LIG d   1      -2.424  77.076 115.179  0.00  0.00     0.091 C 
ENDROOT
BRANCH   1   7
ATOM      7  O   LIG d   1      -4.646  77.772 115.945  0.00  0.00    -0.368 OA
BRANCH   7   8
ATOM      8  C   LIG d   1      -5.126  77.977 117.296  0.00  0.00     0.119 C 
BRANCH   8   9
ATOM      9  C   LIG d   1      -5.604  76.613 117.829  0.00  0.00     0.028 C 
ATOM     10  C   LIG d   1      -5.663  75.540 116.729  0.00  0.00     0.006 C 
ENDBRANCH   8   9
BRANCH   8  11
ATOM     11  C   LIG d   1      -6.365  78.877 117.316  0.00  0.00     0.028 C 
ATOM     12  C   LIG d   1      -6.015  80.370 117.426  0.00  0.00     0.006 C 
ENDBRANCH   8  11
ENDBRANCH   7   8
ENDBRANCH   1   7
BRANCH   6  13
ATOM     13  N   LIG d   1      -2.082  76.243 116.361  0.00  0.00    -0.311 N 
ATOM     14  C   LIG d   1      -1.992  74.915 116.322  0.00  0.00     0.210 C 
ATOM     15  C   LIG d   1      -1.646  74.250 117.658  0.00  0.00     0.109 C 
ATOM     16  O   LIG d   1      -2.134  74.227 115.300  0.00  0.00    -0.276 OA
ATOM     17  H   LIG d   1      -1.920  76.723 117.225  0.00  0.00     0.149 HD
ENDBRANCH   6  13
BRANCH   5  18
ATOM     18  N   LIG d   1      -0.360  76.502 113.851  0.00  0.00     0.381 N 
ATOM     19  H   LIG d   1      -0.183  75.802 114.543  0.00  0.00    -0.090 HD
ATOM     20  H   LIG d   1       0.522  76.879 113.551  0.00  0.00    -0.090 HD
ATOM     21  H   LIG d   1      -0.839  76.100 113.075  0.00  0.00    -0.090 HD
ENDBRANCH   5  18
BRANCH   3  22
ATOM     22  C   LIG d   1      -2.481  80.713 113.009  0.00  0.00     0.382 C 
ATOM     23  O   LIG d   1      -3.551  81.342 112.824  0.00  0.00    -0.241 OA
ATOM     24  O   LIG d   1      -1.419  81.155 112.531  0.00  0.00    -0.241 OA
ENDBRANCH   3  22
TORSDOF 7
ENDMDL
MODEL 2
REMARK VINA RESULT:      -4.8      1.797      2.204
REMARK  7 active torsions:
REMARK  status: ('A' for Active; 'I' for Inactive)
REMARK    1  A    between atoms: C_2  and  C_3 
REMARK    2  A    between atoms: C_3  and  O_6 
REMARK    3  A    between atoms: C_3  and  C_4 
REMARK    4  A    between atoms: C_7  and  O_6 
REMARK    5  A    between atoms: C_9  and  C_10 
REMARK    6  A    between atoms: N_15  and  C_14 
REMARK    7  A    between atoms: N_20  and  C_19 
REMARK       I    between atoms: C_22  and  N_20 
ROOT
ATOM      1  C   LIG d   1      -2.758  77.417 115.291  0.00  0.00     0.161 C 
ATOM      2  C   LIG d   1      -2.922  78.383 114.284  0.00  0.00     0.016 C 
ATOM      3  C   LIG d   1      -1.951  79.365 113.983  0.00  0.00     0.038 C 
ATOM      4  C   LIG d   1      -0.677  79.353 114.571  0.00  0.00     0.028 C 
ATOM      5  C   LIG d   1      -0.653  78.706 115.951  0.00  0.00    -0.047 C 
ATOM      6  C   LIG d   1      -1.330  77.319 115.867  0.00  0.00     0.091 C 
ENDROOT
BRANCH   1   7
ATOM      7  O   LIG d   1      -3.193  76.130 114.809  0.00  0.00    -0.368 OA
BRANCH   7   8
ATOM      8  C   LIG d   1      -4.258  75.495 115.558  0.00  0.00     0.119 C 
BRANCH   8   9
ATOM      9  C   LIG d   1      -5.272  74.937 114.540  0.00  0.00     0.028 C 
ATOM     10  C   LIG d   1      -6.371  75.954 114.189  0.00  0.00     0.006 C 
ENDBRANCH   8   9
BRANCH   8  11
ATOM     11  C   LIG d   1      -5.040  76.517 116.390  0.00  0.00     0.028 C 
ATOM     12  C   LIG d   1      -4.948  76.250 117.901  0.00  0.00     0.006 C 
ENDBRANCH   8  11
ENDBRANCH   7   8
ENDBRANCH   1   7
BRANCH   6  13
ATOM     13  N   LIG d   1      -1.424  76.652 117.192  0.00  0.00    -0.311 N 
ATOM     14  C   LIG d   1      -1.101  75.376 117.395  0.00  0.00     0.210 C 
ATOM     15  C   LIG d   1      -1.291  74.882 118.833  0.00  0.00     0.109 C 
ATOM     16  O   LIG d   1      -0.644  74.615 116.529  0.00  0.00    -0.276 OA
ATOM     17  H   LIG d   1      -1.756  77.205 117.958  0.00  0.00     0.149 HD
ENDBRANCH   6  13
BRANCH   5  18
ATOM     18  N   LIG d   1       0.755  78.637 116.386  0.00  0.00     0.381 N 
ATOM     19  H   LIG d   1       0.900  79.252 117.162  0.00  0.00    -0.090 HD
ATOM     20  H   LIG d   1       1.344  78.938 115.630  0.00  0.00    -0.090 HD
ATOM     21  H   LIG d   1       0.986  77.703 116.646  0.00  0.00    -0.090 HD
ENDBRANCH   5  18
BRANCH   3  22
ATOM     22  C   LIG d   1      -2.265  80.398 113.113  0.00  0.00     0.382 C 
ATOM     23  O   LIG d   1      -3.466  80.690 112.893  0.00  0.00    -0.241 OA
ATOM     24  O   LIG d   1      -1.365  81.013 112.511  0.00  0.00    -0.241 OA
ENDBRANCH   3  22
TORSDOF 7
ENDMDL
MODEL 3
REMARK VINA RESULT:      -4.7      1.728      2.572
REMARK  7 active torsions:
REMARK  status: ('A' for Active; 'I' for Inactive)
REMARK    1  A    between atoms: C_2  and  C_3 
REMARK    2  A    between atoms: C_3  and  O_6 
REMARK    3  A    between atoms: C_3  and  C_4 
REMARK    4  A    between atoms: C_7  and  O_6 
REMARK    5  A    between atoms: C_9  and  C_10 
REMARK    6  A    between atoms: N_15  and  C_14 
REMARK    7  A    between atoms: N_20  and  C_19 
REMARK       I    between atoms: C_22  and  N_20 
ROOT
ATOM      1  C   LIG d   1      -3.037  77.311 116.015  0.00  0.00     0.161 C 
ATOM      2  C   LIG d   1      -3.372  77.801 114.741  0.00  0.00     0.016 C 
ATOM      3  C   LIG d   1      -2.494  77.757 113.634  0.00  0.00     0.038 C 
ATOM      4  C   LIG d   1      -1.267  77.079 113.688  0.00  0.00     0.028 C 
ATOM      5  C   LIG d   1      -0.673  77.011 115.091  0.00  0.00    -0.047 C 
ATOM      6  C   LIG d   1      -1.745  76.468 116.063  0.00  0.00     0.091 C 
ENDROOT
BRANCH   1   7
ATOM      7  O   LIG d   1      -4.143  76.564 116.558  0.00  0.00    -0.368 OA
BRANCH   7   8
ATOM      8  C   LIG d   1      -5.435  76.805 115.949  0.00  0.00     0.119 C 
BRANCH   8   9
ATOM      9  C   LIG d   1      -6.341  77.440 117.022  0.00  0.00     0.028 C 
ATOM     10  C   LIG d   1      -6.073  78.944 117.202  0.00  0.00     0.006 C 
ENDBRANCH   8   9
BRANCH   8  11
ATOM     11  C   LIG d   1      -6.123  75.492 115.563  0.00  0.00     0.028 C 
ATOM     12  C   LIG d   1      -5.234  74.587 114.696  0.00  0.00     0.006 C 
ENDBRANCH   8  11
ENDBRANCH   7   8
ENDBRANCH   1   7
BRANCH   6  13
ATOM     13  N   LIG d   1      -1.274  76.448 117.473  0.00  0.00    -0.311 N 
ATOM     14  C   LIG d   1      -0.700  75.388 118.039  0.00  0.00     0.210 C 
ATOM     15  C   LIG d   1      -0.306  75.574 119.508  0.00  0.00     0.109 C 
ATOM     16  O   LIG d   1      -0.449  74.323 117.455  0.00  0.00    -0.276 OA
ATOM     17  H   LIG d   1      -1.409  77.282 118.010  0.00  0.00     0.149 HD
ENDBRANCH   6  13
BRANCH   5  18
ATOM     18  N   LIG d   1       0.531  76.161 115.024  0.00  0.00     0.381 N 
ATOM     19  H   LIG d   1       0.898  76.022 115.944  0.00  0.00    -0.090 HD
ATOM     20  H   LIG d   1       1.229  76.629 114.473  0.00  0.00    -0.090 HD
ATOM     21  H   LIG d   1       0.306  75.283 114.612  0.00  0.00    -0.090 HD
ENDBRANCH   5  18
BRANCH   3  22
ATOM     22  C   LIG d   1      -2.824  78.432 112.469  0.00  0.00     0.382 C 
ATOM     23  O   LIG d   1      -3.673  77.947 111.682  0.00  0.00    -0.241 OA
ATOM     24  O   LIG d   1      -2.250  79.497 112.171  0.00  0.00    -0.241 OA
ENDBRANCH   3  22
TORSDOF 7
ENDMDL
MODEL 4
REMARK VINA RESULT:      -4.7      3.081      5.616
REMARK  7 active torsions:
REMARK  status: ('A' for Active; 'I' for Inactive)
REMARK    1  A    between atoms: C_2  and  C_3 
REMARK    2  A    between atoms: C_3  and  O_6 
REMARK    3  A    between atoms: C_3  and  C_4 
REMARK    4  A    between atoms: C_7  and  O_6 
REMARK    5  A    between atoms: C_9  and  C_10 
REMARK    6  A    between atoms: N_15  and  C_14 
REMARK    7  A    between atoms: N_20  and  C_19 
REMARK       I    between atoms: C_22  and  N_20 
ROOT
ATOM      1  C   LIG d   1      -2.024  79.787 114.342  0.00  0.00     0.161 C 
ATOM      2  C   LIG d   1      -2.718  78.630 114.734  0.00  0.00     0.016 C 
ATOM      3  C   LIG d   1      -2.984  77.549 113.863  0.00  0.00     0.038 C 
ATOM      4  C   LIG d   1      -2.437  77.485 112.573  0.00  0.00     0.028 C 
ATOM      5  C   LIG d   1      -2.154  78.855 111.966  0.00  0.00    -0.047 C 
ATOM      6  C   LIG d   1      -1.324  79.687 112.971  0.00  0.00     0.091 C 
ENDROOT
BRANCH   1   7
ATOM      7  O   LIG d   1      -1.076  80.157 115.363  0.00  0.00    -0.368 OA
BRANCH   7   8
ATOM      8  C   LIG d   1      -1.111  79.373 116.580  0.00  0.00     0.119 C 
BRANCH   8   9
ATOM      9  C   LIG d   1      -1.230  80.355 117.761  0.00  0.00     0.028 C 
ATOM     10  C   LIG d   1      -2.540  80.172 118.547  0.00  0.00     0.006 C 
ENDBRANCH   8   9
BRANCH   8  11
ATOM     11  C   LIG d   1       0.210  78.630 116.803  0.00  0.00     0.028 C 
ATOM     12  C   LIG d   1       0.107  77.127 116.498  0.00  0.00     0.006 C 
ENDBRANCH   8  11
ENDBRANCH   7   8
ENDBRANCH   1   7
BRANCH   6  13
ATOM     13  N   LIG d   1      -1.075  81.071 112.491  0.00  0.00    -0.311 N 
ATOM     14  C   LIG d   1       0.018  81.428 111.818  0.00  0.00     0.210 C 
ATOM     15  C   LIG d   1       0.085  82.910 111.434  0.00  0.00     0.109 C 
ATOM     16  O   LIG d   1       0.922  80.652 111.473  0.00  0.00    -0.276 OA
ATOM     17  H   LIG d   1      -1.772  81.759 112.700  0.00  0.00     0.149 HD
ENDBRANCH   6  13
BRANCH   5  18
ATOM     18  N   LIG d   1      -1.461  78.640 110.682  0.00  0.00     0.381 N 
ATOM     19  H   LIG d   1      -1.170  77.685 110.610  0.00  0.00    -0.090 HD
ATOM     20  H   LIG d   1      -0.642  79.222 110.653  0.00  0.00    -0.090 HD
ATOM     21  H   LIG d   1      -2.067  78.868 109.925  0.00  0.00    -0.090 HD
ENDBRANCH   5  18
BRANCH   3  22
ATOM     22  C   LIG d   1      -3.838  76.534 114.268  0.00  0.00     0.382 C 
ATOM     23  O   LIG d   1      -3.415  75.621 115.017  0.00  0.00    -0.241 OA
ATOM     24  O   LIG d   1      -5.013  76.496 113.856  0.00  0.00    -0.241 OA
ENDBRANCH   3  22
TORSDOF 7
ENDMDL
MODEL 5
REMARK VINA RESULT:      -4.6      2.375      5.274
REMARK  7 active torsions:
REMARK  status: ('A' for Active; 'I' for Inactive)
REMARK    1  A    between atoms: C_2  and  C_3 
REMARK    2  A    between atoms: C_3  and  O_6 
REMARK    3  A    between atoms: C_3  and  C_4 
REMARK    4  A    between atoms: C_7  and  O_6 
REMARK    5  A    between atoms: C_9  and  C_10 
REMARK    6  A    between atoms: N_15  and  C_14 
REMARK    7  A    between atoms: N_20  and  C_19 
REMARK       I    between atoms: C_22  and  N_20 
ROOT
ATOM      1  C   LIG d   1      -1.471  75.171 115.386  0.00  0.00     0.161 C 
ATOM      2  C   LIG d   1      -0.877  74.692 116.565  0.00  0.00     0.016 C 
ATOM      3  C   LIG d   1      -0.191  75.519 117.483  0.00  0.00     0.038 C 
ATOM      4  C   LIG d   1      -0.182  76.917 117.359  0.00  0.00     0.028 C 
ATOM      5  C   LIG d   1      -0.336  77.398 115.920  0.00  0.00    -0.047 C 
ATOM      6  C   LIG d   1      -1.568  76.708 115.289  0.00  0.00     0.091 C 
ENDROOT
BRANCH   1   7
ATOM      7  O   LIG d   1      -2.772  74.576 115.217  0.00  0.00    -0.368 OA
BRANCH   7   8
ATOM      8  C   LIG d   1      -3.905  75.411 115.561  0.00  0.00     0.119 C 
BRANCH   8   9
ATOM      9  C   LIG d   1      -4.353  75.022 116.983  0.00  0.00     0.028 C 
ATOM     10  C   LIG d   1      -4.056  76.124 118.014  0.00  0.00     0.006 C 
ENDBRANCH   8   9
BRANCH   8  11
ATOM     11  C   LIG d   1      -5.109  75.115 114.661  0.00  0.00     0.028 C 
ATOM     12  C   LIG d   1      -6.331  75.984 114.997  0.00  0.00     0.006 C 
ENDBRANCH   8  11
ENDBRANCH   7   8
ENDBRANCH   1   7
BRANCH   6  13
ATOM     13  N   LIG d   1      -1.742  77.059 113.856  0.00  0.00    -0.311 N 
ATOM     14  C   LIG d   1      -2.572  78.008 113.429  0.00  0.00     0.210 C 
ATOM     15  C   LIG d   1      -2.614  78.195 111.909  0.00  0.00     0.109 C 
ATOM     16  O   LIG d   1      -3.255  78.735 114.166  0.00  0.00    -0.276 OA
ATOM     17  H   LIG d   1      -1.203  76.540 113.191  0.00  0.00     0.149 HD
ENDBRANCH   6  13
BRANCH   5  18
ATOM     18  N   LIG d   1      -0.449  78.868 115.951  0.00  0.00     0.381 N 
ATOM     19  H   LIG d   1      -1.301  79.151 115.510  0.00  0.00    -0.090 HD
ATOM     20  H   LIG d   1       0.318  79.264 115.438  0.00  0.00    -0.090 HD
ATOM     21  H   LIG d   1      -0.431  79.191 116.893  0.00  0.00    -0.090 HD
ENDBRANCH   5  18
BRANCH   3  22
ATOM     22  C   LIG d   1       0.531  74.946 118.519  0.00  0.00     0.382 C 
ATOM     23  O   LIG d   1      -0.041  74.181 119.333  0.00  0.00    -0.241 OA
ATOM     24  O   LIG d   1       1.736  75.219 118.676  0.00  0.00    -0.241 OA
ENDBRANCH   3  22
TORSDOF 7
ENDMDL
MODEL 6
REMARK VINA RESULT:      -4.4      3.461      6.461
REMARK  7 active torsions:
REMARK  status: ('A' for Active; 'I' for Inactive)
REMARK    1  A    between atoms: C_2  and  C_3 
REMARK    2  A    between atoms: C_3  and  O_6 
REMARK    3  A    between atoms: C_3  and  C_4 
REMARK    4  A    between atoms: C_7  and  O_6 
REMARK    5  A    between atoms: C_9  and  C_10 
REMARK    6  A    between atoms: N_15  and  C_14 
REMARK    7  A    between atoms: N_20  and  C_19 
REMARK       I    between atoms: C_22  and  N_20 
ROOT
ATOM      1  C   LIG d   1      -0.459  79.688 113.660  0.00  0.00     0.161 C 
ATOM      2  C   LIG d   1      -1.556  79.054 113.053  0.00  0.00     0.016 C 
ATOM      3  C   LIG d   1      -2.545  78.349 113.777  0.00  0.00     0.038 C 
ATOM      4  C   LIG d   1      -2.586  78.358 115.179  0.00  0.00     0.028 C 
ATOM      5  C   LIG d   1      -1.219  78.561 115.824  0.00  0.00    -0.047 C 
ATOM      6  C   LIG d   1      -0.548  79.804 115.197  0.00  0.00     0.091 C 
ENDROOT
BRANCH   1   7
ATOM      7  O   LIG d   1      -0.259  80.988 113.071  0.00  0.00    -0.368 OA
BRANCH   7   8
ATOM      8  C   LIG d   1       0.770  81.076 112.055  0.00  0.00     0.119 C 
BRANCH   8   9
ATOM      9  C   LIG d   1       2.037  81.642 112.725  0.00  0.00     0.028 C 
ATOM     10  C   LIG d   1       3.261  81.600 111.796  0.00  0.00     0.006 C 
ENDBRANCH   8   9
BRANCH   8  11
ATOM     11  C   LIG d   1       0.397  82.091 110.970  0.00  0.00     0.028 C 
ATOM     12  C   LIG d   1      -0.449  83.255 111.510  0.00  0.00     0.006 C 
ENDBRANCH   8  11
ENDBRANCH   7   8
ENDBRANCH   1   7
BRANCH   6  13
ATOM     13  N   LIG d   1       0.829  80.024 115.711  0.00  0.00    -0.311 N 
ATOM     14  C   LIG d   1       1.110  80.838 116.728  0.00  0.00     0.210 C 
ATOM     15  C   LIG d   1       2.596  80.936 117.085  0.00  0.00     0.109 C 
ATOM     16  O   LIG d   1       0.266  81.463 117.388  0.00  0.00    -0.276 OA
ATOM     17  H   LIG d   1       1.571  79.533 115.254  0.00  0.00     0.149 HD
ENDBRANCH   6  13
BRANCH   5  18
ATOM     18  N   LIG d   1      -1.427  78.688 117.278  0.00  0.00     0.381 N 
ATOM     19  H   LIG d   1      -1.978  77.922 117.610  0.00  0.00    -0.090 HD
ATOM     20  H   LIG d   1      -1.929  79.539 117.462  0.00  0.00    -0.090 HD
ATOM     21  H   LIG d   1      -0.549  78.703 117.748  0.00  0.00    -0.090 HD
ENDBRANCH   5  18
BRANCH   3  22
ATOM     22  C   LIG d   1      -3.485  77.591 113.095  0.00  0.00     0.382 C 
ATOM     23  O   LIG d   1      -3.724  77.827 111.886  0.00  0.00    -0.241 OA
ATOM     24  O   LIG d   1      -4.128  76.702 113.685  0.00  0.00    -0.241 OA
ENDBRANCH   3  22
TORSDOF 7
ENDMDL
MODEL 7
REMARK VINA RESULT:      -4.2      2.890      5.372
REMARK  7 active torsions:
REMARK  status: ('A' for Active; 'I' for Inactive)
REMARK    1  A    between atoms: C_2  and  C_3 
REMARK    2  A    between atoms: C_3  and  O_6 
REMARK    3  A    between atoms: C_3  and  C_4 
REMARK    4  A    between atoms: C_7  and  O_6 
REMARK    5  A    between atoms: C_9  and  C_10 
REMARK    6  A    between atoms: N_15  and  C_14 
REMARK    7  A    between atoms: N_20  and  C_19 
REMARK       I    between atoms: C_22  and  N_20 
ROOT
ATOM      1  C   LIG d   1      -2.146  76.982 115.141  0.00  0.00     0.161 C 
ATOM      2  C   LIG d   1      -0.907  76.939 115.802  0.00  0.00     0.016 C 
ATOM      3  C   LIG d   1      -0.624  76.054 116.867  0.00  0.00     0.038 C 
ATOM      4  C   LIG d   1      -1.517  75.041 117.248  0.00  0.00     0.028 C 
ATOM      5  C   LIG d   1      -2.974  75.375 116.947  0.00  0.00    -0.047 C 
ATOM      6  C   LIG d   1      -3.095  75.809 115.468  0.00  0.00     0.091 C 
ENDROOT
BRANCH   1   7
ATOM      7  O   LIG d   1      -1.939  77.076 113.718  0.00  0.00    -0.368 OA
BRANCH   7   8
ATOM      8  C   LIG d   1      -2.731  78.070 113.022  0.00  0.00     0.119 C 
BRANCH   8   9
ATOM      9  C   LIG d   1      -2.004  78.401 111.705  0.00  0.00     0.028 C 
ATOM     10  C   LIG d   1      -0.996  77.313 111.301  0.00  0.00     0.006 C 
ENDBRANCH   8   9
BRANCH   8  11
ATOM     11  C   LIG d   1      -2.780  79.388 113.801  0.00  0.00     0.028 C 
ATOM     12  C   LIG d   1      -2.258  80.581 112.986  0.00  0.00     0.006 C 
ENDBRANCH   8  11
ENDBRANCH   7   8
ENDBRANCH   1   7
BRANCH   6  13
ATOM     13  N   LIG d   1      -4.474  76.234 115.113  0.00  0.00    -0.311 N 
ATOM     14  C   LIG d   1      -5.344  75.446 114.483  0.00  0.00     0.210 C 
ATOM     15  C   LIG d   1      -6.705  76.087 114.194  0.00  0.00     0.109 C 
ATOM     16  O   LIG d   1      -5.129  74.267 114.165  0.00  0.00    -0.276 OA
ATOM     17  H   LIG d   1      -4.743  77.166 115.362  0.00  0.00     0.149 HD
ENDBRANCH   6  13
BRANCH   5  18
ATOM     18  N   LIG d   1      -3.780  74.181 117.266  0.00  0.00     0.381 N 
ATOM     19  H   LIG d   1      -4.547  74.110 116.628  0.00  0.00    -0.090 HD
ATOM     20  H   LIG d   1      -4.150  74.277 118.195  0.00  0.00    -0.090 HD
ATOM     21  H   LIG d   1      -3.214  73.363 117.209  0.00  0.00    -0.090 HD
ENDBRANCH   5  18
BRANCH   3  22
ATOM     22  C   LIG d   1       0.549  76.204 117.592  0.00  0.00     0.382 C 
ATOM     23  O   LIG d   1       1.180  77.287 117.546  0.00  0.00    -0.241 OA
ATOM     24  O   LIG d   1       1.008  75.254 118.254  0.00  0.00    -0.241 OA
ENDBRANCH   3  22
TORSDOF 7
ENDMDL
MODEL 8
REMARK VINA RESULT:      -4.2      2.221      2.895
REMARK  7 active torsions:
REMARK  status: ('A' for Active; 'I' for Inactive)
REMARK    1  A    between atoms: C_2  and  C_3 
REMARK    2  A    between atoms: C_3  and  O_6 
REMARK    3  A    between atoms: C_3  and  C_4 
REMARK    4  A    between atoms: C_7  and  O_6 
REMARK    5  A    between atoms: C_9  and  C_10 
REMARK    6  A    between atoms: N_15  and  C_14 
REMARK    7  A    between atoms: N_20  and  C_19 
REMARK       I    between atoms: C_22  and  N_20 
ROOT
ATOM      1  C   LIG d   1      -2.411  78.791 116.247  0.00  0.00     0.161 C 
ATOM      2  C   LIG d   1      -2.917  78.843 114.937  0.00  0.00     0.016 C 
ATOM      3  C   LIG d   1      -2.336  78.150 113.851  0.00  0.00     0.038 C 
ATOM      4  C   LIG d   1      -1.293  77.230 114.031  0.00  0.00     0.028 C 
ATOM      5  C   LIG d   1      -0.427  77.528 115.250  0.00  0.00    -0.047 C 
ATOM      6  C   LIG d   1      -1.341  77.705 116.484  0.00  0.00     0.091 C 
ENDROOT
BRANCH   1   7
ATOM      7  O   LIG d   1      -3.496  78.638 117.184  0.00  0.00    -0.368 OA
BRANCH   7   8
ATOM      8  C   LIG d   1      -4.821  78.934 116.678  0.00  0.00     0.119 C 
BRANCH   8   9
ATOM      9  C   LIG d   1      -5.288  80.244 117.341  0.00  0.00     0.028 C 
ATOM     10  C   LIG d   1      -4.571  80.514 118.675  0.00  0.00     0.006 C 
ENDBRANCH   8   9
BRANCH   8  11
ATOM     11  C   LIG d   1      -5.835  77.873 117.118  0.00  0.00     0.028 C 
ATOM     12  C   LIG d   1      -5.176  76.671 117.811  0.00  0.00     0.006 C 
ENDBRANCH   8  11
ENDBRANCH   7   8
ENDBRANCH   1   7
BRANCH   6  13
ATOM     13  N   LIG d   1      -0.580  78.083 117.704  0.00  0.00    -0.311 N 
ATOM     14  C   LIG d   1      -0.137  77.197 118.595  0.00  0.00     0.210 C 
ATOM     15  C   LIG d   1       0.607  77.800 119.790  0.00  0.00     0.109 C 
ATOM     16  O   LIG d   1      -0.262  75.967 118.492  0.00  0.00    -0.276 OA
ATOM     17  H   LIG d   1      -0.407  79.058 117.850  0.00  0.00     0.149 HD
ENDBRANCH   6  13
BRANCH   5  18
ATOM     18  N   LIG d   1       0.533  76.417 115.397  0.00  0.00     0.381 N 
ATOM     19  H   LIG d   1       0.501  76.063 116.332  0.00  0.00    -0.090 HD
ATOM     20  H   LIG d   1       1.460  76.764 115.224  0.00  0.00    -0.090 HD
ATOM     21  H   LIG d   1       0.316  75.691 114.751  0.00  0.00    -0.090 HD
ENDBRANCH   5  18
BRANCH   3  22
ATOM     22  C   LIG d   1      -2.775  78.404 112.560  0.00  0.00     0.382 C 
ATOM     23  O   LIG d   1      -2.209  79.285 111.868  0.00  0.00    -0.241 OA
ATOM     24  O   LIG d   1      -3.756  77.795 112.095  0.00  0.00    -0.241 OA
ENDBRANCH   3  22
TORSDOF 7
ENDMDL
MODEL 9
REMARK VINA RESULT:      -3.9      2.624      4.614
REMARK  7 active torsions:
REMARK  status: ('A' for Active; 'I' for Inactive)
REMARK    1  A    between atoms: C_2  and  C_3 
REMARK    2  A    between atoms: C_3  and  O_6 
REMARK    3  A    between atoms: C_3  and  C_4 
REMARK    4  A    between atoms: C_7  and  O_6 
REMARK    5  A    between atoms: C_9  and  C_10 
REMARK    6  A    between atoms: N_15  and  C_14 
REMARK    7  A    between atoms: N_20  and  C_19 
REMARK       I    between atoms: C_22  and  N_20 
ROOT
ATOM      1  C   LIG d   1      -2.368  77.676 115.311  0.00  0.00     0.161 C 
ATOM      2  C   LIG d   1      -2.328  77.694 116.715  0.00  0.00     0.016 C 
ATOM      3  C   LIG d   1      -1.451  78.518 117.458  0.00  0.00     0.038 C 
ATOM      4  C   LIG d   1      -0.655  79.497 116.844  0.00  0.00     0.028 C 
ATOM      5  C   LIG d   1      -0.294  79.166 115.400  0.00  0.00    -0.047 C 
ATOM      6  C   LIG d   1      -1.587  78.817 114.627  0.00  0.00     0.091 C 
ENDROOT
BRANCH   1   7
ATOM      7  O   LIG d   1      -3.738  77.667 114.862  0.00  0.00    -0.368 OA
BRANCH   7   8
ATOM      8  C   LIG d   1      -4.627  76.751 115.546  0.00  0.00     0.119 C 
BRANCH   8   9
ATOM      9  C   LIG d   1      -5.404  75.969 114.469  0.00  0.00     0.028 C 
ATOM     10  C   LIG d   1      -5.327  74.447 114.679  0.00  0.00     0.006 C 
ENDBRANCH   8   9
BRANCH   8  11
ATOM     11  C   LIG d   1      -5.693  77.503 116.349  0.00  0.00     0.028 C 
ATOM     12  C   LIG d   1      -5.971  76.861 117.717  0.00  0.00     0.006 C 
ENDBRANCH   8  11
ENDBRANCH   7   8
ENDBRANCH   1   7
BRANCH   6  13
ATOM     13  N   LIG d   1      -1.314  78.399 113.227  0.00  0.00    -0.311 N 
ATOM     14  C   LIG d   1      -1.330  79.240 112.194  0.00  0.00     0.210 C 
ATOM     15  C   LIG d   1      -1.042  78.599 110.833  0.00  0.00     0.109 C 
ATOM     16  O   LIG d   1      -1.522  80.462 112.281  0.00  0.00    -0.276 OA
ATOM     17  H   LIG d   1      -1.118  77.430 113.070  0.00  0.00     0.149 HD
ENDBRANCH   6  13
BRANCH   5  18
ATOM     18  N   LIG d   1       0.417  80.330 114.840  0.00  0.00     0.381 N 
ATOM     19  H   LIG d   1       1.397  80.135 114.788  0.00  0.00    -0.090 HD
ATOM     20  H   LIG d   1       0.285  81.117 115.451  0.00  0.00    -0.090 HD
ATOM     21  H   LIG d   1       0.064  80.542 113.933  0.00  0.00    -0.090 HD
ENDBRANCH   5  18
BRANCH   3  22
ATOM     22  C   LIG d   1      -1.335  78.339 118.828  0.00  0.00     0.382 C 
ATOM     23  O   LIG d   1      -1.461  79.319 119.601  0.00  0.00    -0.241 OA
ATOM     24  O   LIG d   1      -1.062  77.218 119.297  0.00  0.00    -0.241 OA
ENDBRANCH   3  22
TORSDOF 7
ENDMDL
