MODEL 1
REMARK VINA RESULT:      -5.2      0.000      0.000
REMARK  7 active torsions:
REMARK  status: ('A' for Active; 'I' for Inactive)
REMARK    1  A    between atoms: C_2  and  C_3 
REMARK    2  A    between atoms: C_3  and  O_6 
REMARK    3  A    between atoms: C_3  and  C_4 
REMARK    4  A    between atoms: C_7  and  O_6 
REMARK    5  A    between atoms: C_9  and  C_10 
REMARK    6  A    between atoms: N_15  and  C_14 
REMARK    7  A    between atoms: N_20  and  C_19 
REMARK       I    between atoms: C_22  and  N_20 
ROOT
ATOM      1  C   LIG d   1      -0.495  80.651 112.363  0.00  0.00     0.161 C 
ATOM      2  C   LIG d   1      -1.261  79.478 112.263  0.00  0.00     0.016 C 
ATOM      3  C   LIG d   1      -2.369  79.198 113.095  0.00  0.00     0.038 C 
ATOM      4  C   LIG d   1      -2.882  80.148 113.990  0.00  0.00     0.028 C 
ATOM      5  C   LIG d   1      -1.838  81.145 114.480  0.00  0.00    -0.047 C 
ATOM      6  C   LIG d   1      -1.108  81.749 113.258  0.00  0.00     0.091 C 
ENDROOT
BRANCH   1   7
ATOM      7  O   LIG d   1      -0.225  81.172 111.046  0.00  0.00    -0.368 OA
BRANCH   7   8
ATOM      8  C   LIG d   1       1.156  81.119 110.611  0.00  0.00     0.119 C 
BRANCH   8   9
ATOM      9  C   LIG d   1       1.428  82.387 109.779  0.00  0.00     0.028 C 
ATOM     10  C   LIG d   1       2.573  83.235 110.358  0.00  0.00     0.006 C 
ENDBRANCH   8   9
BRANCH   8  11
ATOM     11  C   LIG d   1       1.394  79.947 109.654  0.00  0.00     0.028 C 
ATOM     12  C   LIG d   1       2.872  79.532 109.577  0.00  0.00     0.006 C 
ENDBRANCH   8  11
ENDBRANCH   7   8
ENDBRANCH   1   7
BRANCH   6  13
ATOM     13  N   LIG d   1      -0.012  82.672 113.652  0.00  0.00    -0.311 N 
ATOM     14  C   LIG d   1       0.123  83.902 113.159  0.00  0.00     0.210 C 
ATOM     15  C   LIG d   1       1.334  84.680 113.684  0.00  0.00     0.109 C 
ATOM     16  O   LIG d   1      -0.664  84.435 112.362  0.00  0.00    -0.276 OA
ATOM     17  H   LIG d   1       0.654  82.332 114.318  0.00  0.00     0.149 HD
ENDBRANCH   6  13
BRANCH   5  18
ATOM     18  N   LIG d   1      -2.536  82.158 115.295  0.00  0.00     0.381 N 
ATOM     19  H   LIG d   1      -1.900  82.890 115.542  0.00  0.00    -0.090 HD
ATOM     20  H   LIG d   1      -2.863  81.725 116.141  0.00  0.00    -0.090 HD
ATOM     21  H   LIG d   1      -3.305  82.533 114.786  0.00  0.00    -0.090 HD
ENDBRANCH   5  18
BRANCH   3  22
ATOM     22  C   LIG d   1      -2.951  77.940 113.065  0.00  0.00     0.382 C 
ATOM     23  O   LIG d   1      -4.171  77.820 112.797  0.00  0.00    -0.241 OA
ATOM     24  O   LIG d   1      -2.282  76.927 113.345  0.00  0.00    -0.241 OA
ENDBRANCH   3  22
TORSDOF 7
ENDMDL
MODEL 2
REMARK VINA RESULT:      -5.2      2.216      4.588
REMARK  7 active torsions:
REMARK  status: ('A' for Active; 'I' for Inactive)
REMARK    1  A    between atoms: C_2  and  C_3 
REMARK    2  A    between atoms: C_3  and  O_6 
REMARK    3  A    between atoms: C_3  and  C_4 
REMARK    4  A    between atoms: C_7  and  O_6 
REMARK    5  A    between atoms: C_9  and  C_10 
REMARK    6  A    between atoms: N_15  and  C_14 
REMARK    7  A    between atoms: N_20  and  C_19 
REMARK       I    between atoms: C_22  and  N_20 
ROOT
ATOM      1  C   LIG d   1      -2.789  81.296 113.127  0.00  0.00     0.161 C 
ATOM      2  C   LIG d   1      -3.233  80.005 113.459  0.00  0.00     0.016 C 
ATOM      3  C   LIG d   1      -2.433  78.847 113.320  0.00  0.00     0.038 C 
ATOM      4  C   LIG d   1      -1.074  78.922 112.981  0.00  0.00     0.028 C 
ATOM      5  C   LIG d   1      -0.724  80.152 112.150  0.00  0.00    -0.047 C 
ATOM      6  C   LIG d   1      -1.274  81.410 112.860  0.00  0.00     0.091 C 
ENDROOT
BRANCH   1   7
ATOM      7  O   LIG d   1      -3.190  82.228 114.150  0.00  0.00    -0.368 OA
BRANCH   7   8
ATOM      8  C   LIG d   1      -2.435  82.181 115.386  0.00  0.00     0.119 C 
BRANCH   8   9
ATOM      9  C   LIG d   1      -3.446  82.050 116.542  0.00  0.00     0.028 C 
ATOM     10  C   LIG d   1      -3.624  80.594 117.003  0.00  0.00     0.006 C 
ENDBRANCH   8   9
BRANCH   8  11
ATOM     11  C   LIG d   1      -1.698  83.500 115.639  0.00  0.00     0.028 C 
ATOM     12  C   LIG d   1      -0.323  83.298 116.295  0.00  0.00     0.006 C 
ENDBRANCH   8  11
ENDBRANCH   7   8
ENDBRANCH   1   7
BRANCH   6  13
ATOM     13  N   LIG d   1      -1.048  82.650 112.072  0.00  0.00    -0.311 N 
ATOM     14  C   LIG d   1       0.011  83.441 112.237  0.00  0.00     0.210 C 
ATOM     15  C   LIG d   1       0.039  84.680 111.337  0.00  0.00     0.109 C 
ATOM     16  O   LIG d   1       0.945  83.218 113.022  0.00  0.00    -0.276 OA
ATOM     17  H   LIG d   1      -1.742  82.890 111.391  0.00  0.00     0.149 HD
ENDBRANCH   6  13
BRANCH   5  18
ATOM     18  N   LIG d   1       0.742  80.176 111.985  0.00  0.00     0.381 N 
ATOM     19  H   LIG d   1       1.083  79.245 111.855  0.00  0.00    -0.090 HD
ATOM     20  H   LIG d   1       1.157  80.550 112.820  0.00  0.00    -0.090 HD
ATOM     21  H   LIG d   1       0.988  80.740 111.202  0.00  0.00    -0.090 HD
ENDBRANCH   5  18
BRANCH   3  22
ATOM     22  C   LIG d   1      -3.003  77.594 113.484  0.00  0.00     0.382 C 
ATOM     23  O   LIG d   1      -2.283  76.613 113.790  0.00  0.00    -0.241 OA
ATOM     24  O   LIG d   1      -4.221  77.423 113.287  0.00  0.00    -0.241 OA
ENDBRANCH   3  22
TORSDOF 7
ENDMDL
MODEL 3
REMARK VINA RESULT:      -4.9      2.550      4.491
REMARK  7 active torsions:
REMARK  status: ('A' for Active; 'I' for Inactive)
REMARK    1  A    between atoms: C_2  and  C_3 
REMARK    2  A    between atoms: C_3  and  O_6 
REMARK    3  A    between atoms: C_3  and  C_4 
REMARK    4  A    between atoms: C_7  and  O_6 
REMARK    5  A    between atoms: C_9  and  C_10 
REMARK    6  A    between atoms: N_15  and  C_14 
REMARK    7  A    between atoms: N_20  and  C_19 
REMARK       I    between atoms: C_22  and  N_20 
ROOT
ATOM      1  C   LIG d   1       0.328  82.925 112.918  0.00  0.00     0.161 C 
ATOM      2  C   LIG d   1      -0.944  82.466 113.300  0.00  0.00     0.016 C 
ATOM      3  C   LIG d   1      -1.474  81.218 112.897  0.00  0.00     0.038 C 
ATOM      4  C   LIG d   1      -0.701  80.274 112.205  0.00  0.00     0.028 C 
ATOM      5  C   LIG d   1       0.410  80.897 111.367  0.00  0.00    -0.047 C 
ATOM      6  C   LIG d   1       1.228  81.862 112.255  0.00  0.00     0.091 C 
ENDROOT
BRANCH   1   7
ATOM      7  O   LIG d   1       0.996  83.511 114.053  0.00  0.00    -0.368 OA
BRANCH   7   8
ATOM      8  C   LIG d   1       0.923  82.763 115.292  0.00  0.00     0.119 C 
BRANCH   8   9
ATOM      9  C   LIG d   1       0.359  83.707 116.370  0.00  0.00     0.028 C 
ATOM     10  C   LIG d   1      -0.900  83.140 117.047  0.00  0.00     0.006 C 
ENDBRANCH   8   9
BRANCH   8  11
ATOM     11  C   LIG d   1       2.318  82.368 115.787  0.00  0.00     0.028 C 
ATOM     12  C   LIG d   1       2.715  80.942 115.375  0.00  0.00     0.006 C 
ENDBRANCH   8  11
ENDBRANCH   7   8
ENDBRANCH   1   7
BRANCH   6  13
ATOM     13  N   LIG d   1       2.283  82.578 111.492  0.00  0.00    -0.311 N 
ATOM     14  C   LIG d   1       2.029  83.346 110.434  0.00  0.00     0.210 C 
ATOM     15  C   LIG d   1       3.264  83.976 109.782  0.00  0.00     0.109 C 
ATOM     16  O   LIG d   1       0.896  83.591 109.993  0.00  0.00    -0.276 OA
ATOM     17  H   LIG d   1       3.228  82.460 111.801  0.00  0.00     0.149 HD
ENDBRANCH   6  13
BRANCH   5  18
ATOM     18  N   LIG d   1       1.219  79.796 110.811  0.00  0.00     0.381 N 
ATOM     19  H   LIG d   1       1.086  78.969 111.357  0.00  0.00    -0.090 HD
ATOM     20  H   LIG d   1       2.190  80.052 110.856  0.00  0.00    -0.090 HD
ATOM     21  H   LIG d   1       0.957  79.624 109.865  0.00  0.00    -0.090 HD
ENDBRANCH   5  18
BRANCH   3  22
ATOM     22  C   LIG d   1      -2.804  80.922 113.154  0.00  0.00     0.382 C 
ATOM     23  O   LIG d   1      -3.143  79.744 113.423  0.00  0.00    -0.241 OA
ATOM     24  O   LIG d   1      -3.675  81.808 113.075  0.00  0.00    -0.241 OA
ENDBRANCH   3  22
TORSDOF 7
ENDMDL
MODEL 4
REMARK VINA RESULT:      -4.7      3.056      7.075
REMARK  7 active torsions:
REMARK  status: ('A' for Active; 'I' for Inactive)
REMARK    1  A    between atoms: C_2  and  C_3 
REMARK    2  A    between atoms: C_3  and  O_6 
REMARK    3  A    between atoms: C_3  and  C_4 
REMARK    4  A    between atoms: C_7  and  O_6 
REMARK    5  A    between atoms: C_9  and  C_10 
REMARK    6  A    between atoms: N_15  and  C_14 
REMARK    7  A    between atoms: N_20  and  C_19 
REMARK       I    between atoms: C_22  and  N_20 
ROOT
ATOM      1  C   LIG d   1      -2.501  80.463 115.330  0.00  0.00     0.161 C 
ATOM      2  C   LIG d   1      -2.213  81.629 114.603  0.00  0.00     0.016 C 
ATOM      3  C   LIG d   1      -1.589  81.621 113.334  0.00  0.00     0.038 C 
ATOM      4  C   LIG d   1      -1.346  80.429 112.635  0.00  0.00     0.028 C 
ATOM      5  C   LIG d   1      -1.159  79.220 113.546  0.00  0.00    -0.047 C 
ATOM      6  C   LIG d   1      -2.345  79.149 114.535  0.00  0.00     0.091 C 
ENDROOT
BRANCH   1   7
ATOM      7  O   LIG d   1      -3.825  80.553 115.893  0.00  0.00    -0.368 OA
BRANCH   7   8
ATOM      8  C   LIG d   1      -3.898  80.661 117.336  0.00  0.00     0.119 C 
BRANCH   8   9
ATOM      9  C   LIG d   1      -4.720  81.922 117.665  0.00  0.00     0.028 C 
ATOM     10  C   LIG d   1      -6.123  81.586 118.198  0.00  0.00     0.006 C 
ENDBRANCH   8   9
BRANCH   8  11
ATOM     11  C   LIG d   1      -2.515  80.907 117.947  0.00  0.00     0.028 C 
ATOM     12  C   LIG d   1      -2.327  82.353 118.432  0.00  0.00     0.006 C 
ENDBRANCH   8  11
ENDBRANCH   7   8
ENDBRANCH   1   7
BRANCH   6  13
ATOM     13  N   LIG d   1      -2.198  78.044 115.517  0.00  0.00    -0.311 N 
ATOM     14  C   LIG d   1      -2.659  76.812 115.309  0.00  0.00     0.210 C 
ATOM     15  C   LIG d   1      -2.420  75.828 116.459  0.00  0.00     0.109 C 
ATOM     16  O   LIG d   1      -3.215  76.432 114.267  0.00  0.00    -0.276 OA
ATOM     17  H   LIG d   1      -1.731  78.256 116.377  0.00  0.00     0.149 HD
ENDBRANCH   6  13
BRANCH   5  18
ATOM     18  N   LIG d   1      -1.052  78.026 112.685  0.00  0.00     0.381 N 
ATOM     19  H   LIG d   1      -1.705  77.331 112.988  0.00  0.00    -0.090 HD
ATOM     20  H   LIG d   1      -0.125  77.647 112.770  0.00  0.00    -0.090 HD
ATOM     21  H   LIG d   1      -1.233  78.272 111.737  0.00  0.00    -0.090 HD
ENDBRANCH   5  18
BRANCH   3  22
ATOM     22  C   LIG d   1      -1.164  82.814 112.769  0.00  0.00     0.382 C 
ATOM     23  O   LIG d   1      -1.218  82.973 111.526  0.00  0.00    -0.241 OA
ATOM     24  O   LIG d   1      -0.686  83.716 113.483  0.00  0.00    -0.241 OA
ENDBRANCH   3  22
TORSDOF 7
ENDMDL
MODEL 5
REMARK VINA RESULT:      -4.5      4.311      6.188
REMARK  7 active torsions:
REMARK  status: ('A' for Active; 'I' for Inactive)
REMARK    1  A    between atoms: C_2  and  C_3 
REMARK    2  A    between atoms: C_3  and  O_6 
REMARK    3  A    between atoms: C_3  and  C_4 
REMARK    4  A    between atoms: C_7  and  O_6 
REMARK    5  A    between atoms: C_9  and  C_10 
REMARK    6  A    between atoms: N_15  and  C_14 
REMARK    7  A    between atoms: N_20  and  C_19 
REMARK       I    between atoms: C_22  and  N_20 
ROOT
ATOM      1  C   LIG d   1      -3.603  79.566 116.442  0.00  0.00     0.161 C 
ATOM      2  C   LIG d   1      -3.381  78.411 115.673  0.00  0.00     0.016 C 
ATOM      3  C   LIG d   1      -4.143  77.228 115.809  0.00  0.00     0.038 C 
ATOM      4  C   LIG d   1      -5.285  77.171 116.622  0.00  0.00     0.028 C 
ATOM      5  C   LIG d   1      -5.245  78.148 117.792  0.00  0.00    -0.047 C 
ATOM      6  C   LIG d   1      -4.914  79.560 117.256  0.00  0.00     0.091 C 
ENDROOT
BRANCH   1   7
ATOM      7  O   LIG d   1      -3.542  80.733 115.599  0.00  0.00    -0.368 OA
BRANCH   7   8
ATOM      8  C   LIG d   1      -2.285  81.454 115.598  0.00  0.00     0.119 C 
BRANCH   8   9
ATOM      9  C   LIG d   1      -2.498  82.757 116.393  0.00  0.00     0.028 C 
ATOM     10  C   LIG d   1      -1.700  82.780 117.707  0.00  0.00     0.006 C 
ENDBRANCH   8   9
BRANCH   8  11
ATOM     11  C   LIG d   1      -1.900  81.900 114.184  0.00  0.00     0.028 C 
ATOM     12  C   LIG d   1      -2.855  81.360 113.108  0.00  0.00     0.006 C 
ENDBRANCH   8  11
ENDBRANCH   7   8
ENDBRANCH   1   7
BRANCH   6  13
ATOM     13  N   LIG d   1      -4.772  80.561 118.344  0.00  0.00    -0.311 N 
ATOM     14  C   LIG d   1      -5.491  81.681 118.408  0.00  0.00     0.210 C 
ATOM     15  C   LIG d   1      -5.173  82.585 119.603  0.00  0.00     0.109 C 
ATOM     16  O   LIG d   1      -6.383  81.996 117.607  0.00  0.00    -0.276 OA
ATOM     17  H   LIG d   1      -4.093  80.370 119.054  0.00  0.00     0.149 HD
ENDBRANCH   6  13
BRANCH   5  18
ATOM     18  N   LIG d   1      -6.551  78.080 118.474  0.00  0.00     0.381 N 
ATOM     19  H   LIG d   1      -7.168  78.770 118.094  0.00  0.00    -0.090 HD
ATOM     20  H   LIG d   1      -6.419  78.280 119.450  0.00  0.00    -0.090 HD
ATOM     21  H   LIG d   1      -6.946  77.173 118.364  0.00  0.00    -0.090 HD
ENDBRANCH   5  18
BRANCH   3  22
ATOM     22  C   LIG d   1      -3.742  76.073 115.155  0.00  0.00     0.382 C 
ATOM     23  O   LIG d   1      -2.532  75.742 115.155  0.00  0.00    -0.241 OA
ATOM     24  O   LIG d   1      -4.567  75.383 114.528  0.00  0.00    -0.241 OA
ENDBRANCH   3  22
TORSDOF 7
ENDMDL
MODEL 6
REMARK VINA RESULT:      -4.5      2.322      4.508
REMARK  7 active torsions:
REMARK  status: ('A' for Active; 'I' for Inactive)
REMARK    1  A    between atoms: C_2  and  C_3 
REMARK    2  A    between atoms: C_3  and  O_6 
REMARK    3  A    between atoms: C_3  and  C_4 
REMARK    4  A    between atoms: C_7  and  O_6 
REMARK    5  A    between atoms: C_9  and  C_10 
REMARK    6  A    between atoms: N_15  and  C_14 
REMARK    7  A    between atoms: N_20  and  C_19 
REMARK       I    between atoms: C_22  and  N_20 
ROOT
ATOM      1  C   LIG d   1      -1.173  81.027 114.596  0.00  0.00     0.161 C 
ATOM      2  C   LIG d   1      -2.020  79.965 114.955  0.00  0.00     0.016 C 
ATOM      3  C   LIG d   1      -2.167  78.790 114.182  0.00  0.00     0.038 C 
ATOM      4  C   LIG d   1      -1.356  78.531 113.067  0.00  0.00     0.028 C 
ATOM      5  C   LIG d   1      -0.846  79.795 112.381  0.00  0.00    -0.047 C 
ATOM      6  C   LIG d   1      -0.198  80.714 113.442  0.00  0.00     0.091 C 
ENDROOT
BRANCH   1   7
ATOM      7  O   LIG d   1      -0.448  81.486 115.754  0.00  0.00    -0.368 OA
BRANCH   7   8
ATOM      8  C   LIG d   1      -0.786  82.811 116.233  0.00  0.00     0.119 C 
BRANCH   8   9
ATOM      9  C   LIG d   1       0.529  83.601 116.376  0.00  0.00     0.028 C 
ATOM     10  C   LIG d   1       0.687  84.679 115.291  0.00  0.00     0.006 C 
ENDBRANCH   8   9
BRANCH   8  11
ATOM     11  C   LIG d   1      -1.383  82.758 117.643  0.00  0.00     0.028 C 
ATOM     12  C   LIG d   1      -2.880  82.411 117.643  0.00  0.00     0.006 C 
ENDBRANCH   8  11
ENDBRANCH   7   8
ENDBRANCH   1   7
BRANCH   6  13
ATOM     13  N   LIG d   1       0.251  82.010 112.870  0.00  0.00    -0.311 N 
ATOM     14  C   LIG d   1      -0.557  82.843 112.218  0.00  0.00     0.210 C 
ATOM     15  C   LIG d   1       0.114  84.116 111.691  0.00  0.00     0.109 C 
ATOM     16  O   LIG d   1      -1.773  82.665 112.053  0.00  0.00    -0.276 OA
ATOM     17  H   LIG d   1       1.217  82.249 112.985  0.00  0.00     0.149 HD
ENDBRANCH   6  13
BRANCH   5  18
ATOM     18  N   LIG d   1       0.094  79.380 111.323  0.00  0.00     0.381 N 
ATOM     19  H   LIG d   1       0.671  80.154 111.061  0.00  0.00    -0.090 HD
ATOM     20  H   LIG d   1      -0.431  79.090 110.517  0.00  0.00    -0.090 HD
ATOM     21  H   LIG d   1       0.662  78.628 111.647  0.00  0.00    -0.090 HD
ENDBRANCH   5  18
BRANCH   3  22
ATOM     22  C   LIG d   1      -3.161  77.878 114.499  0.00  0.00     0.382 C 
ATOM     23  O   LIG d   1      -4.024  78.166 115.363  0.00  0.00    -0.241 OA
ATOM     24  O   LIG d   1      -3.180  76.752 113.965  0.00  0.00    -0.241 OA
ENDBRANCH   3  22
TORSDOF 7
ENDMDL
MODEL 7
REMARK VINA RESULT:      -4.3      2.389      4.497
REMARK  7 active torsions:
REMARK  status: ('A' for Active; 'I' for Inactive)
REMARK    1  A    between atoms: C_2  and  C_3 
REMARK    2  A    between atoms: C_3  and  O_6 
REMARK    3  A    between atoms: C_3  and  C_4 
REMARK    4  A    between atoms: C_7  and  O_6 
REMARK    5  A    between atoms: C_9  and  C_10 
REMARK    6  A    between atoms: N_15  and  C_14 
REMARK    7  A    between atoms: N_20  and  C_19 
REMARK       I    between atoms: C_22  and  N_20 
ROOT
ATOM      1  C   LIG d   1      -0.100  81.841 113.892  0.00  0.00     0.161 C 
ATOM      2  C   LIG d   1      -1.163  81.100 114.435  0.00  0.00     0.016 C 
ATOM      3  C   LIG d   1      -1.655  79.907 113.857  0.00  0.00     0.038 C 
ATOM      4  C   LIG d   1      -1.015  79.289 112.772  0.00  0.00     0.028 C 
ATOM      5  C   LIG d   1      -0.249  80.265 111.886  0.00  0.00    -0.047 C 
ATOM      6  C   LIG d   1       0.683  81.123 112.772  0.00  0.00     0.091 C 
ENDROOT
BRANCH   1   7
ATOM      7  O   LIG d   1       0.795  82.253 114.943  0.00  0.00    -0.368 OA
BRANCH   7   8
ATOM      8  C   LIG d   1       0.620  83.605 115.436  0.00  0.00     0.119 C 
BRANCH   8   9
ATOM      9  C   LIG d   1       1.845  84.424 114.986  0.00  0.00     0.028 C 
ATOM     10  C   LIG d   1       3.133  83.583 114.952  0.00  0.00     0.006 C 
ENDBRANCH   8   9
BRANCH   8  11
ATOM     11  C   LIG d   1       0.643  83.648 116.966  0.00  0.00     0.028 C 
ATOM     12  C   LIG d   1      -0.690  83.212 117.595  0.00  0.00     0.006 C 
ENDBRANCH   8  11
ENDBRANCH   7   8
ENDBRANCH   1   7
BRANCH   6  13
ATOM     13  N   LIG d   1       1.407  82.162 111.994  0.00  0.00    -0.311 N 
ATOM     14  C   LIG d   1       2.668  82.025 111.586  0.00  0.00     0.210 C 
ATOM     15  C   LIG d   1       3.231  83.223 110.815  0.00  0.00     0.109 C 
ATOM     16  O   LIG d   1       3.362  81.013 111.761  0.00  0.00    -0.276 OA
ATOM     17  H   LIG d   1       0.908  83.003 111.780  0.00  0.00     0.149 HD
ENDBRANCH   6  13
BRANCH   5  18
ATOM     18  N   LIG d   1       0.481  79.473 110.878  0.00  0.00     0.381 N 
ATOM     19  H   LIG d   1       0.442  79.934 109.991  0.00  0.00    -0.090 HD
ATOM     20  H   LIG d   1       0.038  78.576 110.786  0.00  0.00    -0.090 HD
ATOM     21  H   LIG d   1       1.430  79.355 111.158  0.00  0.00    -0.090 HD
ENDBRANCH   5  18
BRANCH   3  22
ATOM     22  C   LIG d   1      -2.825  79.341 114.340  0.00  0.00     0.382 C 
ATOM     23  O   LIG d   1      -3.368  79.807 115.371  0.00  0.00    -0.241 OA
ATOM     24  O   LIG d   1      -3.321  78.343 113.784  0.00  0.00    -0.241 OA
ENDBRANCH   3  22
TORSDOF 7
ENDMDL
MODEL 8
REMARK VINA RESULT:      -4.3      2.760      5.333
REMARK  7 active torsions:
REMARK  status: ('A' for Active; 'I' for Inactive)
REMARK    1  A    between atoms: C_2  and  C_3 
REMARK    2  A    between atoms: C_3  and  O_6 
REMARK    3  A    between atoms: C_3  and  C_4 
REMARK    4  A    between atoms: C_7  and  O_6 
REMARK    5  A    between atoms: C_9  and  C_10 
REMARK    6  A    between atoms: N_15  and  C_14 
REMARK    7  A    between atoms: N_20  and  C_19 
REMARK       I    between atoms: C_22  and  N_20 
ROOT
ATOM      1  C   LIG d   1      -2.487  80.082 115.425  0.00  0.00     0.161 C 
ATOM      2  C   LIG d   1      -3.103  78.821 115.490  0.00  0.00     0.016 C 
ATOM      3  C   LIG d   1      -3.112  77.903 114.415  0.00  0.00     0.038 C 
ATOM      4  C   LIG d   1      -2.370  78.124 113.245  0.00  0.00     0.028 C 
ATOM      5  C   LIG d   1      -2.148  79.601 112.938  0.00  0.00    -0.047 C 
ATOM      6  C   LIG d   1      -1.578  80.295 114.197  0.00  0.00     0.091 C 
ENDROOT
BRANCH   1   7
ATOM      7  O   LIG d   1      -1.753  80.330 116.640  0.00  0.00    -0.368 OA
BRANCH   7   8
ATOM      8  C   LIG d   1      -2.450  81.083 117.663  0.00  0.00     0.119 C 
BRANCH   8   9
ATOM      9  C   LIG d   1      -3.530  81.929 116.961  0.00  0.00     0.028 C 
ATOM     10  C   LIG d   1      -4.825  82.030 117.784  0.00  0.00     0.006 C 
ENDBRANCH   8   9
BRANCH   8  11
ATOM     11  C   LIG d   1      -1.521  82.094 118.342  0.00  0.00     0.028 C 
ATOM     12  C   LIG d   1      -0.972  83.147 117.367  0.00  0.00     0.006 C 
ENDBRANCH   8  11
ENDBRANCH   7   8
ENDBRANCH   1   7
BRANCH   6  13
ATOM     13  N   LIG d   1      -1.411  81.760 114.009  0.00  0.00    -0.311 N 
ATOM     14  C   LIG d   1      -0.263  82.325 113.637  0.00  0.00     0.210 C 
ATOM     15  C   LIG d   1      -0.302  83.852 113.522  0.00  0.00     0.109 C 
ATOM     16  O   LIG d   1       0.774  81.704 113.359  0.00  0.00    -0.276 OA
ATOM     17  H   LIG d   1      -2.211  82.336 114.183  0.00  0.00     0.149 HD
ENDBRANCH   6  13
BRANCH   5  18
ATOM     18  N   LIG d   1      -1.247  79.684 111.774  0.00  0.00     0.381 N 
ATOM     19  H   LIG d   1      -1.240  80.619 111.417  0.00  0.00    -0.090 HD
ATOM     20  H   LIG d   1      -1.591  79.074 111.053  0.00  0.00    -0.090 HD
ATOM     21  H   LIG d   1      -0.325  79.414 112.036  0.00  0.00    -0.090 HD
ENDBRANCH   5  18
BRANCH   3  22
ATOM     22  C   LIG d   1      -3.902  76.766 114.489  0.00  0.00     0.382 C 
ATOM     23  O   LIG d   1      -3.467  75.736 115.058  0.00  0.00    -0.241 OA
ATOM     24  O   LIG d   1      -5.027  76.743 113.955  0.00  0.00    -0.241 OA
ENDBRANCH   3  22
TORSDOF 7
ENDMDL
MODEL 9
REMARK VINA RESULT:      -4.3      3.215      6.339
REMARK  7 active torsions:
REMARK  status: ('A' for Active; 'I' for Inactive)
REMARK    1  A    between atoms: C_2  and  C_3 
REMARK    2  A    between atoms: C_3  and  O_6 
REMARK    3  A    between atoms: C_3  and  C_4 
REMARK    4  A    between atoms: C_7  and  O_6 
REMARK    5  A    between atoms: C_9  and  C_10 
REMARK    6  A    between atoms: N_15  and  C_14 
REMARK    7  A    between atoms: N_20  and  C_19 
REMARK       I    between atoms: C_22  and  N_20 
ROOT
ATOM      1  C   LIG d   1       0.268  80.984 115.167  0.00  0.00     0.161 C 
ATOM      2  C   LIG d   1       0.223  82.084 114.294  0.00  0.00     0.016 C 
ATOM      3  C   LIG d   1      -0.392  82.043 113.022  0.00  0.00     0.038 C 
ATOM      4  C   LIG d   1      -1.142  80.937 112.596  0.00  0.00     0.028 C 
ATOM      5  C   LIG d   1      -0.698  79.623 113.232  0.00  0.00    -0.047 C 
ATOM      6  C   LIG d   1      -0.641  79.803 114.766  0.00  0.00     0.091 C 
ENDROOT
BRANCH   1   7
ATOM      7  O   LIG d   1      -0.032  81.414 116.510  0.00  0.00    -0.368 OA
BRANCH   7   8
ATOM      8  C   LIG d   1      -0.619  82.732 116.642  0.00  0.00     0.119 C 
BRANCH   8   9
ATOM      9  C   LIG d   1       0.065  83.426 117.835  0.00  0.00     0.028 C 
ATOM     10  C   LIG d   1      -0.618  83.099 119.174  0.00  0.00     0.006 C 
ENDBRANCH   8   9
BRANCH   8  11
ATOM     11  C   LIG d   1      -2.101  82.647 117.017  0.00  0.00     0.028 C 
ATOM     12  C   LIG d   1      -3.033  82.812 115.805  0.00  0.00     0.006 C 
ENDBRANCH   8  11
ENDBRANCH   7   8
ENDBRANCH   1   7
BRANCH   6  13
ATOM     13  N   LIG d   1      -0.135  78.590 115.461  0.00  0.00    -0.311 N 
ATOM     14  C   LIG d   1      -0.870  77.867 116.303  0.00  0.00     0.210 C 
ATOM     15  C   LIG d   1      -0.149  76.667 116.925  0.00  0.00     0.109 C 
ATOM     16  O   LIG d   1      -2.062  78.086 116.568  0.00  0.00    -0.276 OA
ATOM     17  H   LIG d   1       0.813  78.323 115.279  0.00  0.00     0.149 HD
ENDBRANCH   6  13
BRANCH   5  18
ATOM     18  N   LIG d   1      -1.649  78.579 112.808  0.00  0.00     0.381 N 
ATOM     19  H   LIG d   1      -1.261  77.674 112.986  0.00  0.00    -0.090 HD
ATOM     20  H   LIG d   1      -1.806  78.665 111.819  0.00  0.00    -0.090 HD
ATOM     21  H   LIG d   1      -2.510  78.682 113.298  0.00  0.00    -0.090 HD
ENDBRANCH   5  18
BRANCH   3  22
ATOM     22  C   LIG d   1      -0.227  83.104 112.144  0.00  0.00     0.382 C 
ATOM     23  O   LIG d   1       0.802  83.819 112.212  0.00  0.00    -0.241 OA
ATOM     24  O   LIG d   1      -1.113  83.381 111.315  0.00  0.00    -0.241 OA
ENDBRANCH   3  22
TORSDOF 7
ENDMDL
