MODEL 1
REMARK VINA RESULT:      -5.4      0.000      0.000
REMARK  7 active torsions:
REMARK  status: ('A' for Active; 'I' for Inactive)
REMARK    1  A    between atoms: C_2  and  C_3 
REMARK    2  A    between atoms: C_3  and  O_6 
REMARK    3  A    between atoms: C_3  and  C_4 
REMARK    4  A    between atoms: C_7  and  O_6 
REMARK    5  A    between atoms: C_9  and  C_10 
REMARK    6  A    between atoms: N_15  and  C_14 
REMARK    7  A    between atoms: N_20  and  C_19 
REMARK       I    between atoms: C_22  and  N_20 
ROOT
ATOM      1  C   LIG d   1       0.654  82.053 113.212  0.00  0.00     0.161 C 
ATOM      2  C   LIG d   1      -0.338  81.138 113.601  0.00  0.00     0.016 C 
ATOM      3  C   LIG d   1      -1.005  80.281 112.694  0.00  0.00     0.038 C 
ATOM      4  C   LIG d   1      -0.615  80.175 111.351  0.00  0.00     0.028 C 
ATOM      5  C   LIG d   1       0.039  81.441 110.808  0.00  0.00    -0.047 C 
ATOM      6  C   LIG d   1       1.171  81.873 111.769  0.00  0.00     0.091 C 
ENDROOT
BRANCH   1   7
ATOM      7  O   LIG d   1       1.751  82.011 114.146  0.00  0.00    -0.368 OA
BRANCH   7   8
ATOM      8  C   LIG d   1       1.951  83.200 114.948  0.00  0.00     0.119 C 
BRANCH   8   9
ATOM      9  C   LIG d   1       2.196  82.744 116.400  0.00  0.00     0.028 C 
ATOM     10  C   LIG d   1       1.985  81.232 116.583  0.00  0.00     0.006 C 
ENDBRANCH   8   9
BRANCH   8  11
ATOM     11  C   LIG d   1       0.683  84.057 115.001  0.00  0.00     0.028 C 
ATOM     12  C   LIG d   1       0.334  84.519 116.425  0.00  0.00     0.006 C 
ENDBRANCH   8  11
ENDBRANCH   7   8
ENDBRANCH   1   7
BRANCH   6  13
ATOM     13  N   LIG d   1       1.808  83.151 111.357  0.00  0.00    -0.311 N 
ATOM     14  C   LIG d   1       2.880  83.215 110.569  0.00  0.00     0.210 C 
ATOM     15  C   LIG d   1       3.389  84.631 110.283  0.00  0.00     0.109 C 
ATOM     16  O   LIG d   1       3.439  82.234 110.055  0.00  0.00    -0.276 OA
ATOM     17  H   LIG d   1       1.399  83.997 111.703  0.00  0.00     0.149 HD
ENDBRANCH   6  13
BRANCH   5  18
ATOM     18  N   LIG d   1       0.520  81.145 109.445  0.00  0.00     0.381 N 
ATOM     19  H   LIG d   1       1.461  81.468 109.341  0.00  0.00    -0.090 HD
ATOM     20  H   LIG d   1      -0.057  81.635 108.784  0.00  0.00    -0.090 HD
ATOM     21  H   LIG d   1       0.476  80.165 109.273  0.00  0.00    -0.090 HD
ENDBRANCH   5  18
BRANCH   3  22
ATOM     22  C   LIG d   1      -2.101  79.548 113.122  0.00  0.00     0.382 C 
ATOM     23  O   LIG d   1      -1.960  78.348 113.458  0.00  0.00    -0.241 OA
ATOM     24  O   LIG d   1      -3.238  80.059 113.133  0.00  0.00    -0.241 OA
ENDBRANCH   3  22
TORSDOF 7
ENDMDL
MODEL 2
REMARK VINA RESULT:      -5.4      4.597      6.961
REMARK  7 active torsions:
REMARK  status: ('A' for Active; 'I' for Inactive)
REMARK    1  A    between atoms: C_2  and  C_3 
REMARK    2  A    between atoms: C_3  and  O_6 
REMARK    3  A    between atoms: C_3  and  C_4 
REMARK    4  A    between atoms: C_7  and  O_6 
REMARK    5  A    between atoms: C_9  and  C_10 
REMARK    6  A    between atoms: N_15  and  C_14 
REMARK    7  A    between atoms: N_20  and  C_19 
REMARK       I    between atoms: C_22  and  N_20 
ROOT
ATOM      1  C   LIG d   1      -1.685  77.155 114.242  0.00  0.00     0.161 C 
ATOM      2  C   LIG d   1      -2.998  76.900 113.816  0.00  0.00     0.016 C 
ATOM      3  C   LIG d   1      -3.829  75.916 114.399  0.00  0.00     0.038 C 
ATOM      4  C   LIG d   1      -3.451  75.218 115.555  0.00  0.00     0.028 C 
ATOM      5  C   LIG d   1      -1.940  75.084 115.716  0.00  0.00    -0.047 C 
ATOM      6  C   LIG d   1      -1.295  76.481 115.575  0.00  0.00     0.091 C 
ENDROOT
BRANCH   1   7
ATOM      7  O   LIG d   1      -1.463  78.578 114.317  0.00  0.00    -0.368 OA
BRANCH   7   8
ATOM      8  C   LIG d   1      -1.298  79.264 113.052  0.00  0.00     0.119 C 
BRANCH   8   9
ATOM      9  C   LIG d   1      -0.507  80.558 113.327  0.00  0.00     0.028 C 
ATOM     10  C   LIG d   1       0.313  81.015 112.109  0.00  0.00     0.006 C 
ENDBRANCH   8   9
BRANCH   8  11
ATOM     11  C   LIG d   1      -2.646  79.726 112.489  0.00  0.00     0.028 C 
ATOM     12  C   LIG d   1      -2.966  81.189 112.833  0.00  0.00     0.006 C 
ENDBRANCH   8  11
ENDBRANCH   7   8
ENDBRANCH   1   7
BRANCH   6  13
ATOM     13  N   LIG d   1       0.189  76.429 115.635  0.00  0.00    -0.311 N 
ATOM     14  C   LIG d   1       0.881  76.529 116.769  0.00  0.00     0.210 C 
ATOM     15  C   LIG d   1       2.403  76.470 116.605  0.00  0.00     0.109 C 
ATOM     16  O   LIG d   1       0.377  76.629 117.898  0.00  0.00    -0.276 OA
ATOM     17  H   LIG d   1       0.677  76.318 114.768  0.00  0.00     0.149 HD
ENDBRANCH   6  13
BRANCH   5  18
ATOM     18  N   LIG d   1      -1.685  74.459 117.028  0.00  0.00     0.381 N 
ATOM     19  H   LIG d   1      -1.217  75.109 117.627  0.00  0.00    -0.090 HD
ATOM     20  H   LIG d   1      -1.087  73.662 116.898  0.00  0.00    -0.090 HD
ATOM     21  H   LIG d   1      -2.545  74.173 117.442  0.00  0.00    -0.090 HD
ENDBRANCH   5  18
BRANCH   3  22
ATOM     22  C   LIG d   1      -5.036  75.592 113.799  0.00  0.00     0.382 C 
ATOM     23  O   LIG d   1      -5.419  76.219 112.781  0.00  0.00    -0.241 OA
ATOM     24  O   LIG d   1      -5.769  74.712 114.289  0.00  0.00    -0.241 OA
ENDBRANCH   3  22
TORSDOF 7
ENDMDL
MODEL 3
REMARK VINA RESULT:      -5.4      1.572      4.624
REMARK  7 active torsions:
REMARK  status: ('A' for Active; 'I' for Inactive)
REMARK    1  A    between atoms: C_2  and  C_3 
REMARK    2  A    between atoms: C_3  and  O_6 
REMARK    3  A    between atoms: C_3  and  C_4 
REMARK    4  A    between atoms: C_7  and  O_6 
REMARK    5  A    between atoms: C_9  and  C_10 
REMARK    6  A    between atoms: N_15  and  C_14 
REMARK    7  A    between atoms: N_20  and  C_19 
REMARK       I    between atoms: C_22  and  N_20 
ROOT
ATOM      1  C   LIG d   1       0.707  81.671 112.889  0.00  0.00     0.161 C 
ATOM      2  C   LIG d   1       1.505  82.608 112.212  0.00  0.00     0.016 C 
ATOM      3  C   LIG d   1       1.639  82.644 110.805  0.00  0.00     0.038 C 
ATOM      4  C   LIG d   1       0.861  81.833 109.965  0.00  0.00     0.028 C 
ATOM      5  C   LIG d   1       0.419  80.530 110.621  0.00  0.00    -0.047 C 
ATOM      6  C   LIG d   1      -0.236  80.851 111.984  0.00  0.00     0.091 C 
ENDROOT
BRANCH   1   7
ATOM      7  O   LIG d   1      -0.044  82.329 113.929  0.00  0.00    -0.368 OA
BRANCH   7   8
ATOM      8  C   LIG d   1       0.717  83.174 114.827  0.00  0.00     0.119 C 
BRANCH   8   9
ATOM      9  C   LIG d   1       0.869  82.415 116.159  0.00  0.00     0.028 C 
ATOM     10  C   LIG d   1       2.267  81.796 116.326  0.00  0.00     0.006 C 
ENDBRANCH   8   9
BRANCH   8  11
ATOM     11  C   LIG d   1      -0.052  84.452 115.174  0.00  0.00     0.028 C 
ATOM     12  C   LIG d   1      -1.308  84.645 114.310  0.00  0.00     0.006 C 
ENDBRANCH   8  11
ENDBRANCH   7   8
ENDBRANCH   1   7
BRANCH   6  13
ATOM     13  N   LIG d   1      -0.622  79.625 112.730  0.00  0.00    -0.311 N 
ATOM     14  C   LIG d   1      -1.829  79.068 112.652  0.00  0.00     0.210 C 
ATOM     15  C   LIG d   1      -2.024  77.820 113.518  0.00  0.00     0.109 C 
ATOM     16  O   LIG d   1      -2.748  79.471 111.923  0.00  0.00    -0.276 OA
ATOM     17  H   LIG d   1       0.073  79.213 113.322  0.00  0.00     0.149 HD
ENDBRANCH   6  13
BRANCH   5  18
ATOM     18  N   LIG d   1      -0.496  79.849 109.686  0.00  0.00     0.381 N 
ATOM     19  H   LIG d   1      -0.060  79.023 109.326  0.00  0.00    -0.090 HD
ATOM     20  H   LIG d   1      -0.691  80.464 108.915  0.00  0.00    -0.090 HD
ATOM     21  H   LIG d   1      -1.344  79.609 110.152  0.00  0.00    -0.090 HD
ENDBRANCH   5  18
BRANCH   3  22
ATOM     22  C   LIG d   1       2.591  83.470 110.226  0.00  0.00     0.382 C 
ATOM     23  O   LIG d   1       3.440  82.991 109.436  0.00  0.00    -0.241 OA
ATOM     24  O   LIG d   1       2.639  84.680 110.519  0.00  0.00    -0.241 OA
ENDBRANCH   3  22
TORSDOF 7
ENDMDL
MODEL 4
REMARK VINA RESULT:      -5.4      1.425      1.769
REMARK  7 active torsions:
REMARK  status: ('A' for Active; 'I' for Inactive)
REMARK    1  A    between atoms: C_2  and  C_3 
REMARK    2  A    between atoms: C_3  and  O_6 
REMARK    3  A    between atoms: C_3  and  C_4 
REMARK    4  A    between atoms: C_7  and  O_6 
REMARK    5  A    between atoms: C_9  and  C_10 
REMARK    6  A    between atoms: N_15  and  C_14 
REMARK    7  A    between atoms: N_20  and  C_19 
REMARK       I    between atoms: C_22  and  N_20 
ROOT
ATOM      1  C   LIG d   1      -1.133  81.804 112.366  0.00  0.00     0.161 C 
ATOM      2  C   LIG d   1      -1.976  80.772 112.809  0.00  0.00     0.016 C 
ATOM      3  C   LIG d   1      -1.938  79.458 112.286  0.00  0.00     0.038 C 
ATOM      4  C   LIG d   1      -0.945  79.047 111.385  0.00  0.00     0.028 C 
ATOM      5  C   LIG d   1      -0.390  80.185 110.534  0.00  0.00    -0.047 C 
ATOM      6  C   LIG d   1       0.032  81.346 111.463  0.00  0.00     0.091 C 
ENDROOT
BRANCH   1   7
ATOM      7  O   LIG d   1      -0.629  82.542 113.497  0.00  0.00    -0.368 OA
BRANCH   7   8
ATOM      8  C   LIG d   1       0.685  82.161 113.973  0.00  0.00     0.119 C 
BRANCH   8   9
ATOM      9  C   LIG d   1       0.504  81.498 115.353  0.00  0.00     0.028 C 
ATOM     10  C   LIG d   1       1.277  82.231 116.462  0.00  0.00     0.006 C 
ENDBRANCH   8   9
BRANCH   8  11
ATOM     11  C   LIG d   1       1.565  83.389 114.226  0.00  0.00     0.028 C 
ATOM     12  C   LIG d   1       0.967  84.680 113.644  0.00  0.00     0.006 C 
ENDBRANCH   8  11
ENDBRANCH   7   8
ENDBRANCH   1   7
BRANCH   6  13
ATOM     13  N   LIG d   1       0.507  82.533 110.706  0.00  0.00    -0.311 N 
ATOM     14  C   LIG d   1       1.795  82.808 110.506  0.00  0.00     0.210 C 
ATOM     15  C   LIG d   1       2.068  84.092 109.716  0.00  0.00     0.109 C 
ATOM     16  O   LIG d   1       2.737  82.093 110.880  0.00  0.00    -0.276 OA
ATOM     17  H   LIG d   1      -0.191  83.151 110.340  0.00  0.00     0.149 HD
ENDBRANCH   6  13
BRANCH   5  18
ATOM     18  N   LIG d   1       0.729  79.643 109.741  0.00  0.00     0.381 N 
ATOM     19  H   LIG d   1       0.715  80.038 108.822  0.00  0.00    -0.090 HD
ATOM     20  H   LIG d   1       0.618  78.648 109.659  0.00  0.00    -0.090 HD
ATOM     21  H   LIG d   1       1.595  79.852 110.186  0.00  0.00    -0.090 HD
ENDBRANCH   5  18
BRANCH   3  22
ATOM     22  C   LIG d   1      -2.927  78.551 112.635  0.00  0.00     0.382 C 
ATOM     23  O   LIG d   1      -3.699  78.096 111.757  0.00  0.00    -0.241 OA
ATOM     24  O   LIG d   1      -3.085  78.216 113.825  0.00  0.00    -0.241 OA
ENDBRANCH   3  22
TORSDOF 7
ENDMDL
MODEL 5
REMARK VINA RESULT:      -5.0      7.197      8.987
REMARK  7 active torsions:
REMARK  status: ('A' for Active; 'I' for Inactive)
REMARK    1  A    between atoms: C_2  and  C_3 
REMARK    2  A    between atoms: C_3  and  O_6 
REMARK    3  A    between atoms: C_3  and  C_4 
REMARK    4  A    between atoms: C_7  and  O_6 
REMARK    5  A    between atoms: C_9  and  C_10 
REMARK    6  A    between atoms: N_15  and  C_14 
REMARK    7  A    between atoms: N_20  and  C_19 
REMARK       I    between atoms: C_22  and  N_20 
ROOT
ATOM      1  C   LIG d   1      -2.335  76.586 115.864  0.00  0.00     0.161 C 
ATOM      2  C   LIG d   1      -1.549  76.117 114.799  0.00  0.00     0.016 C 
ATOM      3  C   LIG d   1      -0.496  75.186 114.960  0.00  0.00     0.038 C 
ATOM      4  C   LIG d   1      -0.256  74.543 116.184  0.00  0.00     0.028 C 
ATOM      5  C   LIG d   1      -0.697  75.359 117.394  0.00  0.00    -0.047 C 
ATOM      6  C   LIG d   1      -2.161  75.812 117.188  0.00  0.00     0.091 C 
ENDROOT
BRANCH   1   7
ATOM      7  O   LIG d   1      -3.723  76.606 115.475  0.00  0.00    -0.368 OA
BRANCH   7   8
ATOM      8  C   LIG d   1      -4.497  75.430 115.814  0.00  0.00     0.119 C 
BRANCH   8   9
ATOM      9  C   LIG d   1      -4.906  74.748 114.494  0.00  0.00     0.028 C 
ATOM     10  C   LIG d   1      -5.409  75.754 113.446  0.00  0.00     0.006 C 
ENDBRANCH   8   9
BRANCH   8  11
ATOM     11  C   LIG d   1      -5.813  75.807 116.501  0.00  0.00     0.028 C 
ATOM     12  C   LIG d   1      -5.896  77.302 116.848  0.00  0.00     0.006 C 
ENDBRANCH   8  11
ENDBRANCH   7   8
ENDBRANCH   1   7
BRANCH   6  13
ATOM     13  N   LIG d   1      -2.644  76.688 118.287  0.00  0.00    -0.311 N 
ATOM     14  C   LIG d   1      -2.075  77.850 118.603  0.00  0.00     0.210 C 
ATOM     15  C   LIG d   1      -2.718  78.585 119.784  0.00  0.00     0.109 C 
ATOM     16  O   LIG d   1      -1.118  78.357 117.998  0.00  0.00    -0.276 OA
ATOM     17  H   LIG d   1      -3.435  76.368 118.811  0.00  0.00     0.149 HD
ENDBRANCH   6  13
BRANCH   5  18
ATOM     18  N   LIG d   1      -0.516  74.516 118.590  0.00  0.00     0.381 N 
ATOM     19  H   LIG d   1      -1.163  73.753 118.568  0.00  0.00    -0.090 HD
ATOM     20  H   LIG d   1      -0.708  75.067 119.409  0.00  0.00    -0.090 HD
ATOM     21  H   LIG d   1       0.417  74.169 118.625  0.00  0.00    -0.090 HD
ENDBRANCH   5  18
BRANCH   3  22
ATOM     22  C   LIG d   1       0.354  74.920 113.898  0.00  0.00     0.382 C 
ATOM     23  O   LIG d   1       0.067  75.329 112.747  0.00  0.00    -0.241 OA
ATOM     24  O   LIG d   1       1.383  74.239 114.068  0.00  0.00    -0.241 OA
ENDBRANCH   3  22
TORSDOF 7
ENDMDL
MODEL 6
REMARK VINA RESULT:      -5.0      6.370      8.424
REMARK  7 active torsions:
REMARK  status: ('A' for Active; 'I' for Inactive)
REMARK    1  A    between atoms: C_2  and  C_3 
REMARK    2  A    between atoms: C_3  and  O_6 
REMARK    3  A    between atoms: C_3  and  C_4 
REMARK    4  A    between atoms: C_7  and  O_6 
REMARK    5  A    between atoms: C_9  and  C_10 
REMARK    6  A    between atoms: N_15  and  C_14 
REMARK    7  A    between atoms: N_20  and  C_19 
REMARK       I    between atoms: C_22  and  N_20 
ROOT
ATOM      1  C   LIG d   1      -2.076  75.279 117.094  0.00  0.00     0.161 C 
ATOM      2  C   LIG d   1      -0.828  75.140 116.463  0.00  0.00     0.016 C 
ATOM      3  C   LIG d   1      -0.593  75.496 115.115  0.00  0.00     0.038 C 
ATOM      4  C   LIG d   1      -1.559  76.161 114.345  0.00  0.00     0.028 C 
ATOM      5  C   LIG d   1      -2.990  75.864 114.780  0.00  0.00    -0.047 C 
ATOM      6  C   LIG d   1      -3.112  76.105 116.303  0.00  0.00     0.091 C 
ENDROOT
BRANCH   1   7
ATOM      7  O   LIG d   1      -1.898  75.830 118.414  0.00  0.00    -0.368 OA
BRANCH   7   8
ATOM      8  C   LIG d   1      -1.865  77.275 118.502  0.00  0.00     0.119 C 
BRANCH   8   9
ATOM      9  C   LIG d   1      -0.388  77.699 118.617  0.00  0.00     0.028 C 
ATOM     10  C   LIG d   1       0.027  78.686 117.513  0.00  0.00     0.006 C 
ENDBRANCH   8   9
BRANCH   8  11
ATOM     11  C   LIG d   1      -2.531  77.771 119.789  0.00  0.00     0.028 C 
ATOM     12  C   LIG d   1      -3.966  78.272 119.564  0.00  0.00     0.006 C 
ENDBRANCH   8  11
ENDBRANCH   7   8
ENDBRANCH   1   7
BRANCH   6  13
ATOM     13  N   LIG d   1      -4.459  75.757 116.826  0.00  0.00    -0.311 N 
ATOM     14  C   LIG d   1      -5.480  76.612 116.845  0.00  0.00     0.210 C 
ATOM     15  C   LIG d   1      -6.776  76.056 117.445  0.00  0.00     0.109 C 
ATOM     16  O   LIG d   1      -5.446  77.766 116.393  0.00  0.00    -0.276 OA
ATOM     17  H   LIG d   1      -4.584  74.831 117.184  0.00  0.00     0.149 HD
ENDBRANCH   6  13
BRANCH   5  18
ATOM     18  N   LIG d   1      -3.885  76.726 113.986  0.00  0.00     0.381 N 
ATOM     19  H   LIG d   1      -4.072  76.296 113.102  0.00  0.00    -0.090 HD
ATOM     20  H   LIG d   1      -3.427  77.605 113.818  0.00  0.00    -0.090 HD
ATOM     21  H   LIG d   1      -4.739  76.877 114.477  0.00  0.00    -0.090 HD
ENDBRANCH   5  18
BRANCH   3  22
ATOM     22  C   LIG d   1       0.607  75.151 114.513  0.00  0.00     0.382 C 
ATOM     23  O   LIG d   1       0.605  74.570 113.401  0.00  0.00    -0.241 OA
ATOM     24  O   LIG d   1       1.689  75.373 115.087  0.00  0.00    -0.241 OA
ENDBRANCH   3  22
TORSDOF 7
ENDMDL
MODEL 7
REMARK VINA RESULT:      -4.5      1.944      2.490
REMARK  7 active torsions:
REMARK  status: ('A' for Active; 'I' for Inactive)
REMARK    1  A    between atoms: C_2  and  C_3 
REMARK    2  A    between atoms: C_3  and  O_6 
REMARK    3  A    between atoms: C_3  and  C_4 
REMARK    4  A    between atoms: C_7  and  O_6 
REMARK    5  A    between atoms: C_9  and  C_10 
REMARK    6  A    between atoms: N_15  and  C_14 
REMARK    7  A    between atoms: N_20  and  C_19 
REMARK       I    between atoms: C_22  and  N_20 
ROOT
ATOM      1  C   LIG d   1      -0.367  81.030 113.331  0.00  0.00     0.161 C 
ATOM      2  C   LIG d   1      -1.132  79.913 113.706  0.00  0.00     0.016 C 
ATOM      3  C   LIG d   1      -1.567  78.925 112.793  0.00  0.00     0.038 C 
ATOM      4  C   LIG d   1      -1.134  78.908 111.458  0.00  0.00     0.028 C 
ATOM      5  C   LIG d   1      -0.774  80.289 110.920  0.00  0.00    -0.047 C 
ATOM      6  C   LIG d   1       0.208  80.969 111.901  0.00  0.00     0.091 C 
ENDROOT
BRANCH   1   7
ATOM      7  O   LIG d   1       0.691  81.240 114.288  0.00  0.00    -0.368 OA
BRANCH   7   8
ATOM      8  C   LIG d   1       0.609  82.456 115.071  0.00  0.00     0.119 C 
BRANCH   8   9
ATOM      9  C   LIG d   1       1.707  83.410 114.561  0.00  0.00     0.028 C 
ATOM     10  C   LIG d   1       1.826  84.680 115.421  0.00  0.00     0.006 C 
ENDBRANCH   8   9
BRANCH   8  11
ATOM     11  C   LIG d   1       0.948  82.196 116.542  0.00  0.00     0.028 C 
ATOM     12  C   LIG d   1       1.170  80.706 116.847  0.00  0.00     0.006 C 
ENDBRANCH   8  11
ENDBRANCH   7   8
ENDBRANCH   1   7
BRANCH   6  13
ATOM     13  N   LIG d   1       0.546  82.357 111.493  0.00  0.00    -0.311 N 
ATOM     14  C   LIG d   1      -0.367  83.309 111.306  0.00  0.00     0.210 C 
ATOM     15  C   LIG d   1       0.194  84.666 110.867  0.00  0.00     0.109 C 
ATOM     16  O   LIG d   1      -1.584  83.168 111.494  0.00  0.00    -0.276 OA
ATOM     17  H   LIG d   1       1.514  82.568 111.349  0.00  0.00     0.149 HD
ENDBRANCH   6  13
BRANCH   5  18
ATOM     18  N   LIG d   1      -0.210  80.107 109.569  0.00  0.00     0.381 N 
ATOM     19  H   LIG d   1      -0.425  80.903 109.003  0.00  0.00    -0.090 HD
ATOM     20  H   LIG d   1      -0.630  79.297 109.148  0.00  0.00    -0.090 HD
ATOM     21  H   LIG d   1       0.777  79.988 109.625  0.00  0.00    -0.090 HD
ENDBRANCH   5  18
BRANCH   3  22
ATOM     22  C   LIG d   1      -2.476  77.962 113.203  0.00  0.00     0.382 C 
ATOM     23  O   LIG d   1      -3.458  77.677 112.475  0.00  0.00    -0.241 OA
ATOM     24  O   LIG d   1      -2.353  77.408 114.311  0.00  0.00    -0.241 OA
ENDBRANCH   3  22
TORSDOF 7
ENDMDL
MODEL 8
REMARK VINA RESULT:      -4.5      3.096      5.071
REMARK  7 active torsions:
REMARK  status: ('A' for Active; 'I' for Inactive)
REMARK    1  A    between atoms: C_2  and  C_3 
REMARK    2  A    between atoms: C_3  and  O_6 
REMARK    3  A    between atoms: C_3  and  C_4 
REMARK    4  A    between atoms: C_7  and  O_6 
REMARK    5  A    between atoms: C_9  and  C_10 
REMARK    6  A    between atoms: N_15  and  C_14 
REMARK    7  A    between atoms: N_20  and  C_19 
REMARK       I    between atoms: C_22  and  N_20 
ROOT
ATOM      1  C   LIG d   1      -0.288  80.363 114.260  0.00  0.00     0.161 C 
ATOM      2  C   LIG d   1      -0.363  81.650 113.702  0.00  0.00     0.016 C 
ATOM      3  C   LIG d   1      -1.200  81.979 112.611  0.00  0.00     0.038 C 
ATOM      4  C   LIG d   1      -2.140  81.072 112.099  0.00  0.00     0.028 C 
ATOM      5  C   LIG d   1      -1.744  79.613 112.298  0.00  0.00    -0.047 C 
ATOM      6  C   LIG d   1      -1.387  79.389 113.785  0.00  0.00     0.091 C 
ENDROOT
BRANCH   1   7
ATOM      7  O   LIG d   1      -0.286  80.453 115.698  0.00  0.00    -0.368 OA
BRANCH   7   8
ATOM      8  C   LIG d   1       1.001  80.695 116.319  0.00  0.00     0.119 C 
BRANCH   8   9
ATOM      9  C   LIG d   1       1.124  79.734 117.518  0.00  0.00     0.028 C 
ATOM     10  C   LIG d   1       0.072  78.613 117.482  0.00  0.00     0.006 C 
ENDBRANCH   8   9
BRANCH   8  11
ATOM     11  C   LIG d   1       1.076  82.102 116.918  0.00  0.00     0.028 C 
ATOM     12  C   LIG d   1       0.901  82.110 118.445  0.00  0.00     0.006 C 
ENDBRANCH   8  11
ENDBRANCH   7   8
ENDBRANCH   1   7
BRANCH   6  13
ATOM     13  N   LIG d   1      -0.908  78.007 114.052  0.00  0.00    -0.311 N 
ATOM     14  C   LIG d   1      -1.703  77.022 114.465  0.00  0.00     0.210 C 
ATOM     15  C   LIG d   1      -1.003  75.680 114.699  0.00  0.00     0.109 C 
ATOM     16  O   LIG d   1      -2.928  77.125 114.630  0.00  0.00    -0.276 OA
ATOM     17  H   LIG d   1       0.068  77.828 113.913  0.00  0.00     0.149 HD
ENDBRANCH   6  13
BRANCH   5  18
ATOM     18  N   LIG d   1      -2.872  78.779 111.843  0.00  0.00     0.381 N 
ATOM     19  H   LIG d   1      -2.584  78.210 111.072  0.00  0.00    -0.090 HD
ATOM     20  H   LIG d   1      -3.615  79.379 111.531  0.00  0.00    -0.090 HD
ATOM     21  H   LIG d   1      -3.193  78.202 112.589  0.00  0.00    -0.090 HD
ENDBRANCH   5  18
BRANCH   3  22
ATOM     22  C   LIG d   1      -1.075  83.215 111.997  0.00  0.00     0.382 C 
ATOM     23  O   LIG d   1      -1.149  84.265 112.679  0.00  0.00    -0.241 OA
ATOM     24  O   LIG d   1      -0.934  83.295 110.762  0.00  0.00    -0.241 OA
ENDBRANCH   3  22
TORSDOF 7
ENDMDL
MODEL 9
REMARK VINA RESULT:      -4.4      4.253      6.503
REMARK  7 active torsions:
REMARK  status: ('A' for Active; 'I' for Inactive)
REMARK    1  A    between atoms: C_2  and  C_3 
REMARK    2  A    between atoms: C_3  and  O_6 
REMARK    3  A    between atoms: C_3  and  C_4 
REMARK    4  A    between atoms: C_7  and  O_6 
REMARK    5  A    between atoms: C_9  and  C_10 
REMARK    6  A    between atoms: N_15  and  C_14 
REMARK    7  A    between atoms: N_20  and  C_19 
REMARK       I    between atoms: C_22  and  N_20 
ROOT
ATOM      1  C   LIG d   1      -1.620  77.151 114.691  0.00  0.00     0.161 C 
ATOM      2  C   LIG d   1      -2.705  76.392 115.159  0.00  0.00     0.016 C 
ATOM      3  C   LIG d   1      -3.920  76.250 114.449  0.00  0.00     0.038 C 
ATOM      4  C   LIG d   1      -4.077  76.739 113.144  0.00  0.00     0.028 C 
ATOM      5  C   LIG d   1      -3.190  77.941 112.836  0.00  0.00    -0.047 C 
ATOM      6  C   LIG d   1      -1.732  77.600 113.219  0.00  0.00     0.091 C 
ENDROOT
BRANCH   1   7
ATOM      7  O   LIG d   1      -0.391  76.429 114.903  0.00  0.00    -0.368 OA
BRANCH   7   8
ATOM      8  C   LIG d   1      -0.525  75.027 115.240  0.00  0.00     0.119 C 
BRANCH   8   9
ATOM      9  C   LIG d   1      -0.263  74.887 116.752  0.00  0.00     0.028 C 
ATOM     10  C   LIG d   1       0.666  75.988 117.290  0.00  0.00     0.006 C 
ENDBRANCH   8   9
BRANCH   8  11
ATOM     11  C   LIG d   1       0.558  74.184 114.560  0.00  0.00     0.028 C 
ATOM     12  C   LIG d   1       0.897  74.678 113.145  0.00  0.00     0.006 C 
ENDBRANCH   8  11
ENDBRANCH   7   8
ENDBRANCH   1   7
BRANCH   6  13
ATOM     13  N   LIG d   1      -0.812  78.752 113.028  0.00  0.00    -0.311 N 
ATOM     14  C   LIG d   1      -1.189  80.022 113.166  0.00  0.00     0.210 C 
ATOM     15  C   LIG d   1      -0.088  81.055 112.906  0.00  0.00     0.109 C 
ATOM     16  O   LIG d   1      -2.322  80.390 113.511  0.00  0.00    -0.276 OA
ATOM     17  H   LIG d   1       0.135  78.543 112.777  0.00  0.00     0.149 HD
ENDBRANCH   6  13
BRANCH   5  18
ATOM     18  N   LIG d   1      -3.353  78.260 111.405  0.00  0.00     0.381 N 
ATOM     19  H   LIG d   1      -3.916  79.081 111.303  0.00  0.00    -0.090 HD
ATOM     20  H   LIG d   1      -3.824  77.496 110.953  0.00  0.00    -0.090 HD
ATOM     21  H   LIG d   1      -2.462  78.406 110.985  0.00  0.00    -0.090 HD
ENDBRANCH   5  18
BRANCH   3  22
ATOM     22  C   LIG d   1      -5.008  75.648 115.062  0.00  0.00     0.382 C 
ATOM     23  O   LIG d   1      -6.165  76.090 114.862  0.00  0.00    -0.241 OA
ATOM     24  O   LIG d   1      -4.843  74.695 115.848  0.00  0.00    -0.241 OA
ENDBRANCH   3  22
TORSDOF 7
ENDMDL
