MODEL 1
REMARK VINA RESULT:      -5.0      0.000      0.000
REMARK  7 active torsions:
REMARK  status: ('A' for Active; 'I' for Inactive)
REMARK    1  A    between atoms: C_2  and  C_3 
REMARK    2  A    between atoms: C_3  and  O_6 
REMARK    3  A    between atoms: C_3  and  C_4 
REMARK    4  A    between atoms: C_7  and  O_6 
REMARK    5  A    between atoms: C_9  and  C_10 
REMARK    6  A    between atoms: N_15  and  C_14 
REMARK    7  A    between atoms: N_20  and  C_19 
REMARK       I    between atoms: C_22  and  N_20 
ROOT
ATOM      1  C   LIG d   1      -1.824  78.348 115.303  0.00  0.00     0.161 C 
ATOM      2  C   LIG d   1      -2.397  79.521 114.783  0.00  0.00     0.016 C 
ATOM      3  C   LIG d   1      -2.540  79.769 113.398  0.00  0.00     0.038 C 
ATOM      4  C   LIG d   1      -2.254  78.789 112.436  0.00  0.00     0.028 C 
ATOM      5  C   LIG d   1      -1.202  77.782 112.890  0.00  0.00    -0.047 C 
ATOM      6  C   LIG d   1      -1.609  77.221 114.272  0.00  0.00     0.091 C 
ENDROOT
BRANCH   1   7
ATOM      7  O   LIG d   1      -2.612  77.870 116.412  0.00  0.00    -0.368 OA
BRANCH   7   8
ATOM      8  C   LIG d   1      -4.047  77.847 116.211  0.00  0.00     0.119 C 
BRANCH   8   9
ATOM      9  C   LIG d   1      -4.700  78.439 117.475  0.00  0.00     0.028 C 
ATOM     10  C   LIG d   1      -3.792  79.459 118.182  0.00  0.00     0.006 C 
ENDBRANCH   8   9
BRANCH   8  11
ATOM     11  C   LIG d   1      -4.574  76.412 116.116  0.00  0.00     0.028 C 
ATOM     12  C   LIG d   1      -5.036  76.040 114.699  0.00  0.00     0.006 C 
ENDBRANCH   8  11
ENDBRANCH   7   8
ENDBRANCH   1   7
BRANCH   6  13
ATOM     13  N   LIG d   1      -0.591  76.291 114.828  0.00  0.00    -0.311 N 
ATOM     14  C   LIG d   1      -0.857  75.032 115.169  0.00  0.00     0.210 C 
ATOM     15  C   LIG d   1       0.331  74.252 115.741  0.00  0.00     0.109 C 
ATOM     16  O   LIG d   1      -1.956  74.476 115.021  0.00  0.00    -0.276 OA
ATOM     17  H   LIG d   1       0.335  76.650 114.952  0.00  0.00     0.149 HD
ENDBRANCH   6  13
BRANCH   5  18
ATOM     18  N   LIG d   1      -1.103  76.742 111.850  0.00  0.00     0.381 N 
ATOM     19  H   LIG d   1      -1.999  76.324 111.702  0.00  0.00    -0.090 HD
ATOM     20  H   LIG d   1      -0.470  76.027 112.164  0.00  0.00    -0.090 HD
ATOM     21  H   LIG d   1      -0.769  77.140 111.000  0.00  0.00    -0.090 HD
ENDBRANCH   5  18
BRANCH   3  22
ATOM     22  C   LIG d   1      -2.935  81.024 112.962  0.00  0.00     0.382 C 
ATOM     23  O   LIG d   1      -4.132  81.231 112.649  0.00  0.00    -0.241 OA
ATOM     24  O   LIG d   1      -2.101  81.941 112.836  0.00  0.00    -0.241 OA
ENDBRANCH   3  22
TORSDOF 7
ENDMDL
MODEL 2
REMARK VINA RESULT:      -4.9      2.146      2.739
REMARK  7 active torsions:
REMARK  status: ('A' for Active; 'I' for Inactive)
REMARK    1  A    between atoms: C_2  and  C_3 
REMARK    2  A    between atoms: C_3  and  O_6 
REMARK    3  A    between atoms: C_3  and  C_4 
REMARK    4  A    between atoms: C_7  and  O_6 
REMARK    5  A    between atoms: C_9  and  C_10 
REMARK    6  A    between atoms: N_15  and  C_14 
REMARK    7  A    between atoms: N_20  and  C_19 
REMARK       I    between atoms: C_22  and  N_20 
ROOT
ATOM      1  C   LIG d   1      -3.010  77.848 114.897  0.00  0.00     0.161 C 
ATOM      2  C   LIG d   1      -3.251  78.899 113.997  0.00  0.00     0.016 C 
ATOM      3  C   LIG d   1      -2.310  79.917 113.720  0.00  0.00     0.038 C 
ATOM      4  C   LIG d   1      -0.998  79.868 114.213  0.00  0.00     0.028 C 
ATOM      5  C   LIG d   1      -0.872  79.099 115.523  0.00  0.00    -0.047 C 
ATOM      6  C   LIG d   1      -1.544  77.716 115.360  0.00  0.00     0.091 C 
ENDROOT
BRANCH   1   7
ATOM      7  O   LIG d   1      -3.470  76.605 114.331  0.00  0.00    -0.368 OA
BRANCH   7   8
ATOM      8  C   LIG d   1      -4.501  75.909 115.074  0.00  0.00     0.119 C 
BRANCH   8   9
ATOM      9  C   LIG d   1      -3.968  74.500 115.398  0.00  0.00     0.028 C 
ATOM     10  C   LIG d   1      -4.029  74.180 116.901  0.00  0.00     0.006 C 
ENDBRANCH   8   9
BRANCH   8  11
ATOM     11  C   LIG d   1      -5.750  75.683 114.217  0.00  0.00     0.028 C 
ATOM     12  C   LIG d   1      -7.053  75.770 115.027  0.00  0.00     0.006 C 
ENDBRANCH   8  11
ENDBRANCH   7   8
ENDBRANCH   1   7
BRANCH   6  13
ATOM     13  N   LIG d   1      -1.540  76.931 116.622  0.00  0.00    -0.311 N 
ATOM     14  C   LIG d   1      -0.631  75.998 116.902  0.00  0.00     0.210 C 
ATOM     15  C   LIG d   1      -0.821  75.294 118.249  0.00  0.00     0.109 C 
ATOM     16  O   LIG d   1       0.332  75.709 116.176  0.00  0.00    -0.276 OA
ATOM     17  H   LIG d   1      -2.268  77.123 117.281  0.00  0.00     0.149 HD
ENDBRANCH   6  13
BRANCH   5  18
ATOM     18  N   LIG d   1       0.564  79.008 115.850  0.00  0.00     0.381 N 
ATOM     19  H   LIG d   1       1.013  78.366 115.228  0.00  0.00    -0.090 HD
ATOM     20  H   LIG d   1       0.662  78.660 116.788  0.00  0.00    -0.090 HD
ATOM     21  H   LIG d   1       0.988  79.907 115.775  0.00  0.00    -0.090 HD
ENDBRANCH   5  18
BRANCH   3  22
ATOM     22  C   LIG d   1      -2.692  81.021 112.972  0.00  0.00     0.382 C 
ATOM     23  O   LIG d   1      -1.820  81.756 112.450  0.00  0.00    -0.241 OA
ATOM     24  O   LIG d   1      -3.896  81.315 112.850  0.00  0.00    -0.241 OA
ENDBRANCH   3  22
TORSDOF 7
ENDMDL
MODEL 3
REMARK VINA RESULT:      -4.9      3.786      5.872
REMARK  7 active torsions:
REMARK  status: ('A' for Active; 'I' for Inactive)
REMARK    1  A    between atoms: C_2  and  C_3 
REMARK    2  A    between atoms: C_3  and  O_6 
REMARK    3  A    between atoms: C_3  and  C_4 
REMARK    4  A    between atoms: C_7  and  O_6 
REMARK    5  A    between atoms: C_9  and  C_10 
REMARK    6  A    between atoms: N_15  and  C_14 
REMARK    7  A    between atoms: N_20  and  C_19 
REMARK       I    between atoms: C_22  and  N_20 
ROOT
ATOM      1  C   LIG d   1      -0.732  80.507 112.259  0.00  0.00     0.161 C 
ATOM      2  C   LIG d   1      -1.715  79.514 112.396  0.00  0.00     0.016 C 
ATOM      3  C   LIG d   1      -1.743  78.333 111.618  0.00  0.00     0.038 C 
ATOM      4  C   LIG d   1      -0.695  77.993 110.750  0.00  0.00     0.028 C 
ATOM      5  C   LIG d   1       0.062  79.202 110.210  0.00  0.00    -0.047 C 
ATOM      6  C   LIG d   1       0.481  80.102 111.395  0.00  0.00     0.091 C 
ENDROOT
BRANCH   1   7
ATOM      7  O   LIG d   1      -0.295  80.945 113.561  0.00  0.00    -0.368 OA
BRANCH   7   8
ATOM      8  C   LIG d   1       0.665  80.092 114.231  0.00  0.00     0.119 C 
BRANCH   8   9
ATOM      9  C   LIG d   1       0.061  79.694 115.592  0.00  0.00     0.028 C 
ATOM     10  C   LIG d   1      -0.745  78.386 115.515  0.00  0.00     0.006 C 
ENDBRANCH   8   9
BRANCH   8  11
ATOM     11  C   LIG d   1       1.950  80.856 114.567  0.00  0.00     0.028 C 
ATOM     12  C   LIG d   1       2.294  80.814 116.064  0.00  0.00     0.006 C 
ENDBRANCH   8  11
ENDBRANCH   7   8
ENDBRANCH   1   7
BRANCH   6  13
ATOM     13  N   LIG d   1       1.153  81.350 110.949  0.00  0.00    -0.311 N 
ATOM     14  C   LIG d   1       2.474  81.470 110.834  0.00  0.00     0.210 C 
ATOM     15  C   LIG d   1       2.961  82.850 110.378  0.00  0.00     0.109 C 
ATOM     16  O   LIG d   1       3.288  80.556 111.035  0.00  0.00    -0.276 OA
ATOM     17  H   LIG d   1       0.566  82.132 110.735  0.00  0.00     0.149 HD
ENDBRANCH   6  13
BRANCH   5  18
ATOM     18  N   LIG d   1       1.209  78.699 109.431  0.00  0.00     0.381 N 
ATOM     19  H   LIG d   1       1.567  77.867 109.855  0.00  0.00    -0.090 HD
ATOM     20  H   LIG d   1       1.935  79.394 109.438  0.00  0.00    -0.090 HD
ATOM     21  H   LIG d   1       0.928  78.510 108.494  0.00  0.00    -0.090 HD
ENDBRANCH   5  18
BRANCH   3  22
ATOM     22  C   LIG d   1      -2.847  77.497 111.676  0.00  0.00     0.382 C 
ATOM     23  O   LIG d   1      -3.167  76.955 112.761  0.00  0.00    -0.241 OA
ATOM     24  O   LIG d   1      -3.502  77.243 110.647  0.00  0.00    -0.241 OA
ENDBRANCH   3  22
TORSDOF 7
ENDMDL
MODEL 4
REMARK VINA RESULT:      -4.8      1.254      2.166
REMARK  7 active torsions:
REMARK  status: ('A' for Active; 'I' for Inactive)
REMARK    1  A    between atoms: C_2  and  C_3 
REMARK    2  A    between atoms: C_3  and  O_6 
REMARK    3  A    between atoms: C_3  and  C_4 
REMARK    4  A    between atoms: C_7  and  O_6 
REMARK    5  A    between atoms: C_9  and  C_10 
REMARK    6  A    between atoms: N_15  and  C_14 
REMARK    7  A    between atoms: N_20  and  C_19 
REMARK       I    between atoms: C_22  and  N_20 
ROOT
ATOM      1  C   LIG d   1      -1.784  78.353 115.294  0.00  0.00     0.161 C 
ATOM      2  C   LIG d   1      -2.312  79.546 114.771  0.00  0.00     0.016 C 
ATOM      3  C   LIG d   1      -2.457  79.792 113.387  0.00  0.00     0.038 C 
ATOM      4  C   LIG d   1      -2.223  78.795 112.428  0.00  0.00     0.028 C 
ATOM      5  C   LIG d   1      -1.211  77.747 112.878  0.00  0.00    -0.047 C 
ATOM      6  C   LIG d   1      -1.627  77.212 114.267  0.00  0.00     0.091 C 
ENDROOT
BRANCH   1   7
ATOM      7  O   LIG d   1      -2.580  77.915 116.412  0.00  0.00    -0.368 OA
BRANCH   7   8
ATOM      8  C   LIG d   1      -1.946  77.986 117.713  0.00  0.00     0.119 C 
BRANCH   8   9
ATOM      9  C   LIG d   1      -2.443  76.783 118.537  0.00  0.00     0.028 C 
ATOM     10  C   LIG d   1      -3.597  76.036 117.847  0.00  0.00     0.006 C 
ENDBRANCH   8   9
BRANCH   8  11
ATOM     11  C   LIG d   1      -2.403  79.225 118.489  0.00  0.00     0.028 C 
ATOM     12  C   LIG d   1      -1.273  80.243 118.706  0.00  0.00     0.006 C 
ENDBRANCH   8  11
ENDBRANCH   7   8
ENDBRANCH   1   7
BRANCH   6  13
ATOM     13  N   LIG d   1      -0.644  76.243 114.819  0.00  0.00    -0.311 N 
ATOM     14  C   LIG d   1      -0.967  75.008 115.201  0.00  0.00     0.210 C 
ATOM     15  C   LIG d   1       0.194  74.180 115.760  0.00  0.00     0.109 C 
ATOM     16  O   LIG d   1      -2.098  74.510 115.100  0.00  0.00    -0.276 OA
ATOM     17  H   LIG d   1       0.303  76.554 114.907  0.00  0.00     0.149 HD
ENDBRANCH   6  13
BRANCH   5  18
ATOM     18  N   LIG d   1      -1.166  76.697 111.843  0.00  0.00     0.381 N 
ATOM     19  H   LIG d   1      -0.248  76.301 111.802  0.00  0.00    -0.090 HD
ATOM     20  H   LIG d   1      -1.371  77.111 110.951  0.00  0.00    -0.090 HD
ATOM     21  H   LIG d   1      -1.833  75.987 112.049  0.00  0.00    -0.090 HD
ENDBRANCH   5  18
BRANCH   3  22
ATOM     22  C   LIG d   1      -2.803  81.061 112.947  0.00  0.00     0.382 C 
ATOM     23  O   LIG d   1      -4.007  81.346 112.741  0.00  0.00    -0.241 OA
ATOM     24  O   LIG d   1      -1.922  81.909 112.711  0.00  0.00    -0.241 OA
ENDBRANCH   3  22
TORSDOF 7
ENDMDL
MODEL 5
REMARK VINA RESULT:      -4.7      3.175      5.744
REMARK  7 active torsions:
REMARK  status: ('A' for Active; 'I' for Inactive)
REMARK    1  A    between atoms: C_2  and  C_3 
REMARK    2  A    between atoms: C_3  and  O_6 
REMARK    3  A    between atoms: C_3  and  C_4 
REMARK    4  A    between atoms: C_7  and  O_6 
REMARK    5  A    between atoms: C_9  and  C_10 
REMARK    6  A    between atoms: N_15  and  C_14 
REMARK    7  A    between atoms: N_20  and  C_19 
REMARK       I    between atoms: C_22  and  N_20 
ROOT
ATOM      1  C   LIG d   1      -0.699  79.765 113.347  0.00  0.00     0.161 C 
ATOM      2  C   LIG d   1      -1.717  79.239 112.535  0.00  0.00     0.016 C 
ATOM      3  C   LIG d   1      -2.638  78.262 112.976  0.00  0.00     0.038 C 
ATOM      4  C   LIG d   1      -2.698  77.852 114.317  0.00  0.00     0.028 C 
ATOM      5  C   LIG d   1      -1.367  77.981 115.050  0.00  0.00    -0.047 C 
ATOM      6  C   LIG d   1      -0.818  79.412 114.844  0.00  0.00     0.091 C 
ENDROOT
BRANCH   1   7
ATOM      7  O   LIG d   1      -0.625  81.194 113.174  0.00  0.00    -0.368 OA
BRANCH   7   8
ATOM      8  C   LIG d   1       0.209  81.662 112.085  0.00  0.00     0.119 C 
BRANCH   8   9
ATOM      9  C   LIG d   1       1.624  81.095 112.308  0.00  0.00     0.028 C 
ATOM     10  C   LIG d   1       2.192  80.422 111.047  0.00  0.00     0.006 C 
ENDBRANCH   8   9
BRANCH   8  11
ATOM     11  C   LIG d   1       0.371  83.184 112.122  0.00  0.00     0.028 C 
ATOM     12  C   LIG d   1      -0.370  83.891 110.975  0.00  0.00     0.006 C 
ENDBRANCH   8  11
ENDBRANCH   7   8
ENDBRANCH   1   7
BRANCH   6  13
ATOM     13  N   LIG d   1       0.522  79.598 115.459  0.00  0.00    -0.311 N 
ATOM     14  C   LIG d   1       0.706  80.100 116.679  0.00  0.00     0.210 C 
ATOM     15  C   LIG d   1       2.170  80.226 117.112  0.00  0.00     0.109 C 
ATOM     16  O   LIG d   1      -0.206  80.422 117.455  0.00  0.00    -0.276 OA
ATOM     17  H   LIG d   1       1.316  79.333 114.910  0.00  0.00     0.149 HD
ENDBRANCH   6  13
BRANCH   5  18
ATOM     18  N   LIG d   1      -1.606  77.652 116.468  0.00  0.00     0.381 N 
ATOM     19  H   LIG d   1      -0.764  77.302 116.880  0.00  0.00    -0.090 HD
ATOM     20  H   LIG d   1      -2.306  76.933 116.521  0.00  0.00    -0.090 HD
ATOM     21  H   LIG d   1      -1.913  78.463 116.959  0.00  0.00    -0.090 HD
ENDBRANCH   5  18
BRANCH   3  22
ATOM     22  C   LIG d   1      -3.487  77.655 112.063  0.00  0.00     0.382 C 
ATOM     23  O   LIG d   1      -3.058  77.326 110.931  0.00  0.00    -0.241 OA
ATOM     24  O   LIG d   1      -4.687  77.471 112.341  0.00  0.00    -0.241 OA
ENDBRANCH   3  22
TORSDOF 7
ENDMDL
MODEL 6
REMARK VINA RESULT:      -4.6      3.352      5.522
REMARK  7 active torsions:
REMARK  status: ('A' for Active; 'I' for Inactive)
REMARK    1  A    between atoms: C_2  and  C_3 
REMARK    2  A    between atoms: C_3  and  O_6 
REMARK    3  A    between atoms: C_3  and  C_4 
REMARK    4  A    between atoms: C_7  and  O_6 
REMARK    5  A    between atoms: C_9  and  C_10 
REMARK    6  A    between atoms: N_15  and  C_14 
REMARK    7  A    between atoms: N_20  and  C_19 
REMARK       I    between atoms: C_22  and  N_20 
ROOT
ATOM      1  C   LIG d   1      -1.395  80.373 112.912  0.00  0.00     0.161 C 
ATOM      2  C   LIG d   1      -1.804  79.087 112.519  0.00  0.00     0.016 C 
ATOM      3  C   LIG d   1      -1.161  78.343 111.503  0.00  0.00     0.038 C 
ATOM      4  C   LIG d   1       0.035  78.775 110.911  0.00  0.00     0.028 C 
ATOM      5  C   LIG d   1       0.201  80.291 110.918  0.00  0.00    -0.047 C 
ATOM      6  C   LIG d   1      -0.025  80.814 112.355  0.00  0.00     0.091 C 
ENDROOT
BRANCH   1   7
ATOM      7  O   LIG d   1      -1.407  80.471 114.350  0.00  0.00    -0.368 OA
BRANCH   7   8
ATOM      8  C   LIG d   1      -1.055  79.267 115.074  0.00  0.00     0.119 C 
BRANCH   8   9
ATOM      9  C   LIG d   1      -2.121  79.054 116.165  0.00  0.00     0.028 C 
ATOM     10  C   LIG d   1      -3.238  78.096 115.716  0.00  0.00     0.006 C 
ENDBRANCH   8   9
BRANCH   8  11
ATOM     11  C   LIG d   1       0.268  79.436 115.827  0.00  0.00     0.028 C 
ATOM     12  C   LIG d   1       0.069  79.729 117.323  0.00  0.00     0.006 C 
ENDBRANCH   8  11
ENDBRANCH   7   8
ENDBRANCH   1   7
BRANCH   6  13
ATOM     13  N   LIG d   1       0.036  82.297 112.434  0.00  0.00    -0.311 N 
ATOM     14  C   LIG d   1       1.156  82.972 112.683  0.00  0.00     0.210 C 
ATOM     15  C   LIG d   1       0.994  84.495 112.742  0.00  0.00     0.109 C 
ATOM     16  O   LIG d   1       2.275  82.457 112.830  0.00  0.00    -0.276 OA
ATOM     17  H   LIG d   1      -0.821  82.797 112.297  0.00  0.00     0.149 HD
ENDBRANCH   6  13
BRANCH   5  18
ATOM     18  N   LIG d   1       1.548  80.594 110.398  0.00  0.00     0.381 N 
ATOM     19  H   LIG d   1       1.744  80.015 109.606  0.00  0.00    -0.090 HD
ATOM     20  H   LIG d   1       2.226  80.391 111.112  0.00  0.00    -0.090 HD
ATOM     21  H   LIG d   1       1.605  81.554 110.139  0.00  0.00    -0.090 HD
ENDBRANCH   5  18
BRANCH   3  22
ATOM     22  C   LIG d   1      -1.738  77.170 111.042  0.00  0.00     0.382 C 
ATOM     23  O   LIG d   1      -1.034  76.141 110.894  0.00  0.00    -0.241 OA
ATOM     24  O   LIG d   1      -2.943  77.139 110.729  0.00  0.00    -0.241 OA
ENDBRANCH   3  22
TORSDOF 7
ENDMDL
MODEL 7
REMARK VINA RESULT:      -4.6      2.919      4.617
REMARK  7 active torsions:
REMARK  status: ('A' for Active; 'I' for Inactive)
REMARK    1  A    between atoms: C_2  and  C_3 
REMARK    2  A    between atoms: C_3  and  O_6 
REMARK    3  A    between atoms: C_3  and  C_4 
REMARK    4  A    between atoms: C_7  and  O_6 
REMARK    5  A    between atoms: C_9  and  C_10 
REMARK    6  A    between atoms: N_15  and  C_14 
REMARK    7  A    between atoms: N_20  and  C_19 
REMARK       I    between atoms: C_22  and  N_20 
ROOT
ATOM      1  C   LIG d   1      -1.278  79.877 114.351  0.00  0.00     0.161 C 
ATOM      2  C   LIG d   1      -2.215  78.830 114.331  0.00  0.00     0.016 C 
ATOM      3  C   LIG d   1      -2.496  78.059 113.179  0.00  0.00     0.038 C 
ATOM      4  C   LIG d   1      -1.744  78.185 112.002  0.00  0.00     0.028 C 
ATOM      5  C   LIG d   1      -1.132  79.570 111.819  0.00  0.00    -0.047 C 
ATOM      6  C   LIG d   1      -0.369  79.955 113.107  0.00  0.00     0.091 C 
ENDROOT
BRANCH   1   7
ATOM      7  O   LIG d   1      -0.481  79.795 115.550  0.00  0.00    -0.368 OA
BRANCH   7   8
ATOM      8  C   LIG d   1      -1.000  78.948 116.604  0.00  0.00     0.119 C 
BRANCH   8   9
ATOM      9  C   LIG d   1      -1.198  79.831 117.852  0.00  0.00     0.028 C 
ATOM     10  C   LIG d   1      -2.473  79.467 118.631  0.00  0.00     0.006 C 
ENDBRANCH   8   9
BRANCH   8  11
ATOM     11  C   LIG d   1       0.022  77.885 117.018  0.00  0.00     0.028 C 
ATOM     12  C   LIG d   1      -0.314  76.490 116.467  0.00  0.00     0.006 C 
ENDBRANCH   8  11
ENDBRANCH   7   8
ENDBRANCH   1   7
BRANCH   6  13
ATOM     13  N   LIG d   1       0.190  81.331 113.045  0.00  0.00    -0.311 N 
ATOM     14  C   LIG d   1       1.440  81.598 112.670  0.00  0.00     0.210 C 
ATOM     15  C   LIG d   1       1.819  83.082 112.696  0.00  0.00     0.109 C 
ATOM     16  O   LIG d   1       2.260  80.750 112.289  0.00  0.00    -0.276 OA
ATOM     17  H   LIG d   1      -0.418  82.083 113.307  0.00  0.00     0.149 HD
ENDBRANCH   6  13
BRANCH   5  18
ATOM     18  N   LIG d   1      -0.265  79.520 110.626  0.00  0.00     0.381 N 
ATOM     19  H   LIG d   1      -0.083  80.449 110.301  0.00  0.00    -0.090 HD
ATOM     20  H   LIG d   1      -0.743  79.020 109.898  0.00  0.00    -0.090 HD
ATOM     21  H   LIG d   1       0.592  79.063 110.847  0.00  0.00    -0.090 HD
ENDBRANCH   5  18
BRANCH   3  22
ATOM     22  C   LIG d   1      -3.566  77.177 113.187  0.00  0.00     0.382 C 
ATOM     23  O   LIG d   1      -3.526  76.149 113.905  0.00  0.00    -0.241 OA
ATOM     24  O   LIG d   1      -4.552  77.374 112.451  0.00  0.00    -0.241 OA
ENDBRANCH   3  22
TORSDOF 7
ENDMDL
MODEL 8
REMARK VINA RESULT:      -4.5      1.456      2.294
REMARK  7 active torsions:
REMARK  status: ('A' for Active; 'I' for Inactive)
REMARK    1  A    between atoms: C_2  and  C_3 
REMARK    2  A    between atoms: C_3  and  O_6 
REMARK    3  A    between atoms: C_3  and  C_4 
REMARK    4  A    between atoms: C_7  and  O_6 
REMARK    5  A    between atoms: C_9  and  C_10 
REMARK    6  A    between atoms: N_15  and  C_14 
REMARK    7  A    between atoms: N_20  and  C_19 
REMARK       I    between atoms: C_22  and  N_20 
ROOT
ATOM      1  C   LIG d   1      -3.204  78.432 115.861  0.00  0.00     0.161 C 
ATOM      2  C   LIG d   1      -3.308  79.604 115.092  0.00  0.00     0.016 C 
ATOM      3  C   LIG d   1      -2.705  79.757 113.823  0.00  0.00     0.038 C 
ATOM      4  C   LIG d   1      -2.079  78.688 113.165  0.00  0.00     0.028 C 
ATOM      5  C   LIG d   1      -1.515  77.638 114.117  0.00  0.00    -0.047 C 
ATOM      6  C   LIG d   1      -2.620  77.217 115.112  0.00  0.00     0.091 C 
ENDROOT
BRANCH   1   7
ATOM      7  O   LIG d   1      -4.489  78.103 116.425  0.00  0.00    -0.368 OA
BRANCH   7   8
ATOM      8  C   LIG d   1      -4.563  78.077 117.872  0.00  0.00     0.119 C 
BRANCH   8   9
ATOM      9  C   LIG d   1      -5.686  77.097 118.261  0.00  0.00     0.028 C 
ATOM     10  C   LIG d   1      -6.101  76.186 117.093  0.00  0.00     0.006 C 
ENDBRANCH   8   9
BRANCH   8  11
ATOM     11  C   LIG d   1      -4.997  79.435 118.432  0.00  0.00     0.028 C 
ATOM     12  C   LIG d   1      -6.314  79.938 117.819  0.00  0.00     0.006 C 
ENDBRANCH   8  11
ENDBRANCH   7   8
ENDBRANCH   1   7
BRANCH   6  13
ATOM     13  N   LIG d   1      -2.127  76.254 116.131  0.00  0.00    -0.311 N 
ATOM     14  C   LIG d   1      -2.561  74.999 116.225  0.00  0.00     0.210 C 
ATOM     15  C   LIG d   1      -1.937  74.181 117.360  0.00  0.00     0.109 C 
ATOM     16  O   LIG d   1      -3.381  74.475 115.455  0.00  0.00    -0.276 OA
ATOM     17  H   LIG d   1      -1.438  76.587 116.777  0.00  0.00     0.149 HD
ENDBRANCH   6  13
BRANCH   5  18
ATOM     18  N   LIG d   1      -1.015  76.517 113.298  0.00  0.00     0.381 N 
ATOM     19  H   LIG d   1      -0.573  76.871 112.473  0.00  0.00    -0.090 HD
ATOM     20  H   LIG d   1      -1.794  75.947 113.018  0.00  0.00    -0.090 HD
ATOM     21  H   LIG d   1      -0.367  75.973 113.824  0.00  0.00    -0.090 HD
ENDBRANCH   5  18
BRANCH   3  22
ATOM     22  C   LIG d   1      -2.690  81.004 113.215  0.00  0.00     0.382 C 
ATOM     23  O   LIG d   1      -1.629  81.442 112.709  0.00  0.00    -0.241 OA
ATOM     24  O   LIG d   1      -3.713  81.714 113.206  0.00  0.00    -0.241 OA
ENDBRANCH   3  22
TORSDOF 7
ENDMDL
MODEL 9
REMARK VINA RESULT:      -4.5      2.713      5.935
REMARK  7 active torsions:
REMARK  status: ('A' for Active; 'I' for Inactive)
REMARK    1  A    between atoms: C_2  and  C_3 
REMARK    2  A    between atoms: C_3  and  O_6 
REMARK    3  A    between atoms: C_3  and  C_4 
REMARK    4  A    between atoms: C_7  and  O_6 
REMARK    5  A    between atoms: C_9  and  C_10 
REMARK    6  A    between atoms: N_15  and  C_14 
REMARK    7  A    between atoms: N_20  and  C_19 
REMARK       I    between atoms: C_22  and  N_20 
ROOT
ATOM      1  C   LIG d   1      -1.685  78.105 112.818  0.00  0.00     0.161 C 
ATOM      2  C   LIG d   1      -2.765  77.264 113.133  0.00  0.00     0.016 C 
ATOM      3  C   LIG d   1      -3.380  77.230 114.405  0.00  0.00     0.038 C 
ATOM      4  C   LIG d   1      -3.053  78.151 115.411  0.00  0.00     0.028 C 
ATOM      5  C   LIG d   1      -1.627  78.682 115.307  0.00  0.00    -0.047 C 
ATOM      6  C   LIG d   1      -1.387  79.195 113.869  0.00  0.00     0.091 C 
ENDROOT
BRANCH   1   7
ATOM      7  O   LIG d   1      -1.892  78.702 111.522  0.00  0.00    -0.368 OA
BRANCH   7   8
ATOM      8  C   LIG d   1      -1.107  78.153 110.435  0.00  0.00     0.119 C 
BRANCH   8   9
ATOM      9  C   LIG d   1      -0.028  77.245 111.056  0.00  0.00     0.028 C 
ATOM     10  C   LIG d   1      -0.262  75.757 110.742  0.00  0.00     0.006 C 
ENDBRANCH   8   9
BRANCH   8  11
ATOM     11  C   LIG d   1      -0.337  79.250 109.695  0.00  0.00     0.028 C 
ATOM     12  C   LIG d   1       1.187  79.082 109.799  0.00  0.00     0.006 C 
ENDBRANCH   8  11
ENDBRANCH   7   8
ENDBRANCH   1   7
BRANCH   6  13
ATOM     13  N   LIG d   1       0.010  79.655 113.657  0.00  0.00    -0.311 N 
ATOM     14  C   LIG d   1       0.322  80.796 113.045  0.00  0.00     0.210 C 
ATOM     15  C   LIG d   1       1.823  81.070 112.913  0.00  0.00     0.109 C 
ATOM     16  O   LIG d   1      -0.503  81.623 112.628  0.00  0.00    -0.276 OA
ATOM     17  H   LIG d   1       0.742  79.059 113.992  0.00  0.00     0.149 HD
ENDBRANCH   6  13
BRANCH   5  18
ATOM     18  N   LIG d   1      -1.466  79.731 116.330  0.00  0.00     0.381 N 
ATOM     19  H   LIG d   1      -2.363  80.085 116.598  0.00  0.00    -0.090 HD
ATOM     20  H   LIG d   1      -0.933  80.488 115.939  0.00  0.00    -0.090 HD
ATOM     21  H   LIG d   1      -0.996  79.362 117.127  0.00  0.00    -0.090 HD
ENDBRANCH   5  18
BRANCH   3  22
ATOM     22  C   LIG d   1      -4.308  76.241 114.694  0.00  0.00     0.382 C 
ATOM     23  O   LIG d   1      -5.424  76.549 115.177  0.00  0.00    -0.241 OA
ATOM     24  O   LIG d   1      -4.026  75.040 114.519  0.00  0.00    -0.241 OA
ENDBRANCH   3  22
TORSDOF 7
ENDMDL
