MODEL 1
REMARK VINA RESULT:      -5.3      0.000      0.000
REMARK  7 active torsions:
REMARK  status: ('A' for Active; 'I' for Inactive)
REMARK    1  A    between atoms: C_2  and  C_3 
REMARK    2  A    between atoms: C_3  and  O_6 
REMARK    3  A    between atoms: C_3  and  C_4 
REMARK    4  A    between atoms: C_7  and  O_6 
REMARK    5  A    between atoms: C_9  and  C_10 
REMARK    6  A    between atoms: N_15  and  C_14 
REMARK    7  A    between atoms: N_20  and  C_19 
REMARK       I    between atoms: C_22  and  N_20 
ROOT
ATOM      1  C   LIG d   1      -1.863  75.479 115.202  0.00  0.00     0.161 C 
ATOM      2  C   LIG d   1      -1.724  74.868 116.460  0.00  0.00     0.016 C 
ATOM      3  C   LIG d   1      -0.980  75.433 117.521  0.00  0.00     0.038 C 
ATOM      4  C   LIG d   1      -0.445  76.727 117.445  0.00  0.00     0.028 C 
ATOM      5  C   LIG d   1      -0.131  77.170 116.020  0.00  0.00    -0.047 C 
ATOM      6  C   LIG d   1      -1.379  76.943 115.138  0.00  0.00     0.091 C 
ENDROOT
BRANCH   1   7
ATOM      7  O   LIG d   1      -3.232  75.384 114.761  0.00  0.00    -0.368 OA
BRANCH   7   8
ATOM      8  C   LIG d   1      -4.228  75.237 115.803  0.00  0.00     0.119 C 
BRANCH   8   9
ATOM      9  C   LIG d   1      -5.272  74.219 115.304  0.00  0.00     0.028 C 
ATOM     10  C   LIG d   1      -6.529  74.185 116.190  0.00  0.00     0.006 C 
ENDBRANCH   8   9
BRANCH   8  11
ATOM     11  C   LIG d   1      -5.004  76.540 116.020  0.00  0.00     0.028 C 
ATOM     12  C   LIG d   1      -4.521  77.321 117.252  0.00  0.00     0.006 C 
ENDBRANCH   8  11
ENDBRANCH   7   8
ENDBRANCH   1   7
BRANCH   6  13
ATOM     13  N   LIG d   1      -1.131  77.272 113.710  0.00  0.00    -0.311 N 
ATOM     14  C   LIG d   1      -1.887  78.117 113.010  0.00  0.00     0.210 C 
ATOM     15  C   LIG d   1      -1.469  78.299 111.548  0.00  0.00     0.109 C 
ATOM     16  O   LIG d   1      -2.845  78.757 113.471  0.00  0.00    -0.276 OA
ATOM     17  H   LIG d   1      -0.355  76.822 113.266  0.00  0.00     0.149 HD
ENDBRANCH   6  13
BRANCH   5  18
ATOM     18  N   LIG d   1       0.289  78.583 116.076  0.00  0.00     0.381 N 
ATOM     19  H   LIG d   1      -0.512  79.170 116.199  0.00  0.00    -0.090 HD
ATOM     20  H   LIG d   1       0.727  78.827 115.204  0.00  0.00    -0.090 HD
ATOM     21  H   LIG d   1       0.929  78.720 116.827  0.00  0.00    -0.090 HD
ENDBRANCH   5  18
BRANCH   3  22
ATOM     22  C   LIG d   1      -0.730  74.682 118.660  0.00  0.00     0.382 C 
ATOM     23  O   LIG d   1       0.451  74.468 119.023  0.00  0.00    -0.241 OA
ATOM     24  O   LIG d   1      -1.671  74.180 119.304  0.00  0.00    -0.241 OA
ENDBRANCH   3  22
TORSDOF 7
ENDMDL
MODEL 2
REMARK VINA RESULT:      -5.0      2.380      5.530
REMARK  7 active torsions:
REMARK  status: ('A' for Active; 'I' for Inactive)
REMARK    1  A    between atoms: C_2  and  C_3 
REMARK    2  A    between atoms: C_3  and  O_6 
REMARK    3  A    between atoms: C_3  and  C_4 
REMARK    4  A    between atoms: C_7  and  O_6 
REMARK    5  A    between atoms: C_9  and  C_10 
REMARK    6  A    between atoms: N_15  and  C_14 
REMARK    7  A    between atoms: N_20  and  C_19 
REMARK       I    between atoms: C_22  and  N_20 
ROOT
ATOM      1  C   LIG d   1      -1.598  77.429 114.137  0.00  0.00     0.161 C 
ATOM      2  C   LIG d   1      -2.840  76.993 113.645  0.00  0.00     0.016 C 
ATOM      3  C   LIG d   1      -3.743  76.208 114.399  0.00  0.00     0.038 C 
ATOM      4  C   LIG d   1      -3.529  75.931 115.758  0.00  0.00     0.028 C 
ATOM      5  C   LIG d   1      -2.056  75.923 116.150  0.00  0.00    -0.047 C 
ATOM      6  C   LIG d   1      -1.397  77.230 115.654  0.00  0.00     0.091 C 
ENDROOT
BRANCH   1   7
ATOM      7  O   LIG d   1      -1.389  78.809 113.780  0.00  0.00    -0.368 OA
BRANCH   7   8
ATOM      8  C   LIG d   1      -1.881  79.213 112.478  0.00  0.00     0.119 C 
BRANCH   8   9
ATOM      9  C   LIG d   1      -0.660  79.608 111.624  0.00  0.00     0.028 C 
ATOM     10  C   LIG d   1      -0.812  79.187 110.153  0.00  0.00     0.006 C 
ENDBRANCH   8   9
BRANCH   8  11
ATOM     11  C   LIG d   1      -2.736  80.480 112.573  0.00  0.00     0.028 C 
ATOM     12  C   LIG d   1      -1.899  81.768 112.526  0.00  0.00     0.006 C 
ENDBRANCH   8  11
ENDBRANCH   7   8
ENDBRANCH   1   7
BRANCH   6  13
ATOM     13  N   LIG d   1       0.064  77.266 115.922  0.00  0.00    -0.311 N 
ATOM     14  C   LIG d   1       0.626  78.084 116.811  0.00  0.00     0.210 C 
ATOM     15  C   LIG d   1       2.151  77.973 116.918  0.00  0.00     0.109 C 
ATOM     16  O   LIG d   1       0.004  78.867 117.544  0.00  0.00    -0.276 OA
ATOM     17  H   LIG d   1       0.641  76.641 115.394  0.00  0.00     0.149 HD
ENDBRANCH   6  13
BRANCH   5  18
ATOM     18  N   LIG d   1      -1.985  75.759 117.614  0.00  0.00     0.381 N 
ATOM     19  H   LIG d   1      -1.767  76.637 118.043  0.00  0.00    -0.090 HD
ATOM     20  H   LIG d   1      -1.251  75.109 117.834  0.00  0.00    -0.090 HD
ATOM     21  H   LIG d   1      -2.855  75.419 117.962  0.00  0.00    -0.090 HD
ENDBRANCH   5  18
BRANCH   3  22
ATOM     22  C   LIG d   1      -4.856  75.657 113.782  0.00  0.00     0.382 C 
ATOM     23  O   LIG d   1      -5.791  76.400 113.397  0.00  0.00    -0.241 OA
ATOM     24  O   LIG d   1      -4.956  74.423 113.645  0.00  0.00    -0.241 OA
ENDBRANCH   3  22
TORSDOF 7
ENDMDL
MODEL 3
REMARK VINA RESULT:      -5.0      1.880      4.829
REMARK  7 active torsions:
REMARK  status: ('A' for Active; 'I' for Inactive)
REMARK    1  A    between atoms: C_2  and  C_3 
REMARK    2  A    between atoms: C_3  and  O_6 
REMARK    3  A    between atoms: C_3  and  C_4 
REMARK    4  A    between atoms: C_7  and  O_6 
REMARK    5  A    between atoms: C_9  and  C_10 
REMARK    6  A    between atoms: N_15  and  C_14 
REMARK    7  A    between atoms: N_20  and  C_19 
REMARK       I    between atoms: C_22  and  N_20 
ROOT
ATOM      1  C   LIG d   1      -2.605  76.581 116.000  0.00  0.00     0.161 C 
ATOM      2  C   LIG d   1      -3.071  77.482 115.028  0.00  0.00     0.016 C 
ATOM      3  C   LIG d   1      -2.467  77.639 113.759  0.00  0.00     0.038 C 
ATOM      4  C   LIG d   1      -1.440  76.792 113.317  0.00  0.00     0.028 C 
ATOM      5  C   LIG d   1      -0.607  76.206 114.453  0.00  0.00    -0.047 C 
ATOM      6  C   LIG d   1      -1.555  75.570 115.495  0.00  0.00     0.091 C 
ENDROOT
BRANCH   1   7
ATOM      7  O   LIG d   1      -3.719  75.890 116.599  0.00  0.00    -0.368 OA
BRANCH   7   8
ATOM      8  C   LIG d   1      -5.024  76.180 116.041  0.00  0.00     0.119 C 
BRANCH   8   9
ATOM      9  C   LIG d   1      -5.913  76.699 117.188  0.00  0.00     0.028 C 
ATOM     10  C   LIG d   1      -6.053  78.230 117.174  0.00  0.00     0.006 C 
ENDBRANCH   8   9
BRANCH   8  11
ATOM     11  C   LIG d   1      -5.711  74.906 115.539  0.00  0.00     0.028 C 
ATOM     12  C   LIG d   1      -5.048  74.328 114.279  0.00  0.00     0.006 C 
ENDBRANCH   8  11
ENDBRANCH   7   8
ENDBRANCH   1   7
BRANCH   6  13
ATOM     13  N   LIG d   1      -0.826  75.048 116.680  0.00  0.00    -0.311 N 
ATOM     14  C   LIG d   1      -0.179  75.828 117.544  0.00  0.00     0.210 C 
ATOM     15  C   LIG d   1       0.523  75.084 118.685  0.00  0.00     0.109 C 
ATOM     16  O   LIG d   1      -0.146  77.066 117.493  0.00  0.00    -0.276 OA
ATOM     17  H   LIG d   1      -0.827  74.056 116.816  0.00  0.00     0.149 HD
ENDBRANCH   6  13
BRANCH   5  18
ATOM     18  N   LIG d   1       0.335  75.238 113.861  0.00  0.00     0.381 N 
ATOM     19  H   LIG d   1       1.267  75.446 114.159  0.00  0.00    -0.090 HD
ATOM     20  H   LIG d   1       0.299  75.319 112.860  0.00  0.00    -0.090 HD
ATOM     21  H   LIG d   1       0.090  74.312 114.136  0.00  0.00    -0.090 HD
ENDBRANCH   5  18
BRANCH   3  22
ATOM     22  C   LIG d   1      -2.863  78.679 112.933  0.00  0.00     0.382 C 
ATOM     23  O   LIG d   1      -3.020  79.831 113.406  0.00  0.00    -0.241 OA
ATOM     24  O   LIG d   1      -3.110  78.472 111.730  0.00  0.00    -0.241 OA
ENDBRANCH   3  22
TORSDOF 7
ENDMDL
MODEL 4
REMARK VINA RESULT:      -4.8      2.258      4.748
REMARK  7 active torsions:
REMARK  status: ('A' for Active; 'I' for Inactive)
REMARK    1  A    between atoms: C_2  and  C_3 
REMARK    2  A    between atoms: C_3  and  O_6 
REMARK    3  A    between atoms: C_3  and  C_4 
REMARK    4  A    between atoms: C_7  and  O_6 
REMARK    5  A    between atoms: C_9  and  C_10 
REMARK    6  A    between atoms: N_15  and  C_14 
REMARK    7  A    between atoms: N_20  and  C_19 
REMARK       I    between atoms: C_22  and  N_20 
ROOT
ATOM      1  C   LIG d   1      -1.912  77.358 114.452  0.00  0.00     0.161 C 
ATOM      2  C   LIG d   1      -0.732  77.452 115.209  0.00  0.00     0.016 C 
ATOM      3  C   LIG d   1      -0.476  76.660 116.352  0.00  0.00     0.038 C 
ATOM      4  C   LIG d   1      -1.323  75.608 116.729  0.00  0.00     0.028 C 
ATOM      5  C   LIG d   1      -2.770  75.809 116.293  0.00  0.00    -0.047 C 
ATOM      6  C   LIG d   1      -2.798  76.139 114.783  0.00  0.00     0.091 C 
ENDROOT
BRANCH   1   7
ATOM      7  O   LIG d   1      -1.593  77.379 113.046  0.00  0.00    -0.368 OA
BRANCH   7   8
ATOM      8  C   LIG d   1      -1.508  78.688 112.431  0.00  0.00     0.119 C 
BRANCH   8   9
ATOM      9  C   LIG d   1      -2.765  79.477 112.845  0.00  0.00     0.028 C 
ATOM     10  C   LIG d   1      -2.643  80.979 112.537  0.00  0.00     0.006 C 
ENDBRANCH   8   9
BRANCH   8  11
ATOM     11  C   LIG d   1      -1.575  78.591 110.904  0.00  0.00     0.028 C 
ATOM     12  C   LIG d   1      -0.462  79.391 110.207  0.00  0.00     0.006 C 
ENDBRANCH   8  11
ENDBRANCH   7   8
ENDBRANCH   1   7
BRANCH   6  13
ATOM     13  N   LIG d   1      -4.169  76.434 114.292  0.00  0.00    -0.311 N 
ATOM     14  C   LIG d   1      -4.996  75.500 113.823  0.00  0.00     0.210 C 
ATOM     15  C   LIG d   1      -6.357  76.021 113.350  0.00  0.00     0.109 C 
ATOM     16  O   LIG d   1      -4.744  74.287 113.785  0.00  0.00    -0.276 OA
ATOM     17  H   LIG d   1      -4.467  77.389 114.316  0.00  0.00     0.149 HD
ENDBRANCH   6  13
BRANCH   5  18
ATOM     18  N   LIG d   1      -3.512  74.579 116.629  0.00  0.00     0.381 N 
ATOM     19  H   LIG d   1      -2.879  73.884 116.971  0.00  0.00    -0.090 HD
ATOM     20  H   LIG d   1      -3.948  74.224 115.796  0.00  0.00    -0.090 HD
ATOM     21  H   LIG d   1      -4.205  74.775 117.317  0.00  0.00    -0.090 HD
ENDBRANCH   5  18
BRANCH   3  22
ATOM     22  C   LIG d   1       0.619  76.945 117.154  0.00  0.00     0.382 C 
ATOM     23  O   LIG d   1       1.397  77.880 116.844  0.00  0.00    -0.241 OA
ATOM     24  O   LIG d   1       0.863  76.251 118.158  0.00  0.00    -0.241 OA
ENDBRANCH   3  22
TORSDOF 7
ENDMDL
MODEL 5
REMARK VINA RESULT:      -4.6      2.469      6.191
REMARK  7 active torsions:
REMARK  status: ('A' for Active; 'I' for Inactive)
REMARK    1  A    between atoms: C_2  and  C_3 
REMARK    2  A    between atoms: C_3  and  O_6 
REMARK    3  A    between atoms: C_3  and  C_4 
REMARK    4  A    between atoms: C_7  and  O_6 
REMARK    5  A    between atoms: C_9  and  C_10 
REMARK    6  A    between atoms: N_15  and  C_14 
REMARK    7  A    between atoms: N_20  and  C_19 
REMARK       I    between atoms: C_22  and  N_20 
ROOT
ATOM      1  C   LIG d   1      -1.249  76.655 115.856  0.00  0.00     0.161 C 
ATOM      2  C   LIG d   1      -1.518  77.186 114.584  0.00  0.00     0.016 C 
ATOM      3  C   LIG d   1      -2.677  76.871 113.838  0.00  0.00     0.038 C 
ATOM      4  C   LIG d   1      -3.727  76.117 114.383  0.00  0.00     0.028 C 
ATOM      5  C   LIG d   1      -3.275  75.147 115.470  0.00  0.00    -0.047 C 
ATOM      6  C   LIG d   1      -2.435  75.918 116.513  0.00  0.00     0.091 C 
ENDROOT
BRANCH   1   7
ATOM      7  O   LIG d   1      -0.762  77.695 116.727  0.00  0.00    -0.368 OA
BRANCH   7   8
ATOM      8  C   LIG d   1       0.658  77.671 117.017  0.00  0.00     0.119 C 
BRANCH   8   9
ATOM      9  C   LIG d   1       0.819  77.337 118.513  0.00  0.00     0.028 C 
ATOM     10  C   LIG d   1       1.704  76.102 118.746  0.00  0.00     0.006 C 
ENDBRANCH   8   9
BRANCH   8  11
ATOM     11  C   LIG d   1       1.286  79.056 116.840  0.00  0.00     0.028 C 
ATOM     12  C   LIG d   1       2.809  78.998 116.638  0.00  0.00     0.006 C 
ENDBRANCH   8  11
ENDBRANCH   7   8
ENDBRANCH   1   7
BRANCH   6  13
ATOM     13  N   LIG d   1      -1.883  75.027 117.567  0.00  0.00    -0.311 N 
ATOM     14  C   LIG d   1      -2.055  75.239 118.870  0.00  0.00     0.210 C 
ATOM     15  C   LIG d   1      -1.385  74.210 119.787  0.00  0.00     0.109 C 
ATOM     16  O   LIG d   1      -2.725  76.164 119.354  0.00  0.00    -0.276 OA
ATOM     17  H   LIG d   1      -1.351  74.235 117.262  0.00  0.00     0.149 HD
ENDBRANCH   6  13
BRANCH   5  18
ATOM     18  N   LIG d   1      -4.484  74.527 116.044  0.00  0.00     0.381 N 
ATOM     19  H   LIG d   1      -4.226  73.740 116.606  0.00  0.00    -0.090 HD
ATOM     20  H   LIG d   1      -5.070  74.202 115.296  0.00  0.00    -0.090 HD
ATOM     21  H   LIG d   1      -4.978  75.192 116.598  0.00  0.00    -0.090 HD
ENDBRANCH   5  18
BRANCH   3  22
ATOM     22  C   LIG d   1      -2.777  77.281 112.517  0.00  0.00     0.382 C 
ATOM     23  O   LIG d   1      -1.961  76.853 111.665  0.00  0.00    -0.241 OA
ATOM     24  O   LIG d   1      -3.645  78.106 112.176  0.00  0.00    -0.241 OA
ENDBRANCH   3  22
TORSDOF 7
ENDMDL
MODEL 6
REMARK VINA RESULT:      -4.6      4.857      8.600
REMARK  7 active torsions:
REMARK  status: ('A' for Active; 'I' for Inactive)
REMARK    1  A    between atoms: C_2  and  C_3 
REMARK    2  A    between atoms: C_3  and  O_6 
REMARK    3  A    between atoms: C_3  and  C_4 
REMARK    4  A    between atoms: C_7  and  O_6 
REMARK    5  A    between atoms: C_9  and  C_10 
REMARK    6  A    between atoms: N_15  and  C_14 
REMARK    7  A    between atoms: N_20  and  C_19 
REMARK       I    between atoms: C_22  and  N_20 
ROOT
ATOM      1  C   LIG d   1       0.836  81.028 112.900  0.00  0.00     0.161 C 
ATOM      2  C   LIG d   1       1.603  81.830 112.039  0.00  0.00     0.016 C 
ATOM      3  C   LIG d   1       1.473  81.806 110.631  0.00  0.00     0.038 C 
ATOM      4  C   LIG d   1       0.453  81.084 109.993  0.00  0.00     0.028 C 
ATOM      5  C   LIG d   1      -0.018  79.871 110.788  0.00  0.00    -0.047 C 
ATOM      6  C   LIG d   1      -0.357  80.316 112.229  0.00  0.00     0.091 C 
ENDROOT
BRANCH   1   7
ATOM      7  O   LIG d   1       0.386  81.811 114.024  0.00  0.00    -0.368 OA
BRANCH   7   8
ATOM      8  C   LIG d   1       1.176  82.983 114.342  0.00  0.00     0.119 C 
BRANCH   8   9
ATOM      9  C   LIG d   1       1.657  82.835 115.799  0.00  0.00     0.028 C 
ATOM     10  C   LIG d   1       1.961  81.374 116.170  0.00  0.00     0.006 C 
ENDBRANCH   8   9
BRANCH   8  11
ATOM     11  C   LIG d   1       0.321  84.253 114.325  0.00  0.00     0.028 C 
ATOM     12  C   LIG d   1      -0.371  84.488 112.972  0.00  0.00     0.006 C 
ENDBRANCH   8  11
ENDBRANCH   7   8
ENDBRANCH   1   7
BRANCH   6  13
ATOM     13  N   LIG d   1      -0.746  79.176 113.098  0.00  0.00    -0.311 N 
ATOM     14  C   LIG d   1      -1.977  78.666 113.132  0.00  0.00     0.210 C 
ATOM     15  C   LIG d   1      -2.169  77.505 114.113  0.00  0.00     0.109 C 
ATOM     16  O   LIG d   1      -2.918  79.044 112.419  0.00  0.00    -0.276 OA
ATOM     17  H   LIG d   1      -0.036  78.787 113.687  0.00  0.00     0.149 HD
ENDBRANCH   6  13
BRANCH   5  18
ATOM     18  N   LIG d   1      -1.173  79.292 110.076  0.00  0.00     0.381 N 
ATOM     19  H   LIG d   1      -1.717  78.738 110.706  0.00  0.00    -0.090 HD
ATOM     20  H   LIG d   1      -0.835  78.694 109.342  0.00  0.00    -0.090 HD
ATOM     21  H   LIG d   1      -1.734  80.019 109.690  0.00  0.00    -0.090 HD
ENDBRANCH   5  18
BRANCH   3  22
ATOM     22  C   LIG d   1       2.394  82.480 109.844  0.00  0.00     0.382 C 
ATOM     23  O   LIG d   1       2.178  83.668 109.504  0.00  0.00    -0.241 OA
ATOM     24  O   LIG d   1       3.417  81.900 109.432  0.00  0.00    -0.241 OA
ENDBRANCH   3  22
TORSDOF 7
ENDMDL
MODEL 7
REMARK VINA RESULT:      -4.4      2.877      5.118
REMARK  7 active torsions:
REMARK  status: ('A' for Active; 'I' for Inactive)
REMARK    1  A    between atoms: C_2  and  C_3 
REMARK    2  A    between atoms: C_3  and  O_6 
REMARK    3  A    between atoms: C_3  and  C_4 
REMARK    4  A    between atoms: C_7  and  O_6 
REMARK    5  A    between atoms: C_9  and  C_10 
REMARK    6  A    between atoms: N_15  and  C_14 
REMARK    7  A    between atoms: N_20  and  C_19 
REMARK       I    between atoms: C_22  and  N_20 
ROOT
ATOM      1  C   LIG d   1      -2.061  78.414 114.107  0.00  0.00     0.161 C 
ATOM      2  C   LIG d   1      -3.116  77.488 114.046  0.00  0.00     0.016 C 
ATOM      3  C   LIG d   1      -3.649  76.994 112.833  0.00  0.00     0.038 C 
ATOM      4  C   LIG d   1      -3.058  77.280 111.593  0.00  0.00     0.028 C 
ATOM      5  C   LIG d   1      -2.308  78.607 111.571  0.00  0.00    -0.047 C 
ATOM      6  C   LIG d   1      -1.331  78.652 112.768  0.00  0.00     0.091 C 
ENDROOT
BRANCH   1   7
ATOM      7  O   LIG d   1      -1.122  78.018 115.126  0.00  0.00    -0.368 OA
BRANCH   7   8
ATOM      8  C   LIG d   1      -1.580  77.006 116.056  0.00  0.00     0.119 C 
BRANCH   8   9
ATOM      9  C   LIG d   1      -1.524  77.617 117.470  0.00  0.00     0.028 C 
ATOM     10  C   LIG d   1      -2.276  76.766 118.507  0.00  0.00     0.006 C 
ENDBRANCH   8   9
BRANCH   8  11
ATOM     11  C   LIG d   1      -0.623  75.810 116.093  0.00  0.00     0.028 C 
ATOM     12  C   LIG d   1      -1.279  74.507 115.609  0.00  0.00     0.006 C 
ENDBRANCH   8  11
ENDBRANCH   7   8
ENDBRANCH   1   7
BRANCH   6  13
ATOM     13  N   LIG d   1      -0.618  79.952 112.870  0.00  0.00    -0.311 N 
ATOM     14  C   LIG d   1      -1.149  81.111 112.486  0.00  0.00     0.210 C 
ATOM     15  C   LIG d   1      -0.236  82.329 112.658  0.00  0.00     0.109 C 
ATOM     16  O   LIG d   1      -2.301  81.251 112.050  0.00  0.00    -0.276 OA
ATOM     17  H   LIG d   1       0.311  79.934 113.242  0.00  0.00     0.149 HD
ENDBRANCH   6  13
BRANCH   5  18
ATOM     18  N   LIG d   1      -1.628  78.713 110.266  0.00  0.00     0.381 N 
ATOM     19  H   LIG d   1      -0.789  79.250 110.364  0.00  0.00    -0.090 HD
ATOM     20  H   LIG d   1      -2.234  79.189 109.621  0.00  0.00    -0.090 HD
ATOM     21  H   LIG d   1      -1.411  77.805 109.920  0.00  0.00    -0.090 HD
ENDBRANCH   5  18
BRANCH   3  22
ATOM     22  C   LIG d   1      -4.809  76.236 112.850  0.00  0.00     0.382 C 
ATOM     23  O   LIG d   1      -4.848  75.164 113.501  0.00  0.00    -0.241 OA
ATOM     24  O   LIG d   1      -5.804  76.588 112.188  0.00  0.00    -0.241 OA
ENDBRANCH   3  22
TORSDOF 7
ENDMDL
MODEL 8
REMARK VINA RESULT:      -4.2      2.660      5.570
REMARK  7 active torsions:
REMARK  status: ('A' for Active; 'I' for Inactive)
REMARK    1  A    between atoms: C_2  and  C_3 
REMARK    2  A    between atoms: C_3  and  O_6 
REMARK    3  A    between atoms: C_3  and  C_4 
REMARK    4  A    between atoms: C_7  and  O_6 
REMARK    5  A    between atoms: C_9  and  C_10 
REMARK    6  A    between atoms: N_15  and  C_14 
REMARK    7  A    between atoms: N_20  and  C_19 
REMARK       I    between atoms: C_22  and  N_20 
ROOT
ATOM      1  C   LIG d   1      -2.050  77.706 114.151  0.00  0.00     0.161 C 
ATOM      2  C   LIG d   1      -1.249  78.754 113.666  0.00  0.00     0.016 C 
ATOM      3  C   LIG d   1      -1.350  79.264 112.351  0.00  0.00     0.038 C 
ATOM      4  C   LIG d   1      -2.368  78.861 111.475  0.00  0.00     0.028 C 
ATOM      5  C   LIG d   1      -2.879  77.450 111.748  0.00  0.00    -0.047 C 
ATOM      6  C   LIG d   1      -3.241  77.329 113.246  0.00  0.00     0.091 C 
ENDROOT
BRANCH   1   7
ATOM      7  O   LIG d   1      -2.510  78.019 115.481  0.00  0.00    -0.368 OA
BRANCH   7   8
ATOM      8  C   LIG d   1      -1.923  77.248 116.557  0.00  0.00     0.119 C 
BRANCH   8   9
ATOM      9  C   LIG d   1      -1.210  76.038 115.923  0.00  0.00     0.028 C 
ATOM     10  C   LIG d   1      -1.093  74.850 116.894  0.00  0.00     0.006 C 
ENDBRANCH   8   9
BRANCH   8  11
ATOM     11  C   LIG d   1      -3.001  76.651 117.468  0.00  0.00     0.028 C 
ATOM     12  C   LIG d   1      -4.375  77.314 117.277  0.00  0.00     0.006 C 
ENDBRANCH   8  11
ENDBRANCH   7   8
ENDBRANCH   1   7
BRANCH   6  13
ATOM     13  N   LIG d   1      -3.670  75.955 113.616  0.00  0.00    -0.311 N 
ATOM     14  C   LIG d   1      -4.905  75.655 114.013  0.00  0.00     0.210 C 
ATOM     15  C   LIG d   1      -5.131  74.181 114.366  0.00  0.00     0.109 C 
ATOM     16  O   LIG d   1      -5.844  76.462 114.074  0.00  0.00    -0.276 OA
ATOM     17  H   LIG d   1      -2.979  75.232 113.565  0.00  0.00     0.149 HD
ENDBRANCH   6  13
BRANCH   5  18
ATOM     18  N   LIG d   1      -4.028  77.211 110.854  0.00  0.00     0.381 N 
ATOM     19  H   LIG d   1      -3.980  76.284 110.482  0.00  0.00    -0.090 HD
ATOM     20  H   LIG d   1      -3.985  77.861 110.089  0.00  0.00    -0.090 HD
ATOM     21  H   LIG d   1      -4.881  77.333 111.355  0.00  0.00    -0.090 HD
ENDBRANCH   5  18
BRANCH   3  22
ATOM     22  C   LIG d   1      -0.399  80.162 111.888  0.00  0.00     0.382 C 
ATOM     23  O   LIG d   1      -0.430  80.546 110.694  0.00  0.00    -0.241 OA
ATOM     24  O   LIG d   1       0.514  80.557 112.637  0.00  0.00    -0.241 OA
ENDBRANCH   3  22
TORSDOF 7
ENDMDL
MODEL 9
REMARK VINA RESULT:      -4.2      2.660      4.894
REMARK  7 active torsions:
REMARK  status: ('A' for Active; 'I' for Inactive)
REMARK    1  A    between atoms: C_2  and  C_3 
REMARK    2  A    between atoms: C_3  and  O_6 
REMARK    3  A    between atoms: C_3  and  C_4 
REMARK    4  A    between atoms: C_7  and  O_6 
REMARK    5  A    between atoms: C_9  and  C_10 
REMARK    6  A    between atoms: N_15  and  C_14 
REMARK    7  A    between atoms: N_20  and  C_19 
REMARK       I    between atoms: C_22  and  N_20 
ROOT
ATOM      1  C   LIG d   1      -3.119  77.348 116.626  0.00  0.00     0.161 C 
ATOM      2  C   LIG d   1      -3.974  77.782 117.652  0.00  0.00     0.016 C 
ATOM      3  C   LIG d   1      -5.374  77.581 117.635  0.00  0.00     0.038 C 
ATOM      4  C   LIG d   1      -5.998  76.794 116.656  0.00  0.00     0.028 C 
ATOM      5  C   LIG d   1      -5.243  76.763 115.332  0.00  0.00    -0.047 C 
ATOM      6  C   LIG d   1      -3.767  76.391 115.604  0.00  0.00     0.091 C 
ENDROOT
BRANCH   1   7
ATOM      7  O   LIG d   1      -1.938  76.749 117.195  0.00  0.00    -0.368 OA
BRANCH   7   8
ATOM      8  C   LIG d   1      -2.123  76.038 118.443  0.00  0.00     0.119 C 
BRANCH   8   9
ATOM      9  C   LIG d   1      -0.995  76.477 119.398  0.00  0.00     0.028 C 
ATOM     10  C   LIG d   1      -0.125  77.596 118.801  0.00  0.00     0.006 C 
ENDBRANCH   8   9
BRANCH   8  11
ATOM     11  C   LIG d   1      -1.933  74.529 118.259  0.00  0.00     0.028 C 
ATOM     12  C   LIG d   1      -1.046  74.183 117.053  0.00  0.00     0.006 C 
ENDBRANCH   8  11
ENDBRANCH   7   8
ENDBRANCH   1   7
BRANCH   6  13
ATOM     13  N   LIG d   1      -2.939  76.420 114.371  0.00  0.00    -0.311 N 
ATOM     14  C   LIG d   1      -2.694  77.531 113.678  0.00  0.00     0.210 C 
ATOM     15  C   LIG d   1      -1.833  77.336 112.427  0.00  0.00     0.109 C 
ATOM     16  O   LIG d   1      -3.082  78.664 113.999  0.00  0.00    -0.276 OA
ATOM     17  H   LIG d   1      -2.558  75.549 114.056  0.00  0.00     0.149 HD
ENDBRANCH   6  13
BRANCH   5  18
ATOM     18  N   LIG d   1      -5.929  75.799 114.450  0.00  0.00     0.381 N 
ATOM     19  H   LIG d   1      -6.245  76.263 113.623  0.00  0.00    -0.090 HD
ATOM     20  H   LIG d   1      -6.731  75.432 114.932  0.00  0.00    -0.090 HD
ATOM     21  H   LIG d   1      -5.309  75.058 114.208  0.00  0.00    -0.090 HD
ENDBRANCH   5  18
BRANCH   3  22
ATOM     22  C   LIG d   1      -6.169  78.205 118.585  0.00  0.00     0.382 C 
ATOM     23  O   LIG d   1      -6.412  79.432 118.490  0.00  0.00    -0.241 OA
ATOM     24  O   LIG d   1      -6.609  77.565 119.559  0.00  0.00    -0.241 OA
ENDBRANCH   3  22
TORSDOF 7
ENDMDL
