MODEL 1
REMARK VINA RESULT:      -4.9      0.000      0.000
REMARK  7 active torsions:
REMARK  status: ('A' for Active; 'I' for Inactive)
REMARK    1  A    between atoms: C_2  and  C_3 
REMARK    2  A    between atoms: C_3  and  O_6 
REMARK    3  A    between atoms: C_3  and  C_4 
REMARK    4  A    between atoms: C_7  and  O_6 
REMARK    5  A    between atoms: C_9  and  C_10 
REMARK    6  A    between atoms: N_15  and  C_14 
REMARK    7  A    between atoms: N_20  and  C_19 
REMARK       I    between atoms: C_22  and  N_20 
ROOT
ATOM      1  C   LIG d   1      -2.935  78.401 115.444  0.00  0.00     0.161 C 
ATOM      2  C   LIG d   1      -3.012  79.559 114.651  0.00  0.00     0.016 C 
ATOM      3  C   LIG d   1      -2.363  79.691 113.402  0.00  0.00     0.038 C 
ATOM      4  C   LIG d   1      -1.712  78.611 112.787  0.00  0.00     0.028 C 
ATOM      5  C   LIG d   1      -1.181  77.580 113.777  0.00  0.00    -0.047 C 
ATOM      6  C   LIG d   1      -2.321  77.174 114.738  0.00  0.00     0.091 C 
ENDROOT
BRANCH   1   7
ATOM      7  O   LIG d   1      -4.239  78.079 115.966  0.00  0.00    -0.368 OA
BRANCH   7   8
ATOM      8  C   LIG d   1      -4.451  78.363 117.370  0.00  0.00     0.119 C 
BRANCH   8   9
ATOM      9  C   LIG d   1      -4.527  77.013 118.109  0.00  0.00     0.028 C 
ATOM     10  C   LIG d   1      -3.399  76.844 119.141  0.00  0.00     0.006 C 
ENDBRANCH   8   9
BRANCH   8  11
ATOM     11  C   LIG d   1      -5.810  79.030 117.605  0.00  0.00     0.028 C 
ATOM     12  C   LIG d   1      -5.753  80.560 117.471  0.00  0.00     0.006 C 
ENDBRANCH   8  11
ENDBRANCH   7   8
ENDBRANCH   1   7
BRANCH   6  13
ATOM     13  N   LIG d   1      -1.865  76.231 115.792  0.00  0.00    -0.311 N 
ATOM     14  C   LIG d   1      -2.300  74.976 115.891  0.00  0.00     0.210 C 
ATOM     15  C   LIG d   1      -1.717  74.180 117.063  0.00  0.00     0.109 C 
ATOM     16  O   LIG d   1      -3.089  74.437 115.101  0.00  0.00    -0.276 OA
ATOM     17  H   LIG d   1      -1.201  76.576 116.457  0.00  0.00     0.149 HD
ENDBRANCH   6  13
BRANCH   5  18
ATOM     18  N   LIG d   1      -0.650  76.446 112.997  0.00  0.00     0.381 N 
ATOM     19  H   LIG d   1       0.350  76.446 113.038  0.00  0.00    -0.090 HD
ATOM     20  H   LIG d   1      -0.927  76.553 112.037  0.00  0.00    -0.090 HD
ATOM     21  H   LIG d   1      -1.004  75.588 113.359  0.00  0.00    -0.090 HD
ENDBRANCH   5  18
BRANCH   3  22
ATOM     22  C   LIG d   1      -2.327  80.926 112.773  0.00  0.00     0.382 C 
ATOM     23  O   LIG d   1      -1.277  81.310 112.203  0.00  0.00    -0.241 OA
ATOM     24  O   LIG d   1      -3.318  81.681 112.807  0.00  0.00    -0.241 OA
ENDBRANCH   3  22
TORSDOF 7
ENDMDL
MODEL 2
REMARK VINA RESULT:      -4.8      0.893      1.428
REMARK  7 active torsions:
REMARK  status: ('A' for Active; 'I' for Inactive)
REMARK    1  A    between atoms: C_2  and  C_3 
REMARK    2  A    between atoms: C_3  and  O_6 
REMARK    3  A    between atoms: C_3  and  C_4 
REMARK    4  A    between atoms: C_7  and  O_6 
REMARK    5  A    between atoms: C_9  and  C_10 
REMARK    6  A    between atoms: N_15  and  C_14 
REMARK    7  A    between atoms: N_20  and  C_19 
REMARK       I    between atoms: C_22  and  N_20 
ROOT
ATOM      1  C   LIG d   1      -2.976  78.349 115.501  0.00  0.00     0.161 C 
ATOM      2  C   LIG d   1      -2.985  79.462 114.644  0.00  0.00     0.016 C 
ATOM      3  C   LIG d   1      -2.204  79.544 113.467  0.00  0.00     0.038 C 
ATOM      4  C   LIG d   1      -1.472  78.449 112.986  0.00  0.00     0.028 C 
ATOM      5  C   LIG d   1      -1.036  77.483 114.082  0.00  0.00    -0.047 C 
ATOM      6  C   LIG d   1      -2.268  77.101 114.934  0.00  0.00     0.091 C 
ENDROOT
BRANCH   1   7
ATOM      7  O   LIG d   1      -4.324  78.025 115.895  0.00  0.00    -0.368 OA
BRANCH   7   8
ATOM      8  C   LIG d   1      -4.883  78.820 116.970  0.00  0.00     0.119 C 
BRANCH   8   9
ATOM      9  C   LIG d   1      -3.941  78.685 118.182  0.00  0.00     0.028 C 
ATOM     10  C   LIG d   1      -3.378  80.041 118.642  0.00  0.00     0.006 C 
ENDBRANCH   8   9
BRANCH   8  11
ATOM     11  C   LIG d   1      -6.229  78.257 117.437  0.00  0.00     0.028 C 
ATOM     12  C   LIG d   1      -6.603  76.945 116.731  0.00  0.00     0.006 C 
ENDBRANCH   8  11
ENDBRANCH   7   8
ENDBRANCH   1   7
BRANCH   6  13
ATOM     13  N   LIG d   1      -1.915  76.224 116.081  0.00  0.00    -0.311 N 
ATOM     14  C   LIG d   1      -1.909  74.894 116.012  0.00  0.00     0.210 C 
ATOM     15  C   LIG d   1      -1.534  74.181 117.315  0.00  0.00     0.109 C 
ATOM     16  O   LIG d   1      -2.146  74.238 114.987  0.00  0.00    -0.276 OA
ATOM     17  H   LIG d   1      -1.679  76.675 116.944  0.00  0.00     0.149 HD
ENDBRANCH   6  13
BRANCH   5  18
ATOM     18  N   LIG d   1      -0.404  76.322 113.428  0.00  0.00     0.381 N 
ATOM     19  H   LIG d   1       0.051  76.614 112.586  0.00  0.00    -0.090 HD
ATOM     20  H   LIG d   1      -1.117  75.656 113.187  0.00  0.00    -0.090 HD
ATOM     21  H   LIG d   1       0.258  75.902 114.043  0.00  0.00    -0.090 HD
ENDBRANCH   5  18
BRANCH   3  22
ATOM     22  C   LIG d   1      -2.120  80.746 112.781  0.00  0.00     0.382 C 
ATOM     23  O   LIG d   1      -3.058  81.576 112.853  0.00  0.00    -0.241 OA
ATOM     24  O   LIG d   1      -1.139  80.991 112.054  0.00  0.00    -0.241 OA
ENDBRANCH   3  22
TORSDOF 7
ENDMDL
MODEL 3
REMARK VINA RESULT:      -4.6      2.168      3.015
REMARK  7 active torsions:
REMARK  status: ('A' for Active; 'I' for Inactive)
REMARK    1  A    between atoms: C_2  and  C_3 
REMARK    2  A    between atoms: C_3  and  O_6 
REMARK    3  A    between atoms: C_3  and  C_4 
REMARK    4  A    between atoms: C_7  and  O_6 
REMARK    5  A    between atoms: C_9  and  C_10 
REMARK    6  A    between atoms: N_15  and  C_14 
REMARK    7  A    between atoms: N_20  and  C_19 
REMARK       I    between atoms: C_22  and  N_20 
ROOT
ATOM      1  C   LIG d   1      -2.540  77.085 115.169  0.00  0.00     0.161 C 
ATOM      2  C   LIG d   1      -2.730  77.991 114.111  0.00  0.00     0.016 C 
ATOM      3  C   LIG d   1      -1.810  79.014 113.788  0.00  0.00     0.038 C 
ATOM      4  C   LIG d   1      -0.556  79.107 114.411  0.00  0.00     0.028 C 
ATOM      5  C   LIG d   1      -0.535  78.529 115.822  0.00  0.00    -0.047 C 
ATOM      6  C   LIG d   1      -1.126  77.101 115.787  0.00  0.00     0.091 C 
ENDROOT
BRANCH   1   7
ATOM      7  O   LIG d   1      -2.883  75.753 114.739  0.00  0.00    -0.368 OA
BRANCH   7   8
ATOM      8  C   LIG d   1      -3.991  75.126 115.431  0.00  0.00     0.119 C 
BRANCH   8   9
ATOM      9  C   LIG d   1      -5.024  74.707 114.367  0.00  0.00     0.028 C 
ATOM     10  C   LIG d   1      -6.300  75.563 114.419  0.00  0.00     0.006 C 
ENDBRANCH   8   9
BRANCH   8  11
ATOM     11  C   LIG d   1      -4.721  76.124 116.334  0.00  0.00     0.028 C 
ATOM     12  C   LIG d   1      -4.706  75.710 117.814  0.00  0.00     0.006 C 
ENDBRANCH   8  11
ENDBRANCH   7   8
ENDBRANCH   1   7
BRANCH   6  13
ATOM     13  N   LIG d   1      -1.221  76.495 117.141  0.00  0.00    -0.311 N 
ATOM     14  C   LIG d   1      -0.750  75.284 117.436  0.00  0.00     0.210 C 
ATOM     15  C   LIG d   1      -0.969  74.841 118.886  0.00  0.00     0.109 C 
ATOM     16  O   LIG d   1      -0.143  74.549 116.643  0.00  0.00    -0.276 OA
ATOM     17  H   LIG d   1      -1.671  77.036 117.853  0.00  0.00     0.149 HD
ENDBRANCH   6  13
BRANCH   5  18
ATOM     18  N   LIG d   1       0.860  78.566 116.298  0.00  0.00     0.381 N 
ATOM     19  H   LIG d   1       1.020  79.409 116.813  0.00  0.00    -0.090 HD
ATOM     20  H   LIG d   1       1.475  78.561 115.504  0.00  0.00    -0.090 HD
ATOM     21  H   LIG d   1       1.045  77.776 116.875  0.00  0.00    -0.090 HD
ENDBRANCH   5  18
BRANCH   3  22
ATOM     22  C   LIG d   1      -2.158  79.983 112.860  0.00  0.00     0.382 C 
ATOM     23  O   LIG d   1      -3.256  80.582 112.961  0.00  0.00    -0.241 OA
ATOM     24  O   LIG d   1      -1.408  80.235 111.898  0.00  0.00    -0.241 OA
ENDBRANCH   3  22
TORSDOF 7
ENDMDL
MODEL 4
REMARK VINA RESULT:      -4.5      2.761      5.351
REMARK  7 active torsions:
REMARK  status: ('A' for Active; 'I' for Inactive)
REMARK    1  A    between atoms: C_2  and  C_3 
REMARK    2  A    between atoms: C_3  and  O_6 
REMARK    3  A    between atoms: C_3  and  C_4 
REMARK    4  A    between atoms: C_7  and  O_6 
REMARK    5  A    between atoms: C_9  and  C_10 
REMARK    6  A    between atoms: N_15  and  C_14 
REMARK    7  A    between atoms: N_20  and  C_19 
REMARK       I    between atoms: C_22  and  N_20 
ROOT
ATOM      1  C   LIG d   1      -1.193  75.373 115.120  0.00  0.00     0.161 C 
ATOM      2  C   LIG d   1      -0.786  74.988 116.409  0.00  0.00     0.016 C 
ATOM      3  C   LIG d   1      -0.167  75.868 117.325  0.00  0.00     0.038 C 
ATOM      4  C   LIG d   1      -0.048  77.242 117.068  0.00  0.00     0.028 C 
ATOM      5  C   LIG d   1       0.014  77.578 115.582  0.00  0.00    -0.047 C 
ATOM      6  C   LIG d   1      -1.172  76.895 114.864  0.00  0.00     0.091 C 
ENDROOT
BRANCH   1   7
ATOM      7  O   LIG d   1      -2.500  74.835 114.839  0.00  0.00    -0.368 OA
BRANCH   7   8
ATOM      8  C   LIG d   1      -3.626  75.614 115.316  0.00  0.00     0.119 C 
BRANCH   8   9
ATOM      9  C   LIG d   1      -4.118  74.962 116.622  0.00  0.00     0.028 C 
ATOM     10  C   LIG d   1      -4.091  75.938 117.811  0.00  0.00     0.006 C 
ENDBRANCH   8   9
BRANCH   8  11
ATOM     11  C   LIG d   1      -4.810  75.530 114.349  0.00  0.00     0.028 C 
ATOM     12  C   LIG d   1      -5.905  74.564 114.830  0.00  0.00     0.006 C 
ENDBRANCH   8  11
ENDBRANCH   7   8
ENDBRANCH   1   7
BRANCH   6  13
ATOM     13  N   LIG d   1      -1.139  77.102 113.392  0.00  0.00    -0.311 N 
ATOM     14  C   LIG d   1      -2.036  77.836 112.735  0.00  0.00     0.210 C 
ATOM     15  C   LIG d   1      -1.830  77.903 111.219  0.00  0.00     0.109 C 
ATOM     16  O   LIG d   1      -2.963  78.464 113.268  0.00  0.00    -0.276 OA
ATOM     17  H   LIG d   1      -0.402  76.654 112.885  0.00  0.00     0.149 HD
ENDBRANCH   6  13
BRANCH   5  18
ATOM     18  N   LIG d   1      -0.002  79.047 115.455  0.00  0.00     0.381 N 
ATOM     19  H   LIG d   1      -0.586  79.442 116.166  0.00  0.00    -0.090 HD
ATOM     20  H   LIG d   1      -0.386  79.292 114.560  0.00  0.00    -0.090 HD
ATOM     21  H   LIG d   1       0.923  79.407 115.538  0.00  0.00    -0.090 HD
ENDBRANCH   5  18
BRANCH   3  22
ATOM     22  C   LIG d   1       0.378  75.368 118.498  0.00  0.00     0.382 C 
ATOM     23  O   LIG d   1       1.104  76.099 119.214  0.00  0.00    -0.241 OA
ATOM     24  O   LIG d   1       0.188  74.181 118.827  0.00  0.00    -0.241 OA
ENDBRANCH   3  22
TORSDOF 7
ENDMDL
MODEL 5
REMARK VINA RESULT:      -4.4      3.064      5.462
REMARK  7 active torsions:
REMARK  status: ('A' for Active; 'I' for Inactive)
REMARK    1  A    between atoms: C_2  and  C_3 
REMARK    2  A    between atoms: C_3  and  O_6 
REMARK    3  A    between atoms: C_3  and  C_4 
REMARK    4  A    between atoms: C_7  and  O_6 
REMARK    5  A    between atoms: C_9  and  C_10 
REMARK    6  A    between atoms: N_15  and  C_14 
REMARK    7  A    between atoms: N_20  and  C_19 
REMARK       I    between atoms: C_22  and  N_20 
ROOT
ATOM      1  C   LIG d   1      -1.385  79.621 114.356  0.00  0.00     0.161 C 
ATOM      2  C   LIG d   1      -2.142  78.501 114.740  0.00  0.00     0.016 C 
ATOM      3  C   LIG d   1      -2.590  77.516 113.831  0.00  0.00     0.038 C 
ATOM      4  C   LIG d   1      -2.180  77.504 112.489  0.00  0.00     0.028 C 
ATOM      5  C   LIG d   1      -1.832  78.887 111.950  0.00  0.00    -0.047 C 
ATOM      6  C   LIG d   1      -0.835  79.566 112.916  0.00  0.00     0.091 C 
ENDROOT
BRANCH   1   7
ATOM      7  O   LIG d   1      -0.312  79.830 115.295  0.00  0.00    -0.368 OA
BRANCH   7   8
ATOM      8  C   LIG d   1      -0.473  79.213 116.596  0.00  0.00     0.119 C 
BRANCH   8   9
ATOM      9  C   LIG d   1      -0.592  80.344 117.635  0.00  0.00     0.028 C 
ATOM     10  C   LIG d   1      -1.914  80.285 118.419  0.00  0.00     0.006 C 
ENDBRANCH   8   9
BRANCH   8  11
ATOM     11  C   LIG d   1       0.777  78.424 116.997  0.00  0.00     0.028 C 
ATOM     12  C   LIG d   1       0.665  76.926 116.672  0.00  0.00     0.006 C 
ENDBRANCH   8  11
ENDBRANCH   7   8
ENDBRANCH   1   7
BRANCH   6  13
ATOM     13  N   LIG d   1      -0.506  80.957 112.507  0.00  0.00    -0.311 N 
ATOM     14  C   LIG d   1       0.535  81.268 111.737  0.00  0.00     0.210 C 
ATOM     15  C   LIG d   1       0.704  82.764 111.451  0.00  0.00     0.109 C 
ATOM     16  O   LIG d   1       1.317  80.445 111.238  0.00  0.00    -0.276 OA
ATOM     17  H   LIG d   1      -1.107  81.684 112.842  0.00  0.00     0.149 HD
ENDBRANCH   6  13
BRANCH   5  18
ATOM     18  N   LIG d   1      -1.290  78.711 110.589  0.00  0.00     0.381 N 
ATOM     19  H   LIG d   1      -0.583  78.004 110.595  0.00  0.00    -0.090 HD
ATOM     20  H   LIG d   1      -0.871  79.575 110.292  0.00  0.00    -0.090 HD
ATOM     21  H   LIG d   1      -2.021  78.456 109.962  0.00  0.00    -0.090 HD
ENDBRANCH   5  18
BRANCH   3  22
ATOM     22  C   LIG d   1      -3.490  76.549 114.253  0.00  0.00     0.382 C 
ATOM     23  O   LIG d   1      -3.351  76.011 115.377  0.00  0.00    -0.241 OA
ATOM     24  O   LIG d   1      -4.415  76.178 113.505  0.00  0.00    -0.241 OA
ENDBRANCH   3  22
TORSDOF 7
ENDMDL
MODEL 6
REMARK VINA RESULT:      -4.3      1.220      1.444
REMARK  7 active torsions:
REMARK  status: ('A' for Active; 'I' for Inactive)
REMARK    1  A    between atoms: C_2  and  C_3 
REMARK    2  A    between atoms: C_3  and  O_6 
REMARK    3  A    between atoms: C_3  and  C_4 
REMARK    4  A    between atoms: C_7  and  O_6 
REMARK    5  A    between atoms: C_9  and  C_10 
REMARK    6  A    between atoms: N_15  and  C_14 
REMARK    7  A    between atoms: N_20  and  C_19 
REMARK       I    between atoms: C_22  and  N_20 
ROOT
ATOM      1  C   LIG d   1      -3.091  78.213 115.552  0.00  0.00     0.161 C 
ATOM      2  C   LIG d   1      -3.096  79.340 114.713  0.00  0.00     0.016 C 
ATOM      3  C   LIG d   1      -2.294  79.451 113.554  0.00  0.00     0.038 C 
ATOM      4  C   LIG d   1      -1.538  78.372 113.069  0.00  0.00     0.028 C 
ATOM      5  C   LIG d   1      -1.112  77.393 114.157  0.00  0.00    -0.047 C 
ATOM      6  C   LIG d   1      -2.357  76.983 114.978  0.00  0.00     0.091 C 
ENDROOT
BRANCH   1   7
ATOM      7  O   LIG d   1      -4.442  77.866 115.913  0.00  0.00    -0.368 OA
BRANCH   7   8
ATOM      8  C   LIG d   1      -4.828  78.144 117.281  0.00  0.00     0.119 C 
BRANCH   8   9
ATOM      9  C   LIG d   1      -5.258  76.810 117.921  0.00  0.00     0.028 C 
ATOM     10  C   LIG d   1      -5.546  75.722 116.873  0.00  0.00     0.006 C 
ENDBRANCH   8   9
BRANCH   8  11
ATOM     11  C   LIG d   1      -6.068  79.041 117.340  0.00  0.00     0.028 C 
ATOM     12  C   LIG d   1      -5.724  80.519 117.580  0.00  0.00     0.006 C 
ENDBRANCH   8  11
ENDBRANCH   7   8
ENDBRANCH   1   7
BRANCH   6  13
ATOM     13  N   LIG d   1      -2.016  76.091 116.117  0.00  0.00    -0.311 N 
ATOM     14  C   LIG d   1      -1.208  76.450 117.113  0.00  0.00     0.210 C 
ATOM     15  C   LIG d   1      -0.973  75.372 118.176  0.00  0.00     0.109 C 
ATOM     16  O   LIG d   1      -0.689  77.570 117.234  0.00  0.00    -0.276 OA
ATOM     17  H   LIG d   1      -2.418  75.174 116.115  0.00  0.00     0.149 HD
ENDBRANCH   6  13
BRANCH   5  18
ATOM     18  N   LIG d   1      -0.453  76.251 113.496  0.00  0.00     0.381 N 
ATOM     19  H   LIG d   1      -0.148  75.591 114.184  0.00  0.00    -0.090 HD
ATOM     20  H   LIG d   1       0.354  76.584 112.999  0.00  0.00    -0.090 HD
ATOM     21  H   LIG d   1      -1.085  75.813 112.863  0.00  0.00    -0.090 HD
ENDBRANCH   5  18
BRANCH   3  22
ATOM     22  C   LIG d   1      -2.211  80.665 112.889  0.00  0.00     0.382 C 
ATOM     23  O   LIG d   1      -1.160  80.974 112.277  0.00  0.00    -0.241 OA
ATOM     24  O   LIG d   1      -3.157  81.473 112.931  0.00  0.00    -0.241 OA
ENDBRANCH   3  22
TORSDOF 7
ENDMDL
MODEL 7
REMARK VINA RESULT:      -4.2      2.671      4.059
REMARK  7 active torsions:
REMARK  status: ('A' for Active; 'I' for Inactive)
REMARK    1  A    between atoms: C_2  and  C_3 
REMARK    2  A    between atoms: C_3  and  O_6 
REMARK    3  A    between atoms: C_3  and  C_4 
REMARK    4  A    between atoms: C_7  and  O_6 
REMARK    5  A    between atoms: C_9  and  C_10 
REMARK    6  A    between atoms: N_15  and  C_14 
REMARK    7  A    between atoms: N_20  and  C_19 
REMARK       I    between atoms: C_22  and  N_20 
ROOT
ATOM      1  C   LIG d   1      -3.773  76.941 116.972  0.00  0.00     0.161 C 
ATOM      2  C   LIG d   1      -4.745  77.870 117.377  0.00  0.00     0.016 C 
ATOM      3  C   LIG d   1      -4.673  79.251 117.082  0.00  0.00     0.038 C 
ATOM      4  C   LIG d   1      -3.693  79.775 116.225  0.00  0.00     0.028 C 
ATOM      5  C   LIG d   1      -2.406  78.959 116.205  0.00  0.00    -0.047 C 
ATOM      6  C   LIG d   1      -2.756  77.476 115.943  0.00  0.00     0.091 C 
ENDROOT
BRANCH   1   7
ATOM      7  O   LIG d   1      -4.414  75.751 116.471  0.00  0.00    -0.368 OA
BRANCH   7   8
ATOM      8  C   LIG d   1      -5.861  75.780 116.421  0.00  0.00     0.119 C 
BRANCH   8   9
ATOM      9  C   LIG d   1      -6.377  74.563 117.214  0.00  0.00     0.028 C 
ATOM     10  C   LIG d   1      -6.896  74.950 118.609  0.00  0.00     0.006 C 
ENDBRANCH   8   9
BRANCH   8  11
ATOM     11  C   LIG d   1      -6.373  75.578 114.991  0.00  0.00     0.028 C 
ATOM     12  C   LIG d   1      -5.241  75.324 113.983  0.00  0.00     0.006 C 
ENDBRANCH   8  11
ENDBRANCH   7   8
ENDBRANCH   1   7
BRANCH   6  13
ATOM     13  N   LIG d   1      -1.560  76.594 115.992  0.00  0.00    -0.311 N 
ATOM     14  C   LIG d   1      -1.024  76.026 114.913  0.00  0.00     0.210 C 
ATOM     15  C   LIG d   1       0.193  75.137 115.188  0.00  0.00     0.109 C 
ATOM     16  O   LIG d   1      -1.422  76.199 113.751  0.00  0.00    -0.276 OA
ATOM     17  H   LIG d   1      -1.155  76.425 116.891  0.00  0.00     0.149 HD
ENDBRANCH   6  13
BRANCH   5  18
ATOM     18  N   LIG d   1      -1.527  79.537 115.172  0.00  0.00     0.381 N 
ATOM     19  H   LIG d   1      -1.965  79.466 114.275  0.00  0.00    -0.090 HD
ATOM     20  H   LIG d   1      -0.669  79.015 115.145  0.00  0.00    -0.090 HD
ATOM     21  H   LIG d   1      -1.337  80.492 115.381  0.00  0.00    -0.090 HD
ENDBRANCH   5  18
BRANCH   3  22
ATOM     22  C   LIG d   1      -5.565  80.129 117.678  0.00  0.00     0.382 C 
ATOM     23  O   LIG d   1      -6.464  80.672 116.992  0.00  0.00    -0.241 OA
ATOM     24  O   LIG d   1      -5.454  80.420 118.884  0.00  0.00    -0.241 OA
ENDBRANCH   3  22
TORSDOF 7
ENDMDL
MODEL 8
REMARK VINA RESULT:      -4.2      2.777      5.477
REMARK  7 active torsions:
REMARK  status: ('A' for Active; 'I' for Inactive)
REMARK    1  A    between atoms: C_2  and  C_3 
REMARK    2  A    between atoms: C_3  and  O_6 
REMARK    3  A    between atoms: C_3  and  C_4 
REMARK    4  A    between atoms: C_7  and  O_6 
REMARK    5  A    between atoms: C_9  and  C_10 
REMARK    6  A    between atoms: N_15  and  C_14 
REMARK    7  A    between atoms: N_20  and  C_19 
REMARK       I    between atoms: C_22  and  N_20 
ROOT
ATOM      1  C   LIG d   1      -0.877  76.453 114.851  0.00  0.00     0.161 C 
ATOM      2  C   LIG d   1      -2.196  75.998 114.687  0.00  0.00     0.016 C 
ATOM      3  C   LIG d   1      -2.887  75.243 115.663  0.00  0.00     0.038 C 
ATOM      4  C   LIG d   1      -2.353  75.019 116.941  0.00  0.00     0.028 C 
ATOM      5  C   LIG d   1      -0.829  75.026 116.971  0.00  0.00    -0.047 C 
ATOM      6  C   LIG d   1      -0.319  76.313 116.283  0.00  0.00     0.091 C 
ENDROOT
BRANCH   1   7
ATOM      7  O   LIG d   1      -0.772  77.818 114.403  0.00  0.00    -0.368 OA
BRANCH   7   8
ATOM      8  C   LIG d   1      -1.935  78.359 113.728  0.00  0.00     0.119 C 
BRANCH   8   9
ATOM      9  C   LIG d   1      -1.469  78.893 112.360  0.00  0.00     0.028 C 
ATOM     10  C   LIG d   1      -1.923  77.997 111.195  0.00  0.00     0.006 C 
ENDBRANCH   8   9
BRANCH   8  11
ATOM     11  C   LIG d   1      -2.493  79.577 114.470  0.00  0.00     0.028 C 
ATOM     12  C   LIG d   1      -3.248  79.198 115.754  0.00  0.00     0.006 C 
ENDBRANCH   8  11
ENDBRANCH   7   8
ENDBRANCH   1   7
BRANCH   6  13
ATOM     13  N   LIG d   1       1.164  76.360 116.194  0.00  0.00    -0.311 N 
ATOM     14  C   LIG d   1       1.938  76.908 117.129  0.00  0.00     0.210 C 
ATOM     15  C   LIG d   1       3.440  76.867 116.831  0.00  0.00     0.109 C 
ATOM     16  O   LIG d   1       1.525  77.395 118.192  0.00  0.00    -0.276 OA
ATOM     17  H   LIG d   1       1.584  75.959 115.378  0.00  0.00     0.149 HD
ENDBRANCH   6  13
BRANCH   5  18
ATOM     18  N   LIG d   1      -0.410  74.920 118.381  0.00  0.00     0.381 N 
ATOM     19  H   LIG d   1      -1.213  74.793 118.964  0.00  0.00    -0.090 HD
ATOM     20  H   LIG d   1       0.043  75.775 118.651  0.00  0.00    -0.090 HD
ATOM     21  H   LIG d   1       0.216  74.153 118.494  0.00  0.00    -0.090 HD
ENDBRANCH   5  18
BRANCH   3  22
ATOM     22  C   LIG d   1      -4.109  74.669 115.350  0.00  0.00     0.382 C 
ATOM     23  O   LIG d   1      -4.823  74.180 116.258  0.00  0.00    -0.241 OA
ATOM     24  O   LIG d   1      -4.487  74.594 114.165  0.00  0.00    -0.241 OA
ENDBRANCH   3  22
TORSDOF 7
ENDMDL
MODEL 9
REMARK VINA RESULT:      -4.2      2.133      2.822
REMARK  7 active torsions:
REMARK  status: ('A' for Active; 'I' for Inactive)
REMARK    1  A    between atoms: C_2  and  C_3 
REMARK    2  A    between atoms: C_3  and  O_6 
REMARK    3  A    between atoms: C_3  and  C_4 
REMARK    4  A    between atoms: C_7  and  O_6 
REMARK    5  A    between atoms: C_9  and  C_10 
REMARK    6  A    between atoms: N_15  and  C_14 
REMARK    7  A    between atoms: N_20  and  C_19 
REMARK       I    between atoms: C_22  and  N_20 
ROOT
ATOM      1  C   LIG d   1      -2.831  76.644 115.902  0.00  0.00     0.161 C 
ATOM      2  C   LIG d   1      -3.080  77.751 115.073  0.00  0.00     0.016 C 
ATOM      3  C   LIG d   1      -2.313  78.048 113.923  0.00  0.00     0.038 C 
ATOM      4  C   LIG d   1      -1.334  77.170 113.436  0.00  0.00     0.028 C 
ATOM      5  C   LIG d   1      -0.710  76.298 114.521  0.00  0.00    -0.047 C 
ATOM      6  C   LIG d   1      -1.838  75.614 115.326  0.00  0.00     0.091 C 
ENDROOT
BRANCH   1   7
ATOM      7  O   LIG d   1      -4.075  76.003 116.247  0.00  0.00    -0.368 OA
BRANCH   7   8
ATOM      8  C   LIG d   1      -5.276  76.616 115.718  0.00  0.00     0.119 C 
BRANCH   8   9
ATOM      9  C   LIG d   1      -6.189  76.953 116.913  0.00  0.00     0.028 C 
ATOM     10  C   LIG d   1      -5.979  75.996 118.099  0.00  0.00     0.006 C 
ENDBRANCH   8   9
BRANCH   8  11
ATOM     11  C   LIG d   1      -6.076  75.629 114.862  0.00  0.00     0.028 C 
ATOM     12  C   LIG d   1      -5.407  74.249 114.764  0.00  0.00     0.006 C 
ENDBRANCH   8  11
ENDBRANCH   7   8
ENDBRANCH   1   7
BRANCH   6  13
ATOM     13  N   LIG d   1      -1.317  74.808 116.460  0.00  0.00    -0.311 N 
ATOM     14  C   LIG d   1      -0.560  75.315 117.432  0.00  0.00     0.210 C 
ATOM     15  C   LIG d   1      -0.112  74.306 118.495  0.00  0.00     0.109 C 
ATOM     16  O   LIG d   1      -0.243  76.510 117.532  0.00  0.00    -0.276 OA
ATOM     17  H   LIG d   1      -1.551  73.835 116.475  0.00  0.00     0.149 HD
ENDBRANCH   6  13
BRANCH   5  18
ATOM     18  N   LIG d   1       0.191  75.337 113.857  0.00  0.00     0.381 N 
ATOM     19  H   LIG d   1       0.300  74.523 114.429  0.00  0.00    -0.090 HD
ATOM     20  H   LIG d   1       1.094  75.764 113.741  0.00  0.00    -0.090 HD
ATOM     21  H   LIG d   1      -0.179  75.081 112.968  0.00  0.00    -0.090 HD
ENDBRANCH   5  18
BRANCH   3  22
ATOM     22  C   LIG d   1      -2.497  79.257 113.269  0.00  0.00     0.382 C 
ATOM     23  O   LIG d   1      -3.122  80.187 113.833  0.00  0.00    -0.241 OA
ATOM     24  O   LIG d   1      -2.083  79.415 112.104  0.00  0.00    -0.241 OA
ENDBRANCH   3  22
TORSDOF 7
ENDMDL
