MODEL 1
REMARK VINA RESULT:      -5.1      0.000      0.000
REMARK  7 active torsions:
REMARK  status: ('A' for Active; 'I' for Inactive)
REMARK    1  A    between atoms: C_2  and  C_3 
REMARK    2  A    between atoms: C_3  and  O_6 
REMARK    3  A    between atoms: C_3  and  C_4 
REMARK    4  A    between atoms: C_7  and  O_6 
REMARK    5  A    between atoms: C_9  and  C_10 
REMARK    6  A    between atoms: N_15  and  C_14 
REMARK    7  A    between atoms: N_20  and  C_19 
REMARK       I    between atoms: C_22  and  N_20 
ROOT
ATOM      1  C   LIG d   1      -1.221  78.505 115.003  0.00  0.00     0.161 C 
ATOM      2  C   LIG d   1      -1.754  79.702 114.497  0.00  0.00     0.016 C 
ATOM      3  C   LIG d   1      -1.815  80.004 113.117  0.00  0.00     0.038 C 
ATOM      4  C   LIG d   1      -1.483  79.059 112.135  0.00  0.00     0.028 C 
ATOM      5  C   LIG d   1      -0.466  78.026 112.609  0.00  0.00    -0.047 C 
ATOM      6  C   LIG d   1      -0.955  77.416 113.942  0.00  0.00     0.091 C 
ENDROOT
BRANCH   1   7
ATOM      7  O   LIG d   1      -2.074  77.992 116.045  0.00  0.00    -0.368 OA
BRANCH   7   8
ATOM      8  C   LIG d   1      -3.499  78.078 115.802  0.00  0.00     0.119 C 
BRANCH   8   9
ATOM      9  C   LIG d   1      -4.142  78.732 117.041  0.00  0.00     0.028 C 
ATOM     10  C   LIG d   1      -5.671  78.574 117.062  0.00  0.00     0.006 C 
ENDBRANCH   8   9
BRANCH   8  11
ATOM     11  C   LIG d   1      -4.133  76.687 115.703  0.00  0.00     0.028 C 
ATOM     12  C   LIG d   1      -4.578  76.335 114.275  0.00  0.00     0.006 C 
ENDBRANCH   8  11
ENDBRANCH   7   8
ENDBRANCH   1   7
BRANCH   6  13
ATOM     13  N   LIG d   1       0.022  76.456 114.519  0.00  0.00    -0.311 N 
ATOM     14  C   LIG d   1      -0.299  75.218 114.891  0.00  0.00     0.210 C 
ATOM     15  C   LIG d   1       0.855  74.400 115.480  0.00  0.00     0.109 C 
ATOM     16  O   LIG d   1      -1.422  74.708 114.760  0.00  0.00    -0.276 OA
ATOM     17  H   LIG d   1       0.964  76.776 114.631  0.00  0.00     0.149 HD
ENDBRANCH   6  13
BRANCH   5  18
ATOM     18  N   LIG d   1      -0.315  77.025 111.536  0.00  0.00     0.381 N 
ATOM     19  H   LIG d   1      -1.208  76.823 111.133  0.00  0.00    -0.090 HD
ATOM     20  H   LIG d   1       0.051  76.177 111.932  0.00  0.00    -0.090 HD
ATOM     21  H   LIG d   1       0.304  77.367 110.835  0.00  0.00    -0.090 HD
ENDBRANCH   5  18
BRANCH   3  22
ATOM     22  C   LIG d   1      -2.176  81.279 112.708  0.00  0.00     0.382 C 
ATOM     23  O   LIG d   1      -1.291  82.104 112.374  0.00  0.00    -0.241 OA
ATOM     24  O   LIG d   1      -3.371  81.630 112.712  0.00  0.00    -0.241 OA
ENDBRANCH   3  22
TORSDOF 7
ENDMDL
MODEL 2
REMARK VINA RESULT:      -4.9      1.317      2.044
REMARK  7 active torsions:
REMARK  status: ('A' for Active; 'I' for Inactive)
REMARK    1  A    between atoms: C_2  and  C_3 
REMARK    2  A    between atoms: C_3  and  O_6 
REMARK    3  A    between atoms: C_3  and  C_4 
REMARK    4  A    between atoms: C_7  and  O_6 
REMARK    5  A    between atoms: C_9  and  C_10 
REMARK    6  A    between atoms: N_15  and  C_14 
REMARK    7  A    between atoms: N_20  and  C_19 
REMARK       I    between atoms: C_22  and  N_20 
ROOT
ATOM      1  C   LIG d   1      -1.342  78.567 114.952  0.00  0.00     0.161 C 
ATOM      2  C   LIG d   1      -1.865  79.763 114.433  0.00  0.00     0.016 C 
ATOM      3  C   LIG d   1      -1.867  80.078 113.055  0.00  0.00     0.038 C 
ATOM      4  C   LIG d   1      -1.479  79.147 112.080  0.00  0.00     0.028 C 
ATOM      5  C   LIG d   1      -0.473  78.120 112.591  0.00  0.00    -0.047 C 
ATOM      6  C   LIG d   1      -1.016  77.491 113.894  0.00  0.00     0.091 C 
ENDROOT
BRANCH   1   7
ATOM      7  O   LIG d   1      -2.236  78.034 115.949  0.00  0.00    -0.368 OA
BRANCH   7   8
ATOM      8  C   LIG d   1      -1.704  77.932 117.293  0.00  0.00     0.119 C 
BRANCH   8   9
ATOM      9  C   LIG d   1      -2.478  76.811 118.013  0.00  0.00     0.028 C 
ATOM     10  C   LIG d   1      -3.646  76.270 117.172  0.00  0.00     0.006 C 
ENDBRANCH   8   9
BRANCH   8  11
ATOM     11  C   LIG d   1      -1.984  79.203 118.101  0.00  0.00     0.028 C 
ATOM     12  C   LIG d   1      -0.764  80.133 118.190  0.00  0.00     0.006 C 
ENDBRANCH   8  11
ENDBRANCH   7   8
ENDBRANCH   1   7
BRANCH   6  13
ATOM     13  N   LIG d   1      -0.055  76.536 114.506  0.00  0.00    -0.311 N 
ATOM     14  C   LIG d   1      -0.397  75.318 114.922  0.00  0.00     0.210 C 
ATOM     15  C   LIG d   1       0.743  74.503 115.541  0.00  0.00     0.109 C 
ATOM     16  O   LIG d   1      -1.528  74.823 114.808  0.00  0.00    -0.276 OA
ATOM     17  H   LIG d   1       0.892  76.845 114.608  0.00  0.00     0.149 HD
ENDBRANCH   6  13
BRANCH   5  18
ATOM     18  N   LIG d   1      -0.262  77.131 111.516  0.00  0.00     0.381 N 
ATOM     19  H   LIG d   1      -1.015  76.473 111.509  0.00  0.00    -0.090 HD
ATOM     20  H   LIG d   1       0.591  76.632 111.697  0.00  0.00    -0.090 HD
ATOM     21  H   LIG d   1      -0.205  77.592 110.635  0.00  0.00    -0.090 HD
ENDBRANCH   5  18
BRANCH   3  22
ATOM     22  C   LIG d   1      -2.222  81.354 112.642  0.00  0.00     0.382 C 
ATOM     23  O   LIG d   1      -1.334  82.176 112.312  0.00  0.00    -0.241 OA
ATOM     24  O   LIG d   1      -3.417  81.706 112.638  0.00  0.00    -0.241 OA
ENDBRANCH   3  22
TORSDOF 7
ENDMDL
MODEL 3
REMARK VINA RESULT:      -4.8      3.154      5.780
REMARK  7 active torsions:
REMARK  status: ('A' for Active; 'I' for Inactive)
REMARK    1  A    between atoms: C_2  and  C_3 
REMARK    2  A    between atoms: C_3  and  O_6 
REMARK    3  A    between atoms: C_3  and  C_4 
REMARK    4  A    between atoms: C_7  and  O_6 
REMARK    5  A    between atoms: C_9  and  C_10 
REMARK    6  A    between atoms: N_15  and  C_14 
REMARK    7  A    between atoms: N_20  and  C_19 
REMARK       I    between atoms: C_22  and  N_20 
ROOT
ATOM      1  C   LIG d   1       0.428  79.965 113.178  0.00  0.00     0.161 C 
ATOM      2  C   LIG d   1      -0.633  79.499 112.383  0.00  0.00     0.016 C 
ATOM      3  C   LIG d   1      -1.601  78.577 112.841  0.00  0.00     0.038 C 
ATOM      4  C   LIG d   1      -1.662  78.171 114.183  0.00  0.00     0.028 C 
ATOM      5  C   LIG d   1      -0.314  78.223 114.893  0.00  0.00    -0.047 C 
ATOM      6  C   LIG d   1       0.313  79.619 114.677  0.00  0.00     0.091 C 
ENDROOT
BRANCH   1   7
ATOM      7  O   LIG d   1       0.582  81.387 113.002  0.00  0.00    -0.368 OA
BRANCH   7   8
ATOM      8  C   LIG d   1       0.052  81.939 111.771  0.00  0.00     0.119 C 
BRANCH   8   9
ATOM      9  C   LIG d   1       1.250  82.292 110.868  0.00  0.00     0.028 C 
ATOM     10  C   LIG d   1       1.498  81.232 109.782  0.00  0.00     0.006 C 
ENDBRANCH   8   9
BRANCH   8  11
ATOM     11  C   LIG d   1      -0.672  83.265 112.020  0.00  0.00     0.028 C 
ATOM     12  C   LIG d   1      -0.396  84.309 110.927  0.00  0.00     0.006 C 
ENDBRANCH   8  11
ENDBRANCH   7   8
ENDBRANCH   1   7
BRANCH   6  13
ATOM     13  N   LIG d   1       1.672  79.728 115.269  0.00  0.00    -0.311 N 
ATOM     14  C   LIG d   1       1.913  80.285 116.454  0.00  0.00     0.210 C 
ATOM     15  C   LIG d   1       3.388  80.312 116.868  0.00  0.00     0.109 C 
ATOM     16  O   LIG d   1       1.043  80.731 117.216  0.00  0.00    -0.276 OA
ATOM     17  H   LIG d   1       2.434  79.363 114.731  0.00  0.00     0.149 HD
ENDBRANCH   6  13
BRANCH   5  18
ATOM     18  N   LIG d   1      -0.547  77.908 116.316  0.00  0.00     0.381 N 
ATOM     19  H   LIG d   1       0.329  77.809 116.789  0.00  0.00    -0.090 HD
ATOM     20  H   LIG d   1      -1.041  77.035 116.379  0.00  0.00    -0.090 HD
ATOM     21  H   LIG d   1      -1.083  78.632 116.742  0.00  0.00    -0.090 HD
ENDBRANCH   5  18
BRANCH   3  22
ATOM     22  C   LIG d   1      -2.499  78.020 111.943  0.00  0.00     0.382 C 
ATOM     23  O   LIG d   1      -2.099  77.619 110.824  0.00  0.00    -0.241 OA
ATOM     24  O   LIG d   1      -3.711  77.953 112.221  0.00  0.00    -0.241 OA
ENDBRANCH   3  22
TORSDOF 7
ENDMDL
MODEL 4
REMARK VINA RESULT:      -4.8      1.807      2.248
REMARK  7 active torsions:
REMARK  status: ('A' for Active; 'I' for Inactive)
REMARK    1  A    between atoms: C_2  and  C_3 
REMARK    2  A    between atoms: C_3  and  O_6 
REMARK    3  A    between atoms: C_3  and  C_4 
REMARK    4  A    between atoms: C_7  and  O_6 
REMARK    5  A    between atoms: C_9  and  C_10 
REMARK    6  A    between atoms: N_15  and  C_14 
REMARK    7  A    between atoms: N_20  and  C_19 
REMARK       I    between atoms: C_22  and  N_20 
ROOT
ATOM      1  C   LIG d   1      -2.416  78.006 116.461  0.00  0.00     0.161 C 
ATOM      2  C   LIG d   1      -2.649  78.935 115.434  0.00  0.00     0.016 C 
ATOM      3  C   LIG d   1      -2.012  78.878 114.173  0.00  0.00     0.038 C 
ATOM      4  C   LIG d   1      -1.206  77.792 113.798  0.00  0.00     0.028 C 
ATOM      5  C   LIG d   1      -0.544  77.093 114.981  0.00  0.00    -0.047 C 
ATOM      6  C   LIG d   1      -1.625  76.753 116.032  0.00  0.00     0.091 C 
ENDROOT
BRANCH   1   7
ATOM      7  O   LIG d   1      -3.666  77.626 117.069  0.00  0.00    -0.368 OA
BRANCH   7   8
ATOM      8  C   LIG d   1      -4.814  77.573 116.186  0.00  0.00     0.119 C 
BRANCH   8   9
ATOM      9  C   LIG d   1      -6.010  78.181 116.944  0.00  0.00     0.028 C 
ATOM     10  C   LIG d   1      -5.743  79.626 117.399  0.00  0.00     0.006 C 
ENDBRANCH   8   9
BRANCH   8  11
ATOM     11  C   LIG d   1      -5.218  76.127 115.884  0.00  0.00     0.028 C 
ATOM     12  C   LIG d   1      -4.856  75.693 114.455  0.00  0.00     0.006 C 
ENDBRANCH   8  11
ENDBRANCH   7   8
ENDBRANCH   1   7
BRANCH   6  13
ATOM     13  N   LIG d   1      -1.050  76.142 117.259  0.00  0.00    -0.311 N 
ATOM     14  C   LIG d   1      -1.404  74.942 117.715  0.00  0.00     0.210 C 
ATOM     15  C   LIG d   1      -0.704  74.509 119.007  0.00  0.00     0.109 C 
ATOM     16  O   LIG d   1      -2.208  74.181 117.155  0.00  0.00    -0.276 OA
ATOM     17  H   LIG d   1      -0.368  76.677 117.758  0.00  0.00     0.149 HD
ENDBRANCH   6  13
BRANCH   5  18
ATOM     18  N   LIG d   1       0.152  75.901 114.460  0.00  0.00     0.381 N 
ATOM     19  H   LIG d   1       0.970  76.180 113.955  0.00  0.00    -0.090 HD
ATOM     20  H   LIG d   1      -0.460  75.417 113.828  0.00  0.00    -0.090 HD
ATOM     21  H   LIG d   1       0.407  75.300 115.213  0.00  0.00    -0.090 HD
ENDBRANCH   5  18
BRANCH   3  22
ATOM     22  C   LIG d   1      -2.147  79.935 113.286  0.00  0.00     0.382 C 
ATOM     23  O   LIG d   1      -2.851  80.926 113.594  0.00  0.00    -0.241 OA
ATOM     24  O   LIG d   1      -1.610  79.890 112.163  0.00  0.00    -0.241 OA
ENDBRANCH   3  22
TORSDOF 7
ENDMDL
MODEL 5
REMARK VINA RESULT:      -4.4      2.501      5.091
REMARK  7 active torsions:
REMARK  status: ('A' for Active; 'I' for Inactive)
REMARK    1  A    between atoms: C_2  and  C_3 
REMARK    2  A    between atoms: C_3  and  O_6 
REMARK    3  A    between atoms: C_3  and  C_4 
REMARK    4  A    between atoms: C_7  and  O_6 
REMARK    5  A    between atoms: C_9  and  C_10 
REMARK    6  A    between atoms: N_15  and  C_14 
REMARK    7  A    between atoms: N_20  and  C_19 
REMARK       I    between atoms: C_22  and  N_20 
ROOT
ATOM      1  C   LIG d   1      -1.693  75.909 115.044  0.00  0.00     0.161 C 
ATOM      2  C   LIG d   1      -1.533  75.525 116.386  0.00  0.00     0.016 C 
ATOM      3  C   LIG d   1      -0.966  76.365 117.373  0.00  0.00     0.038 C 
ATOM      4  C   LIG d   1      -0.657  77.708 117.115  0.00  0.00     0.028 C 
ATOM      5  C   LIG d   1      -0.333  77.985 115.651  0.00  0.00    -0.047 C 
ATOM      6  C   LIG d   1      -1.464  77.410 114.769  0.00  0.00     0.091 C 
ENDROOT
BRANCH   1   7
ATOM      7  O   LIG d   1      -2.994  75.505 114.573  0.00  0.00    -0.368 OA
BRANCH   7   8
ATOM      8  C   LIG d   1      -4.043  75.446 115.570  0.00  0.00     0.119 C 
BRANCH   8   9
ATOM      9  C   LIG d   1      -4.945  74.245 115.224  0.00  0.00     0.028 C 
ATOM     10  C   LIG d   1      -6.201  74.180 116.108  0.00  0.00     0.006 C 
ENDBRANCH   8   9
BRANCH   8  11
ATOM     11  C   LIG d   1      -4.956  76.674 115.492  0.00  0.00     0.028 C 
ATOM     12  C   LIG d   1      -4.739  77.653 116.657  0.00  0.00     0.006 C 
ENDBRANCH   8  11
ENDBRANCH   7   8
ENDBRANCH   1   7
BRANCH   6  13
ATOM     13  N   LIG d   1      -1.185  77.563 113.317  0.00  0.00    -0.311 N 
ATOM     14  C   LIG d   1      -2.083  78.010 112.441  0.00  0.00     0.210 C 
ATOM     15  C   LIG d   1      -1.596  78.072 110.990  0.00  0.00     0.109 C 
ATOM     16  O   LIG d   1      -3.227  78.392 112.733  0.00  0.00    -0.276 OA
ATOM     17  H   LIG d   1      -0.272  77.306 112.999  0.00  0.00     0.149 HD
ENDBRANCH   6  13
BRANCH   5  18
ATOM     18  N   LIG d   1      -0.166  79.443 115.499  0.00  0.00     0.381 N 
ATOM     19  H   LIG d   1      -0.284  79.699 114.539  0.00  0.00    -0.090 HD
ATOM     20  H   LIG d   1       0.765  79.694 115.781  0.00  0.00    -0.090 HD
ATOM     21  H   LIG d   1      -0.833  79.923 116.063  0.00  0.00    -0.090 HD
ENDBRANCH   5  18
BRANCH   3  22
ATOM     22  C   LIG d   1      -0.665  75.848 118.624  0.00  0.00     0.382 C 
ATOM     23  O   LIG d   1      -1.307  74.866 119.068  0.00  0.00    -0.241 OA
ATOM     24  O   LIG d   1       0.209  76.380 119.334  0.00  0.00    -0.241 OA
ENDBRANCH   3  22
TORSDOF 7
ENDMDL
MODEL 6
REMARK VINA RESULT:      -4.3      2.824      5.698
REMARK  7 active torsions:
REMARK  status: ('A' for Active; 'I' for Inactive)
REMARK    1  A    between atoms: C_2  and  C_3 
REMARK    2  A    between atoms: C_3  and  O_6 
REMARK    3  A    between atoms: C_3  and  C_4 
REMARK    4  A    between atoms: C_7  and  O_6 
REMARK    5  A    between atoms: C_9  and  C_10 
REMARK    6  A    between atoms: N_15  and  C_14 
REMARK    7  A    between atoms: N_20  and  C_19 
REMARK       I    between atoms: C_22  and  N_20 
ROOT
ATOM      1  C   LIG d   1      -1.403  77.080 114.691  0.00  0.00     0.161 C 
ATOM      2  C   LIG d   1      -0.159  76.938 115.328  0.00  0.00     0.016 C 
ATOM      3  C   LIG d   1       0.084  76.003 116.360  0.00  0.00     0.038 C 
ATOM      4  C   LIG d   1      -0.865  75.036 116.723  0.00  0.00     0.028 C 
ATOM      5  C   LIG d   1      -2.303  75.468 116.458  0.00  0.00    -0.047 C 
ATOM      6  C   LIG d   1      -2.418  75.958 114.996  0.00  0.00     0.091 C 
ENDROOT
BRANCH   1   7
ATOM      7  O   LIG d   1      -1.211  77.207 113.268  0.00  0.00    -0.368 OA
BRANCH   7   8
ATOM      8  C   LIG d   1      -1.959  78.264 112.616  0.00  0.00     0.119 C 
BRANCH   8   9
ATOM      9  C   LIG d   1      -1.843  78.042 111.095  0.00  0.00     0.028 C 
ATOM     10  C   LIG d   1      -0.403  78.215 110.585  0.00  0.00     0.006 C 
ENDBRANCH   8   9
BRANCH   8  11
ATOM     11  C   LIG d   1      -1.327  79.635 112.875  0.00  0.00     0.028 C 
ATOM     12  C   LIG d   1      -2.371  80.752 113.026  0.00  0.00     0.006 C 
ENDBRANCH   8  11
ENDBRANCH   7   8
ENDBRANCH   1   7
BRANCH   6  13
ATOM     13  N   LIG d   1      -3.773  76.479 114.678  0.00  0.00    -0.311 N 
ATOM     14  C   LIG d   1      -4.752  75.722 114.185  0.00  0.00     0.210 C 
ATOM     15  C   LIG d   1      -6.065  76.462 113.909  0.00  0.00     0.109 C 
ATOM     16  O   LIG d   1      -4.668  74.502 113.980  0.00  0.00    -0.276 OA
ATOM     17  H   LIG d   1      -3.938  77.452 114.843  0.00  0.00     0.149 HD
ENDBRANCH   6  13
BRANCH   5  18
ATOM     18  N   LIG d   1      -3.176  74.317 116.752  0.00  0.00     0.381 N 
ATOM     19  H   LIG d   1      -3.718  74.087 115.943  0.00  0.00    -0.090 HD
ATOM     20  H   LIG d   1      -3.807  74.568 117.493  0.00  0.00    -0.090 HD
ATOM     21  H   LIG d   1      -2.626  73.533 117.027  0.00  0.00    -0.090 HD
ENDBRANCH   5  18
BRANCH   3  22
ATOM     22  C   LIG d   1       1.275  76.056 117.069  0.00  0.00     0.382 C 
ATOM     23  O   LIG d   1       1.989  75.029 117.173  0.00  0.00    -0.241 OA
ATOM     24  O   LIG d   1       1.623  77.105 117.642  0.00  0.00    -0.241 OA
ENDBRANCH   3  22
TORSDOF 7
ENDMDL
MODEL 7
REMARK VINA RESULT:      -4.3      2.777      5.672
REMARK  7 active torsions:
REMARK  status: ('A' for Active; 'I' for Inactive)
REMARK    1  A    between atoms: C_2  and  C_3 
REMARK    2  A    between atoms: C_3  and  O_6 
REMARK    3  A    between atoms: C_3  and  C_4 
REMARK    4  A    between atoms: C_7  and  O_6 
REMARK    5  A    between atoms: C_9  and  C_10 
REMARK    6  A    between atoms: N_15  and  C_14 
REMARK    7  A    between atoms: N_20  and  C_19 
REMARK       I    between atoms: C_22  and  N_20 
ROOT
ATOM      1  C   LIG d   1      -0.764  79.178 113.677  0.00  0.00     0.161 C 
ATOM      2  C   LIG d   1      -1.938  78.457 113.403  0.00  0.00     0.016 C 
ATOM      3  C   LIG d   1      -2.517  77.539 114.309  0.00  0.00     0.038 C 
ATOM      4  C   LIG d   1      -2.042  77.393 115.621  0.00  0.00     0.028 C 
ATOM      5  C   LIG d   1      -0.561  77.725 115.769  0.00  0.00    -0.047 C 
ATOM      6  C   LIG d   1      -0.294  79.114 115.145  0.00  0.00     0.091 C 
ENDROOT
BRANCH   1   7
ATOM      7  O   LIG d   1      -0.924  80.549 113.262  0.00  0.00    -0.368 OA
BRANCH   7   8
ATOM      8  C   LIG d   1      -0.273  80.920 112.022  0.00  0.00     0.119 C 
BRANCH   8   9
ATOM      9  C   LIG d   1       0.843  79.890 111.759  0.00  0.00     0.028 C 
ATOM     10  C   LIG d   1       2.240  80.532 111.736  0.00  0.00     0.006 C 
ENDBRANCH   8   9
BRANCH   8  11
ATOM     11  C   LIG d   1       0.441  82.268 112.149  0.00  0.00     0.028 C 
ATOM     12  C   LIG d   1      -0.351  83.424 111.518  0.00  0.00     0.006 C 
ENDBRANCH   8  11
ENDBRANCH   7   8
ENDBRANCH   1   7
BRANCH   6  13
ATOM     13  N   LIG d   1       1.147  79.480 115.172  0.00  0.00    -0.311 N 
ATOM     14  C   LIG d   1       1.689  80.255 116.111  0.00  0.00     0.210 C 
ATOM     15  C   LIG d   1       3.187  80.524 115.940  0.00  0.00     0.109 C 
ATOM     16  O   LIG d   1       1.078  80.717 117.086  0.00  0.00    -0.276 OA
ATOM     17  H   LIG d   1       1.722  79.122 114.436  0.00  0.00     0.149 HD
ENDBRANCH   6  13
BRANCH   5  18
ATOM     18  N   LIG d   1      -0.232  77.664 117.206  0.00  0.00     0.381 N 
ATOM     19  H   LIG d   1      -1.045  77.876 117.749  0.00  0.00    -0.090 HD
ATOM     20  H   LIG d   1       0.471  78.353 117.408  0.00  0.00    -0.090 HD
ATOM     21  H   LIG d   1       0.105  76.756 117.440  0.00  0.00    -0.090 HD
ENDBRANCH   5  18
BRANCH   3  22
ATOM     22  C   LIG d   1      -3.561  76.727 113.892  0.00  0.00     0.382 C 
ATOM     23  O   LIG d   1      -3.613  75.531 114.268  0.00  0.00    -0.241 OA
ATOM     24  O   LIG d   1      -4.427  77.163 113.110  0.00  0.00    -0.241 OA
ENDBRANCH   3  22
TORSDOF 7
ENDMDL
MODEL 8
REMARK VINA RESULT:      -4.3      2.589      4.847
REMARK  7 active torsions:
REMARK  status: ('A' for Active; 'I' for Inactive)
REMARK    1  A    between atoms: C_2  and  C_3 
REMARK    2  A    between atoms: C_3  and  O_6 
REMARK    3  A    between atoms: C_3  and  C_4 
REMARK    4  A    between atoms: C_7  and  O_6 
REMARK    5  A    between atoms: C_9  and  C_10 
REMARK    6  A    between atoms: N_15  and  C_14 
REMARK    7  A    between atoms: N_20  and  C_19 
REMARK       I    between atoms: C_22  and  N_20 
ROOT
ATOM      1  C   LIG d   1      -0.891  77.826 115.234  0.00  0.00     0.161 C 
ATOM      2  C   LIG d   1      -2.051  77.034 115.195  0.00  0.00     0.016 C 
ATOM      3  C   LIG d   1      -3.022  77.128 114.172  0.00  0.00     0.038 C 
ATOM      4  C   LIG d   1      -2.823  77.918 113.030  0.00  0.00     0.028 C 
ATOM      5  C   LIG d   1      -1.905  79.111 113.272  0.00  0.00    -0.047 C 
ATOM      6  C   LIG d   1      -0.602  78.615 113.939  0.00  0.00     0.091 C 
ENDROOT
BRANCH   1   7
ATOM      7  O   LIG d   1       0.245  77.011 115.588  0.00  0.00    -0.368 OA
BRANCH   7   8
ATOM      8  C   LIG d   1       0.168  76.331 116.864  0.00  0.00     0.119 C 
BRANCH   8   9
ATOM      9  C   LIG d   1       1.414  76.732 117.678  0.00  0.00     0.028 C 
ATOM     10  C   LIG d   1       1.444  78.235 118.003  0.00  0.00     0.006 C 
ENDBRANCH   8   9
BRANCH   8  11
ATOM     11  C   LIG d   1       0.267  74.812 116.693  0.00  0.00     0.028 C 
ATOM     12  C   LIG d   1       1.500  74.383 115.883  0.00  0.00     0.006 C 
ENDBRANCH   8  11
ENDBRANCH   7   8
ENDBRANCH   1   7
BRANCH   6  13
ATOM     13  N   LIG d   1       0.317  79.729 114.287  0.00  0.00    -0.311 N 
ATOM     14  C   LIG d   1       1.201  80.244 113.434  0.00  0.00     0.210 C 
ATOM     15  C   LIG d   1       2.065  81.374 114.002  0.00  0.00     0.109 C 
ATOM     16  O   LIG d   1       1.329  79.894 112.251  0.00  0.00    -0.276 OA
ATOM     17  H   LIG d   1       0.259  80.095 115.218  0.00  0.00     0.149 HD
ENDBRANCH   6  13
BRANCH   5  18
ATOM     18  N   LIG d   1      -1.675  79.768 111.972  0.00  0.00     0.381 N 
ATOM     19  H   LIG d   1      -2.118  79.243 111.244  0.00  0.00    -0.090 HD
ATOM     20  H   LIG d   1      -0.687  79.789 111.789  0.00  0.00    -0.090 HD
ATOM     21  H   LIG d   1      -2.037  80.696 111.989  0.00  0.00    -0.090 HD
ENDBRANCH   5  18
BRANCH   3  22
ATOM     22  C   LIG d   1      -4.227  76.454 114.305  0.00  0.00     0.382 C 
ATOM     23  O   LIG d   1      -5.227  77.046 114.778  0.00  0.00    -0.241 OA
ATOM     24  O   LIG d   1      -4.315  75.250 113.999  0.00  0.00    -0.241 OA
ENDBRANCH   3  22
TORSDOF 7
ENDMDL
MODEL 9
REMARK VINA RESULT:      -4.3      3.990      6.478
REMARK  7 active torsions:
REMARK  status: ('A' for Active; 'I' for Inactive)
REMARK    1  A    between atoms: C_2  and  C_3 
REMARK    2  A    between atoms: C_3  and  O_6 
REMARK    3  A    between atoms: C_3  and  C_4 
REMARK    4  A    between atoms: C_7  and  O_6 
REMARK    5  A    between atoms: C_9  and  C_10 
REMARK    6  A    between atoms: N_15  and  C_14 
REMARK    7  A    between atoms: N_20  and  C_19 
REMARK       I    between atoms: C_22  and  N_20 
ROOT
ATOM      1  C   LIG d   1       0.788  80.938 112.093  0.00  0.00     0.161 C 
ATOM      2  C   LIG d   1      -0.072  79.844 111.898  0.00  0.00     0.016 C 
ATOM      3  C   LIG d   1       0.196  78.797 110.986  0.00  0.00     0.038 C 
ATOM      4  C   LIG d   1       1.423  78.694 110.315  0.00  0.00     0.028 C 
ATOM      5  C   LIG d   1       2.110  80.039 110.100  0.00  0.00    -0.047 C 
ATOM      6  C   LIG d   1       2.183  80.786 111.451  0.00  0.00     0.091 C 
ENDROOT
BRANCH   1   7
ATOM      7  O   LIG d   1       0.912  81.215 113.502  0.00  0.00    -0.368 OA
BRANCH   7   8
ATOM      8  C   LIG d   1       1.654  80.244 114.280  0.00  0.00     0.119 C 
BRANCH   8   9
ATOM      9  C   LIG d   1       0.719  79.729 115.391  0.00  0.00     0.028 C 
ATOM     10  C   LIG d   1      -0.071  78.481 114.962  0.00  0.00     0.006 C 
ENDBRANCH   8   9
BRANCH   8  11
ATOM     11  C   LIG d   1       2.831  80.898 115.011  0.00  0.00     0.028 C 
ATOM     12  C   LIG d   1       2.772  82.433 114.982  0.00  0.00     0.006 C 
ENDBRANCH   8  11
ENDBRANCH   7   8
ENDBRANCH   1   7
BRANCH   6  13
ATOM     13  N   LIG d   1       2.765  82.147 111.316  0.00  0.00    -0.311 N 
ATOM     14  C   LIG d   1       2.197  83.120 110.606  0.00  0.00     0.210 C 
ATOM     15  C   LIG d   1       2.974  84.440 110.581  0.00  0.00     0.109 C 
ATOM     16  O   LIG d   1       1.108  83.026 110.021  0.00  0.00    -0.276 OA
ATOM     17  H   LIG d   1       3.633  82.320 111.784  0.00  0.00     0.149 HD
ENDBRANCH   6  13
BRANCH   5  18
ATOM     18  N   LIG d   1       3.438  79.773 109.515  0.00  0.00     0.381 N 
ATOM     19  H   LIG d   1       3.359  79.077 108.800  0.00  0.00    -0.090 HD
ATOM     20  H   LIG d   1       4.045  79.420 110.233  0.00  0.00    -0.090 HD
ATOM     21  H   LIG d   1       3.816  80.611 109.132  0.00  0.00    -0.090 HD
ENDBRANCH   5  18
BRANCH   3  22
ATOM     22  C   LIG d   1      -0.787  77.858 110.710  0.00  0.00     0.382 C 
ATOM     23  O   LIG d   1      -1.987  78.214 110.625  0.00  0.00    -0.241 OA
ATOM     24  O   LIG d   1      -0.493  76.654 110.588  0.00  0.00    -0.241 OA
ENDBRANCH   3  22
TORSDOF 7
ENDMDL
