MODEL 1
REMARK VINA RESULT:      -6.5      0.000      0.000
REMARK  7 active torsions:
REMARK  status: ('A' for Active; 'I' for Inactive)
REMARK    1  A    between atoms: C_2  and  C_3 
REMARK    2  A    between atoms: C_3  and  O_6 
REMARK    3  A    between atoms: C_3  and  C_4 
REMARK    4  A    between atoms: C_7  and  O_6 
REMARK    5  A    between atoms: C_9  and  C_10 
REMARK    6  A    between atoms: N_15  and  C_14 
REMARK    7  A    between atoms: N_20  and  C_19 
REMARK       I    between atoms: C_22  and  N_20 
ROOT
ATOM      1  C   LIG d   1      -1.422  77.714 113.515  0.00  0.00     0.161 C 
ATOM      2  C   LIG d   1      -2.040  78.974 113.566  0.00  0.00     0.016 C 
ATOM      3  C   LIG d   1      -1.918  79.943 112.544  0.00  0.00     0.038 C 
ATOM      4  C   LIG d   1      -1.289  79.658 111.323  0.00  0.00     0.028 C 
ATOM      5  C   LIG d   1      -0.219  78.576 111.432  0.00  0.00    -0.047 C 
ATOM      6  C   LIG d   1      -0.823  77.343 112.142  0.00  0.00     0.091 C 
ENDROOT
BRANCH   1   7
ATOM      7  O   LIG d   1      -2.347  76.697 113.948  0.00  0.00    -0.368 OA
BRANCH   7   8
ATOM      8  C   LIG d   1      -2.364  76.415 115.370  0.00  0.00     0.119 C 
BRANCH   8   9
ATOM      9  C   LIG d   1      -1.489  75.169 115.605  0.00  0.00     0.028 C 
ATOM     10  C   LIG d   1      -1.394  74.791 117.092  0.00  0.00     0.006 C 
ENDBRANCH   8   9
BRANCH   8  11
ATOM     11  C   LIG d   1      -3.766  76.021 115.843  0.00  0.00     0.028 C 
ATOM     12  C   LIG d   1      -4.787  75.957 114.695  0.00  0.00     0.006 C 
ENDBRANCH   8  11
ENDBRANCH   7   8
ENDBRANCH   1   7
BRANCH   6  13
ATOM     13  N   LIG d   1       0.180  76.269 112.364  0.00  0.00    -0.311 N 
ATOM     14  C   LIG d   1       0.562  75.414 111.416  0.00  0.00     0.210 C 
ATOM     15  C   LIG d   1       1.592  74.373 111.862  0.00  0.00     0.109 C 
ATOM     16  O   LIG d   1       0.168  75.440 110.241  0.00  0.00    -0.276 OA
ATOM     17  H   LIG d   1       0.575  76.196 113.282  0.00  0.00     0.149 HD
ENDBRANCH   6  13
BRANCH   5  18
ATOM     18  N   LIG d   1       0.257  78.282 110.067  0.00  0.00     0.381 N 
ATOM     19  H   LIG d   1       0.949  78.953 109.798  0.00  0.00    -0.090 HD
ATOM     20  H   LIG d   1      -0.517  78.354 109.430  0.00  0.00    -0.090 HD
ATOM     21  H   LIG d   1       0.642  77.364 110.031  0.00  0.00    -0.090 HD
ENDBRANCH   5  18
BRANCH   3  22
ATOM     22  C   LIG d   1      -2.396  81.228 112.754  0.00  0.00     0.382 C 
ATOM     23  O   LIG d   1      -3.275  81.435 113.625  0.00  0.00    -0.241 OA
ATOM     24  O   LIG d   1      -1.991  82.175 112.054  0.00  0.00    -0.241 OA
ENDBRANCH   3  22
TORSDOF 7
ENDMDL
MODEL 2
REMARK VINA RESULT:      -5.9      2.558      4.011
REMARK  7 active torsions:
REMARK  status: ('A' for Active; 'I' for Inactive)
REMARK    1  A    between atoms: C_2  and  C_3 
REMARK    2  A    between atoms: C_3  and  O_6 
REMARK    3  A    between atoms: C_3  and  C_4 
REMARK    4  A    between atoms: C_7  and  O_6 
REMARK    5  A    between atoms: C_9  and  C_10 
REMARK    6  A    between atoms: N_15  and  C_14 
REMARK    7  A    between atoms: N_20  and  C_19 
REMARK       I    between atoms: C_22  and  N_20 
ROOT
ATOM      1  C   LIG d   1      -2.514  77.940 116.179  0.00  0.00     0.161 C 
ATOM      2  C   LIG d   1      -2.854  78.866 115.178  0.00  0.00     0.016 C 
ATOM      3  C   LIG d   1      -2.096  79.049 113.999  0.00  0.00     0.038 C 
ATOM      4  C   LIG d   1      -1.024  78.208 113.667  0.00  0.00     0.028 C 
ATOM      5  C   LIG d   1      -0.339  77.592 114.883  0.00  0.00    -0.047 C 
ATOM      6  C   LIG d   1      -1.411  76.936 115.783  0.00  0.00     0.091 C 
ENDROOT
BRANCH   1   7
ATOM      7  O   LIG d   1      -3.694  77.240 116.618  0.00  0.00    -0.368 OA
BRANCH   7   8
ATOM      8  C   LIG d   1      -4.665  76.920 115.591  0.00  0.00     0.119 C 
BRANCH   8   9
ATOM      9  C   LIG d   1      -6.063  76.997 116.235  0.00  0.00     0.028 C 
ATOM     10  C   LIG d   1      -6.181  78.152 117.243  0.00  0.00     0.006 C 
ENDBRANCH   8   9
BRANCH   8  11
ATOM     11  C   LIG d   1      -4.517  75.471 115.117  0.00  0.00     0.028 C 
ATOM     12  C   LIG d   1      -5.863  74.819 114.763  0.00  0.00     0.006 C 
ENDBRANCH   8  11
ENDBRANCH   7   8
ENDBRANCH   1   7
BRANCH   6  13
ATOM     13  N   LIG d   1      -0.836  76.383 117.037  0.00  0.00    -0.311 N 
ATOM     14  C   LIG d   1      -1.171  75.194 117.535  0.00  0.00     0.210 C 
ATOM     15  C   LIG d   1      -0.475  74.823 118.849  0.00  0.00     0.109 C 
ATOM     16  O   LIG d   1      -1.955  74.397 116.998  0.00  0.00    -0.276 OA
ATOM     17  H   LIG d   1      -0.168  76.950 117.522  0.00  0.00     0.149 HD
ENDBRANCH   6  13
BRANCH   5  18
ATOM     18  N   LIG d   1       0.667  76.633 114.389  0.00  0.00     0.381 N 
ATOM     19  H   LIG d   1       0.865  75.955 115.097  0.00  0.00    -0.090 HD
ATOM     20  H   LIG d   1       1.516  77.130 114.182  0.00  0.00    -0.090 HD
ATOM     21  H   LIG d   1       0.331  76.179 113.568  0.00  0.00    -0.090 HD
ENDBRANCH   5  18
BRANCH   3  22
ATOM     22  C   LIG d   1      -2.386  80.111 113.155  0.00  0.00     0.382 C 
ATOM     23  O   LIG d   1      -3.129  81.041 113.550  0.00  0.00    -0.241 OA
ATOM     24  O   LIG d   1      -1.949  80.128 111.988  0.00  0.00    -0.241 OA
ENDBRANCH   3  22
TORSDOF 7
ENDMDL
MODEL 3
REMARK VINA RESULT:      -5.7      2.561      4.150
REMARK  7 active torsions:
REMARK  status: ('A' for Active; 'I' for Inactive)
REMARK    1  A    between atoms: C_2  and  C_3 
REMARK    2  A    between atoms: C_3  and  O_6 
REMARK    3  A    between atoms: C_3  and  C_4 
REMARK    4  A    between atoms: C_7  and  O_6 
REMARK    5  A    between atoms: C_9  and  C_10 
REMARK    6  A    between atoms: N_15  and  C_14 
REMARK    7  A    between atoms: N_20  and  C_19 
REMARK       I    between atoms: C_22  and  N_20 
ROOT
ATOM      1  C   LIG d   1      -2.778  78.436 115.585  0.00  0.00     0.161 C 
ATOM      2  C   LIG d   1      -2.916  79.503 114.682  0.00  0.00     0.016 C 
ATOM      3  C   LIG d   1      -2.152  79.624 113.498  0.00  0.00     0.038 C 
ATOM      4  C   LIG d   1      -1.299  78.601 113.058  0.00  0.00     0.028 C 
ATOM      5  C   LIG d   1      -0.753  77.738 114.192  0.00  0.00    -0.047 C 
ATOM      6  C   LIG d   1      -1.932  77.254 115.066  0.00  0.00     0.091 C 
ENDROOT
BRANCH   1   7
ATOM      7  O   LIG d   1      -4.080  77.977 116.000  0.00  0.00    -0.368 OA
BRANCH   7   8
ATOM      8  C   LIG d   1      -4.396  78.143 117.404  0.00  0.00     0.119 C 
BRANCH   8   9
ATOM      9  C   LIG d   1      -5.710  78.945 117.491  0.00  0.00     0.028 C 
ATOM     10  C   LIG d   1      -5.468  80.444 117.733  0.00  0.00     0.006 C 
ENDBRANCH   8   9
BRANCH   8  11
ATOM     11  C   LIG d   1      -3.348  79.005 118.114  0.00  0.00     0.028 C 
ATOM     12  C   LIG d   1      -2.667  78.275 119.281  0.00  0.00     0.006 C 
ENDBRANCH   8  11
ENDBRANCH   7   8
ENDBRANCH   1   7
BRANCH   6  13
ATOM     13  N   LIG d   1      -1.479  76.473 116.247  0.00  0.00    -0.311 N 
ATOM     14  C   LIG d   1      -1.979  75.283 116.574  0.00  0.00     0.210 C 
ATOM     15  C   LIG d   1      -1.385  74.658 117.840  0.00  0.00     0.109 C 
ATOM     16  O   LIG d   1      -2.835  74.671 115.918  0.00  0.00    -0.276 OA
ATOM     17  H   LIG d   1      -0.765  76.882 116.817  0.00  0.00     0.149 HD
ENDBRANCH   6  13
BRANCH   5  18
ATOM     18  N   LIG d   1       0.007  76.631 113.582  0.00  0.00     0.381 N 
ATOM     19  H   LIG d   1       0.013  76.731 112.587  0.00  0.00    -0.090 HD
ATOM     20  H   LIG d   1      -0.445  75.762 113.809  0.00  0.00    -0.090 HD
ATOM     21  H   LIG d   1       0.941  76.627 113.929  0.00  0.00    -0.090 HD
ENDBRANCH   5  18
BRANCH   3  22
ATOM     22  C   LIG d   1      -2.207  80.797 112.761  0.00  0.00     0.382 C 
ATOM     23  O   LIG d   1      -1.419  80.972 111.801  0.00  0.00    -0.241 OA
ATOM     24  O   LIG d   1      -3.006  81.701 113.072  0.00  0.00    -0.241 OA
ENDBRANCH   3  22
TORSDOF 7
ENDMDL
MODEL 4
REMARK VINA RESULT:      -5.2      2.968      5.769
REMARK  7 active torsions:
REMARK  status: ('A' for Active; 'I' for Inactive)
REMARK    1  A    between atoms: C_2  and  C_3 
REMARK    2  A    between atoms: C_3  and  O_6 
REMARK    3  A    between atoms: C_3  and  C_4 
REMARK    4  A    between atoms: C_7  and  O_6 
REMARK    5  A    between atoms: C_9  and  C_10 
REMARK    6  A    between atoms: N_15  and  C_14 
REMARK    7  A    between atoms: N_20  and  C_19 
REMARK       I    between atoms: C_22  and  N_20 
ROOT
ATOM      1  C   LIG d   1      -1.531  76.983 114.511  0.00  0.00     0.161 C 
ATOM      2  C   LIG d   1      -2.852  76.593 114.233  0.00  0.00     0.016 C 
ATOM      3  C   LIG d   1      -3.901  76.670 115.178  0.00  0.00     0.038 C 
ATOM      4  C   LIG d   1      -3.731  77.288 116.426  0.00  0.00     0.028 C 
ATOM      5  C   LIG d   1      -2.294  77.238 116.936  0.00  0.00    -0.047 C 
ATOM      6  C   LIG d   1      -1.351  77.763 115.830  0.00  0.00     0.091 C 
ENDROOT
BRANCH   1   7
ATOM      7  O   LIG d   1      -1.003  77.742 113.405  0.00  0.00    -0.368 OA
BRANCH   7   8
ATOM      8  C   LIG d   1      -1.942  78.604 112.717  0.00  0.00     0.119 C 
BRANCH   8   9
ATOM      9  C   LIG d   1      -1.878  78.255 111.217  0.00  0.00     0.028 C 
ATOM     10  C   LIG d   1      -0.677  78.908 110.513  0.00  0.00     0.006 C 
ENDBRANCH   8   9
BRANCH   8  11
ATOM     11  C   LIG d   1      -1.520  80.073 112.809  0.00  0.00     0.028 C 
ATOM     12  C   LIG d   1      -2.718  81.034 112.877  0.00  0.00     0.006 C 
ENDBRANCH   8  11
ENDBRANCH   7   8
ENDBRANCH   1   7
BRANCH   6  13
ATOM     13  N   LIG d   1       0.082  77.670 116.216  0.00  0.00    -0.311 N 
ATOM     14  C   LIG d   1       0.763  78.679 116.755  0.00  0.00     0.210 C 
ATOM     15  C   LIG d   1       2.234  78.377 117.059  0.00  0.00     0.109 C 
ATOM     16  O   LIG d   1       0.281  79.785 117.040  0.00  0.00    -0.276 OA
ATOM     17  H   LIG d   1       0.543  76.797 116.048  0.00  0.00     0.149 HD
ENDBRANCH   6  13
BRANCH   5  18
ATOM     18  N   LIG d   1      -2.233  78.036 118.175  0.00  0.00     0.381 N 
ATOM     19  H   LIG d   1      -3.145  78.381 118.401  0.00  0.00    -0.090 HD
ATOM     20  H   LIG d   1      -1.627  78.823 118.026  0.00  0.00    -0.090 HD
ATOM     21  H   LIG d   1      -1.887  77.477 118.924  0.00  0.00    -0.090 HD
ENDBRANCH   5  18
BRANCH   3  22
ATOM     22  C   LIG d   1      -5.127  76.089 114.893  0.00  0.00     0.382 C 
ATOM     23  O   LIG d   1      -5.179  75.045 114.199  0.00  0.00    -0.241 OA
ATOM     24  O   LIG d   1      -6.184  76.620 115.282  0.00  0.00    -0.241 OA
ENDBRANCH   3  22
TORSDOF 7
ENDMDL
MODEL 5
REMARK VINA RESULT:      -5.2      2.782      5.613
REMARK  7 active torsions:
REMARK  status: ('A' for Active; 'I' for Inactive)
REMARK    1  A    between atoms: C_2  and  C_3 
REMARK    2  A    between atoms: C_3  and  O_6 
REMARK    3  A    between atoms: C_3  and  C_4 
REMARK    4  A    between atoms: C_7  and  O_6 
REMARK    5  A    between atoms: C_9  and  C_10 
REMARK    6  A    between atoms: N_15  and  C_14 
REMARK    7  A    between atoms: N_20  and  C_19 
REMARK       I    between atoms: C_22  and  N_20 
ROOT
ATOM      1  C   LIG d   1      -2.146  76.639 115.153  0.00  0.00     0.161 C 
ATOM      2  C   LIG d   1      -2.013  75.808 116.278  0.00  0.00     0.016 C 
ATOM      3  C   LIG d   1      -1.228  76.143 117.405  0.00  0.00     0.038 C 
ATOM      4  C   LIG d   1      -0.639  77.409 117.548  0.00  0.00     0.028 C 
ATOM      5  C   LIG d   1      -0.331  78.087 116.218  0.00  0.00    -0.047 C 
ATOM      6  C   LIG d   1      -1.602  78.070 115.339  0.00  0.00     0.091 C 
ENDROOT
BRANCH   1   7
ATOM      7  O   LIG d   1      -3.525  76.677 114.735  0.00  0.00    -0.368 OA
BRANCH   7   8
ATOM      8  C   LIG d   1      -4.509  76.368 115.753  0.00  0.00     0.119 C 
BRANCH   8   9
ATOM      9  C   LIG d   1      -5.822  76.005 115.033  0.00  0.00     0.028 C 
ATOM     10  C   LIG d   1      -5.916  74.506 114.704  0.00  0.00     0.006 C 
ENDBRANCH   8   9
BRANCH   8  11
ATOM     11  C   LIG d   1      -4.839  77.600 116.601  0.00  0.00     0.028 C 
ATOM     12  C   LIG d   1      -6.320  77.666 117.006  0.00  0.00     0.006 C 
ENDBRANCH   8  11
ENDBRANCH   7   8
ENDBRANCH   1   7
BRANCH   6  13
ATOM     13  N   LIG d   1      -1.364  78.640 113.987  0.00  0.00    -0.311 N 
ATOM     14  C   LIG d   1      -2.079  79.641 113.477  0.00  0.00     0.210 C 
ATOM     15  C   LIG d   1      -1.681  80.062 112.059  0.00  0.00     0.109 C 
ATOM     16  O   LIG d   1      -2.984  80.241 114.076  0.00  0.00    -0.276 OA
ATOM     17  H   LIG d   1      -0.628  78.233 113.444  0.00  0.00     0.149 HD
ENDBRANCH   6  13
BRANCH   5  18
ATOM     18  N   LIG d   1       0.150  79.450 116.514  0.00  0.00     0.381 N 
ATOM     19  H   LIG d   1      -0.620  80.089 116.509  0.00  0.00    -0.090 HD
ATOM     20  H   LIG d   1       0.796  79.730 115.797  0.00  0.00    -0.090 HD
ATOM     21  H   LIG d   1       0.600  79.468 117.402  0.00  0.00    -0.090 HD
ENDBRANCH   5  18
BRANCH   3  22
ATOM     22  C   LIG d   1      -0.991  75.193 118.386  0.00  0.00     0.382 C 
ATOM     23  O   LIG d   1      -1.729  74.181 118.469  0.00  0.00    -0.241 OA
ATOM     24  O   LIG d   1      -0.078  75.356 119.217  0.00  0.00    -0.241 OA
ENDBRANCH   3  22
TORSDOF 7
ENDMDL
MODEL 6
REMARK VINA RESULT:      -5.1      3.218      6.072
REMARK  7 active torsions:
REMARK  status: ('A' for Active; 'I' for Inactive)
REMARK    1  A    between atoms: C_2  and  C_3 
REMARK    2  A    between atoms: C_3  and  O_6 
REMARK    3  A    between atoms: C_3  and  C_4 
REMARK    4  A    between atoms: C_7  and  O_6 
REMARK    5  A    between atoms: C_9  and  C_10 
REMARK    6  A    between atoms: N_15  and  C_14 
REMARK    7  A    between atoms: N_20  and  C_19 
REMARK       I    between atoms: C_22  and  N_20 
ROOT
ATOM      1  C   LIG d   1      -0.648  79.760 113.166  0.00  0.00     0.161 C 
ATOM      2  C   LIG d   1      -1.695  79.272 112.366  0.00  0.00     0.016 C 
ATOM      3  C   LIG d   1      -2.519  78.186 112.740  0.00  0.00     0.038 C 
ATOM      4  C   LIG d   1      -2.448  77.606 114.016  0.00  0.00     0.028 C 
ATOM      5  C   LIG d   1      -1.073  77.733 114.663  0.00  0.00    -0.047 C 
ATOM      6  C   LIG d   1      -0.627  79.212 114.608  0.00  0.00     0.091 C 
ENDROOT
BRANCH   1   7
ATOM      7  O   LIG d   1      -0.672  81.201 113.178  0.00  0.00    -0.368 OA
BRANCH   7   8
ATOM      8  C   LIG d   1      -0.112  81.857 112.014  0.00  0.00     0.119 C 
BRANCH   8   9
ATOM      9  C   LIG d   1       1.422  81.751 112.116  0.00  0.00     0.028 C 
ATOM     10  C   LIG d   1       2.062  81.237 110.815  0.00  0.00     0.006 C 
ENDBRANCH   8   9
BRANCH   8  11
ATOM     11  C   LIG d   1      -0.416  83.359 112.021  0.00  0.00     0.028 C 
ATOM     12  C   LIG d   1      -0.443  83.967 110.610  0.00  0.00     0.006 C 
ENDBRANCH   8  11
ENDBRANCH   7   8
ENDBRANCH   1   7
BRANCH   6  13
ATOM     13  N   LIG d   1       0.744  79.411 115.145  0.00  0.00    -0.311 N 
ATOM     14  C   LIG d   1       0.995  79.754 116.408  0.00  0.00     0.210 C 
ATOM     15  C   LIG d   1       2.479  79.927 116.748  0.00  0.00     0.109 C 
ATOM     16  O   LIG d   1       0.132  79.899 117.286  0.00  0.00    -0.276 OA
ATOM     17  H   LIG d   1       1.506  79.283 114.508  0.00  0.00     0.149 HD
ENDBRANCH   6  13
BRANCH   5  18
ATOM     18  N   LIG d   1      -1.178  77.211 116.038  0.00  0.00     0.381 N 
ATOM     19  H   LIG d   1      -1.537  76.277 116.020  0.00  0.00    -0.090 HD
ATOM     20  H   LIG d   1      -1.820  77.786 116.556  0.00  0.00    -0.090 HD
ATOM     21  H   LIG d   1      -0.283  77.222 116.477  0.00  0.00    -0.090 HD
ENDBRANCH   5  18
BRANCH   3  22
ATOM     22  C   LIG d   1      -3.400  77.642 111.818  0.00  0.00     0.382 C 
ATOM     23  O   LIG d   1      -4.624  77.576 112.084  0.00  0.00    -0.241 OA
ATOM     24  O   LIG d   1      -2.980  77.177 110.741  0.00  0.00    -0.241 OA
ENDBRANCH   3  22
TORSDOF 7
ENDMDL
MODEL 7
REMARK VINA RESULT:      -5.1      3.099      4.596
REMARK  7 active torsions:
REMARK  status: ('A' for Active; 'I' for Inactive)
REMARK    1  A    between atoms: C_2  and  C_3 
REMARK    2  A    between atoms: C_3  and  O_6 
REMARK    3  A    between atoms: C_3  and  C_4 
REMARK    4  A    between atoms: C_7  and  O_6 
REMARK    5  A    between atoms: C_9  and  C_10 
REMARK    6  A    between atoms: N_15  and  C_14 
REMARK    7  A    between atoms: N_20  and  C_19 
REMARK       I    between atoms: C_22  and  N_20 
ROOT
ATOM      1  C   LIG d   1      -2.493  78.072 115.901  0.00  0.00     0.161 C 
ATOM      2  C   LIG d   1      -3.028  77.674 114.665  0.00  0.00     0.016 C 
ATOM      3  C   LIG d   1      -2.410  77.953 113.424  0.00  0.00     0.038 C 
ATOM      4  C   LIG d   1      -1.130  78.520 113.344  0.00  0.00     0.028 C 
ATOM      5  C   LIG d   1      -0.778  79.393 114.543  0.00  0.00    -0.047 C 
ATOM      6  C   LIG d   1      -1.042  78.594 115.840  0.00  0.00     0.091 C 
ENDROOT
BRANCH   1   7
ATOM      7  O   LIG d   1      -2.597  76.991 116.849  0.00  0.00    -0.368 OA
BRANCH   7   8
ATOM      8  C   LIG d   1      -1.428  76.145 116.981  0.00  0.00     0.119 C 
BRANCH   8   9
ATOM      9  C   LIG d   1      -1.751  74.801 116.300  0.00  0.00     0.028 C 
ATOM     10  C   LIG d   1      -0.913  74.569 115.032  0.00  0.00     0.006 C 
ENDBRANCH   8   9
BRANCH   8  11
ATOM     11  C   LIG d   1      -1.152  75.800 118.448  0.00  0.00     0.028 C 
ATOM     12  C   LIG d   1      -1.497  74.343 118.792  0.00  0.00     0.006 C 
ENDBRANCH   8  11
ENDBRANCH   7   8
ENDBRANCH   1   7
BRANCH   6  13
ATOM     13  N   LIG d   1      -0.803  79.404 117.063  0.00  0.00    -0.311 N 
ATOM     14  C   LIG d   1       0.349  79.402 117.731  0.00  0.00     0.210 C 
ATOM     15  C   LIG d   1       0.377  80.293 118.976  0.00  0.00     0.109 C 
ATOM     16  O   LIG d   1       1.362  78.772 117.392  0.00  0.00    -0.276 OA
ATOM     17  H   LIG d   1      -1.562  79.970 117.391  0.00  0.00     0.149 HD
ENDBRANCH   6  13
BRANCH   5  18
ATOM     18  N   LIG d   1       0.630  79.807 114.396  0.00  0.00     0.381 N 
ATOM     19  H   LIG d   1       0.700  80.530 113.707  0.00  0.00    -0.090 HD
ATOM     20  H   LIG d   1       1.169  79.019 114.082  0.00  0.00    -0.090 HD
ATOM     21  H   LIG d   1       0.983  80.134 115.268  0.00  0.00    -0.090 HD
ENDBRANCH   5  18
BRANCH   3  22
ATOM     22  C   LIG d   1      -3.093  77.698 112.244  0.00  0.00     0.382 C 
ATOM     23  O   LIG d   1      -4.324  77.459 112.272  0.00  0.00    -0.241 OA
ATOM     24  O   LIG d   1      -2.485  77.661 111.158  0.00  0.00    -0.241 OA
ENDBRANCH   3  22
TORSDOF 7
ENDMDL
MODEL 8
REMARK VINA RESULT:      -5.1      2.975      5.183
REMARK  7 active torsions:
REMARK  status: ('A' for Active; 'I' for Inactive)
REMARK    1  A    between atoms: C_2  and  C_3 
REMARK    2  A    between atoms: C_3  and  O_6 
REMARK    3  A    between atoms: C_3  and  C_4 
REMARK    4  A    between atoms: C_7  and  O_6 
REMARK    5  A    between atoms: C_9  and  C_10 
REMARK    6  A    between atoms: N_15  and  C_14 
REMARK    7  A    between atoms: N_20  and  C_19 
REMARK       I    between atoms: C_22  and  N_20 
ROOT
ATOM      1  C   LIG d   1      -2.931  77.123 115.901  0.00  0.00     0.161 C 
ATOM      2  C   LIG d   1      -2.571  77.025 117.255  0.00  0.00     0.016 C 
ATOM      3  C   LIG d   1      -1.299  77.394 117.751  0.00  0.00     0.038 C 
ATOM      4  C   LIG d   1      -0.346  78.032 116.944  0.00  0.00     0.028 C 
ATOM      5  C   LIG d   1      -0.478  77.691 115.464  0.00  0.00    -0.047 C 
ATOM      6  C   LIG d   1      -1.942  77.921 115.025  0.00  0.00     0.091 C 
ENDROOT
BRANCH   1   7
ATOM      7  O   LIG d   1      -4.258  77.674 115.787  0.00  0.00    -0.368 OA
BRANCH   7   8
ATOM      8  C   LIG d   1      -5.261  76.803 115.207  0.00  0.00     0.119 C 
BRANCH   8   9
ATOM      9  C   LIG d   1      -6.433  76.720 116.204  0.00  0.00     0.028 C 
ATOM     10  C   LIG d   1      -6.432  77.883 117.210  0.00  0.00     0.006 C 
ENDBRANCH   8   9
BRANCH   8  11
ATOM     11  C   LIG d   1      -4.743  75.369 115.070  0.00  0.00     0.028 C 
ATOM     12  C   LIG d   1      -5.856  74.362 114.741  0.00  0.00     0.006 C 
ENDBRANCH   8  11
ENDBRANCH   7   8
ENDBRANCH   1   7
BRANCH   6  13
ATOM     13  N   LIG d   1      -2.178  77.530 113.610  0.00  0.00    -0.311 N 
ATOM     14  C   LIG d   1      -2.679  78.357 112.695  0.00  0.00     0.210 C 
ATOM     15  C   LIG d   1      -2.861  77.747 111.302  0.00  0.00     0.109 C 
ATOM     16  O   LIG d   1      -2.960  79.548 112.896  0.00  0.00    -0.276 OA
ATOM     17  H   LIG d   1      -1.948  76.590 113.352  0.00  0.00     0.149 HD
ENDBRANCH   6  13
BRANCH   5  18
ATOM     18  N   LIG d   1       0.485  78.528 114.725  0.00  0.00     0.381 N 
ATOM     19  H   LIG d   1       0.066  79.408 114.499  0.00  0.00    -0.090 HD
ATOM     20  H   LIG d   1       0.728  78.065 113.867  0.00  0.00    -0.090 HD
ATOM     21  H   LIG d   1       1.303  78.673 115.275  0.00  0.00    -0.090 HD
ENDBRANCH   5  18
BRANCH   3  22
ATOM     22  C   LIG d   1      -0.957  77.088 119.059  0.00  0.00     0.382 C 
ATOM     23  O   LIG d   1       0.162  77.432 119.511  0.00  0.00    -0.241 OA
ATOM     24  O   LIG d   1      -1.734  76.434 119.779  0.00  0.00    -0.241 OA
ENDBRANCH   3  22
TORSDOF 7
ENDMDL
MODEL 9
REMARK VINA RESULT:      -5.0      3.134      5.878
REMARK  7 active torsions:
REMARK  status: ('A' for Active; 'I' for Inactive)
REMARK    1  A    between atoms: C_2  and  C_3 
REMARK    2  A    between atoms: C_3  and  O_6 
REMARK    3  A    between atoms: C_3  and  C_4 
REMARK    4  A    between atoms: C_7  and  O_6 
REMARK    5  A    between atoms: C_9  and  C_10 
REMARK    6  A    between atoms: N_15  and  C_14 
REMARK    7  A    between atoms: N_20  and  C_19 
REMARK       I    between atoms: C_22  and  N_20 
ROOT
ATOM      1  C   LIG d   1      -2.718  78.569 115.709  0.00  0.00     0.161 C 
ATOM      2  C   LIG d   1      -1.377  78.886 115.985  0.00  0.00     0.016 C 
ATOM      3  C   LIG d   1      -0.427  77.935 116.421  0.00  0.00     0.038 C 
ATOM      4  C   LIG d   1      -0.717  76.563 116.467  0.00  0.00     0.028 C 
ATOM      5  C   LIG d   1      -2.197  76.265 116.683  0.00  0.00    -0.047 C 
ATOM      6  C   LIG d   1      -3.025  77.058 115.647  0.00  0.00     0.091 C 
ENDROOT
BRANCH   1   7
ATOM      7  O   LIG d   1      -3.132  79.216 114.489  0.00  0.00    -0.368 OA
BRANCH   7   8
ATOM      8  C   LIG d   1      -2.087  79.478 113.521  0.00  0.00     0.119 C 
BRANCH   8   9
ATOM      9  C   LIG d   1      -2.406  80.828 112.850  0.00  0.00     0.028 C 
ATOM     10  C   LIG d   1      -1.144  81.541 112.337  0.00  0.00     0.006 C 
ENDBRANCH   8   9
BRANCH   8  11
ATOM     11  C   LIG d   1      -2.106  78.448 112.388  0.00  0.00     0.028 C 
ATOM     12  C   LIG d   1      -1.000  77.390 112.526  0.00  0.00     0.006 C 
ENDBRANCH   8  11
ENDBRANCH   7   8
ENDBRANCH   1   7
BRANCH   6  13
ATOM     13  N   LIG d   1      -4.489  76.889 115.841  0.00  0.00    -0.311 N 
ATOM     14  C   LIG d   1      -5.224  76.015 115.155  0.00  0.00     0.210 C 
ATOM     15  C   LIG d   1      -6.717  76.016 115.497  0.00  0.00     0.109 C 
ATOM     16  O   LIG d   1      -4.775  75.217 114.319  0.00  0.00    -0.276 OA
ATOM     17  H   LIG d   1      -4.929  77.475 116.523  0.00  0.00     0.149 HD
ENDBRANCH   6  13
BRANCH   5  18
ATOM     18  N   LIG d   1      -2.378  74.805 116.572  0.00  0.00     0.381 N 
ATOM     19  H   LIG d   1      -2.096  74.497 115.663  0.00  0.00    -0.090 HD
ATOM     20  H   LIG d   1      -3.352  74.588 116.690  0.00  0.00    -0.090 HD
ATOM     21  H   LIG d   1      -1.840  74.340 117.270  0.00  0.00    -0.090 HD
ENDBRANCH   5  18
BRANCH   3  22
ATOM     22  C   LIG d   1       0.820  78.358 116.856  0.00  0.00     0.382 C 
ATOM     23  O   LIG d   1       1.407  77.739 117.776  0.00  0.00    -0.241 OA
ATOM     24  O   LIG d   1       1.345  79.378 116.371  0.00  0.00    -0.241 OA
ENDBRANCH   3  22
TORSDOF 7
ENDMDL
