MODEL 1
REMARK VINA RESULT:      -5.2      0.000      0.000
REMARK  7 active torsions:
REMARK  status: ('A' for Active; 'I' for Inactive)
REMARK    1  A    between atoms: C_2  and  C_3 
REMARK    2  A    between atoms: C_3  and  O_6 
REMARK    3  A    between atoms: C_3  and  C_4 
REMARK    4  A    between atoms: C_7  and  O_6 
REMARK    5  A    between atoms: C_9  and  C_10 
REMARK    6  A    between atoms: N_15  and  C_14 
REMARK    7  A    between atoms: N_20  and  C_19 
REMARK       I    between atoms: C_22  and  N_20 
ROOT
ATOM      1  C   LIG d   1       0.116  80.841 111.612  0.00  0.00     0.161 C 
ATOM      2  C   LIG d   1      -0.788  79.766 111.615  0.00  0.00     0.016 C 
ATOM      3  C   LIG d   1      -1.567  79.406 112.738  0.00  0.00     0.038 C 
ATOM      4  C   LIG d   1      -1.607  80.197 113.896  0.00  0.00     0.028 C 
ATOM      5  C   LIG d   1      -0.333  81.004 114.123  0.00  0.00    -0.047 C 
ATOM      6  C   LIG d   1       0.004  81.782 112.830  0.00  0.00     0.091 C 
ENDROOT
BRANCH   1   7
ATOM      7  O   LIG d   1      -0.018  81.589 110.387  0.00  0.00    -0.368 OA
BRANCH   7   8
ATOM      8  C   LIG d   1       1.101  81.514 109.470  0.00  0.00     0.119 C 
BRANCH   8   9
ATOM      9  C   LIG d   1       2.090  80.473 110.029  0.00  0.00     0.028 C 
ATOM     10  C   LIG d   1       3.439  81.097 110.422  0.00  0.00     0.006 C 
ENDBRANCH   8   9
BRANCH   8  11
ATOM     11  C   LIG d   1       1.879  82.832 109.430  0.00  0.00     0.028 C 
ATOM     12  C   LIG d   1       0.973  84.064 109.585  0.00  0.00     0.006 C 
ENDBRANCH   8  11
ENDBRANCH   7   8
ENDBRANCH   1   7
BRANCH   6  13
ATOM     13  N   LIG d   1       1.283  82.533 112.937  0.00  0.00    -0.311 N 
ATOM     14  C   LIG d   1       1.351  83.822 113.265  0.00  0.00     0.210 C 
ATOM     15  C   LIG d   1       2.766  84.406 113.299  0.00  0.00     0.109 C 
ATOM     16  O   LIG d   1       0.376  84.529 113.562  0.00  0.00    -0.276 OA
ATOM     17  H   LIG d   1       2.125  82.028 112.743  0.00  0.00     0.149 HD
ENDBRANCH   6  13
BRANCH   5  18
ATOM     18  N   LIG d   1      -0.563  81.884 115.284  0.00  0.00     0.381 N 
ATOM     19  H   LIG d   1      -0.187  81.461 116.109  0.00  0.00    -0.090 HD
ATOM     20  H   LIG d   1      -1.553  82.001 115.412  0.00  0.00    -0.090 HD
ATOM     21  H   LIG d   1      -0.134  82.770 115.131  0.00  0.00    -0.090 HD
ENDBRANCH   5  18
BRANCH   3  22
ATOM     22  C   LIG d   1      -2.288  78.222 112.724  0.00  0.00     0.382 C 
ATOM     23  O   LIG d   1      -1.975  77.289 113.503  0.00  0.00    -0.241 OA
ATOM     24  O   LIG d   1      -3.219  78.058 111.913  0.00  0.00    -0.241 OA
ENDBRANCH   3  22
TORSDOF 7
ENDMDL
MODEL 2
REMARK VINA RESULT:      -4.9      2.382      5.932
REMARK  7 active torsions:
REMARK  status: ('A' for Active; 'I' for Inactive)
REMARK    1  A    between atoms: C_2  and  C_3 
REMARK    2  A    between atoms: C_3  and  O_6 
REMARK    3  A    between atoms: C_3  and  C_4 
REMARK    4  A    between atoms: C_7  and  O_6 
REMARK    5  A    between atoms: C_9  and  C_10 
REMARK    6  A    between atoms: N_15  and  C_14 
REMARK    7  A    between atoms: N_20  and  C_19 
REMARK       I    between atoms: C_22  and  N_20 
ROOT
ATOM      1  C   LIG d   1       0.628  81.637 113.643  0.00  0.00     0.161 C 
ATOM      2  C   LIG d   1       1.452  82.541 112.952  0.00  0.00     0.016 C 
ATOM      3  C   LIG d   1       1.606  82.535 111.546  0.00  0.00     0.038 C 
ATOM      4  C   LIG d   1       0.824  81.716 110.719  0.00  0.00     0.028 C 
ATOM      5  C   LIG d   1       0.348  80.439 111.404  0.00  0.00    -0.047 C 
ATOM      6  C   LIG d   1      -0.318  80.810 112.749  0.00  0.00     0.091 C 
ENDROOT
BRANCH   1   7
ATOM      7  O   LIG d   1      -0.124  82.337 114.655  0.00  0.00    -0.368 OA
BRANCH   7   8
ATOM      8  C   LIG d   1      -1.232  83.142 114.182  0.00  0.00     0.119 C 
BRANCH   8   9
ATOM      9  C   LIG d   1      -0.971  84.595 114.625  0.00  0.00     0.028 C 
ATOM     10  C   LIG d   1      -0.019  84.679 115.830  0.00  0.00     0.006 C 
ENDBRANCH   8   9
BRANCH   8  11
ATOM     11  C   LIG d   1      -2.543  82.740 114.864  0.00  0.00     0.028 C 
ATOM     12  C   LIG d   1      -2.327  81.811 116.070  0.00  0.00     0.006 C 
ENDBRANCH   8  11
ENDBRANCH   7   8
ENDBRANCH   1   7
BRANCH   6  13
ATOM     13  N   LIG d   1      -0.736  79.612 113.523  0.00  0.00    -0.311 N 
ATOM     14  C   LIG d   1      -1.979  79.132 113.516  0.00  0.00     0.210 C 
ATOM     15  C   LIG d   1      -2.201  77.901 114.400  0.00  0.00     0.109 C 
ATOM     16  O   LIG d   1      -2.910  79.589 112.837  0.00  0.00    -0.276 OA
ATOM     17  H   LIG d   1      -0.036  79.160 114.078  0.00  0.00     0.149 HD
ENDBRANCH   6  13
BRANCH   5  18
ATOM     18  N   LIG d   1      -0.567  79.749 110.476  0.00  0.00     0.381 N 
ATOM     19  H   LIG d   1      -0.552  80.204 109.585  0.00  0.00    -0.090 HD
ATOM     20  H   LIG d   1      -1.502  79.802 110.841  0.00  0.00    -0.090 HD
ATOM     21  H   LIG d   1      -0.296  78.796 110.375  0.00  0.00    -0.090 HD
ENDBRANCH   5  18
BRANCH   3  22
ATOM     22  C   LIG d   1       2.580  83.327 110.958  0.00  0.00     0.382 C 
ATOM     23  O   LIG d   1       2.876  84.436 111.464  0.00  0.00    -0.241 OA
ATOM     24  O   LIG d   1       3.136  82.966 109.903  0.00  0.00    -0.241 OA
ENDBRANCH   3  22
TORSDOF 7
ENDMDL
MODEL 3
REMARK VINA RESULT:      -4.9      2.881      6.184
REMARK  7 active torsions:
REMARK  status: ('A' for Active; 'I' for Inactive)
REMARK    1  A    between atoms: C_2  and  C_3 
REMARK    2  A    between atoms: C_3  and  O_6 
REMARK    3  A    between atoms: C_3  and  C_4 
REMARK    4  A    between atoms: C_7  and  O_6 
REMARK    5  A    between atoms: C_9  and  C_10 
REMARK    6  A    between atoms: N_15  and  C_14 
REMARK    7  A    between atoms: N_20  and  C_19 
REMARK       I    between atoms: C_22  and  N_20 
ROOT
ATOM      1  C   LIG d   1      -0.210  80.397 114.443  0.00  0.00     0.161 C 
ATOM      2  C   LIG d   1      -0.264  81.612 113.739  0.00  0.00     0.016 C 
ATOM      3  C   LIG d   1      -0.971  81.777 112.525  0.00  0.00     0.038 C 
ATOM      4  C   LIG d   1      -1.802  80.772 112.009  0.00  0.00     0.028 C 
ATOM      5  C   LIG d   1      -1.378  79.365 112.418  0.00  0.00    -0.047 C 
ATOM      6  C   LIG d   1      -1.201  79.321 113.953  0.00  0.00     0.091 C 
ENDROOT
BRANCH   1   7
ATOM      7  O   LIG d   1      -0.391  80.641 115.852  0.00  0.00    -0.368 OA
BRANCH   7   8
ATOM      8  C   LIG d   1      -1.012  81.901 116.206  0.00  0.00     0.119 C 
BRANCH   8   9
ATOM      9  C   LIG d   1      -0.348  82.396 117.505  0.00  0.00     0.028 C 
ATOM     10  C   LIG d   1      -0.211  83.927 117.549  0.00  0.00     0.006 C 
ENDBRANCH   8   9
BRANCH   8  11
ATOM     11  C   LIG d   1      -2.492  81.715 116.553  0.00  0.00     0.028 C 
ATOM     12  C   LIG d   1      -3.432  82.371 115.528  0.00  0.00     0.006 C 
ENDBRANCH   8  11
ENDBRANCH   7   8
ENDBRANCH   1   7
BRANCH   6  13
ATOM     13  N   LIG d   1      -0.705  78.003 114.429  0.00  0.00    -0.311 N 
ATOM     14  C   LIG d   1      -1.507  76.979 114.716  0.00  0.00     0.210 C 
ATOM     15  C   LIG d   1      -0.791  75.717 115.210  0.00  0.00     0.109 C 
ATOM     16  O   LIG d   1      -2.739  76.984 114.578  0.00  0.00    -0.276 OA
ATOM     17  H   LIG d   1       0.284  77.901 114.539  0.00  0.00     0.149 HD
ENDBRANCH   6  13
BRANCH   5  18
ATOM     18  N   LIG d   1      -2.406  78.429 111.927  0.00  0.00     0.381 N 
ATOM     19  H   LIG d   1      -2.739  78.730 111.033  0.00  0.00    -0.090 HD
ATOM     20  H   LIG d   1      -3.180  78.430 112.568  0.00  0.00    -0.090 HD
ATOM     21  H   LIG d   1      -2.025  77.511 111.856  0.00  0.00    -0.090 HD
ENDBRANCH   5  18
BRANCH   3  22
ATOM     22  C   LIG d   1      -0.818  82.945 111.795  0.00  0.00     0.382 C 
ATOM     23  O   LIG d   1      -0.971  84.059 112.353  0.00  0.00    -0.241 OA
ATOM     24  O   LIG d   1      -0.573  82.900 110.574  0.00  0.00    -0.241 OA
ENDBRANCH   3  22
TORSDOF 7
ENDMDL
MODEL 4
REMARK VINA RESULT:      -4.8      3.311      7.158
REMARK  7 active torsions:
REMARK  status: ('A' for Active; 'I' for Inactive)
REMARK    1  A    between atoms: C_2  and  C_3 
REMARK    2  A    between atoms: C_3  and  O_6 
REMARK    3  A    between atoms: C_3  and  C_4 
REMARK    4  A    between atoms: C_7  and  O_6 
REMARK    5  A    between atoms: C_9  and  C_10 
REMARK    6  A    between atoms: N_15  and  C_14 
REMARK    7  A    between atoms: N_20  and  C_19 
REMARK       I    between atoms: C_22  and  N_20 
ROOT
ATOM      1  C   LIG d   1      -2.495  80.659 114.921  0.00  0.00     0.161 C 
ATOM      2  C   LIG d   1      -2.088  81.769 114.162  0.00  0.00     0.016 C 
ATOM      3  C   LIG d   1      -1.456  81.660 112.902  0.00  0.00     0.038 C 
ATOM      4  C   LIG d   1      -1.324  80.429 112.243  0.00  0.00     0.028 C 
ATOM      5  C   LIG d   1      -1.263  79.237 113.192  0.00  0.00    -0.047 C 
ATOM      6  C   LIG d   1      -2.459  79.312 114.169  0.00  0.00     0.091 C 
ENDROOT
BRANCH   1   7
ATOM      7  O   LIG d   1      -3.809  80.894 115.465  0.00  0.00    -0.368 OA
BRANCH   7   8
ATOM      8  C   LIG d   1      -3.927  80.806 116.907  0.00  0.00     0.119 C 
BRANCH   8   9
ATOM      9  C   LIG d   1      -5.371  80.375 117.227  0.00  0.00     0.028 C 
ATOM     10  C   LIG d   1      -5.560  78.850 117.147  0.00  0.00     0.006 C 
ENDBRANCH   8   9
BRANCH   8  11
ATOM     11  C   LIG d   1      -3.758  82.179 117.564  0.00  0.00     0.028 C 
ATOM     12  C   LIG d   1      -2.402  82.339 118.270  0.00  0.00     0.006 C 
ENDBRANCH   8  11
ENDBRANCH   7   8
ENDBRANCH   1   7
BRANCH   6  13
ATOM     13  N   LIG d   1      -2.428  78.229 115.187  0.00  0.00    -0.311 N 
ATOM     14  C   LIG d   1      -3.075  77.073 115.046  0.00  0.00     0.210 C 
ATOM     15  C   LIG d   1      -2.927  76.103 116.222  0.00  0.00     0.109 C 
ATOM     16  O   LIG d   1      -3.730  76.746 114.046  0.00  0.00    -0.276 OA
ATOM     17  H   LIG d   1      -1.894  78.398 116.017  0.00  0.00     0.149 HD
ENDBRANCH   6  13
BRANCH   5  18
ATOM     18  N   LIG d   1      -1.264  78.012 112.371  0.00  0.00     0.381 N 
ATOM     19  H   LIG d   1      -1.106  78.247 111.411  0.00  0.00    -0.090 HD
ATOM     20  H   LIG d   1      -2.165  77.572 112.443  0.00  0.00    -0.090 HD
ATOM     21  H   LIG d   1      -0.555  77.388 112.688  0.00  0.00    -0.090 HD
ENDBRANCH   5  18
BRANCH   3  22
ATOM     22  C   LIG d   1      -0.914  82.788 112.305  0.00  0.00     0.382 C 
ATOM     23  O   LIG d   1      -0.907  82.894 111.055  0.00  0.00    -0.241 OA
ATOM     24  O   LIG d   1      -0.391  83.680 113.000  0.00  0.00    -0.241 OA
ENDBRANCH   3  22
TORSDOF 7
ENDMDL
MODEL 5
REMARK VINA RESULT:      -4.8      2.243      4.555
REMARK  7 active torsions:
REMARK  status: ('A' for Active; 'I' for Inactive)
REMARK    1  A    between atoms: C_2  and  C_3 
REMARK    2  A    between atoms: C_3  and  O_6 
REMARK    3  A    between atoms: C_3  and  C_4 
REMARK    4  A    between atoms: C_7  and  O_6 
REMARK    5  A    between atoms: C_9  and  C_10 
REMARK    6  A    between atoms: N_15  and  C_14 
REMARK    7  A    between atoms: N_20  and  C_19 
REMARK       I    between atoms: C_22  and  N_20 
ROOT
ATOM      1  C   LIG d   1       0.529  82.775 112.574  0.00  0.00     0.161 C 
ATOM      2  C   LIG d   1      -0.755  82.352 112.958  0.00  0.00     0.016 C 
ATOM      3  C   LIG d   1      -1.355  81.162 112.487  0.00  0.00     0.038 C 
ATOM      4  C   LIG d   1      -0.648  80.231 111.712  0.00  0.00     0.028 C 
ATOM      5  C   LIG d   1       0.473  80.856 110.888  0.00  0.00    -0.047 C 
ATOM      6  C   LIG d   1       1.359  81.717 111.817  0.00  0.00     0.091 C 
ENDROOT
BRANCH   1   7
ATOM      7  O   LIG d   1       1.253  83.248 113.727  0.00  0.00    -0.368 OA
BRANCH   7   8
ATOM      8  C   LIG d   1       0.553  83.172 114.994  0.00  0.00     0.119 C 
BRANCH   8   9
ATOM      9  C   LIG d   1       0.750  84.521 115.713  0.00  0.00     0.028 C 
ATOM     10  C   LIG d   1       0.055  84.562 117.084  0.00  0.00     0.006 C 
ENDBRANCH   8   9
BRANCH   8  11
ATOM     11  C   LIG d   1       1.184  82.125 115.917  0.00  0.00     0.028 C 
ATOM     12  C   LIG d   1       0.490  80.756 115.827  0.00  0.00     0.006 C 
ENDBRANCH   8  11
ENDBRANCH   7   8
ENDBRANCH   1   7
BRANCH   6  13
ATOM     13  N   LIG d   1       2.430  82.432 111.076  0.00  0.00    -0.311 N 
ATOM     14  C   LIG d   1       2.191  83.271 110.069  0.00  0.00     0.210 C 
ATOM     15  C   LIG d   1       3.440  83.886 109.430  0.00  0.00     0.109 C 
ATOM     16  O   LIG d   1       1.062  83.589 109.667  0.00  0.00    -0.276 OA
ATOM     17  H   LIG d   1       3.375  82.256 111.358  0.00  0.00     0.149 HD
ENDBRANCH   6  13
BRANCH   5  18
ATOM     18  N   LIG d   1       1.213  79.758 110.237  0.00  0.00     0.381 N 
ATOM     19  H   LIG d   1       0.641  78.938 110.202  0.00  0.00    -0.090 HD
ATOM     20  H   LIG d   1       2.030  79.549 110.784  0.00  0.00    -0.090 HD
ATOM     21  H   LIG d   1       1.480  80.026 109.316  0.00  0.00    -0.090 HD
ENDBRANCH   5  18
BRANCH   3  22
ATOM     22  C   LIG d   1      -2.692  80.913 112.758  0.00  0.00     0.382 C 
ATOM     23  O   LIG d   1      -3.577  81.682 112.311  0.00  0.00    -0.241 OA
ATOM     24  O   LIG d   1      -3.022  79.954 113.481  0.00  0.00    -0.241 OA
ENDBRANCH   3  22
TORSDOF 7
ENDMDL
MODEL 6
REMARK VINA RESULT:      -4.7      2.079      4.032
REMARK  7 active torsions:
REMARK  status: ('A' for Active; 'I' for Inactive)
REMARK    1  A    between atoms: C_2  and  C_3 
REMARK    2  A    between atoms: C_3  and  O_6 
REMARK    3  A    between atoms: C_3  and  C_4 
REMARK    4  A    between atoms: C_7  and  O_6 
REMARK    5  A    between atoms: C_9  and  C_10 
REMARK    6  A    between atoms: N_15  and  C_14 
REMARK    7  A    between atoms: N_20  and  C_19 
REMARK       I    between atoms: C_22  and  N_20 
ROOT
ATOM      1  C   LIG d   1       0.215  81.541 113.134  0.00  0.00     0.161 C 
ATOM      2  C   LIG d   1      -0.814  80.658 113.499  0.00  0.00     0.016 C 
ATOM      3  C   LIG d   1      -1.362  79.695 112.620  0.00  0.00     0.038 C 
ATOM      4  C   LIG d   1      -0.809  79.448 111.354  0.00  0.00     0.028 C 
ATOM      5  C   LIG d   1      -0.098  80.657 110.757  0.00  0.00    -0.047 C 
ATOM      6  C   LIG d   1       0.906  81.212 111.794  0.00  0.00     0.091 C 
ENDROOT
BRANCH   1   7
ATOM      7  O   LIG d   1       1.189  81.621 114.193  0.00  0.00    -0.368 OA
BRANCH   7   8
ATOM      8  C   LIG d   1       1.375  82.928 114.791  0.00  0.00     0.119 C 
BRANCH   8   9
ATOM      9  C   LIG d   1       2.890  83.199 114.850  0.00  0.00     0.028 C 
ATOM     10  C   LIG d   1       3.296  84.444 114.044  0.00  0.00     0.006 C 
ENDBRANCH   8   9
BRANCH   8  11
ATOM     11  C   LIG d   1       0.903  82.945 116.248  0.00  0.00     0.028 C 
ATOM     12  C   LIG d   1      -0.554  83.413 116.397  0.00  0.00     0.006 C 
ENDBRANCH   8  11
ENDBRANCH   7   8
ENDBRANCH   1   7
BRANCH   6  13
ATOM     13  N   LIG d   1       1.584  82.447 111.322  0.00  0.00    -0.311 N 
ATOM     14  C   LIG d   1       2.780  82.447 110.735  0.00  0.00     0.210 C 
ATOM     15  C   LIG d   1       3.307  83.831 110.343  0.00  0.00     0.109 C 
ATOM     16  O   LIG d   1       3.440  81.430 110.472  0.00  0.00    -0.276 OA
ATOM     17  H   LIG d   1       1.106  83.314 111.467  0.00  0.00     0.149 HD
ENDBRANCH   6  13
BRANCH   5  18
ATOM     18  N   LIG d   1       0.548  80.221 109.504  0.00  0.00     0.381 N 
ATOM     19  H   LIG d   1       0.277  79.281 109.293  0.00  0.00    -0.090 HD
ATOM     20  H   LIG d   1       1.545  80.241 109.628  0.00  0.00    -0.090 HD
ATOM     21  H   LIG d   1       0.285  80.825 108.757  0.00  0.00    -0.090 HD
ENDBRANCH   5  18
BRANCH   3  22
ATOM     22  C   LIG d   1      -2.500  78.995 112.990  0.00  0.00     0.382 C 
ATOM     23  O   LIG d   1      -2.905  78.039 112.286  0.00  0.00    -0.241 OA
ATOM     24  O   LIG d   1      -3.152  79.336 113.995  0.00  0.00    -0.241 OA
ENDBRANCH   3  22
TORSDOF 7
ENDMDL
MODEL 7
REMARK VINA RESULT:      -4.5      1.982      4.008
REMARK  7 active torsions:
REMARK  status: ('A' for Active; 'I' for Inactive)
REMARK    1  A    between atoms: C_2  and  C_3 
REMARK    2  A    between atoms: C_3  and  O_6 
REMARK    3  A    between atoms: C_3  and  C_4 
REMARK    4  A    between atoms: C_7  and  O_6 
REMARK    5  A    between atoms: C_9  and  C_10 
REMARK    6  A    between atoms: N_15  and  C_14 
REMARK    7  A    between atoms: N_20  and  C_19 
REMARK       I    between atoms: C_22  and  N_20 
ROOT
ATOM      1  C   LIG d   1       0.147  81.636 113.069  0.00  0.00     0.161 C 
ATOM      2  C   LIG d   1      -0.870  80.742 113.446  0.00  0.00     0.016 C 
ATOM      3  C   LIG d   1      -1.378  79.737 112.591  0.00  0.00     0.038 C 
ATOM      4  C   LIG d   1      -0.795  79.458 111.346  0.00  0.00     0.028 C 
ATOM      5  C   LIG d   1      -0.099  80.661 110.720  0.00  0.00    -0.047 C 
ATOM      6  C   LIG d   1       0.871  81.275 111.755  0.00  0.00     0.091 C 
ENDROOT
BRANCH   1   7
ATOM      7  O   LIG d   1       1.098  81.776 114.143  0.00  0.00    -0.368 OA
BRANCH   7   8
ATOM      8  C   LIG d   1       1.096  83.049 114.835  0.00  0.00     0.119 C 
BRANCH   8   9
ATOM      9  C   LIG d   1      -0.372  83.492 114.984  0.00  0.00     0.028 C 
ATOM     10  C   LIG d   1      -0.921  83.238 116.398  0.00  0.00     0.006 C 
ENDBRANCH   8   9
BRANCH   8  11
ATOM     11  C   LIG d   1       1.766  84.140 113.994  0.00  0.00     0.028 C 
ATOM     12  C   LIG d   1       3.294  84.165 114.158  0.00  0.00     0.006 C 
ENDBRANCH   8  11
ENDBRANCH   7   8
ENDBRANCH   1   7
BRANCH   6  13
ATOM     13  N   LIG d   1       1.531  82.508 111.252  0.00  0.00    -0.311 N 
ATOM     14  C   LIG d   1       2.742  82.517 110.697  0.00  0.00     0.210 C 
ATOM     15  C   LIG d   1       3.245  83.898 110.264  0.00  0.00     0.109 C 
ATOM     16  O   LIG d   1       3.433  81.508 110.492  0.00  0.00    -0.276 OA
ATOM     17  H   LIG d   1       1.027  83.368 111.350  0.00  0.00     0.149 HD
ENDBRANCH   6  13
BRANCH   5  18
ATOM     18  N   LIG d   1       0.581  80.196 109.496  0.00  0.00     0.381 N 
ATOM     19  H   LIG d   1       1.100  80.949 109.090  0.00  0.00    -0.090 HD
ATOM     20  H   LIG d   1      -0.113  79.897 108.833  0.00  0.00    -0.090 HD
ATOM     21  H   LIG d   1       1.192  79.440 109.712  0.00  0.00    -0.090 HD
ENDBRANCH   5  18
BRANCH   3  22
ATOM     22  C   LIG d   1      -2.507  79.025 112.965  0.00  0.00     0.382 C 
ATOM     23  O   LIG d   1      -2.893  78.053 112.271  0.00  0.00    -0.241 OA
ATOM     24  O   LIG d   1      -3.171  79.368 113.961  0.00  0.00    -0.241 OA
ENDBRANCH   3  22
TORSDOF 7
ENDMDL
MODEL 8
REMARK VINA RESULT:      -4.5      4.816      8.009
REMARK  7 active torsions:
REMARK  status: ('A' for Active; 'I' for Inactive)
REMARK    1  A    between atoms: C_2  and  C_3 
REMARK    2  A    between atoms: C_3  and  O_6 
REMARK    3  A    between atoms: C_3  and  C_4 
REMARK    4  A    between atoms: C_7  and  O_6 
REMARK    5  A    between atoms: C_9  and  C_10 
REMARK    6  A    between atoms: N_15  and  C_14 
REMARK    7  A    between atoms: N_20  and  C_19 
REMARK       I    between atoms: C_22  and  N_20 
ROOT
ATOM      1  C   LIG d   1      -1.492  75.466 115.376  0.00  0.00     0.161 C 
ATOM      2  C   LIG d   1      -0.862  74.883 116.489  0.00  0.00     0.016 C 
ATOM      3  C   LIG d   1       0.010  75.590 117.348  0.00  0.00     0.038 C 
ATOM      4  C   LIG d   1       0.194  76.977 117.241  0.00  0.00     0.028 C 
ATOM      5  C   LIG d   1      -0.025  77.509 115.829  0.00  0.00    -0.047 C 
ATOM      6  C   LIG d   1      -1.391  77.004 115.308  0.00  0.00     0.091 C 
ENDROOT
BRANCH   1   7
ATOM      7  O   LIG d   1      -2.871  75.052 115.324  0.00  0.00    -0.368 OA
BRANCH   7   8
ATOM      8  C   LIG d   1      -3.821  75.909 116.004  0.00  0.00     0.119 C 
BRANCH   8   9
ATOM      9  C   LIG d   1      -4.340  75.139 117.234  0.00  0.00     0.028 C 
ATOM     10  C   LIG d   1      -3.695  75.622 118.544  0.00  0.00     0.006 C 
ENDBRANCH   8   9
BRANCH   8  11
ATOM     11  C   LIG d   1      -5.056  76.171 115.138  0.00  0.00     0.028 C 
ATOM     12  C   LIG d   1      -5.511  74.927 114.358  0.00  0.00     0.006 C 
ENDBRANCH   8  11
ENDBRANCH   7   8
ENDBRANCH   1   7
BRANCH   6  13
ATOM     13  N   LIG d   1      -1.646  77.410 113.902  0.00  0.00    -0.311 N 
ATOM     14  C   LIG d   1      -2.410  78.448 113.566  0.00  0.00     0.210 C 
ATOM     15  C   LIG d   1      -2.559  78.681 112.059  0.00  0.00     0.109 C 
ATOM     16  O   LIG d   1      -2.953  79.218 114.373  0.00  0.00    -0.276 OA
ATOM     17  H   LIG d   1      -1.219  76.859 113.183  0.00  0.00     0.149 HD
ENDBRANCH   6  13
BRANCH   5  18
ATOM     18  N   LIG d   1       0.062  78.981 115.889  0.00  0.00     0.381 N 
ATOM     19  H   LIG d   1      -0.741  79.386 115.451  0.00  0.00    -0.090 HD
ATOM     20  H   LIG d   1       0.880  79.278 115.385  0.00  0.00    -0.090 HD
ATOM     21  H   LIG d   1       0.120  79.281 116.837  0.00  0.00    -0.090 HD
ENDBRANCH   5  18
BRANCH   3  22
ATOM     22  C   LIG d   1       0.740  74.901 118.305  0.00  0.00     0.382 C 
ATOM     23  O   LIG d   1       1.993  74.966 118.303  0.00  0.00    -0.241 OA
ATOM     24  O   LIG d   1       0.164  74.181 119.141  0.00  0.00    -0.241 OA
ENDBRANCH   3  22
TORSDOF 7
ENDMDL
MODEL 9
REMARK VINA RESULT:      -4.4      4.525      7.741
REMARK  7 active torsions:
REMARK  status: ('A' for Active; 'I' for Inactive)
REMARK    1  A    between atoms: C_2  and  C_3 
REMARK    2  A    between atoms: C_3  and  O_6 
REMARK    3  A    between atoms: C_3  and  C_4 
REMARK    4  A    between atoms: C_7  and  O_6 
REMARK    5  A    between atoms: C_9  and  C_10 
REMARK    6  A    between atoms: N_15  and  C_14 
REMARK    7  A    between atoms: N_20  and  C_19 
REMARK       I    between atoms: C_22  and  N_20 
ROOT
ATOM      1  C   LIG d   1      -2.249  76.200 115.145  0.00  0.00     0.161 C 
ATOM      2  C   LIG d   1      -2.208  75.358 116.269  0.00  0.00     0.016 C 
ATOM      3  C   LIG d   1      -1.363  75.583 117.380  0.00  0.00     0.038 C 
ATOM      4  C   LIG d   1      -0.606  76.756 117.509  0.00  0.00     0.028 C 
ATOM      5  C   LIG d   1      -0.233  77.388 116.172  0.00  0.00    -0.047 C 
ATOM      6  C   LIG d   1      -1.512  77.545 115.318  0.00  0.00     0.091 C 
ENDROOT
BRANCH   1   7
ATOM      7  O   LIG d   1      -3.617  76.426 114.753  0.00  0.00    -0.368 OA
BRANCH   7   8
ATOM      8  C   LIG d   1      -4.630  75.960 115.678  0.00  0.00     0.119 C 
BRANCH   8   9
ATOM      9  C   LIG d   1      -5.620  75.089 114.881  0.00  0.00     0.028 C 
ATOM     10  C   LIG d   1      -6.495  74.212 115.792  0.00  0.00     0.006 C 
ENDBRANCH   8   9
BRANCH   8  11
ATOM     11  C   LIG d   1      -5.463  77.124 116.225  0.00  0.00     0.028 C 
ATOM     12  C   LIG d   1      -4.603  78.211 116.889  0.00  0.00     0.006 C 
ENDBRANCH   8  11
ENDBRANCH   7   8
ENDBRANCH   1   7
BRANCH   6  13
ATOM     13  N   LIG d   1      -1.224  78.078 113.960  0.00  0.00    -0.311 N 
ATOM     14  C   LIG d   1      -1.967  79.010 113.366  0.00  0.00     0.210 C 
ATOM     15  C   LIG d   1      -1.508  79.403 111.959  0.00  0.00     0.109 C 
ATOM     16  O   LIG d   1      -2.945  79.571 113.884  0.00  0.00    -0.276 OA
ATOM     17  H   LIG d   1      -0.431  77.700 113.481  0.00  0.00     0.149 HD
ENDBRANCH   6  13
BRANCH   5  18
ATOM     18  N   LIG d   1       0.433  78.673 116.457  0.00  0.00     0.381 N 
ATOM     19  H   LIG d   1       0.283  78.928 117.412  0.00  0.00    -0.090 HD
ATOM     20  H   LIG d   1       0.031  79.384 115.873  0.00  0.00    -0.090 HD
ATOM     21  H   LIG d   1       1.410  78.598 116.275  0.00  0.00    -0.090 HD
ENDBRANCH   5  18
BRANCH   3  22
ATOM     22  C   LIG d   1      -1.240  74.608 118.358  0.00  0.00     0.382 C 
ATOM     23  O   LIG d   1      -2.260  74.182 118.951  0.00  0.00    -0.241 OA
ATOM     24  O   LIG d   1      -0.116  74.180 118.686  0.00  0.00    -0.241 OA
ENDBRANCH   3  22
TORSDOF 7
ENDMDL
