MODEL 1
REMARK VINA RESULT:      -5.3      0.000      0.000
REMARK  7 active torsions:
REMARK  status: ('A' for Active; 'I' for Inactive)
REMARK    1  A    between atoms: C_2  and  C_3 
REMARK    2  A    between atoms: C_3  and  O_6 
REMARK    3  A    between atoms: C_3  and  C_4 
REMARK    4  A    between atoms: C_7  and  O_6 
REMARK    5  A    between atoms: C_9  and  C_10 
REMARK    6  A    between atoms: N_15  and  C_14 
REMARK    7  A    between atoms: N_20  and  C_19 
REMARK       I    between atoms: C_22  and  N_20 
ROOT
ATOM      1  C   LIG d   1      -3.057  78.762 115.486  0.00  0.00     0.161 C 
ATOM      2  C   LIG d   1      -2.931  79.883 114.649  0.00  0.00     0.016 C 
ATOM      3  C   LIG d   1      -2.083  79.919 113.519  0.00  0.00     0.038 C 
ATOM      4  C   LIG d   1      -1.412  78.776 113.058  0.00  0.00     0.028 C 
ATOM      5  C   LIG d   1      -1.114  77.764 114.159  0.00  0.00    -0.047 C 
ATOM      6  C   LIG d   1      -2.418  77.469 114.936  0.00  0.00     0.091 C 
ENDROOT
BRANCH   1   7
ATOM      7  O   LIG d   1      -4.446  78.539 115.800  0.00  0.00    -0.368 OA
BRANCH   7   8
ATOM      8  C   LIG d   1      -4.826  78.734 117.185  0.00  0.00     0.119 C 
BRANCH   8   9
ATOM      9  C   LIG d   1      -5.955  77.734 117.500  0.00  0.00     0.028 C 
ATOM     10  C   LIG d   1      -6.076  76.631 116.435  0.00  0.00     0.006 C 
ENDBRANCH   8   9
BRANCH   8  11
ATOM     11  C   LIG d   1      -5.439  80.120 117.405  0.00  0.00     0.028 C 
ATOM     12  C   LIG d   1      -6.955  80.069 117.650  0.00  0.00     0.006 C 
ENDBRANCH   8  11
ENDBRANCH   7   8
ENDBRANCH   1   7
BRANCH   6  13
ATOM     13  N   LIG d   1      -2.198  76.552 116.085  0.00  0.00    -0.311 N 
ATOM     14  C   LIG d   1      -2.361  75.232 116.011  0.00  0.00     0.210 C 
ATOM     15  C   LIG d   1      -2.101  74.474 117.317  0.00  0.00     0.109 C 
ATOM     16  O   LIG d   1      -2.663  74.614 114.979  0.00  0.00    -0.276 OA
ATOM     17  H   LIG d   1      -1.920  76.967 116.953  0.00  0.00     0.149 HD
ENDBRANCH   6  13
BRANCH   5  18
ATOM     18  N   LIG d   1      -0.539  76.566 113.520  0.00  0.00     0.381 N 
ATOM     19  H   LIG d   1      -0.698  76.600 112.532  0.00  0.00    -0.090 HD
ATOM     20  H   LIG d   1      -0.999  75.750 113.885  0.00  0.00    -0.090 HD
ATOM     21  H   LIG d   1       0.438  76.516 113.705  0.00  0.00    -0.090 HD
ENDBRANCH   5  18
BRANCH   3  22
ATOM     22  C   LIG d   1      -1.868  81.119 112.859  0.00  0.00     0.382 C 
ATOM     23  O   LIG d   1      -0.698  81.512 112.638  0.00  0.00    -0.241 OA
ATOM     24  O   LIG d   1      -2.830  81.835 112.521  0.00  0.00    -0.241 OA
ENDBRANCH   3  22
TORSDOF 7
ENDMDL
MODEL 2
REMARK VINA RESULT:      -5.0      3.497      6.525
REMARK  7 active torsions:
REMARK  status: ('A' for Active; 'I' for Inactive)
REMARK    1  A    between atoms: C_2  and  C_3 
REMARK    2  A    between atoms: C_3  and  O_6 
REMARK    3  A    between atoms: C_3  and  C_4 
REMARK    4  A    between atoms: C_7  and  O_6 
REMARK    5  A    between atoms: C_9  and  C_10 
REMARK    6  A    between atoms: N_15  and  C_14 
REMARK    7  A    between atoms: N_20  and  C_19 
REMARK       I    between atoms: C_22  and  N_20 
ROOT
ATOM      1  C   LIG d   1      -0.160  80.167 112.896  0.00  0.00     0.161 C 
ATOM      2  C   LIG d   1      -1.227  79.630 112.156  0.00  0.00     0.016 C 
ATOM      3  C   LIG d   1      -2.089  78.625 112.651  0.00  0.00     0.038 C 
ATOM      4  C   LIG d   1      -2.036  78.193 113.984  0.00  0.00     0.028 C 
ATOM      5  C   LIG d   1      -0.656  78.342 114.615  0.00  0.00    -0.047 C 
ATOM      6  C   LIG d   1      -0.155  79.788 114.392  0.00  0.00     0.091 C 
ENDROOT
BRANCH   1   7
ATOM      7  O   LIG d   1      -0.131  81.600 112.742  0.00  0.00    -0.368 OA
BRANCH   7   8
ATOM      8  C   LIG d   1       0.931  82.130 111.912  0.00  0.00     0.119 C 
BRANCH   8   9
ATOM      9  C   LIG d   1       0.292  82.612 110.595  0.00  0.00     0.028 C 
ATOM     10  C   LIG d   1      -0.510  83.913 110.773  0.00  0.00     0.006 C 
ENDBRANCH   8   9
BRANCH   8  11
ATOM     11  C   LIG d   1       1.920  81.034 111.505  0.00  0.00     0.028 C 
ATOM     12  C   LIG d   1       2.034  80.870 109.981  0.00  0.00     0.006 C 
ENDBRANCH   8  11
ENDBRANCH   7   8
ENDBRANCH   1   7
BRANCH   6  13
ATOM     13  N   LIG d   1       1.224  79.996 114.904  0.00  0.00    -0.311 N 
ATOM     14  C   LIG d   1       1.492  80.406 116.143  0.00  0.00     0.210 C 
ATOM     15  C   LIG d   1       2.981  80.575 116.460  0.00  0.00     0.109 C 
ATOM     16  O   LIG d   1       0.640  80.614 117.019  0.00  0.00    -0.276 OA
ATOM     17  H   LIG d   1       1.978  79.819 114.269  0.00  0.00     0.149 HD
ENDBRANCH   6  13
BRANCH   5  18
ATOM     18  N   LIG d   1      -0.776  77.986 116.041  0.00  0.00     0.381 N 
ATOM     19  H   LIG d   1      -0.466  78.749 116.608  0.00  0.00    -0.090 HD
ATOM     20  H   LIG d   1      -0.187  77.194 116.229  0.00  0.00    -0.090 HD
ATOM     21  H   LIG d   1      -1.723  77.764 116.258  0.00  0.00    -0.090 HD
ENDBRANCH   5  18
BRANCH   3  22
ATOM     22  C   LIG d   1      -2.993  78.013 111.796  0.00  0.00     0.382 C 
ATOM     23  O   LIG d   1      -2.791  78.025 110.557  0.00  0.00    -0.241 OA
ATOM     24  O   LIG d   1      -4.029  77.487 112.243  0.00  0.00    -0.241 OA
ENDBRANCH   3  22
TORSDOF 7
ENDMDL
MODEL 3
REMARK VINA RESULT:      -5.0      1.482      2.308
REMARK  7 active torsions:
REMARK  status: ('A' for Active; 'I' for Inactive)
REMARK    1  A    between atoms: C_2  and  C_3 
REMARK    2  A    between atoms: C_3  and  O_6 
REMARK    3  A    between atoms: C_3  and  C_4 
REMARK    4  A    between atoms: C_7  and  O_6 
REMARK    5  A    between atoms: C_9  and  C_10 
REMARK    6  A    between atoms: N_15  and  C_14 
REMARK    7  A    between atoms: N_20  and  C_19 
REMARK       I    between atoms: C_22  and  N_20 
ROOT
ATOM      1  C   LIG d   1      -2.642  77.865 116.328  0.00  0.00     0.161 C 
ATOM      2  C   LIG d   1      -2.984  78.776 115.314  0.00  0.00     0.016 C 
ATOM      3  C   LIG d   1      -2.365  78.794 114.043  0.00  0.00     0.038 C 
ATOM      4  C   LIG d   1      -1.460  77.798 113.645  0.00  0.00     0.028 C 
ATOM      5  C   LIG d   1      -0.712  77.159 114.810  0.00  0.00    -0.047 C 
ATOM      6  C   LIG d   1      -1.736  76.702 115.874  0.00  0.00     0.091 C 
ENDROOT
BRANCH   1   7
ATOM      7  O   LIG d   1      -3.838  77.356 116.951  0.00  0.00    -0.368 OA
BRANCH   7   8
ATOM      8  C   LIG d   1      -4.981  77.170 116.079  0.00  0.00     0.119 C 
BRANCH   8   9
ATOM      9  C   LIG d   1      -6.247  77.457 116.909  0.00  0.00     0.028 C 
ATOM     10  C   LIG d   1      -6.339  78.928 117.349  0.00  0.00     0.006 C 
ENDBRANCH   8   9
BRANCH   8  11
ATOM     11  C   LIG d   1      -5.110  75.710 115.635  0.00  0.00     0.028 C 
ATOM     12  C   LIG d   1      -5.581  75.570 114.178  0.00  0.00     0.006 C 
ENDBRANCH   8  11
ENDBRANCH   7   8
ENDBRANCH   1   7
BRANCH   6  13
ATOM     13  N   LIG d   1      -1.083  76.141 117.085  0.00  0.00    -0.311 N 
ATOM     14  C   LIG d   1      -1.411  74.964 117.616  0.00  0.00     0.210 C 
ATOM     15  C   LIG d   1      -0.628  74.583 118.877  0.00  0.00     0.109 C 
ATOM     16  O   LIG d   1      -2.253  74.185 117.145  0.00  0.00    -0.276 OA
ATOM     17  H   LIG d   1      -0.367  76.693 117.514  0.00  0.00     0.149 HD
ENDBRANCH   6  13
BRANCH   5  18
ATOM     18  N   LIG d   1       0.092  76.048 114.267  0.00  0.00     0.381 N 
ATOM     19  H   LIG d   1       1.030  76.110 114.608  0.00  0.00    -0.090 HD
ATOM     20  H   LIG d   1       0.116  76.123 113.265  0.00  0.00    -0.090 HD
ATOM     21  H   LIG d   1      -0.309  75.175 114.533  0.00  0.00    -0.090 HD
ENDBRANCH   5  18
BRANCH   3  22
ATOM     22  C   LIG d   1      -2.620  79.840 113.169  0.00  0.00     0.382 C 
ATOM     23  O   LIG d   1      -2.199  79.787 111.989  0.00  0.00    -0.241 OA
ATOM     24  O   LIG d   1      -3.227  80.855 113.559  0.00  0.00    -0.241 OA
ENDBRANCH   3  22
TORSDOF 7
ENDMDL
MODEL 4
REMARK VINA RESULT:      -4.9      2.901      4.284
REMARK  7 active torsions:
REMARK  status: ('A' for Active; 'I' for Inactive)
REMARK    1  A    between atoms: C_2  and  C_3 
REMARK    2  A    between atoms: C_3  and  O_6 
REMARK    3  A    between atoms: C_3  and  C_4 
REMARK    4  A    between atoms: C_7  and  O_6 
REMARK    5  A    between atoms: C_9  and  C_10 
REMARK    6  A    between atoms: N_15  and  C_14 
REMARK    7  A    between atoms: N_20  and  C_19 
REMARK       I    between atoms: C_22  and  N_20 
ROOT
ATOM      1  C   LIG d   1      -2.316  77.785 115.544  0.00  0.00     0.161 C 
ATOM      2  C   LIG d   1      -2.784  77.676 114.224  0.00  0.00     0.016 C 
ATOM      3  C   LIG d   1      -2.132  78.264 113.116  0.00  0.00     0.038 C 
ATOM      4  C   LIG d   1      -0.877  78.878 113.235  0.00  0.00     0.028 C 
ATOM      5  C   LIG d   1      -0.611  79.451 114.623  0.00  0.00    -0.047 C 
ATOM      6  C   LIG d   1      -0.889  78.356 115.679  0.00  0.00     0.091 C 
ENDROOT
BRANCH   1   7
ATOM      7  O   LIG d   1      -2.407  76.506 116.202  0.00  0.00    -0.368 OA
BRANCH   7   8
ATOM      8  C   LIG d   1      -2.589  75.357 115.339  0.00  0.00     0.119 C 
BRANCH   8   9
ATOM      9  C   LIG d   1      -3.854  74.616 115.814  0.00  0.00     0.028 C 
ATOM     10  C   LIG d   1      -4.973  74.629 114.758  0.00  0.00     0.006 C 
ENDBRANCH   8   9
BRANCH   8  11
ATOM     11  C   LIG d   1      -1.446  74.351 115.502  0.00  0.00     0.028 C 
ATOM     12  C   LIG d   1      -0.187  74.748 114.715  0.00  0.00     0.006 C 
ENDBRANCH   8  11
ENDBRANCH   7   8
ENDBRANCH   1   7
BRANCH   6  13
ATOM     13  N   LIG d   1      -0.734  78.858 117.069  0.00  0.00    -0.311 N 
ATOM     14  C   LIG d   1       0.391  78.736 117.772  0.00  0.00     0.210 C 
ATOM     15  C   LIG d   1       0.330  79.304 119.193  0.00  0.00     0.109 C 
ATOM     16  O   LIG d   1       1.443  78.240 117.341  0.00  0.00    -0.276 OA
ATOM     17  H   LIG d   1      -1.529  79.302 117.485  0.00  0.00     0.149 HD
ENDBRANCH   6  13
BRANCH   5  18
ATOM     18  N   LIG d   1       0.782  79.936 114.646  0.00  0.00     0.381 N 
ATOM     19  H   LIG d   1       1.356  79.344 114.080  0.00  0.00    -0.090 HD
ATOM     20  H   LIG d   1       1.124  79.898 115.590  0.00  0.00    -0.090 HD
ATOM     21  H   LIG d   1       0.822  80.872 114.308  0.00  0.00    -0.090 HD
ENDBRANCH   5  18
BRANCH   3  22
ATOM     22  C   LIG d   1      -2.757  78.276 111.878  0.00  0.00     0.382 C 
ATOM     23  O   LIG d   1      -3.860  77.698 111.727  0.00  0.00    -0.241 OA
ATOM     24  O   LIG d   1      -2.210  78.820 110.900  0.00  0.00    -0.241 OA
ENDBRANCH   3  22
TORSDOF 7
ENDMDL
MODEL 5
REMARK VINA RESULT:      -4.9      2.689      4.934
REMARK  7 active torsions:
REMARK  status: ('A' for Active; 'I' for Inactive)
REMARK    1  A    between atoms: C_2  and  C_3 
REMARK    2  A    between atoms: C_3  and  O_6 
REMARK    3  A    between atoms: C_3  and  C_4 
REMARK    4  A    between atoms: C_7  and  O_6 
REMARK    5  A    between atoms: C_9  and  C_10 
REMARK    6  A    between atoms: N_15  and  C_14 
REMARK    7  A    between atoms: N_20  and  C_19 
REMARK       I    between atoms: C_22  and  N_20 
ROOT
ATOM      1  C   LIG d   1      -2.783  78.019 115.211  0.00  0.00     0.161 C 
ATOM      2  C   LIG d   1      -1.466  78.295 115.617  0.00  0.00     0.016 C 
ATOM      3  C   LIG d   1      -0.628  77.341 116.239  0.00  0.00     0.038 C 
ATOM      4  C   LIG d   1      -1.000  75.994 116.361  0.00  0.00     0.028 C 
ATOM      5  C   LIG d   1      -2.509  75.786 116.423  0.00  0.00    -0.047 C 
ATOM      6  C   LIG d   1      -3.167  76.524 115.235  0.00  0.00     0.091 C 
ENDROOT
BRANCH   1   7
ATOM      7  O   LIG d   1      -3.017  78.576 113.903  0.00  0.00    -0.368 OA
BRANCH   7   8
ATOM      8  C   LIG d   1      -1.985  79.453 113.389  0.00  0.00     0.119 C 
BRANCH   8   9
ATOM      9  C   LIG d   1      -2.616  80.844 113.190  0.00  0.00     0.028 C 
ATOM     10  C   LIG d   1      -1.681  81.813 112.448  0.00  0.00     0.006 C 
ENDBRANCH   8   9
BRANCH   8  11
ATOM     11  C   LIG d   1      -1.523  79.015 111.996  0.00  0.00     0.028 C 
ATOM     12  C   LIG d   1      -2.603  78.236 111.228  0.00  0.00     0.006 C 
ENDBRANCH   8  11
ENDBRANCH   7   8
ENDBRANCH   1   7
BRANCH   6  13
ATOM     13  N   LIG d   1      -4.650  76.442 115.267  0.00  0.00    -0.311 N 
ATOM     14  C   LIG d   1      -5.350  75.542 114.579  0.00  0.00     0.210 C 
ATOM     15  C   LIG d   1      -6.870  75.644 114.738  0.00  0.00     0.109 C 
ATOM     16  O   LIG d   1      -4.854  74.648 113.876  0.00  0.00    -0.276 OA
ATOM     17  H   LIG d   1      -5.132  77.110 115.837  0.00  0.00     0.149 HD
ENDBRANCH   6  13
BRANCH   5  18
ATOM     18  N   LIG d   1      -2.759  74.332 116.410  0.00  0.00     0.381 N 
ATOM     19  H   LIG d   1      -3.628  74.142 115.952  0.00  0.00    -0.090 HD
ATOM     20  H   LIG d   1      -2.823  74.005 117.358  0.00  0.00    -0.090 HD
ATOM     21  H   LIG d   1      -2.018  73.863 115.938  0.00  0.00    -0.090 HD
ENDBRANCH   5  18
BRANCH   3  22
ATOM     22  C   LIG d   1       0.583  77.742 116.783  0.00  0.00     0.382 C 
ATOM     23  O   LIG d   1       1.310  76.909 117.376  0.00  0.00    -0.241 OA
ATOM     24  O   LIG d   1       0.937  78.935 116.728  0.00  0.00    -0.241 OA
ENDBRANCH   3  22
TORSDOF 7
ENDMDL
MODEL 6
REMARK VINA RESULT:      -4.9      2.336      5.288
REMARK  7 active torsions:
REMARK  status: ('A' for Active; 'I' for Inactive)
REMARK    1  A    between atoms: C_2  and  C_3 
REMARK    2  A    between atoms: C_3  and  O_6 
REMARK    3  A    between atoms: C_3  and  C_4 
REMARK    4  A    between atoms: C_7  and  O_6 
REMARK    5  A    between atoms: C_9  and  C_10 
REMARK    6  A    between atoms: N_15  and  C_14 
REMARK    7  A    between atoms: N_20  and  C_19 
REMARK       I    between atoms: C_22  and  N_20 
ROOT
ATOM      1  C   LIG d   1      -1.763  75.684 115.013  0.00  0.00     0.161 C 
ATOM      2  C   LIG d   1      -1.617  75.013 116.239  0.00  0.00     0.016 C 
ATOM      3  C   LIG d   1      -0.823  75.500 117.302  0.00  0.00     0.038 C 
ATOM      4  C   LIG d   1      -0.237  76.774 117.267  0.00  0.00     0.028 C 
ATOM      5  C   LIG d   1       0.058  77.267 115.854  0.00  0.00    -0.047 C 
ATOM      6  C   LIG d   1      -1.222  77.129 114.998  0.00  0.00     0.091 C 
ENDROOT
BRANCH   1   7
ATOM      7  O   LIG d   1      -3.146  75.663 114.607  0.00  0.00    -0.368 OA
BRANCH   7   8
ATOM      8  C   LIG d   1      -4.123  75.593 115.674  0.00  0.00     0.119 C 
BRANCH   8   9
ATOM      9  C   LIG d   1      -5.296  74.729 115.172  0.00  0.00     0.028 C 
ATOM     10  C   LIG d   1      -6.444  75.576 114.595  0.00  0.00     0.006 C 
ENDBRANCH   8   9
BRANCH   8  11
ATOM     11  C   LIG d   1      -4.729  76.969 115.966  0.00  0.00     0.028 C 
ATOM     12  C   LIG d   1      -4.440  77.456 117.395  0.00  0.00     0.006 C 
ENDBRANCH   8  11
ENDBRANCH   7   8
ENDBRANCH   1   7
BRANCH   6  13
ATOM     13  N   LIG d   1      -0.998  77.510 113.579  0.00  0.00    -0.311 N 
ATOM     14  C   LIG d   1      -1.811  78.317 112.900  0.00  0.00     0.210 C 
ATOM     15  C   LIG d   1      -1.407  78.565 111.443  0.00  0.00     0.109 C 
ATOM     16  O   LIG d   1      -2.810  78.877 113.375  0.00  0.00    -0.276 OA
ATOM     17  H   LIG d   1      -0.193  77.125 113.125  0.00  0.00     0.149 HD
ENDBRANCH   6  13
BRANCH   5  18
ATOM     18  N   LIG d   1       0.537  78.658 115.959  0.00  0.00     0.381 N 
ATOM     19  H   LIG d   1       0.692  79.032 115.044  0.00  0.00    -0.090 HD
ATOM     20  H   LIG d   1       1.410  78.665 116.454  0.00  0.00    -0.090 HD
ATOM     21  H   LIG d   1      -0.133  79.214 116.443  0.00  0.00    -0.090 HD
ENDBRANCH   5  18
BRANCH   3  22
ATOM     22  C   LIG d   1      -0.575  74.691 118.401  0.00  0.00     0.382 C 
ATOM     23  O   LIG d   1      -1.531  74.181 119.032  0.00  0.00    -0.241 OA
ATOM     24  O   LIG d   1       0.592  74.500 118.795  0.00  0.00    -0.241 OA
ENDBRANCH   3  22
TORSDOF 7
ENDMDL
MODEL 7
REMARK VINA RESULT:      -4.9      1.920      2.410
REMARK  7 active torsions:
REMARK  status: ('A' for Active; 'I' for Inactive)
REMARK    1  A    between atoms: C_2  and  C_3 
REMARK    2  A    between atoms: C_3  and  O_6 
REMARK    3  A    between atoms: C_3  and  C_4 
REMARK    4  A    between atoms: C_7  and  O_6 
REMARK    5  A    between atoms: C_9  and  C_10 
REMARK    6  A    between atoms: N_15  and  C_14 
REMARK    7  A    between atoms: N_20  and  C_19 
REMARK       I    between atoms: C_22  and  N_20 
ROOT
ATOM      1  C   LIG d   1      -2.394  77.875 115.150  0.00  0.00     0.161 C 
ATOM      2  C   LIG d   1      -2.711  78.859 114.198  0.00  0.00     0.016 C 
ATOM      3  C   LIG d   1      -1.813  79.877 113.802  0.00  0.00     0.038 C 
ATOM      4  C   LIG d   1      -0.475  79.890 114.223  0.00  0.00     0.028 C 
ATOM      5  C   LIG d   1      -0.257  79.212 115.572  0.00  0.00    -0.047 C 
ATOM      6  C   LIG d   1      -0.902  77.807 115.537  0.00  0.00     0.091 C 
ENDROOT
BRANCH   1   7
ATOM      7  O   LIG d   1      -2.852  76.588 114.692  0.00  0.00    -0.368 OA
BRANCH   7   8
ATOM      8  C   LIG d   1      -3.838  75.929 115.525  0.00  0.00     0.119 C 
BRANCH   8   9
ATOM      9  C   LIG d   1      -5.073  75.650 114.647  0.00  0.00     0.028 C 
ATOM     10  C   LIG d   1      -5.524  74.181 114.720  0.00  0.00     0.006 C 
ENDBRANCH   8   9
BRANCH   8  11
ATOM     11  C   LIG d   1      -4.334  76.856 116.639  0.00  0.00     0.028 C 
ATOM     12  C   LIG d   1      -5.806  77.262 116.466  0.00  0.00     0.006 C 
ENDBRANCH   8  11
ENDBRANCH   7   8
ENDBRANCH   1   7
BRANCH   6  13
ATOM     13  N   LIG d   1      -0.808  77.108 116.845  0.00  0.00    -0.311 N 
ATOM     14  C   LIG d   1      -0.448  75.832 116.970  0.00  0.00     0.210 C 
ATOM     15  C   LIG d   1      -0.435  75.301 118.407  0.00  0.00     0.109 C 
ATOM     16  O   LIG d   1      -0.107  75.098 116.030  0.00  0.00    -0.276 OA
ATOM     17  H   LIG d   1      -1.037  77.638 117.663  0.00  0.00     0.149 HD
ENDBRANCH   6  13
BRANCH   5  18
ATOM     18  N   LIG d   1       1.196  79.175 115.823  0.00  0.00     0.381 N 
ATOM     19  H   LIG d   1       1.671  78.832 115.012  0.00  0.00    -0.090 HD
ATOM     20  H   LIG d   1       1.378  78.546 116.585  0.00  0.00    -0.090 HD
ATOM     21  H   LIG d   1       1.526  80.087 116.049  0.00  0.00    -0.090 HD
ENDBRANCH   5  18
BRANCH   3  22
ATOM     22  C   LIG d   1      -2.263  80.920 113.007  0.00  0.00     0.382 C 
ATOM     23  O   LIG d   1      -1.481  81.846 112.686  0.00  0.00    -0.241 OA
ATOM     24  O   LIG d   1      -3.454  80.968 112.644  0.00  0.00    -0.241 OA
ENDBRANCH   3  22
TORSDOF 7
ENDMDL
MODEL 8
REMARK VINA RESULT:      -4.8      3.451      5.809
REMARK  7 active torsions:
REMARK  status: ('A' for Active; 'I' for Inactive)
REMARK    1  A    between atoms: C_2  and  C_3 
REMARK    2  A    between atoms: C_3  and  O_6 
REMARK    3  A    between atoms: C_3  and  C_4 
REMARK    4  A    between atoms: C_7  and  O_6 
REMARK    5  A    between atoms: C_9  and  C_10 
REMARK    6  A    between atoms: N_15  and  C_14 
REMARK    7  A    between atoms: N_20  and  C_19 
REMARK       I    between atoms: C_22  and  N_20 
ROOT
ATOM      1  C   LIG d   1      -0.680  80.199 113.575  0.00  0.00     0.161 C 
ATOM      2  C   LIG d   1      -1.666  79.272 113.196  0.00  0.00     0.016 C 
ATOM      3  C   LIG d   1      -1.816  78.792 111.875  0.00  0.00     0.038 C 
ATOM      4  C   LIG d   1      -0.887  79.093 110.867  0.00  0.00     0.028 C 
ATOM      5  C   LIG d   1      -0.170  80.422 111.081  0.00  0.00    -0.047 C 
ATOM      6  C   LIG d   1       0.410  80.453 112.513  0.00  0.00     0.091 C 
ENDROOT
BRANCH   1   7
ATOM      7  O   LIG d   1      -0.081  79.792 114.821  0.00  0.00    -0.368 OA
BRANCH   7   8
ATOM      8  C   LIG d   1      -0.817  78.811 115.593  0.00  0.00     0.119 C 
BRANCH   8   9
ATOM      9  C   LIG d   1      -1.145  79.447 116.958  0.00  0.00     0.028 C 
ATOM     10  C   LIG d   1      -2.574  79.125 117.427  0.00  0.00     0.006 C 
ENDBRANCH   8   9
BRANCH   8  11
ATOM     11  C   LIG d   1       0.049  77.589 115.912  0.00  0.00     0.028 C 
ATOM     12  C   LIG d   1      -0.313  76.363 115.059  0.00  0.00     0.006 C 
ENDBRANCH   8  11
ENDBRANCH   7   8
ENDBRANCH   1   7
BRANCH   6  13
ATOM     13  N   LIG d   1       1.056  81.753 112.835  0.00  0.00    -0.311 N 
ATOM     14  C   LIG d   1       2.353  81.992 112.651  0.00  0.00     0.210 C 
ATOM     15  C   LIG d   1       2.818  83.391 113.067  0.00  0.00     0.109 C 
ATOM     16  O   LIG d   1       3.157  81.189 112.154  0.00  0.00    -0.276 OA
ATOM     17  H   LIG d   1       0.471  82.472 113.213  0.00  0.00     0.149 HD
ENDBRANCH   6  13
BRANCH   5  18
ATOM     18  N   LIG d   1       0.863  80.544 110.036  0.00  0.00     0.381 N 
ATOM     19  H   LIG d   1       0.785  79.782 109.392  0.00  0.00    -0.090 HD
ATOM     20  H   LIG d   1       1.769  80.501 110.467  0.00  0.00    -0.090 HD
ATOM     21  H   LIG d   1       0.758  81.409 109.552  0.00  0.00    -0.090 HD
ENDBRANCH   5  18
BRANCH   3  22
ATOM     22  C   LIG d   1      -2.927  78.032 111.541  0.00  0.00     0.382 C 
ATOM     23  O   LIG d   1      -3.220  77.847 110.336  0.00  0.00    -0.241 OA
ATOM     24  O   LIG d   1      -3.664  77.567 112.431  0.00  0.00    -0.241 OA
ENDBRANCH   3  22
TORSDOF 7
ENDMDL
MODEL 9
REMARK VINA RESULT:      -4.7      2.982      4.112
REMARK  7 active torsions:
REMARK  status: ('A' for Active; 'I' for Inactive)
REMARK    1  A    between atoms: C_2  and  C_3 
REMARK    2  A    between atoms: C_3  and  O_6 
REMARK    3  A    between atoms: C_3  and  C_4 
REMARK    4  A    between atoms: C_7  and  O_6 
REMARK    5  A    between atoms: C_9  and  C_10 
REMARK    6  A    between atoms: N_15  and  C_14 
REMARK    7  A    between atoms: N_20  and  C_19 
REMARK       I    between atoms: C_22  and  N_20 
ROOT
ATOM      1  C   LIG d   1      -1.656  77.311 115.555  0.00  0.00     0.161 C 
ATOM      2  C   LIG d   1      -2.217  77.392 114.270  0.00  0.00     0.016 C 
ATOM      3  C   LIG d   1      -1.775  78.304 113.284  0.00  0.00     0.038 C 
ATOM      4  C   LIG d   1      -0.636  79.101 113.469  0.00  0.00     0.028 C 
ATOM      5  C   LIG d   1      -0.347  79.415 114.932  0.00  0.00    -0.047 C 
ATOM      6  C   LIG d   1      -0.340  78.095 115.737  0.00  0.00     0.091 C 
ENDROOT
BRANCH   1   7
ATOM      7  O   LIG d   1      -1.472  75.930 115.923  0.00  0.00    -0.368 OA
BRANCH   7   8
ATOM      8  C   LIG d   1      -2.547  75.322 116.679  0.00  0.00     0.119 C 
BRANCH   8   9
ATOM      9  C   LIG d   1      -1.907  74.408 117.742  0.00  0.00     0.028 C 
ATOM     10  C   LIG d   1      -0.370  74.424 117.681  0.00  0.00     0.006 C 
ENDBRANCH   8   9
BRANCH   8  11
ATOM     11  C   LIG d   1      -3.392  74.394 115.801  0.00  0.00     0.028 C 
ATOM     12  C   LIG d   1      -4.759  74.996 115.439  0.00  0.00     0.006 C 
ENDBRANCH   8  11
ENDBRANCH   7   8
ENDBRANCH   1   7
BRANCH   6  13
ATOM     13  N   LIG d   1      -0.148  78.320 117.194  0.00  0.00    -0.311 N 
ATOM     14  C   LIG d   1       0.887  77.838 117.880  0.00  0.00     0.210 C 
ATOM     15  C   LIG d   1       0.883  78.170 119.375  0.00  0.00     0.109 C 
ATOM     16  O   LIG d   1       1.825  77.195 117.386  0.00  0.00    -0.276 OA
ATOM     17  H   LIG d   1      -0.846  78.859 117.668  0.00  0.00     0.149 HD
ENDBRANCH   6  13
BRANCH   5  18
ATOM     18  N   LIG d   1       0.941  80.133 114.988  0.00  0.00     0.381 N 
ATOM     19  H   LIG d   1       0.784  81.092 115.225  0.00  0.00    -0.090 HD
ATOM     20  H   LIG d   1       1.372  80.099 114.081  0.00  0.00    -0.090 HD
ATOM     21  H   LIG d   1       1.538  79.710 115.664  0.00  0.00    -0.090 HD
ENDBRANCH   5  18
BRANCH   3  22
ATOM     22  C   LIG d   1      -2.502  78.455 112.113  0.00  0.00     0.382 C 
ATOM     23  O   LIG d   1      -2.169  79.329 111.277  0.00  0.00    -0.241 OA
ATOM     24  O   LIG d   1      -3.512  77.758 111.902  0.00  0.00    -0.241 OA
ENDBRANCH   3  22
TORSDOF 7
ENDMDL
