MODEL 1
REMARK VINA RESULT:      -5.1      0.000      0.000
REMARK  7 active torsions:
REMARK  status: ('A' for Active; 'I' for Inactive)
REMARK    1  A    between atoms: C_2  and  C_3 
REMARK    2  A    between atoms: C_3  and  O_6 
REMARK    3  A    between atoms: C_3  and  C_4 
REMARK    4  A    between atoms: C_7  and  O_6 
REMARK    5  A    between atoms: C_9  and  C_10 
REMARK    6  A    between atoms: N_15  and  C_14 
REMARK    7  A    between atoms: N_20  and  C_19 
REMARK       I    between atoms: C_22  and  N_20 
ROOT
ATOM      1  C   LIG d   1      -0.239  80.871 111.703  0.00  0.00     0.161 C 
ATOM      2  C   LIG d   1      -1.031  79.713 111.633  0.00  0.00     0.016 C 
ATOM      3  C   LIG d   1      -1.851  79.265 112.694  0.00  0.00     0.038 C 
ATOM      4  C   LIG d   1      -2.051  80.034 113.851  0.00  0.00     0.028 C 
ATOM      5  C   LIG d   1      -0.882  80.958 114.174  0.00  0.00    -0.047 C 
ATOM      6  C   LIG d   1      -0.531  81.782 112.914  0.00  0.00     0.091 C 
ENDROOT
BRANCH   1   7
ATOM      7  O   LIG d   1      -0.356  81.618 110.475  0.00  0.00    -0.368 OA
BRANCH   7   8
ATOM      8  C   LIG d   1       0.821  81.646 109.632  0.00  0.00     0.119 C 
BRANCH   8   9
ATOM      9  C   LIG d   1       1.885  80.746 110.291  0.00  0.00     0.028 C 
ATOM     10  C   LIG d   1       2.215  79.508 109.440  0.00  0.00     0.006 C 
ENDBRANCH   8   9
BRANCH   8  11
ATOM     11  C   LIG d   1       1.443  83.045 109.589  0.00  0.00     0.028 C 
ATOM     12  C   LIG d   1       2.974  83.020 109.725  0.00  0.00     0.006 C 
ENDBRANCH   8  11
ENDBRANCH   7   8
ENDBRANCH   1   7
BRANCH   6  13
ATOM     13  N   LIG d   1       0.657  82.652 113.119  0.00  0.00    -0.311 N 
ATOM     14  C   LIG d   1       0.629  83.975 112.974  0.00  0.00     0.210 C 
ATOM     15  C   LIG d   1       1.969  84.680 113.213  0.00  0.00     0.109 C 
ATOM     16  O   LIG d   1      -0.384  84.636 112.703  0.00  0.00    -0.276 OA
ATOM     17  H   LIG d   1       1.514  82.201 113.372  0.00  0.00     0.149 HD
ENDBRANCH   6  13
BRANCH   5  18
ATOM     18  N   LIG d   1      -1.282  81.797 115.320  0.00  0.00     0.381 N 
ATOM     19  H   LIG d   1      -0.488  82.299 115.665  0.00  0.00    -0.090 HD
ATOM     20  H   LIG d   1      -1.623  81.203 116.055  0.00  0.00    -0.090 HD
ATOM     21  H   LIG d   1      -1.993  82.437 115.043  0.00  0.00    -0.090 HD
ENDBRANCH   5  18
BRANCH   3  22
ATOM     22  C   LIG d   1      -2.449  78.016 112.621  0.00  0.00     0.382 C 
ATOM     23  O   LIG d   1      -3.527  77.874 111.997  0.00  0.00    -0.241 OA
ATOM     24  O   LIG d   1      -1.946  77.040 113.209  0.00  0.00    -0.241 OA
ENDBRANCH   3  22
TORSDOF 7
ENDMDL
MODEL 2
REMARK VINA RESULT:      -5.0      1.079      1.382
REMARK  7 active torsions:
REMARK  status: ('A' for Active; 'I' for Inactive)
REMARK    1  A    between atoms: C_2  and  C_3 
REMARK    2  A    between atoms: C_3  and  O_6 
REMARK    3  A    between atoms: C_3  and  C_4 
REMARK    4  A    between atoms: C_7  and  O_6 
REMARK    5  A    between atoms: C_9  and  C_10 
REMARK    6  A    between atoms: N_15  and  C_14 
REMARK    7  A    between atoms: N_20  and  C_19 
REMARK       I    between atoms: C_22  and  N_20 
ROOT
ATOM      1  C   LIG d   1      -0.585  80.841 112.419  0.00  0.00     0.161 C 
ATOM      2  C   LIG d   1      -1.245  79.629 112.157  0.00  0.00     0.016 C 
ATOM      3  C   LIG d   1      -2.144  79.021 113.064  0.00  0.00     0.038 C 
ATOM      4  C   LIG d   1      -2.562  79.665 114.238  0.00  0.00     0.028 C 
ATOM      5  C   LIG d   1      -1.538  80.655 114.782  0.00  0.00    -0.047 C 
ATOM      6  C   LIG d   1      -1.113  81.613 113.646  0.00  0.00     0.091 C 
ENDROOT
BRANCH   1   7
ATOM      7  O   LIG d   1      -0.619  81.679 111.247  0.00  0.00    -0.368 OA
BRANCH   7   8
ATOM      8  C   LIG d   1       0.537  81.606 110.377  0.00  0.00     0.119 C 
BRANCH   8   9
ATOM      9  C   LIG d   1       1.763  81.307 111.262  0.00  0.00     0.028 C 
ATOM     10  C   LIG d   1       2.919  80.673 110.469  0.00  0.00     0.006 C 
ENDBRANCH   8   9
BRANCH   8  11
ATOM     11  C   LIG d   1       0.829  82.960 109.724  0.00  0.00     0.028 C 
ATOM     12  C   LIG d   1       0.101  84.124 110.415  0.00  0.00     0.006 C 
ENDBRANCH   8  11
ENDBRANCH   7   8
ENDBRANCH   1   7
BRANCH   6  13
ATOM     13  N   LIG d   1      -0.051  82.561 114.072  0.00  0.00    -0.311 N 
ATOM     14  C   LIG d   1      -0.203  83.885 114.063  0.00  0.00     0.210 C 
ATOM     15  C   LIG d   1       1.023  84.680 114.522  0.00  0.00     0.109 C 
ATOM     16  O   LIG d   1      -1.248  84.474 113.750  0.00  0.00    -0.276 OA
ATOM     17  H   LIG d   1       0.819  82.167 114.371  0.00  0.00     0.149 HD
ENDBRANCH   6  13
BRANCH   5  18
ATOM     18  N   LIG d   1      -2.158  81.353 115.925  0.00  0.00     0.381 N 
ATOM     19  H   LIG d   1      -2.923  80.813 116.278  0.00  0.00    -0.090 HD
ATOM     20  H   LIG d   1      -2.515  82.238 115.611  0.00  0.00    -0.090 HD
ATOM     21  H   LIG d   1      -1.483  81.495 116.644  0.00  0.00    -0.090 HD
ENDBRANCH   5  18
BRANCH   3  22
ATOM     22  C   LIG d   1      -2.604  77.736 112.818  0.00  0.00     0.382 C 
ATOM     23  O   LIG d   1      -2.089  76.761 113.416  0.00  0.00    -0.241 OA
ATOM     24  O   LIG d   1      -3.497  77.536 111.973  0.00  0.00    -0.241 OA
ENDBRANCH   3  22
TORSDOF 7
ENDMDL
MODEL 3
REMARK VINA RESULT:      -4.9      2.728      5.029
REMARK  7 active torsions:
REMARK  status: ('A' for Active; 'I' for Inactive)
REMARK    1  A    between atoms: C_2  and  C_3 
REMARK    2  A    between atoms: C_3  and  O_6 
REMARK    3  A    between atoms: C_3  and  C_4 
REMARK    4  A    between atoms: C_7  and  O_6 
REMARK    5  A    between atoms: C_9  and  C_10 
REMARK    6  A    between atoms: N_15  and  C_14 
REMARK    7  A    between atoms: N_20  and  C_19 
REMARK       I    between atoms: C_22  and  N_20 
ROOT
ATOM      1  C   LIG d   1      -2.232  80.875 114.354  0.00  0.00     0.161 C 
ATOM      2  C   LIG d   1      -2.594  79.616 114.861  0.00  0.00     0.016 C 
ATOM      3  C   LIG d   1      -2.435  78.411 114.139  0.00  0.00     0.038 C 
ATOM      4  C   LIG d   1      -1.758  78.366 112.912  0.00  0.00     0.028 C 
ATOM      5  C   LIG d   1      -1.826  79.677 112.134  0.00  0.00    -0.047 C 
ATOM      6  C   LIG d   1      -1.389  80.834 113.062  0.00  0.00     0.091 C 
ENDROOT
BRANCH   1   7
ATOM      7  O   LIG d   1      -1.550  81.634 115.373  0.00  0.00    -0.368 OA
BRANCH   7   8
ATOM      8  C   LIG d   1      -2.393  82.400 116.268  0.00  0.00     0.119 C 
BRANCH   8   9
ATOM      9  C   LIG d   1      -2.996  83.562 115.454  0.00  0.00     0.028 C 
ATOM     10  C   LIG d   1      -1.973  84.676 115.174  0.00  0.00     0.006 C 
ENDBRANCH   8   9
BRANCH   8  11
ATOM     11  C   LIG d   1      -1.570  83.065 117.375  0.00  0.00     0.028 C 
ATOM     12  C   LIG d   1      -2.070  82.709 118.784  0.00  0.00     0.006 C 
ENDBRANCH   8  11
ENDBRANCH   7   8
ENDBRANCH   1   7
BRANCH   6  13
ATOM     13  N   LIG d   1      -1.507  82.162 112.406  0.00  0.00    -0.311 N 
ATOM     14  C   LIG d   1      -0.499  82.758 111.770  0.00  0.00     0.210 C 
ATOM     15  C   LIG d   1      -0.829  84.133 111.181  0.00  0.00     0.109 C 
ATOM     16  O   LIG d   1       0.627  82.264 111.611  0.00  0.00    -0.276 OA
ATOM     17  H   LIG d   1      -2.396  82.620 112.459  0.00  0.00     0.149 HD
ENDBRANCH   6  13
BRANCH   5  18
ATOM     18  N   LIG d   1      -0.966  79.534 110.944  0.00  0.00     0.381 N 
ATOM     19  H   LIG d   1      -1.054  78.610 110.571  0.00  0.00    -0.090 HD
ATOM     20  H   LIG d   1      -0.008  79.674 111.216  0.00  0.00    -0.090 HD
ATOM     21  H   LIG d   1      -1.224  80.205 110.255  0.00  0.00    -0.090 HD
ENDBRANCH   5  18
BRANCH   3  22
ATOM     22  C   LIG d   1      -2.992  77.239 114.627  0.00  0.00     0.382 C 
ATOM     23  O   LIG d   1      -3.986  77.288 115.391  0.00  0.00    -0.241 OA
ATOM     24  O   LIG d   1      -2.486  76.135 114.349  0.00  0.00    -0.241 OA
ENDBRANCH   3  22
TORSDOF 7
ENDMDL
MODEL 4
REMARK VINA RESULT:      -4.8      2.384      6.111
REMARK  7 active torsions:
REMARK  status: ('A' for Active; 'I' for Inactive)
REMARK    1  A    between atoms: C_2  and  C_3 
REMARK    2  A    between atoms: C_3  and  O_6 
REMARK    3  A    between atoms: C_3  and  C_4 
REMARK    4  A    between atoms: C_7  and  O_6 
REMARK    5  A    between atoms: C_9  and  C_10 
REMARK    6  A    between atoms: N_15  and  C_14 
REMARK    7  A    between atoms: N_20  and  C_19 
REMARK       I    between atoms: C_22  and  N_20 
ROOT
ATOM      1  C   LIG d   1       0.442  81.837 113.548  0.00  0.00     0.161 C 
ATOM      2  C   LIG d   1       1.137  82.868 112.896  0.00  0.00     0.016 C 
ATOM      3  C   LIG d   1       1.247  82.964 111.489  0.00  0.00     0.038 C 
ATOM      4  C   LIG d   1       0.536  82.113 110.630  0.00  0.00     0.028 C 
ATOM      5  C   LIG d   1       0.229  80.751 111.245  0.00  0.00    -0.047 C 
ATOM      6  C   LIG d   1      -0.433  80.962 112.626  0.00  0.00     0.091 C 
ENDROOT
BRANCH   1   7
ATOM      7  O   LIG d   1      -0.352  82.384 114.620  0.00  0.00    -0.368 OA
BRANCH   7   8
ATOM      8  C   LIG d   1      -1.561  83.079 114.226  0.00  0.00     0.119 C 
BRANCH   8   9
ATOM      9  C   LIG d   1      -1.433  84.538 114.704  0.00  0.00     0.028 C 
ATOM     10  C   LIG d   1      -0.581  84.667 115.978  0.00  0.00     0.006 C 
ENDBRANCH   8   9
BRANCH   8  11
ATOM     11  C   LIG d   1      -2.787  82.520 114.955  0.00  0.00     0.028 C 
ATOM     12  C   LIG d   1      -2.420  81.479 116.025  0.00  0.00     0.006 C 
ENDBRANCH   8  11
ENDBRANCH   7   8
ENDBRANCH   1   7
BRANCH   6  13
ATOM     13  N   LIG d   1      -0.690  79.680 113.333  0.00  0.00    -0.311 N 
ATOM     14  C   LIG d   1      -1.870  79.064 113.327  0.00  0.00     0.210 C 
ATOM     15  C   LIG d   1      -1.925  77.764 114.136  0.00  0.00     0.109 C 
ATOM     16  O   LIG d   1      -2.868  79.453 112.702  0.00  0.00    -0.276 OA
ATOM     17  H   LIG d   1       0.074  79.278 113.839  0.00  0.00     0.149 HD
ENDBRANCH   6  13
BRANCH   5  18
ATOM     18  N   LIG d   1      -0.632  80.019 110.297  0.00  0.00     0.381 N 
ATOM     19  H   LIG d   1      -1.257  79.421 110.800  0.00  0.00    -0.090 HD
ATOM     20  H   LIG d   1      -0.053  79.446 109.708  0.00  0.00    -0.090 HD
ATOM     21  H   LIG d   1      -1.151  80.662 109.740  0.00  0.00    -0.090 HD
ENDBRANCH   5  18
BRANCH   3  22
ATOM     22  C   LIG d   1       2.108  83.896 110.929  0.00  0.00     0.382 C 
ATOM     23  O   LIG d   1       2.019  84.177 109.710  0.00  0.00    -0.241 OA
ATOM     24  O   LIG d   1       3.000  84.426 111.618  0.00  0.00    -0.241 OA
ENDBRANCH   3  22
TORSDOF 7
ENDMDL
MODEL 5
REMARK VINA RESULT:      -4.7      2.735      4.598
REMARK  7 active torsions:
REMARK  status: ('A' for Active; 'I' for Inactive)
REMARK    1  A    between atoms: C_2  and  C_3 
REMARK    2  A    between atoms: C_3  and  O_6 
REMARK    3  A    between atoms: C_3  and  C_4 
REMARK    4  A    between atoms: C_7  and  O_6 
REMARK    5  A    between atoms: C_9  and  C_10 
REMARK    6  A    between atoms: N_15  and  C_14 
REMARK    7  A    between atoms: N_20  and  C_19 
REMARK       I    between atoms: C_22  and  N_20 
ROOT
ATOM      1  C   LIG d   1      -2.110  82.092 114.095  0.00  0.00     0.161 C 
ATOM      2  C   LIG d   1      -2.483  81.079 114.993  0.00  0.00     0.016 C 
ATOM      3  C   LIG d   1      -2.370  79.700 114.701  0.00  0.00     0.038 C 
ATOM      4  C   LIG d   1      -1.730  79.238 113.541  0.00  0.00     0.028 C 
ATOM      5  C   LIG d   1      -1.793  80.224 112.380  0.00  0.00    -0.047 C 
ATOM      6  C   LIG d   1      -1.307  81.608 112.870  0.00  0.00     0.091 C 
ENDROOT
BRANCH   1   7
ATOM      7  O   LIG d   1      -1.384  83.122 114.795  0.00  0.00    -0.368 OA
BRANCH   7   8
ATOM      8  C   LIG d   1      -0.576  82.683 115.915  0.00  0.00     0.119 C 
BRANCH   8   9
ATOM      9  C   LIG d   1      -0.758  83.712 117.048  0.00  0.00     0.028 C 
ATOM     10  C   LIG d   1      -1.495  83.123 118.262  0.00  0.00     0.006 C 
ENDBRANCH   8   9
BRANCH   8  11
ATOM     11  C   LIG d   1       0.916  82.716 115.572  0.00  0.00     0.028 C 
ATOM     12  C   LIG d   1       1.493  81.321 115.287  0.00  0.00     0.006 C 
ENDBRANCH   8  11
ENDBRANCH   7   8
ENDBRANCH   1   7
BRANCH   6  13
ATOM     13  N   LIG d   1      -1.417  82.652 111.818  0.00  0.00    -0.311 N 
ATOM     14  C   LIG d   1      -0.443  83.517 111.540  0.00  0.00     0.210 C 
ATOM     15  C   LIG d   1      -0.770  84.524 110.433  0.00  0.00     0.109 C 
ATOM     16  O   LIG d   1       0.672  83.526 112.082  0.00  0.00    -0.276 OA
ATOM     17  H   LIG d   1      -2.276  82.696 111.307  0.00  0.00     0.149 HD
ENDBRANCH   6  13
BRANCH   5  18
ATOM     18  N   LIG d   1      -0.971  79.677 111.285  0.00  0.00     0.381 N 
ATOM     19  H   LIG d   1      -1.250  78.736 111.090  0.00  0.00    -0.090 HD
ATOM     20  H   LIG d   1      -0.009  79.668 111.573  0.00  0.00    -0.090 HD
ATOM     21  H   LIG d   1      -1.076  80.237 110.467  0.00  0.00    -0.090 HD
ENDBRANCH   5  18
BRANCH   3  22
ATOM     22  C   LIG d   1      -2.936  78.768 115.557  0.00  0.00     0.382 C 
ATOM     23  O   LIG d   1      -4.057  78.991 116.074  0.00  0.00    -0.241 OA
ATOM     24  O   LIG d   1      -2.321  77.726 115.853  0.00  0.00    -0.241 OA
ENDBRANCH   3  22
TORSDOF 7
ENDMDL
MODEL 6
REMARK VINA RESULT:      -4.6      1.911      2.581
REMARK  7 active torsions:
REMARK  status: ('A' for Active; 'I' for Inactive)
REMARK    1  A    between atoms: C_2  and  C_3 
REMARK    2  A    between atoms: C_3  and  O_6 
REMARK    3  A    between atoms: C_3  and  C_4 
REMARK    4  A    between atoms: C_7  and  O_6 
REMARK    5  A    between atoms: C_9  and  C_10 
REMARK    6  A    between atoms: N_15  and  C_14 
REMARK    7  A    between atoms: N_20  and  C_19 
REMARK       I    between atoms: C_22  and  N_20 
ROOT
ATOM      1  C   LIG d   1      -1.454  81.371 113.002  0.00  0.00     0.161 C 
ATOM      2  C   LIG d   1      -1.813  80.121 112.471  0.00  0.00     0.016 C 
ATOM      3  C   LIG d   1      -2.338  79.066 113.252  0.00  0.00     0.038 C 
ATOM      4  C   LIG d   1      -2.685  79.242 114.600  0.00  0.00     0.028 C 
ATOM      5  C   LIG d   1      -1.872  80.328 115.297  0.00  0.00    -0.047 C 
ATOM      6  C   LIG d   1      -1.929  81.619 114.449  0.00  0.00     0.091 C 
ENDROOT
BRANCH   1   7
ATOM      7  O   LIG d   1      -1.922  82.422 112.134  0.00  0.00    -0.368 OA
BRANCH   7   8
ATOM      8  C   LIG d   1      -0.898  83.203 111.469  0.00  0.00     0.119 C 
BRANCH   8   9
ATOM      9  C   LIG d   1       0.430  82.433 111.603  0.00  0.00     0.028 C 
ATOM     10  C   LIG d   1       0.920  81.870 110.258  0.00  0.00     0.006 C 
ENDBRANCH   8   9
BRANCH   8  11
ATOM     11  C   LIG d   1      -0.665  84.539 112.181  0.00  0.00     0.028 C 
ATOM     12  C   LIG d   1       0.762  84.680 112.731  0.00  0.00     0.006 C 
ENDBRANCH   8  11
ENDBRANCH   7   8
ENDBRANCH   1   7
BRANCH   6  13
ATOM     13  N   LIG d   1      -1.091  82.707 115.017  0.00  0.00    -0.311 N 
ATOM     14  C   LIG d   1      -1.560  83.638 115.846  0.00  0.00     0.210 C 
ATOM     15  C   LIG d   1      -0.532  84.680 116.298  0.00  0.00     0.109 C 
ATOM     16  O   LIG d   1      -2.723  83.681 116.275  0.00  0.00    -0.276 OA
ATOM     17  H   LIG d   1      -0.127  82.729 114.746  0.00  0.00     0.149 HD
ENDBRANCH   6  13
BRANCH   5  18
ATOM     18  N   LIG d   1      -2.429  80.501 116.652  0.00  0.00     0.381 N 
ATOM     19  H   LIG d   1      -3.207  79.884 116.780  0.00  0.00    -0.090 HD
ATOM     20  H   LIG d   1      -2.757  81.446 116.751  0.00  0.00    -0.090 HD
ATOM     21  H   LIG d   1      -1.730  80.311 117.335  0.00  0.00    -0.090 HD
ENDBRANCH   5  18
BRANCH   3  22
ATOM     22  C   LIG d   1      -2.485  77.805 112.694  0.00  0.00     0.382 C 
ATOM     23  O   LIG d   1      -3.521  77.523 112.046  0.00  0.00    -0.241 OA
ATOM     24  O   LIG d   1      -1.614  76.932 112.868  0.00  0.00    -0.241 OA
ENDBRANCH   3  22
TORSDOF 7
ENDMDL
MODEL 7
REMARK VINA RESULT:      -4.5      3.439      7.256
REMARK  7 active torsions:
REMARK  status: ('A' for Active; 'I' for Inactive)
REMARK    1  A    between atoms: C_2  and  C_3 
REMARK    2  A    between atoms: C_3  and  O_6 
REMARK    3  A    between atoms: C_3  and  C_4 
REMARK    4  A    between atoms: C_7  and  O_6 
REMARK    5  A    between atoms: C_9  and  C_10 
REMARK    6  A    between atoms: N_15  and  C_14 
REMARK    7  A    between atoms: N_20  and  C_19 
REMARK       I    between atoms: C_22  and  N_20 
ROOT
ATOM      1  C   LIG d   1      -2.452  80.738 115.317  0.00  0.00     0.161 C 
ATOM      2  C   LIG d   1      -2.147  81.856 114.524  0.00  0.00     0.016 C 
ATOM      3  C   LIG d   1      -1.702  81.763 113.185  0.00  0.00     0.038 C 
ATOM      4  C   LIG d   1      -1.676  80.542 112.495  0.00  0.00     0.028 C 
ATOM      5  C   LIG d   1      -1.493  79.335 113.408  0.00  0.00    -0.047 C 
ATOM      6  C   LIG d   1      -2.537  79.403 114.547  0.00  0.00     0.091 C 
ENDROOT
BRANCH   1   7
ATOM      7  O   LIG d   1      -3.672  80.974 116.046  0.00  0.00    -0.368 OA
BRANCH   7   8
ATOM      8  C   LIG d   1      -3.626  82.023 117.044  0.00  0.00     0.119 C 
BRANCH   8   9
ATOM      9  C   LIG d   1      -2.489  81.678 118.025  0.00  0.00     0.028 C 
ATOM     10  C   LIG d   1      -2.532  82.538 119.300  0.00  0.00     0.006 C 
ENDBRANCH   8   9
BRANCH   8  11
ATOM     11  C   LIG d   1      -4.901  82.043 117.892  0.00  0.00     0.028 C 
ATOM     12  C   LIG d   1      -5.675  80.716 117.835  0.00  0.00     0.006 C 
ENDBRANCH   8  11
ENDBRANCH   7   8
ENDBRANCH   1   7
BRANCH   6  13
ATOM     13  N   LIG d   1      -2.373  78.304 115.533  0.00  0.00    -0.311 N 
ATOM     14  C   LIG d   1      -3.068  77.169 115.488  0.00  0.00     0.210 C 
ATOM     15  C   LIG d   1      -2.759  76.176 116.613  0.00  0.00     0.109 C 
ATOM     16  O   LIG d   1      -3.889  76.877 114.605  0.00  0.00    -0.276 OA
ATOM     17  H   LIG d   1      -1.705  78.444 116.266  0.00  0.00     0.149 HD
ENDBRANCH   6  13
BRANCH   5  18
ATOM     18  N   LIG d   1      -1.623  78.123 112.577  0.00  0.00     0.381 N 
ATOM     19  H   LIG d   1      -1.983  78.368 111.676  0.00  0.00    -0.090 HD
ATOM     20  H   LIG d   1      -2.273  77.495 113.016  0.00  0.00    -0.090 HD
ATOM     21  H   LIG d   1      -0.737  77.680 112.479  0.00  0.00    -0.090 HD
ENDBRANCH   5  18
BRANCH   3  22
ATOM     22  C   LIG d   1      -1.238  82.897 112.535  0.00  0.00     0.382 C 
ATOM     23  O   LIG d   1      -0.558  83.745 113.161  0.00  0.00    -0.241 OA
ATOM     24  O   LIG d   1      -1.529  83.104 111.341  0.00  0.00    -0.241 OA
ENDBRANCH   3  22
TORSDOF 7
ENDMDL
MODEL 8
REMARK VINA RESULT:      -4.4      4.283      6.734
REMARK  7 active torsions:
REMARK  status: ('A' for Active; 'I' for Inactive)
REMARK    1  A    between atoms: C_2  and  C_3 
REMARK    2  A    between atoms: C_3  and  O_6 
REMARK    3  A    between atoms: C_3  and  C_4 
REMARK    4  A    between atoms: C_7  and  O_6 
REMARK    5  A    between atoms: C_9  and  C_10 
REMARK    6  A    between atoms: N_15  and  C_14 
REMARK    7  A    between atoms: N_20  and  C_19 
REMARK       I    between atoms: C_22  and  N_20 
ROOT
ATOM      1  C   LIG d   1      -1.565  76.932 114.593  0.00  0.00     0.161 C 
ATOM      2  C   LIG d   1      -2.852  76.731 114.066  0.00  0.00     0.016 C 
ATOM      3  C   LIG d   1      -3.755  75.763 114.565  0.00  0.00     0.038 C 
ATOM      4  C   LIG d   1      -3.486  75.029 115.729  0.00  0.00     0.028 C 
ATOM      5  C   LIG d   1      -1.996  74.840 115.996  0.00  0.00    -0.047 C 
ATOM      6  C   LIG d   1      -1.297  76.217 115.934  0.00  0.00     0.091 C 
ENDROOT
BRANCH   1   7
ATOM      7  O   LIG d   1      -1.303  78.344 114.717  0.00  0.00    -0.368 OA
BRANCH   7   8
ATOM      8  C   LIG d   1      -2.452  79.218 114.598  0.00  0.00     0.119 C 
BRANCH   8   9
ATOM      9  C   LIG d   1      -2.064  80.364 113.643  0.00  0.00     0.028 C 
ATOM     10  C   LIG d   1      -1.724  79.861 112.230  0.00  0.00     0.006 C 
ENDBRANCH   8   9
BRANCH   8  11
ATOM     11  C   LIG d   1      -2.777  79.895 115.933  0.00  0.00     0.028 C 
ATOM     12  C   LIG d   1      -3.876  79.163 116.719  0.00  0.00     0.006 C 
ENDBRANCH   8  11
ENDBRANCH   7   8
ENDBRANCH   1   7
BRANCH   6  13
ATOM     13  N   LIG d   1       0.176  76.112 116.101  0.00  0.00    -0.311 N 
ATOM     14  C   LIG d   1       0.789  76.202 117.280  0.00  0.00     0.210 C 
ATOM     15  C   LIG d   1       2.315  76.087 117.226  0.00  0.00     0.109 C 
ATOM     16  O   LIG d   1       0.211  76.333 118.369  0.00  0.00    -0.276 OA
ATOM     17  H   LIG d   1       0.721  75.974 115.272  0.00  0.00     0.149 HD
ENDBRANCH   6  13
BRANCH   5  18
ATOM     18  N   LIG d   1      -1.859  74.180 117.308  0.00  0.00     0.381 N 
ATOM     19  H   LIG d   1      -1.034  74.510 117.768  0.00  0.00    -0.090 HD
ATOM     20  H   LIG d   1      -1.766  73.190 117.166  0.00  0.00    -0.090 HD
ATOM     21  H   LIG d   1      -2.660  74.369 117.870  0.00  0.00    -0.090 HD
ENDBRANCH   5  18
BRANCH   3  22
ATOM     22  C   LIG d   1      -4.925  75.494 113.872  0.00  0.00     0.382 C 
ATOM     23  O   LIG d   1      -5.810  74.772 114.392  0.00  0.00    -0.241 OA
ATOM     24  O   LIG d   1      -5.089  75.928 112.716  0.00  0.00    -0.241 OA
ENDBRANCH   3  22
TORSDOF 7
ENDMDL
MODEL 9
REMARK VINA RESULT:      -4.1      2.451      5.187
REMARK  7 active torsions:
REMARK  status: ('A' for Active; 'I' for Inactive)
REMARK    1  A    between atoms: C_2  and  C_3 
REMARK    2  A    between atoms: C_3  and  O_6 
REMARK    3  A    between atoms: C_3  and  C_4 
REMARK    4  A    between atoms: C_7  and  O_6 
REMARK    5  A    between atoms: C_9  and  C_10 
REMARK    6  A    between atoms: N_15  and  C_14 
REMARK    7  A    between atoms: N_20  and  C_19 
REMARK       I    between atoms: C_22  and  N_20 
ROOT
ATOM      1  C   LIG d   1      -0.512  81.534 113.431  0.00  0.00     0.161 C 
ATOM      2  C   LIG d   1      -0.378  80.764 112.264  0.00  0.00     0.016 C 
ATOM      3  C   LIG d   1       0.691  80.913 111.351  0.00  0.00     0.038 C 
ATOM      4  C   LIG d   1       1.787  81.745 111.623  0.00  0.00     0.028 C 
ATOM      5  C   LIG d   1       1.448  82.912 112.544  0.00  0.00    -0.047 C 
ATOM      6  C   LIG d   1       0.732  82.368 113.801  0.00  0.00     0.091 C 
ENDROOT
BRANCH   1   7
ATOM      7  O   LIG d   1      -0.894  80.688 114.534  0.00  0.00    -0.368 OA
BRANCH   7   8
ATOM      8  C   LIG d   1      -2.311  80.629 114.831  0.00  0.00     0.119 C 
BRANCH   8   9
ATOM      9  C   LIG d   1      -2.559  81.506 116.074  0.00  0.00     0.028 C 
ATOM     10  C   LIG d   1      -3.187  82.864 115.718  0.00  0.00     0.006 C 
ENDBRANCH   8   9
BRANCH   8  11
ATOM     11  C   LIG d   1      -2.736  79.216 115.241  0.00  0.00     0.028 C 
ATOM     12  C   LIG d   1      -1.955  78.120 114.499  0.00  0.00     0.006 C 
ENDBRANCH   8  11
ENDBRANCH   7   8
ENDBRANCH   1   7
BRANCH   6  13
ATOM     13  N   LIG d   1       0.290  83.453 114.716  0.00  0.00    -0.311 N 
ATOM     14  C   LIG d   1       0.583  83.481 116.015  0.00  0.00     0.210 C 
ATOM     15  C   LIG d   1       0.012  84.679 116.780  0.00  0.00     0.109 C 
ATOM     16  O   LIG d   1       1.288  82.645 116.599  0.00  0.00    -0.276 OA
ATOM     17  H   LIG d   1      -0.261  84.189 114.319  0.00  0.00     0.149 HD
ENDBRANCH   6  13
BRANCH   5  18
ATOM     18  N   LIG d   1       2.707  83.616 112.854  0.00  0.00     0.381 N 
ATOM     19  H   LIG d   1       2.514  84.568 113.091  0.00  0.00    -0.090 HD
ATOM     20  H   LIG d   1       3.294  83.606 112.039  0.00  0.00    -0.090 HD
ATOM     21  H   LIG d   1       3.171  83.165 113.612  0.00  0.00    -0.090 HD
ENDBRANCH   5  18
BRANCH   3  22
ATOM     22  C   LIG d   1       0.651  80.255 110.131  0.00  0.00     0.382 C 
ATOM     23  O   LIG d   1       1.670  79.660 109.706  0.00  0.00    -0.241 OA
ATOM     24  O   LIG d   1      -0.379  80.287 109.430  0.00  0.00    -0.241 OA
ENDBRANCH   3  22
TORSDOF 7
ENDMDL
