MODEL 1
REMARK VINA RESULT:      -5.3      0.000      0.000
REMARK  7 active torsions:
REMARK  status: ('A' for Active; 'I' for Inactive)
REMARK    1  A    between atoms: C_2  and  C_3 
REMARK    2  A    between atoms: C_3  and  O_6 
REMARK    3  A    between atoms: C_3  and  C_4 
REMARK    4  A    between atoms: C_7  and  O_6 
REMARK    5  A    between atoms: C_9  and  C_10 
REMARK    6  A    between atoms: N_15  and  C_14 
REMARK    7  A    between atoms: N_20  and  C_19 
REMARK       I    between atoms: C_22  and  N_20 
ROOT
ATOM      1  C   LIG d   1      -6.696  77.336 117.416  0.00  0.00     0.161 C 
ATOM      2  C   LIG d   1      -8.003  77.696 117.784  0.00  0.00     0.016 C 
ATOM      3  C   LIG d   1      -8.422  79.035 117.958  0.00  0.00     0.038 C 
ATOM      4  C   LIG d   1      -7.596  80.119 117.625  0.00  0.00     0.028 C 
ATOM      5  C   LIG d   1      -6.109  79.802 117.733  0.00  0.00    -0.047 C 
ATOM      6  C   LIG d   1      -5.812  78.508 116.941  0.00  0.00     0.091 C 
ENDROOT
BRANCH   1   7
ATOM      7  O   LIG d   1      -6.738  76.302 116.413  0.00  0.00    -0.368 OA
BRANCH   7   8
ATOM      8  C   LIG d   1      -6.242  75.002 116.816  0.00  0.00     0.119 C 
BRANCH   8   9
ATOM      9  C   LIG d   1      -5.739  74.285 115.548  0.00  0.00     0.028 C 
ATOM     10  C   LIG d   1      -5.192  75.265 114.497  0.00  0.00     0.006 C 
ENDBRANCH   8   9
BRANCH   8  11
ATOM     11  C   LIG d   1      -7.369  74.120 117.361  0.00  0.00     0.028 C 
ATOM     12  C   LIG d   1      -7.319  72.684 116.815  0.00  0.00     0.006 C 
ENDBRANCH   8  11
ENDBRANCH   7   8
ENDBRANCH   1   7
BRANCH   6  13
ATOM     13  N   LIG d   1      -4.394  78.081 117.064  0.00  0.00    -0.311 N 
ATOM     14  C   LIG d   1      -3.532  78.100 116.048  0.00  0.00     0.210 C 
ATOM     15  C   LIG d   1      -2.125  77.599 116.386  0.00  0.00     0.109 C 
ATOM     16  O   LIG d   1      -3.791  78.516 114.909  0.00  0.00    -0.276 OA
ATOM     17  H   LIG d   1      -4.091  77.758 117.962  0.00  0.00     0.149 HD
ENDBRANCH   6  13
BRANCH   5  18
ATOM     18  N   LIG d   1      -5.366  80.972 117.227  0.00  0.00     0.381 N 
ATOM     19  H   LIG d   1      -5.911  81.801 117.357  0.00  0.00    -0.090 HD
ATOM     20  H   LIG d   1      -5.203  80.853 116.242  0.00  0.00    -0.090 HD
ATOM     21  H   LIG d   1      -4.497  81.059 117.707  0.00  0.00    -0.090 HD
ENDBRANCH   5  18
BRANCH   3  22
ATOM     22  C   LIG d   1      -9.667  79.300 118.507  0.00  0.00     0.382 C 
ATOM     23  O   LIG d   1      -9.870  80.382 119.109  0.00  0.00    -0.241 OA
ATOM     24  O   LIG d   1     -10.578  78.452 118.447  0.00  0.00    -0.241 OA
ENDBRANCH   3  22
TORSDOF 7
ENDMDL
MODEL 2
REMARK VINA RESULT:      -5.3     11.559     14.459
REMARK  7 active torsions:
REMARK  status: ('A' for Active; 'I' for Inactive)
REMARK    1  A    between atoms: C_2  and  C_3 
REMARK    2  A    between atoms: C_3  and  O_6 
REMARK    3  A    between atoms: C_3  and  C_4 
REMARK    4  A    between atoms: C_7  and  O_6 
REMARK    5  A    between atoms: C_9  and  C_10 
REMARK    6  A    between atoms: N_15  and  C_14 
REMARK    7  A    between atoms: N_20  and  C_19 
REMARK       I    between atoms: C_22  and  N_20 
ROOT
ATOM      1  C   LIG d   1       1.708  88.642 115.495  0.00  0.00     0.161 C 
ATOM      2  C   LIG d   1       2.489  89.252 116.491  0.00  0.00     0.016 C 
ATOM      3  C   LIG d   1       2.956  88.572 117.639  0.00  0.00     0.038 C 
ATOM      4  C   LIG d   1       2.799  87.187 117.796  0.00  0.00     0.028 C 
ATOM      5  C   LIG d   1       1.584  86.628 117.064  0.00  0.00    -0.047 C 
ATOM      6  C   LIG d   1       1.621  87.104 115.593  0.00  0.00     0.091 C 
ENDROOT
BRANCH   1   7
ATOM      7  O   LIG d   1       2.183  89.034 114.192  0.00  0.00    -0.368 OA
BRANCH   7   8
ATOM      8  C   LIG d   1       3.500  88.556 113.824  0.00  0.00     0.119 C 
BRANCH   8   9
ATOM      9  C   LIG d   1       4.415  89.788 113.677  0.00  0.00     0.028 C 
ATOM     10  C   LIG d   1       5.803  89.425 113.121  0.00  0.00     0.006 C 
ENDBRANCH   8   9
BRANCH   8  11
ATOM     11  C   LIG d   1       3.486  87.895 112.443  0.00  0.00     0.028 C 
ATOM     12  C   LIG d   1       3.640  86.367 112.512  0.00  0.00     0.006 C 
ENDBRANCH   8  11
ENDBRANCH   7   8
ENDBRANCH   1   7
BRANCH   6  13
ATOM     13  N   LIG d   1       0.423  86.672 114.827  0.00  0.00    -0.311 N 
ATOM     14  C   LIG d   1       0.353  85.519 114.165  0.00  0.00     0.210 C 
ATOM     15  C   LIG d   1      -0.966  85.277 113.424  0.00  0.00     0.109 C 
ATOM     16  O   LIG d   1       1.247  84.658 114.147  0.00  0.00    -0.276 OA
ATOM     17  H   LIG d   1      -0.360  87.296 114.814  0.00  0.00     0.149 HD
ENDBRANCH   6  13
BRANCH   5  18
ATOM     18  N   LIG d   1       1.619  85.160 117.197  0.00  0.00     0.381 N 
ATOM     19  H   LIG d   1       0.717  84.779 116.990  0.00  0.00    -0.090 HD
ATOM     20  H   LIG d   1       1.850  84.925 118.146  0.00  0.00    -0.090 HD
ATOM     21  H   LIG d   1       2.299  84.777 116.577  0.00  0.00    -0.090 HD
ENDBRANCH   5  18
BRANCH   3  22
ATOM     22  C   LIG d   1       3.554  89.287 118.666  0.00  0.00     0.382 C 
ATOM     23  O   LIG d   1       3.062  90.380 119.037  0.00  0.00    -0.241 OA
ATOM     24  O   LIG d   1       4.603  88.875 119.195  0.00  0.00    -0.241 OA
ENDBRANCH   3  22
TORSDOF 7
ENDMDL
MODEL 3
REMARK VINA RESULT:      -5.0      3.401      5.767
REMARK  7 active torsions:
REMARK  status: ('A' for Active; 'I' for Inactive)
REMARK    1  A    between atoms: C_2  and  C_3 
REMARK    2  A    between atoms: C_3  and  O_6 
REMARK    3  A    between atoms: C_3  and  C_4 
REMARK    4  A    between atoms: C_7  and  O_6 
REMARK    5  A    between atoms: C_9  and  C_10 
REMARK    6  A    between atoms: N_15  and  C_14 
REMARK    7  A    between atoms: N_20  and  C_19 
REMARK       I    between atoms: C_22  and  N_20 
ROOT
ATOM      1  C   LIG d   1      -3.183  77.593 116.480  0.00  0.00     0.161 C 
ATOM      2  C   LIG d   1      -3.523  77.965 115.169  0.00  0.00     0.016 C 
ATOM      3  C   LIG d   1      -2.618  77.906 114.084  0.00  0.00     0.038 C 
ATOM      4  C   LIG d   1      -1.348  77.323 114.208  0.00  0.00     0.028 C 
ATOM      5  C   LIG d   1      -0.784  77.398 115.623  0.00  0.00    -0.047 C 
ATOM      6  C   LIG d   1      -1.837  76.850 116.613  0.00  0.00     0.091 C 
ENDROOT
BRANCH   1   7
ATOM      7  O   LIG d   1      -4.247  76.809 117.057  0.00  0.00    -0.368 OA
BRANCH   7   8
ATOM      8  C   LIG d   1      -5.341  76.470 116.170  0.00  0.00     0.119 C 
BRANCH   8   9
ATOM      9  C   LIG d   1      -6.651  76.649 116.962  0.00  0.00     0.028 C 
ATOM     10  C   LIG d   1      -6.616  75.936 118.324  0.00  0.00     0.006 C 
ENDBRANCH   8   9
BRANCH   8  11
ATOM     11  C   LIG d   1      -5.303  74.989 115.780  0.00  0.00     0.028 C 
ATOM     12  C   LIG d   1      -5.356  74.773 114.259  0.00  0.00     0.006 C 
ENDBRANCH   8  11
ENDBRANCH   7   8
ENDBRANCH   1   7
BRANCH   6  13
ATOM     13  N   LIG d   1      -1.398  76.965 118.028  0.00  0.00    -0.311 N 
ATOM     14  C   LIG d   1      -0.815  75.972 118.698  0.00  0.00     0.210 C 
ATOM     15  C   LIG d   1      -0.460  76.294 120.153  0.00  0.00     0.109 C 
ATOM     16  O   LIG d   1      -0.530  74.866 118.216  0.00  0.00    -0.276 OA
ATOM     17  H   LIG d   1      -1.563  77.839 118.488  0.00  0.00     0.149 HD
ENDBRANCH   6  13
BRANCH   5  18
ATOM     18  N   LIG d   1       0.478  76.634 115.640  0.00  0.00     0.381 N 
ATOM     19  H   LIG d   1       0.518  76.028 114.845  0.00  0.00    -0.090 HD
ATOM     20  H   LIG d   1       0.504  76.068 116.470  0.00  0.00    -0.090 HD
ATOM     21  H   LIG d   1       1.255  77.258 115.630  0.00  0.00    -0.090 HD
ENDBRANCH   5  18
BRANCH   3  22
ATOM     22  C   LIG d   1      -2.968  78.470 112.866  0.00  0.00     0.382 C 
ATOM     23  O   LIG d   1      -2.923  79.715 112.716  0.00  0.00    -0.241 OA
ATOM     24  O   LIG d   1      -3.370  77.753 111.930  0.00  0.00    -0.241 OA
ENDBRANCH   3  22
TORSDOF 7
ENDMDL
MODEL 4
REMARK VINA RESULT:      -5.0      4.195      6.270
REMARK  7 active torsions:
REMARK  status: ('A' for Active; 'I' for Inactive)
REMARK    1  A    between atoms: C_2  and  C_3 
REMARK    2  A    between atoms: C_3  and  O_6 
REMARK    3  A    between atoms: C_3  and  C_4 
REMARK    4  A    between atoms: C_7  and  O_6 
REMARK    5  A    between atoms: C_9  and  C_10 
REMARK    6  A    between atoms: N_15  and  C_14 
REMARK    7  A    between atoms: N_20  and  C_19 
REMARK       I    between atoms: C_22  and  N_20 
ROOT
ATOM      1  C   LIG d   1      -2.090  76.434 114.841  0.00  0.00     0.161 C 
ATOM      2  C   LIG d   1      -2.110  75.435 115.829  0.00  0.00     0.016 C 
ATOM      3  C   LIG d   1      -1.304  75.473 116.990  0.00  0.00     0.038 C 
ATOM      4  C   LIG d   1      -0.529  76.595 117.318  0.00  0.00     0.028 C 
ATOM      5  C   LIG d   1      -0.092  77.406 116.103  0.00  0.00    -0.047 C 
ATOM      6  C   LIG d   1      -1.333  77.719 115.235  0.00  0.00     0.091 C 
ENDROOT
BRANCH   1   7
ATOM      7  O   LIG d   1      -3.437  76.750 114.438  0.00  0.00    -0.368 OA
BRANCH   7   8
ATOM      8  C   LIG d   1      -4.463  76.565 115.444  0.00  0.00     0.119 C 
BRANCH   8   9
ATOM      9  C   LIG d   1      -5.717  76.020 114.732  0.00  0.00     0.028 C 
ATOM     10  C   LIG d   1      -5.467  74.658 114.064  0.00  0.00     0.006 C 
ENDBRANCH   8   9
BRANCH   8  11
ATOM     11  C   LIG d   1      -4.892  77.902 116.054  0.00  0.00     0.028 C 
ATOM     12  C   LIG d   1      -4.326  78.122 117.466  0.00  0.00     0.006 C 
ENDBRANCH   8  11
ENDBRANCH   7   8
ENDBRANCH   1   7
BRANCH   6  13
ATOM     13  N   LIG d   1      -0.982  78.437 113.982  0.00  0.00    -0.311 N 
ATOM     14  C   LIG d   1      -1.682  79.465 113.506  0.00  0.00     0.210 C 
ATOM     15  C   LIG d   1      -1.160  80.049 112.189  0.00  0.00     0.109 C 
ATOM     16  O   LIG d   1      -2.667  79.970 114.066  0.00  0.00    -0.276 OA
ATOM     17  H   LIG d   1      -0.178  78.113 113.481  0.00  0.00     0.149 HD
ENDBRANCH   6  13
BRANCH   5  18
ATOM     18  N   LIG d   1       0.589  78.618 116.596  0.00  0.00     0.381 N 
ATOM     19  H   LIG d   1       0.116  79.433 116.261  0.00  0.00    -0.090 HD
ATOM     20  H   LIG d   1       1.529  78.630 116.241  0.00  0.00    -0.090 HD
ATOM     21  H   LIG d   1       0.603  78.619 117.593  0.00  0.00    -0.090 HD
ENDBRANCH   5  18
BRANCH   3  22
ATOM     22  C   LIG d   1      -1.239  74.363 117.818  0.00  0.00     0.382 C 
ATOM     23  O   LIG d   1      -0.938  73.242 117.340  0.00  0.00    -0.241 OA
ATOM     24  O   LIG d   1      -1.520  74.459 119.027  0.00  0.00    -0.241 OA
ENDBRANCH   3  22
TORSDOF 7
ENDMDL
MODEL 5
REMARK VINA RESULT:      -5.0      1.884      2.919
REMARK  7 active torsions:
REMARK  status: ('A' for Active; 'I' for Inactive)
REMARK    1  A    between atoms: C_2  and  C_3 
REMARK    2  A    between atoms: C_3  and  O_6 
REMARK    3  A    between atoms: C_3  and  C_4 
REMARK    4  A    between atoms: C_7  and  O_6 
REMARK    5  A    between atoms: C_9  and  C_10 
REMARK    6  A    between atoms: N_15  and  C_14 
REMARK    7  A    between atoms: N_20  and  C_19 
REMARK       I    between atoms: C_22  and  N_20 
ROOT
ATOM      1  C   LIG d   1      -6.390  79.383 117.624  0.00  0.00     0.161 C 
ATOM      2  C   LIG d   1      -7.721  79.039 117.917  0.00  0.00     0.016 C 
ATOM      3  C   LIG d   1      -8.666  79.954 118.433  0.00  0.00     0.038 C 
ATOM      4  C   LIG d   1      -8.385  81.324 118.550  0.00  0.00     0.028 C 
ATOM      5  C   LIG d   1      -6.902  81.623 118.743  0.00  0.00    -0.047 C 
ATOM      6  C   LIG d   1      -6.096  80.898 117.641  0.00  0.00     0.091 C 
ENDROOT
BRANCH   1   7
ATOM      7  O   LIG d   1      -6.005  78.812 116.359  0.00  0.00    -0.368 OA
BRANCH   7   8
ATOM      8  C   LIG d   1      -5.217  77.598 116.421  0.00  0.00     0.119 C 
BRANCH   8   9
ATOM      9  C   LIG d   1      -3.935  77.835 115.600  0.00  0.00     0.028 C 
ATOM     10  C   LIG d   1      -2.682  77.945 116.486  0.00  0.00     0.006 C 
ENDBRANCH   8   9
BRANCH   8  11
ATOM     11  C   LIG d   1      -5.932  76.433 115.730  0.00  0.00     0.028 C 
ATOM     12  C   LIG d   1      -5.184  75.930 114.485  0.00  0.00     0.006 C 
ENDBRANCH   8  11
ENDBRANCH   7   8
ENDBRANCH   1   7
BRANCH   6  13
ATOM     13  N   LIG d   1      -4.629  81.070 117.806  0.00  0.00    -0.311 N 
ATOM     14  C   LIG d   1      -3.839  81.570 116.858  0.00  0.00     0.210 C 
ATOM     15  C   LIG d   1      -2.354  81.643 117.227  0.00  0.00     0.109 C 
ATOM     16  O   LIG d   1      -4.231  81.991 115.759  0.00  0.00    -0.276 OA
ATOM     17  H   LIG d   1      -4.232  80.783 118.679  0.00  0.00     0.149 HD
ENDBRANCH   6  13
BRANCH   5  18
ATOM     18  N   LIG d   1      -6.736  83.089 118.711  0.00  0.00     0.381 N 
ATOM     19  H   LIG d   1      -6.514  83.384 117.782  0.00  0.00    -0.090 HD
ATOM     20  H   LIG d   1      -5.972  83.342 119.313  0.00  0.00    -0.090 HD
ATOM     21  H   LIG d   1      -7.573  83.533 119.019  0.00  0.00    -0.090 HD
ENDBRANCH   5  18
BRANCH   3  22
ATOM     22  C   LIG d   1      -9.897  79.495 118.875  0.00  0.00     0.382 C 
ATOM     23  O   LIG d   1     -10.434  78.505 118.320  0.00  0.00    -0.241 OA
ATOM     24  O   LIG d   1     -10.499  80.083 119.793  0.00  0.00    -0.241 OA
ENDBRANCH   3  22
TORSDOF 7
ENDMDL
MODEL 6
REMARK VINA RESULT:      -4.9     14.439     16.543
REMARK  7 active torsions:
REMARK  status: ('A' for Active; 'I' for Inactive)
REMARK    1  A    between atoms: C_2  and  C_3 
REMARK    2  A    between atoms: C_3  and  O_6 
REMARK    3  A    between atoms: C_3  and  C_4 
REMARK    4  A    between atoms: C_7  and  O_6 
REMARK    5  A    between atoms: C_9  and  C_10 
REMARK    6  A    between atoms: N_15  and  C_14 
REMARK    7  A    between atoms: N_20  and  C_19 
REMARK       I    between atoms: C_22  and  N_20 
ROOT
ATOM      1  C   LIG d   1     -15.786  65.818 117.266  0.00  0.00     0.161 C 
ATOM      2  C   LIG d   1     -15.660  66.697 116.177  0.00  0.00     0.016 C 
ATOM      3  C   LIG d   1     -15.938  66.325 114.841  0.00  0.00     0.038 C 
ATOM      4  C   LIG d   1     -16.510  65.085 114.520  0.00  0.00     0.028 C 
ATOM      5  C   LIG d   1     -16.181  63.988 115.527  0.00  0.00    -0.047 C 
ATOM      6  C   LIG d   1     -16.514  64.495 116.949  0.00  0.00     0.091 C 
ENDROOT
BRANCH   1   7
ATOM      7  O   LIG d   1     -16.428  66.492 118.366  0.00  0.00    -0.368 OA
BRANCH   7   8
ATOM      8  C   LIG d   1     -17.271  67.618 118.018  0.00  0.00     0.119 C 
BRANCH   8   9
ATOM      9  C   LIG d   1     -17.008  68.730 119.053  0.00  0.00     0.028 C 
ATOM     10  C   LIG d   1     -18.302  69.241 119.707  0.00  0.00     0.006 C 
ENDBRANCH   8   9
BRANCH   8  11
ATOM     11  C   LIG d   1     -18.755  67.270 118.167  0.00  0.00     0.028 C 
ATOM     12  C   LIG d   1     -19.417  66.900 116.830  0.00  0.00     0.006 C 
ENDBRANCH   8  11
ENDBRANCH   7   8
ENDBRANCH   1   7
BRANCH   6  13
ATOM     13  N   LIG d   1     -16.144  63.514 118.002  0.00  0.00    -0.311 N 
ATOM     14  C   LIG d   1     -16.953  63.173 119.003  0.00  0.00     0.210 C 
ATOM     15  C   LIG d   1     -16.368  62.159 119.991  0.00  0.00     0.109 C 
ATOM     16  O   LIG d   1     -18.112  63.590 119.149  0.00  0.00    -0.276 OA
ATOM     17  H   LIG d   1     -15.233  63.104 117.943  0.00  0.00     0.149 HD
ENDBRANCH   6  13
BRANCH   5  18
ATOM     18  N   LIG d   1     -16.951  62.788 115.146  0.00  0.00     0.381 N 
ATOM     19  H   LIG d   1     -17.931  62.977 115.220  0.00  0.00    -0.090 HD
ATOM     20  H   LIG d   1     -16.725  62.042 115.780  0.00  0.00    -0.090 HD
ATOM     21  H   LIG d   1     -16.726  62.521 114.213  0.00  0.00    -0.090 HD
ENDBRANCH   5  18
BRANCH   3  22
ATOM     22  C   LIG d   1     -15.606  67.185 113.805  0.00  0.00     0.382 C 
ATOM     23  O   LIG d   1     -15.579  68.424 114.003  0.00  0.00    -0.241 OA
ATOM     24  O   LIG d   1     -15.376  66.741 112.665  0.00  0.00    -0.241 OA
ENDBRANCH   3  22
TORSDOF 7
ENDMDL
MODEL 7
REMARK VINA RESULT:      -4.9      8.344     11.155
REMARK  7 active torsions:
REMARK  status: ('A' for Active; 'I' for Inactive)
REMARK    1  A    between atoms: C_2  and  C_3 
REMARK    2  A    between atoms: C_3  and  O_6 
REMARK    3  A    between atoms: C_3  and  C_4 
REMARK    4  A    between atoms: C_7  and  O_6 
REMARK    5  A    between atoms: C_9  and  C_10 
REMARK    6  A    between atoms: N_15  and  C_14 
REMARK    7  A    between atoms: N_20  and  C_19 
REMARK       I    between atoms: C_22  and  N_20 
ROOT
ATOM      1  C   LIG d   1      -0.277  84.842 113.395  0.00  0.00     0.161 C 
ATOM      2  C   LIG d   1      -1.207  83.788 113.399  0.00  0.00     0.016 C 
ATOM      3  C   LIG d   1      -0.903  82.481 112.956  0.00  0.00     0.038 C 
ATOM      4  C   LIG d   1       0.403  82.098 112.616  0.00  0.00     0.028 C 
ATOM      5  C   LIG d   1       1.263  83.254 112.116  0.00  0.00    -0.047 C 
ATOM      6  C   LIG d   1       1.182  84.415 113.132  0.00  0.00     0.091 C 
ENDROOT
BRANCH   1   7
ATOM      7  O   LIG d   1      -0.369  85.580 114.629  0.00  0.00    -0.368 OA
BRANCH   7   8
ATOM      8  C   LIG d   1       0.635  85.278 115.629  0.00  0.00     0.119 C 
BRANCH   8   9
ATOM      9  C   LIG d   1      -0.063  84.514 116.771  0.00  0.00     0.028 C 
ATOM     10  C   LIG d   1       0.193  82.999 116.706  0.00  0.00     0.006 C 
ENDBRANCH   8   9
BRANCH   8  11
ATOM     11  C   LIG d   1       1.183  86.556 116.271  0.00  0.00     0.028 C 
ATOM     12  C   LIG d   1       1.966  86.283 117.565  0.00  0.00     0.006 C 
ENDBRANCH   8  11
ENDBRANCH   7   8
ENDBRANCH   1   7
BRANCH   6  13
ATOM     13  N   LIG d   1       1.928  85.618 112.679  0.00  0.00    -0.311 N 
ATOM     14  C   LIG d   1       3.199  85.856 112.997  0.00  0.00     0.210 C 
ATOM     15  C   LIG d   1       3.770  87.165 112.442  0.00  0.00     0.109 C 
ATOM     16  O   LIG d   1       3.917  85.093 113.660  0.00  0.00    -0.276 OA
ATOM     17  H   LIG d   1       1.430  86.276 112.110  0.00  0.00     0.149 HD
ENDBRANCH   6  13
BRANCH   5  18
ATOM     18  N   LIG d   1       2.634  82.742 111.930  0.00  0.00     0.381 N 
ATOM     19  H   LIG d   1       3.246  83.163 112.600  0.00  0.00    -0.090 HD
ATOM     20  H   LIG d   1       2.952  82.992 111.010  0.00  0.00    -0.090 HD
ATOM     21  H   LIG d   1       2.645  81.751 112.035  0.00  0.00    -0.090 HD
ENDBRANCH   5  18
BRANCH   3  22
ATOM     22  C   LIG d   1      -1.921  81.551 112.810  0.00  0.00     0.382 C 
ATOM     23  O   LIG d   1      -3.112  81.934 112.719  0.00  0.00    -0.241 OA
ATOM     24  O   LIG d   1      -1.668  80.331 112.813  0.00  0.00    -0.241 OA
ENDBRANCH   3  22
TORSDOF 7
ENDMDL
MODEL 8
REMARK VINA RESULT:      -4.8     14.258     17.291
REMARK  7 active torsions:
REMARK  status: ('A' for Active; 'I' for Inactive)
REMARK    1  A    between atoms: C_2  and  C_3 
REMARK    2  A    between atoms: C_3  and  O_6 
REMARK    3  A    between atoms: C_3  and  C_4 
REMARK    4  A    between atoms: C_7  and  O_6 
REMARK    5  A    between atoms: C_9  and  C_10 
REMARK    6  A    between atoms: N_15  and  C_14 
REMARK    7  A    between atoms: N_20  and  C_19 
REMARK       I    between atoms: C_22  and  N_20 
ROOT
ATOM      1  C   LIG d   1     -16.454  64.610 115.829  0.00  0.00     0.161 C 
ATOM      2  C   LIG d   1     -15.989  65.921 116.024  0.00  0.00     0.016 C 
ATOM      3  C   LIG d   1     -15.813  66.848 114.972  0.00  0.00     0.038 C 
ATOM      4  C   LIG d   1     -16.236  66.574 113.663  0.00  0.00     0.028 C 
ATOM      5  C   LIG d   1     -16.243  65.086 113.327  0.00  0.00    -0.047 C 
ATOM      6  C   LIG d   1     -17.026  64.329 114.423  0.00  0.00     0.091 C 
ENDROOT
BRANCH   1   7
ATOM      7  O   LIG d   1     -17.427  64.281 116.840  0.00  0.00    -0.368 OA
BRANCH   7   8
ATOM      8  C   LIG d   1     -18.805  64.598 116.527  0.00  0.00     0.119 C 
BRANCH   8   9
ATOM      9  C   LIG d   1     -19.243  65.739 117.466  0.00  0.00     0.028 C 
ATOM     10  C   LIG d   1     -19.534  67.045 116.708  0.00  0.00     0.006 C 
ENDBRANCH   8   9
BRANCH   8  11
ATOM     11  C   LIG d   1     -19.735  63.425 116.852  0.00  0.00     0.028 C 
ATOM     12  C   LIG d   1     -18.971  62.142 117.214  0.00  0.00     0.006 C 
ENDBRANCH   8  11
ENDBRANCH   7   8
ENDBRANCH   1   7
BRANCH   6  13
ATOM     13  N   LIG d   1     -17.010  62.857 114.217  0.00  0.00    -0.311 N 
ATOM     14  C   LIG d   1     -17.989  62.191 113.607  0.00  0.00     0.210 C 
ATOM     15  C   LIG d   1     -17.782  60.676 113.517  0.00  0.00     0.109 C 
ATOM     16  O   LIG d   1     -18.993  62.716 113.102  0.00  0.00    -0.276 OA
ATOM     17  H   LIG d   1     -16.217  62.356 114.568  0.00  0.00     0.149 HD
ENDBRANCH   6  13
BRANCH   5  18
ATOM     18  N   LIG d   1     -16.834  64.935 111.985  0.00  0.00     0.381 N 
ATOM     19  H   LIG d   1     -17.828  64.843 112.060  0.00  0.00    -0.090 HD
ATOM     20  H   LIG d   1     -16.472  64.099 111.562  0.00  0.00    -0.090 HD
ATOM     21  H   LIG d   1     -16.608  65.725 111.421  0.00  0.00    -0.090 HD
ENDBRANCH   5  18
BRANCH   3  22
ATOM     22  C   LIG d   1     -15.170  68.052 115.217  0.00  0.00     0.382 C 
ATOM     23  O   LIG d   1     -15.004  68.445 116.397  0.00  0.00    -0.241 OA
ATOM     24  O   LIG d   1     -14.792  68.771 114.273  0.00  0.00    -0.241 OA
ENDBRANCH   3  22
TORSDOF 7
ENDMDL
MODEL 9
REMARK VINA RESULT:      -4.8     13.372     16.181
REMARK  7 active torsions:
REMARK  status: ('A' for Active; 'I' for Inactive)
REMARK    1  A    between atoms: C_2  and  C_3 
REMARK    2  A    between atoms: C_3  and  O_6 
REMARK    3  A    between atoms: C_3  and  C_4 
REMARK    4  A    between atoms: C_7  and  O_6 
REMARK    5  A    between atoms: C_9  and  C_10 
REMARK    6  A    between atoms: N_15  and  C_14 
REMARK    7  A    between atoms: N_20  and  C_19 
REMARK       I    between atoms: C_22  and  N_20 
ROOT
ATOM      1  C   LIG d   1     -17.077  65.837 115.647  0.00  0.00     0.161 C 
ATOM      2  C   LIG d   1     -16.327  66.226 114.525  0.00  0.00     0.016 C 
ATOM      3  C   LIG d   1     -15.713  67.493 114.401  0.00  0.00     0.038 C 
ATOM      4  C   LIG d   1     -15.680  68.409 115.463  0.00  0.00     0.028 C 
ATOM      5  C   LIG d   1     -16.853  68.260 116.427  0.00  0.00    -0.047 C 
ATOM      6  C   LIG d   1     -16.960  66.780 116.862  0.00  0.00     0.091 C 
ENDROOT
BRANCH   1   7
ATOM      7  O   LIG d   1     -16.731  64.490 116.023  0.00  0.00    -0.368 OA
BRANCH   7   8
ATOM      8  C   LIG d   1     -17.768  63.493 115.850  0.00  0.00     0.119 C 
BRANCH   8   9
ATOM      9  C   LIG d   1     -17.320  62.551 114.715  0.00  0.00     0.028 C 
ATOM     10  C   LIG d   1     -17.889  62.968 113.348  0.00  0.00     0.006 C 
ENDBRANCH   8   9
BRANCH   8  11
ATOM     11  C   LIG d   1     -19.073  64.126 115.360  0.00  0.00     0.028 C 
ATOM     12  C   LIG d   1     -20.256  63.860 116.305  0.00  0.00     0.006 C 
ENDBRANCH   8  11
ENDBRANCH   7   8
ENDBRANCH   1   7
BRANCH   6  13
ATOM     13  N   LIG d   1     -18.133  66.531 117.740  0.00  0.00    -0.311 N 
ATOM     14  C   LIG d   1     -18.066  66.529 119.070  0.00  0.00     0.210 C 
ATOM     15  C   LIG d   1     -19.388  66.231 119.784  0.00  0.00     0.109 C 
ATOM     16  O   LIG d   1     -17.044  66.779 119.727  0.00  0.00    -0.276 OA
ATOM     17  H   LIG d   1     -19.009  66.351 117.290  0.00  0.00     0.149 HD
ENDBRANCH   6  13
BRANCH   5  18
ATOM     18  N   LIG d   1     -16.621  69.179 117.557  0.00  0.00     0.381 N 
ATOM     19  H   LIG d   1     -17.228  69.971 117.479  0.00  0.00    -0.090 HD
ATOM     20  H   LIG d   1     -15.671  69.505 117.521  0.00  0.00    -0.090 HD
ATOM     21  H   LIG d   1     -16.786  68.708 118.419  0.00  0.00    -0.090 HD
ENDBRANCH   5  18
BRANCH   3  22
ATOM     22  C   LIG d   1     -15.156  67.872 113.189  0.00  0.00     0.382 C 
ATOM     23  O   LIG d   1     -14.739  69.044 113.029  0.00  0.00    -0.241 OA
ATOM     24  O   LIG d   1     -15.105  67.068 112.239  0.00  0.00    -0.241 OA
ENDBRANCH   3  22
TORSDOF 7
ENDMDL
