MODEL 1
REMARK VINA RESULT:      -5.7      0.000      0.000
REMARK  7 active torsions:
REMARK  status: ('A' for Active; 'I' for Inactive)
REMARK    1  A    between atoms: C_2  and  C_3 
REMARK    2  A    between atoms: C_3  and  O_6 
REMARK    3  A    between atoms: C_3  and  C_4 
REMARK    4  A    between atoms: C_7  and  O_6 
REMARK    5  A    between atoms: C_9  and  C_10 
REMARK    6  A    between atoms: N_15  and  C_14 
REMARK    7  A    between atoms: N_20  and  C_19 
REMARK       I    between atoms: C_22  and  N_20 
ROOT
ATOM      1  C   LIG d   1      -5.739  77.905 117.201  0.00  0.00     0.161 C 
ATOM      2  C   LIG d   1      -5.673  76.608 116.664  0.00  0.00     0.016 C 
ATOM      3  C   LIG d   1      -6.792  75.750 116.564  0.00  0.00     0.038 C 
ATOM      4  C   LIG d   1      -8.092  76.188 116.858  0.00  0.00     0.028 C 
ATOM      5  C   LIG d   1      -8.133  77.321 117.878  0.00  0.00    -0.047 C 
ATOM      6  C   LIG d   1      -7.169  78.441 117.423  0.00  0.00     0.091 C 
ENDROOT
BRANCH   1   7
ATOM      7  O   LIG d   1      -4.986  78.815 116.375  0.00  0.00    -0.368 OA
BRANCH   7   8
ATOM      8  C   LIG d   1      -3.610  79.043 116.769  0.00  0.00     0.119 C 
BRANCH   8   9
ATOM      9  C   LIG d   1      -3.554  80.410 117.479  0.00  0.00     0.028 C 
ATOM     10  C   LIG d   1      -3.538  80.274 119.011  0.00  0.00     0.006 C 
ENDBRANCH   8   9
BRANCH   8  11
ATOM     11  C   LIG d   1      -2.697  79.184 115.547  0.00  0.00     0.028 C 
ATOM     12  C   LIG d   1      -2.557  80.638 115.072  0.00  0.00     0.006 C 
ENDBRANCH   8  11
ENDBRANCH   7   8
ENDBRANCH   1   7
BRANCH   6  13
ATOM     13  N   LIG d   1      -7.085  79.551 118.408  0.00  0.00    -0.311 N 
ATOM     14  C   LIG d   1      -7.282  80.829 118.090  0.00  0.00     0.210 C 
ATOM     15  C   LIG d   1      -7.128  81.816 119.252  0.00  0.00     0.109 C 
ATOM     16  O   LIG d   1      -7.600  81.237 116.962  0.00  0.00    -0.276 OA
ATOM     17  H   LIG d   1      -6.862  79.307 119.353  0.00  0.00     0.149 HD
ENDBRANCH   6  13
BRANCH   5  18
ATOM     18  N   LIG d   1      -9.533  77.773 117.986  0.00  0.00     0.381 N 
ATOM     19  H   LIG d   1      -9.605  78.490 118.680  0.00  0.00    -0.090 HD
ATOM     20  H   LIG d   1     -10.103  76.997 118.273  0.00  0.00    -0.090 HD
ATOM     21  H   LIG d   1      -9.849  78.119 117.106  0.00  0.00    -0.090 HD
ENDBRANCH   5  18
BRANCH   3  22
ATOM     22  C   LIG d   1      -6.610  74.423 116.205  0.00  0.00     0.382 C 
ATOM     23  O   LIG d   1      -5.807  74.126 115.287  0.00  0.00    -0.241 OA
ATOM     24  O   LIG d   1      -7.271  73.523 116.756  0.00  0.00    -0.241 OA
ENDBRANCH   3  22
TORSDOF 7
ENDMDL
MODEL 2
REMARK VINA RESULT:      -5.4      1.735      2.644
REMARK  7 active torsions:
REMARK  status: ('A' for Active; 'I' for Inactive)
REMARK    1  A    between atoms: C_2  and  C_3 
REMARK    2  A    between atoms: C_3  and  O_6 
REMARK    3  A    between atoms: C_3  and  C_4 
REMARK    4  A    between atoms: C_7  and  O_6 
REMARK    5  A    between atoms: C_9  and  C_10 
REMARK    6  A    between atoms: N_15  and  C_14 
REMARK    7  A    between atoms: N_20  and  C_19 
REMARK       I    between atoms: C_22  and  N_20 
ROOT
ATOM      1  C   LIG d   1      -6.767  77.992 117.596  0.00  0.00     0.161 C 
ATOM      2  C   LIG d   1      -5.878  77.206 116.844  0.00  0.00     0.016 C 
ATOM      3  C   LIG d   1      -6.253  76.002 116.205  0.00  0.00     0.038 C 
ATOM      4  C   LIG d   1      -7.589  75.578 116.149  0.00  0.00     0.028 C 
ATOM      5  C   LIG d   1      -8.432  76.074 117.319  0.00  0.00    -0.047 C 
ATOM      6  C   LIG d   1      -8.254  77.603 117.453  0.00  0.00     0.091 C 
ENDROOT
BRANCH   1   7
ATOM      7  O   LIG d   1      -6.580  79.385 117.274  0.00  0.00    -0.368 OA
BRANCH   7   8
ATOM      8  C   LIG d   1      -6.040  80.216 118.330  0.00  0.00     0.119 C 
BRANCH   8   9
ATOM      9  C   LIG d   1      -6.868  81.515 118.366  0.00  0.00     0.028 C 
ATOM     10  C   LIG d   1      -7.023  82.074 119.790  0.00  0.00     0.006 C 
ENDBRANCH   8   9
BRANCH   8  11
ATOM     11  C   LIG d   1      -4.608  80.657 118.015  0.00  0.00     0.028 C 
ATOM     12  C   LIG d   1      -3.631  80.375 119.168  0.00  0.00     0.006 C 
ENDBRANCH   8  11
ENDBRANCH   7   8
ENDBRANCH   1   7
BRANCH   6  13
ATOM     13  N   LIG d   1      -8.978  78.158 118.626  0.00  0.00    -0.311 N 
ATOM     14  C   LIG d   1      -9.774  79.224 118.559  0.00  0.00     0.210 C 
ATOM     15  C   LIG d   1     -10.409  79.641 119.889  0.00  0.00     0.109 C 
ATOM     16  O   LIG d   1     -10.040  79.843 117.518  0.00  0.00    -0.276 OA
ATOM     17  H   LIG d   1      -8.844  77.697 119.504  0.00  0.00     0.149 HD
ENDBRANCH   6  13
BRANCH   5  18
ATOM     18  N   LIG d   1      -9.829  75.675 117.062  0.00  0.00     0.381 N 
ATOM     19  H   LIG d   1     -10.034  74.827 117.552  0.00  0.00    -0.090 HD
ATOM     20  H   LIG d   1      -9.943  75.506 116.078  0.00  0.00    -0.090 HD
ATOM     21  H   LIG d   1     -10.449  76.396 117.357  0.00  0.00    -0.090 HD
ENDBRANCH   5  18
BRANCH   3  22
ATOM     22  C   LIG d   1      -5.279  75.188 115.647  0.00  0.00     0.382 C 
ATOM     23  O   LIG d   1      -5.580  74.391 114.726  0.00  0.00    -0.241 OA
ATOM     24  O   LIG d   1      -4.113  75.208 116.084  0.00  0.00    -0.241 OA
ENDBRANCH   3  22
TORSDOF 7
ENDMDL
MODEL 3
REMARK VINA RESULT:      -5.4      1.671      2.700
REMARK  7 active torsions:
REMARK  status: ('A' for Active; 'I' for Inactive)
REMARK    1  A    between atoms: C_2  and  C_3 
REMARK    2  A    between atoms: C_3  and  O_6 
REMARK    3  A    between atoms: C_3  and  C_4 
REMARK    4  A    between atoms: C_7  and  O_6 
REMARK    5  A    between atoms: C_9  and  C_10 
REMARK    6  A    between atoms: N_15  and  C_14 
REMARK    7  A    between atoms: N_20  and  C_19 
REMARK       I    between atoms: C_22  and  N_20 
ROOT
ATOM      1  C   LIG d   1      -6.723  79.270 118.016  0.00  0.00     0.161 C 
ATOM      2  C   LIG d   1      -7.067  78.028 117.457  0.00  0.00     0.016 C 
ATOM      3  C   LIG d   1      -8.357  77.458 117.563  0.00  0.00     0.038 C 
ATOM      4  C   LIG d   1      -9.438  78.165 118.109  0.00  0.00     0.028 C 
ATOM      5  C   LIG d   1      -9.020  79.213 119.135  0.00  0.00    -0.047 C 
ATOM      6  C   LIG d   1      -7.918  80.106 118.520  0.00  0.00     0.091 C 
ENDROOT
BRANCH   1   7
ATOM      7  O   LIG d   1      -5.941  80.030 117.074  0.00  0.00    -0.368 OA
BRANCH   7   8
ATOM      8  C   LIG d   1      -4.556  80.256 117.430  0.00  0.00     0.119 C 
BRANCH   8   9
ATOM      9  C   LIG d   1      -3.688  79.420 116.470  0.00  0.00     0.028 C 
ATOM     10  C   LIG d   1      -2.769  80.294 115.599  0.00  0.00     0.006 C 
ENDBRANCH   8   9
BRANCH   8  11
ATOM     11  C   LIG d   1      -4.246  79.717 118.830  0.00  0.00     0.028 C 
ATOM     12  C   LIG d   1      -3.082  80.456 119.509  0.00  0.00     0.006 C 
ENDBRANCH   8  11
ENDBRANCH   7   8
ENDBRANCH   1   7
BRANCH   6  13
ATOM     13  N   LIG d   1      -7.393  81.105 119.486  0.00  0.00    -0.311 N 
ATOM     14  C   LIG d   1      -7.865  82.346 119.588  0.00  0.00     0.210 C 
ATOM     15  C   LIG d   1      -7.168  83.220 120.635  0.00  0.00     0.109 C 
ATOM     16  O   LIG d   1      -8.817  82.797 118.932  0.00  0.00    -0.276 OA
ATOM     17  H   LIG d   1      -6.640  80.814 120.079  0.00  0.00     0.149 HD
ENDBRANCH   6  13
BRANCH   5  18
ATOM     18  N   LIG d   1     -10.228  79.967 119.520  0.00  0.00     0.381 N 
ATOM     19  H   LIG d   1     -10.966  79.778 118.871  0.00  0.00    -0.090 HD
ATOM     20  H   LIG d   1     -10.022  80.950 119.486  0.00  0.00    -0.090 HD
ATOM     21  H   LIG d   1     -10.511  79.711 120.440  0.00  0.00    -0.090 HD
ENDBRANCH   5  18
BRANCH   3  22
ATOM     22  C   LIG d   1      -8.565  76.149 117.154  0.00  0.00     0.382 C 
ATOM     23  O   LIG d   1      -9.734  75.715 117.014  0.00  0.00    -0.241 OA
ATOM     24  O   LIG d   1      -7.600  75.385 116.966  0.00  0.00    -0.241 OA
ENDBRANCH   3  22
TORSDOF 7
ENDMDL
MODEL 4
REMARK VINA RESULT:      -5.3      2.414      4.518
REMARK  7 active torsions:
REMARK  status: ('A' for Active; 'I' for Inactive)
REMARK    1  A    between atoms: C_2  and  C_3 
REMARK    2  A    between atoms: C_3  and  O_6 
REMARK    3  A    between atoms: C_3  and  C_4 
REMARK    4  A    between atoms: C_7  and  O_6 
REMARK    5  A    between atoms: C_9  and  C_10 
REMARK    6  A    between atoms: N_15  and  C_14 
REMARK    7  A    between atoms: N_20  and  C_19 
REMARK       I    between atoms: C_22  and  N_20 
ROOT
ATOM      1  C   LIG d   1      -6.404  78.302 117.630  0.00  0.00     0.161 C 
ATOM      2  C   LIG d   1      -7.781  78.061 117.775  0.00  0.00     0.016 C 
ATOM      3  C   LIG d   1      -8.668  78.968 118.398  0.00  0.00     0.038 C 
ATOM      4  C   LIG d   1      -8.263  80.253 118.787  0.00  0.00     0.028 C 
ATOM      5  C   LIG d   1      -6.777  80.345 119.119  0.00  0.00    -0.047 C 
ATOM      6  C   LIG d   1      -5.964  79.746 117.949  0.00  0.00     0.091 C 
ENDROOT
BRANCH   1   7
ATOM      7  O   LIG d   1      -5.979  77.930 116.304  0.00  0.00    -0.368 OA
BRANCH   7   8
ATOM      8  C   LIG d   1      -5.286  76.663 116.189  0.00  0.00     0.119 C 
BRANCH   8   9
ATOM      9  C   LIG d   1      -3.878  76.954 115.634  0.00  0.00     0.028 C 
ATOM     10  C   LIG d   1      -2.764  76.434 116.558  0.00  0.00     0.006 C 
ENDBRANCH   8   9
BRANCH   8  11
ATOM     11  C   LIG d   1      -5.952  75.756 115.150  0.00  0.00     0.028 C 
ATOM     12  C   LIG d   1      -5.834  74.264 115.498  0.00  0.00     0.006 C 
ENDBRANCH   8  11
ENDBRANCH   7   8
ENDBRANCH   1   7
BRANCH   6  13
ATOM     13  N   LIG d   1      -4.504  79.720 118.228  0.00  0.00    -0.311 N 
ATOM     14  C   LIG d   1      -3.583  80.119 117.353  0.00  0.00     0.210 C 
ATOM     15  C   LIG d   1      -2.135  79.990 117.835  0.00  0.00     0.109 C 
ATOM     16  O   LIG d   1      -3.830  80.598 116.236  0.00  0.00    -0.276 OA
ATOM     17  H   LIG d   1      -4.217  79.375 119.123  0.00  0.00     0.149 HD
ENDBRANCH   6  13
BRANCH   5  18
ATOM     18  N   LIG d   1      -6.464  81.764 119.374  0.00  0.00     0.381 N 
ATOM     19  H   LIG d   1      -6.067  81.864 120.287  0.00  0.00    -0.090 HD
ATOM     20  H   LIG d   1      -7.316  82.296 119.341  0.00  0.00    -0.090 HD
ATOM     21  H   LIG d   1      -5.826  82.101 118.687  0.00  0.00    -0.090 HD
ENDBRANCH   5  18
BRANCH   3  22
ATOM     22  C   LIG d   1      -9.969  78.576 118.674  0.00  0.00     0.382 C 
ATOM     23  O   LIG d   1     -10.543  78.991 119.710  0.00  0.00    -0.241 OA
ATOM     24  O   LIG d   1     -10.561  77.778 117.923  0.00  0.00    -0.241 OA
ENDBRANCH   3  22
TORSDOF 7
ENDMDL
MODEL 5
REMARK VINA RESULT:      -5.2     11.399     13.611
REMARK  7 active torsions:
REMARK  status: ('A' for Active; 'I' for Inactive)
REMARK    1  A    between atoms: C_2  and  C_3 
REMARK    2  A    between atoms: C_3  and  O_6 
REMARK    3  A    between atoms: C_3  and  C_4 
REMARK    4  A    between atoms: C_7  and  O_6 
REMARK    5  A    between atoms: C_9  and  C_10 
REMARK    6  A    between atoms: N_15  and  C_14 
REMARK    7  A    between atoms: N_20  and  C_19 
REMARK       I    between atoms: C_22  and  N_20 
ROOT
ATOM      1  C   LIG d   1      -2.951  90.704 117.805  0.00  0.00     0.161 C 
ATOM      2  C   LIG d   1      -3.761  89.921 116.965  0.00  0.00     0.016 C 
ATOM      3  C   LIG d   1      -5.009  90.356 116.461  0.00  0.00     0.038 C 
ATOM      4  C   LIG d   1      -5.464  91.670 116.642  0.00  0.00     0.028 C 
ATOM      5  C   LIG d   1      -4.918  92.333 117.902  0.00  0.00    -0.047 C 
ATOM      6  C   LIG d   1      -3.379  92.182 117.922  0.00  0.00     0.091 C 
ENDROOT
BRANCH   1   7
ATOM      7  O   LIG d   1      -1.576  90.613 117.381  0.00  0.00    -0.368 OA
BRANCH   7   8
ATOM      8  C   LIG d   1      -0.716  89.771 118.187  0.00  0.00     0.119 C 
BRANCH   8   9
ATOM      9  C   LIG d   1       0.588  90.553 118.443  0.00  0.00     0.028 C 
ATOM     10  C   LIG d   1       0.803  91.684 117.424  0.00  0.00     0.006 C 
ENDBRANCH   8   9
BRANCH   8  11
ATOM     11  C   LIG d   1      -0.291  88.514 117.423  0.00  0.00     0.028 C 
ATOM     12  C   LIG d   1      -1.188  87.303 117.724  0.00  0.00     0.006 C 
ENDBRANCH   8  11
ENDBRANCH   7   8
ENDBRANCH   1   7
BRANCH   6  13
ATOM     13  N   LIG d   1      -2.772  92.729 119.163  0.00  0.00    -0.311 N 
ATOM     14  C   LIG d   1      -1.877  93.715 119.168  0.00  0.00     0.210 C 
ATOM     15  C   LIG d   1      -1.363  94.115 120.555  0.00  0.00     0.109 C 
ATOM     16  O   LIG d   1      -1.484  94.319 118.159  0.00  0.00    -0.276 OA
ATOM     17  H   LIG d   1      -3.058  92.318 120.030  0.00  0.00     0.149 HD
ENDBRANCH   6  13
BRANCH   5  18
ATOM     18  N   LIG d   1      -5.360  93.740 117.894  0.00  0.00     0.381 N 
ATOM     19  H   LIG d   1      -4.601  94.332 117.623  0.00  0.00    -0.090 HD
ATOM     20  H   LIG d   1      -5.645  93.997 118.822  0.00  0.00    -0.090 HD
ATOM     21  H   LIG d   1      -6.122  93.854 117.261  0.00  0.00    -0.090 HD
ENDBRANCH   5  18
BRANCH   3  22
ATOM     22  C   LIG d   1      -5.833  89.458 115.801  0.00  0.00     0.382 C 
ATOM     23  O   LIG d   1      -5.566  89.109 114.626  0.00  0.00    -0.241 OA
ATOM     24  O   LIG d   1      -6.865  89.027 116.349  0.00  0.00    -0.241 OA
ENDBRANCH   3  22
TORSDOF 7
ENDMDL
MODEL 6
REMARK VINA RESULT:      -5.2      2.654      4.594
REMARK  7 active torsions:
REMARK  status: ('A' for Active; 'I' for Inactive)
REMARK    1  A    between atoms: C_2  and  C_3 
REMARK    2  A    between atoms: C_3  and  O_6 
REMARK    3  A    between atoms: C_3  and  C_4 
REMARK    4  A    between atoms: C_7  and  O_6 
REMARK    5  A    between atoms: C_9  and  C_10 
REMARK    6  A    between atoms: N_15  and  C_14 
REMARK    7  A    between atoms: N_20  and  C_19 
REMARK       I    between atoms: C_22  and  N_20 
ROOT
ATOM      1  C   LIG d   1      -5.402  77.692 116.799  0.00  0.00     0.161 C 
ATOM      2  C   LIG d   1      -6.725  77.860 117.240  0.00  0.00     0.016 C 
ATOM      3  C   LIG d   1      -7.694  76.831 117.209  0.00  0.00     0.038 C 
ATOM      4  C   LIG d   1      -7.361  75.510 116.871  0.00  0.00     0.028 C 
ATOM      5  C   LIG d   1      -6.159  75.408 115.938  0.00  0.00    -0.047 C 
ATOM      6  C   LIG d   1      -4.992  76.229 116.531  0.00  0.00     0.091 C 
ENDROOT
BRANCH   1   7
ATOM      7  O   LIG d   1      -4.493  78.304 117.734  0.00  0.00    -0.368 OA
BRANCH   7   8
ATOM      8  C   LIG d   1      -4.073  79.656 117.423  0.00  0.00     0.119 C 
BRANCH   8   9
ATOM      9  C   LIG d   1      -2.692  79.567 116.746  0.00  0.00     0.028 C 
ATOM     10  C   LIG d   1      -2.753  79.896 115.245  0.00  0.00     0.006 C 
ENDBRANCH   8   9
BRANCH   8  11
ATOM     11  C   LIG d   1      -3.848  80.476 118.697  0.00  0.00     0.028 C 
ATOM     12  C   LIG d   1      -5.161  80.863 119.396  0.00  0.00     0.006 C 
ENDBRANCH   8  11
ENDBRANCH   7   8
ENDBRANCH   1   7
BRANCH   6  13
ATOM     13  N   LIG d   1      -3.803  76.251 115.639  0.00  0.00    -0.311 N 
ATOM     14  C   LIG d   1      -2.647  75.664 115.943  0.00  0.00     0.210 C 
ATOM     15  C   LIG d   1      -1.544  75.825 114.891  0.00  0.00     0.109 C 
ATOM     16  O   LIG d   1      -2.440  74.998 116.968  0.00  0.00    -0.276 OA
ATOM     17  H   LIG d   1      -3.893  76.743 114.772  0.00  0.00     0.149 HD
ENDBRANCH   6  13
BRANCH   5  18
ATOM     18  N   LIG d   1      -5.839  73.977 115.779  0.00  0.00     0.381 N 
ATOM     19  H   LIG d   1      -5.467  73.616 116.635  0.00  0.00    -0.090 HD
ATOM     20  H   LIG d   1      -5.139  73.878 115.064  0.00  0.00    -0.090 HD
ATOM     21  H   LIG d   1      -6.658  73.470 115.525  0.00  0.00    -0.090 HD
ENDBRANCH   5  18
BRANCH   3  22
ATOM     22  C   LIG d   1      -9.021  77.127 117.479  0.00  0.00     0.382 C 
ATOM     23  O   LIG d   1      -9.902  76.245 117.336  0.00  0.00    -0.241 OA
ATOM     24  O   LIG d   1      -9.354  78.277 117.821  0.00  0.00    -0.241 OA
ENDBRANCH   3  22
TORSDOF 7
ENDMDL
MODEL 7
REMARK VINA RESULT:      -5.0     11.475     13.901
REMARK  7 active torsions:
REMARK  status: ('A' for Active; 'I' for Inactive)
REMARK    1  A    between atoms: C_2  and  C_3 
REMARK    2  A    between atoms: C_3  and  O_6 
REMARK    3  A    between atoms: C_3  and  C_4 
REMARK    4  A    between atoms: C_7  and  O_6 
REMARK    5  A    between atoms: C_9  and  C_10 
REMARK    6  A    between atoms: N_15  and  C_14 
REMARK    7  A    between atoms: N_20  and  C_19 
REMARK       I    between atoms: C_22  and  N_20 
ROOT
ATOM      1  C   LIG d   1      -3.126  91.050 117.926  0.00  0.00     0.161 C 
ATOM      2  C   LIG d   1      -3.938  90.445 116.953  0.00  0.00     0.016 C 
ATOM      3  C   LIG d   1      -5.123  91.033 116.453  0.00  0.00     0.038 C 
ATOM      4  C   LIG d   1      -5.498  92.343 116.786  0.00  0.00     0.028 C 
ATOM      5  C   LIG d   1      -4.980  92.794 118.147  0.00  0.00    -0.047 C 
ATOM      6  C   LIG d   1      -3.459  92.528 118.219  0.00  0.00     0.091 C 
ENDROOT
BRANCH   1   7
ATOM      7  O   LIG d   1      -1.739  90.911 117.559  0.00  0.00    -0.368 OA
BRANCH   7   8
ATOM      8  C   LIG d   1      -0.949  90.014 118.378  0.00  0.00     0.119 C 
BRANCH   8   9
ATOM      9  C   LIG d   1      -0.696  88.737 117.554  0.00  0.00     0.028 C 
ATOM     10  C   LIG d   1      -1.580  87.562 118.006  0.00  0.00     0.006 C 
ENDBRANCH   8   9
BRANCH   8  11
ATOM     11  C   LIG d   1      -1.731  89.553 119.612  0.00  0.00     0.028 C 
ATOM     12  C   LIG d   1      -1.022  89.901 120.931  0.00  0.00     0.006 C 
ENDBRANCH   8  11
ENDBRANCH   7   8
ENDBRANCH   1   7
BRANCH   6  13
ATOM     13  N   LIG d   1      -2.887  92.863 119.549  0.00  0.00    -0.311 N 
ATOM     14  C   LIG d   1      -1.787  93.597 119.710  0.00  0.00     0.210 C 
ATOM     15  C   LIG d   1      -1.357  93.806 121.166  0.00  0.00     0.109 C 
ATOM     16  O   LIG d   1      -1.145  94.121 118.788  0.00  0.00    -0.276 OA
ATOM     17  H   LIG d   1      -3.362  92.504 120.354  0.00  0.00     0.149 HD
ENDBRANCH   6  13
BRANCH   5  18
ATOM     18  N   LIG d   1      -5.325  94.220 118.305  0.00  0.00     0.381 N 
ATOM     19  H   LIG d   1      -4.717  94.780 117.741  0.00  0.00    -0.090 HD
ATOM     20  H   LIG d   1      -5.193  94.481 119.267  0.00  0.00    -0.090 HD
ATOM     21  H   LIG d   1      -6.272  94.373 118.039  0.00  0.00    -0.090 HD
ENDBRANCH   5  18
BRANCH   3  22
ATOM     22  C   LIG d   1      -5.969  90.292 115.641  0.00  0.00     0.382 C 
ATOM     23  O   LIG d   1      -6.079  89.054 115.815  0.00  0.00    -0.241 OA
ATOM     24  O   LIG d   1      -6.589  90.839 114.710  0.00  0.00    -0.241 OA
ENDBRANCH   3  22
TORSDOF 7
ENDMDL
MODEL 8
REMARK VINA RESULT:      -4.9      2.077      5.211
REMARK  7 active torsions:
REMARK  status: ('A' for Active; 'I' for Inactive)
REMARK    1  A    between atoms: C_2  and  C_3 
REMARK    2  A    between atoms: C_3  and  O_6 
REMARK    3  A    between atoms: C_3  and  C_4 
REMARK    4  A    between atoms: C_7  and  O_6 
REMARK    5  A    between atoms: C_9  and  C_10 
REMARK    6  A    between atoms: N_15  and  C_14 
REMARK    7  A    between atoms: N_20  and  C_19 
REMARK       I    between atoms: C_22  and  N_20 
ROOT
ATOM      1  C   LIG d   1      -5.600  78.414 117.229  0.00  0.00     0.161 C 
ATOM      2  C   LIG d   1      -4.236  78.685 117.029  0.00  0.00     0.016 C 
ATOM      3  C   LIG d   1      -3.534  79.697 117.722  0.00  0.00     0.038 C 
ATOM      4  C   LIG d   1      -4.116  80.412 118.780  0.00  0.00     0.028 C 
ATOM      5  C   LIG d   1      -5.634  80.521 118.674  0.00  0.00    -0.047 C 
ATOM      6  C   LIG d   1      -6.224  79.108 118.458  0.00  0.00     0.091 C 
ENDROOT
BRANCH   1   7
ATOM      7  O   LIG d   1      -5.810  76.989 117.299  0.00  0.00    -0.368 OA
BRANCH   7   8
ATOM      8  C   LIG d   1      -6.726  76.432 116.324  0.00  0.00     0.119 C 
BRANCH   8   9
ATOM      9  C   LIG d   1      -7.643  75.439 117.065  0.00  0.00     0.028 C 
ATOM     10  C   LIG d   1      -9.125  75.842 116.990  0.00  0.00     0.006 C 
ENDBRANCH   8   9
BRANCH   8  11
ATOM     11  C   LIG d   1      -5.983  75.595 115.278  0.00  0.00     0.028 C 
ATOM     12  C   LIG d   1      -5.908  74.106 115.651  0.00  0.00     0.006 C 
ENDBRANCH   8  11
ENDBRANCH   7   8
ENDBRANCH   1   7
BRANCH   6  13
ATOM     13  N   LIG d   1      -7.697  79.134 118.260  0.00  0.00    -0.311 N 
ATOM     14  C   LIG d   1      -8.570  78.821 119.216  0.00  0.00     0.210 C 
ATOM     15  C   LIG d   1     -10.042  78.893 118.796  0.00  0.00     0.109 C 
ATOM     16  O   LIG d   1      -8.267  78.522 120.381  0.00  0.00    -0.276 OA
ATOM     17  H   LIG d   1      -8.031  79.396 117.353  0.00  0.00     0.149 HD
ENDBRANCH   6  13
BRANCH   5  18
ATOM     18  N   LIG d   1      -6.121  81.168 119.907  0.00  0.00     0.381 N 
ATOM     19  H   LIG d   1      -5.516  80.940 120.671  0.00  0.00    -0.090 HD
ATOM     20  H   LIG d   1      -7.039  80.818 120.117  0.00  0.00    -0.090 HD
ATOM     21  H   LIG d   1      -6.154  82.156 119.784  0.00  0.00    -0.090 HD
ENDBRANCH   5  18
BRANCH   3  22
ATOM     22  C   LIG d   1      -2.246  80.031 117.332  0.00  0.00     0.382 C 
ATOM     23  O   LIG d   1      -2.005  80.302 116.131  0.00  0.00    -0.241 OA
ATOM     24  O   LIG d   1      -1.314  80.020 118.158  0.00  0.00    -0.241 OA
ENDBRANCH   3  22
TORSDOF 7
ENDMDL
MODEL 9
REMARK VINA RESULT:      -4.9     12.543     14.841
REMARK  7 active torsions:
REMARK  status: ('A' for Active; 'I' for Inactive)
REMARK    1  A    between atoms: C_2  and  C_3 
REMARK    2  A    between atoms: C_3  and  O_6 
REMARK    3  A    between atoms: C_3  and  C_4 
REMARK    4  A    between atoms: C_7  and  O_6 
REMARK    5  A    between atoms: C_9  and  C_10 
REMARK    6  A    between atoms: N_15  and  C_14 
REMARK    7  A    between atoms: N_20  and  C_19 
REMARK       I    between atoms: C_22  and  N_20 
ROOT
ATOM      1  C   LIG d   1      -4.401  92.701 118.092  0.00  0.00     0.161 C 
ATOM      2  C   LIG d   1      -5.339  92.538 117.059  0.00  0.00     0.016 C 
ATOM      3  C   LIG d   1      -5.422  91.375 116.260  0.00  0.00     0.038 C 
ATOM      4  C   LIG d   1      -4.666  90.227 116.541  0.00  0.00     0.028 C 
ATOM      5  C   LIG d   1      -3.353  90.526 117.255  0.00  0.00    -0.047 C 
ATOM      6  C   LIG d   1      -3.643  91.417 118.485  0.00  0.00     0.091 C 
ENDROOT
BRANCH   1   7
ATOM      7  O   LIG d   1      -5.042  93.279 119.246  0.00  0.00    -0.368 OA
BRANCH   7   8
ATOM      8  C   LIG d   1      -4.637  94.626 119.593  0.00  0.00     0.119 C 
BRANCH   8   9
ATOM      9  C   LIG d   1      -4.160  94.603 121.058  0.00  0.00     0.028 C 
ATOM     10  C   LIG d   1      -4.936  93.586 121.912  0.00  0.00     0.006 C 
ENDBRANCH   8   9
BRANCH   8  11
ATOM     11  C   LIG d   1      -5.827  95.590 119.568  0.00  0.00     0.028 C 
ATOM     12  C   LIG d   1      -7.136  94.909 119.137  0.00  0.00     0.006 C 
ENDBRANCH   8  11
ENDBRANCH   7   8
ENDBRANCH   1   7
BRANCH   6  13
ATOM     13  N   LIG d   1      -2.402  91.826 119.193  0.00  0.00    -0.311 N 
ATOM     14  C   LIG d   1      -2.143  91.510 120.461  0.00  0.00     0.210 C 
ATOM     15  C   LIG d   1      -0.816  92.050 121.004  0.00  0.00     0.109 C 
ATOM     16  O   LIG d   1      -2.872  90.808 121.178  0.00  0.00    -0.276 OA
ATOM     17  H   LIG d   1      -1.741  92.372 118.677  0.00  0.00     0.149 HD
ENDBRANCH   6  13
BRANCH   5  18
ATOM     18  N   LIG d   1      -2.734  89.235 117.609  0.00  0.00     0.381 N 
ATOM     19  H   LIG d   1      -3.364  88.487 117.396  0.00  0.00    -0.090 HD
ATOM     20  H   LIG d   1      -2.551  89.222 118.597  0.00  0.00    -0.090 HD
ATOM     21  H   LIG d   1      -1.883  89.116 117.105  0.00  0.00    -0.090 HD
ENDBRANCH   5  18
BRANCH   3  22
ATOM     22  C   LIG d   1      -6.241  91.366 115.141  0.00  0.00     0.382 C 
ATOM     23  O   LIG d   1      -6.513  92.442 114.555  0.00  0.00    -0.241 OA
ATOM     24  O   LIG d   1      -6.746  90.302 114.735  0.00  0.00    -0.241 OA
ENDBRANCH   3  22
TORSDOF 7
ENDMDL
