MODEL 1
REMARK VINA RESULT:      -5.5      0.000      0.000
REMARK  7 active torsions:
REMARK  status: ('A' for Active; 'I' for Inactive)
REMARK    1  A    between atoms: C_2  and  C_3 
REMARK    2  A    between atoms: C_3  and  O_6 
REMARK    3  A    between atoms: C_3  and  C_4 
REMARK    4  A    between atoms: C_7  and  O_6 
REMARK    5  A    between atoms: C_9  and  C_10 
REMARK    6  A    between atoms: N_15  and  C_14 
REMARK    7  A    between atoms: N_20  and  C_19 
REMARK       I    between atoms: C_22  and  N_20 
ROOT
ATOM      1  C   LIG d   1      -8.326  75.221 116.862  0.00  0.00     0.161 C 
ATOM      2  C   LIG d   1      -7.630  75.076 115.651  0.00  0.00     0.016 C 
ATOM      3  C   LIG d   1      -6.432  75.766 115.354  0.00  0.00     0.038 C 
ATOM      4  C   LIG d   1      -5.764  76.538 116.316  0.00  0.00     0.028 C 
ATOM      5  C   LIG d   1      -6.691  77.115 117.381  0.00  0.00    -0.047 C 
ATOM      6  C   LIG d   1      -7.554  75.974 117.966  0.00  0.00     0.091 C 
ENDROOT
BRANCH   1   7
ATOM      7  O   LIG d   1      -8.751  73.929 117.339  0.00  0.00    -0.368 OA
BRANCH   7   8
ATOM      8  C   LIG d   1      -8.029  72.787 116.815  0.00  0.00     0.119 C 
BRANCH   8   9
ATOM      9  C   LIG d   1      -9.048  71.650 116.609  0.00  0.00     0.028 C 
ATOM     10  C   LIG d   1      -8.892  70.527 117.648  0.00  0.00     0.006 C 
ENDBRANCH   8   9
BRANCH   8  11
ATOM     11  C   LIG d   1      -7.021  72.249 117.835  0.00  0.00     0.028 C 
ATOM     12  C   LIG d   1      -5.578  72.683 117.533  0.00  0.00     0.006 C 
ENDBRANCH   8  11
ENDBRANCH   7   8
ENDBRANCH   1   7
BRANCH   6  13
ATOM     13  N   LIG d   1      -8.548  76.465 118.955  0.00  0.00    -0.311 N 
ATOM     14  C   LIG d   1      -8.339  76.457 120.270  0.00  0.00     0.210 C 
ATOM     15  C   LIG d   1      -9.503  76.990 121.113  0.00  0.00     0.109 C 
ATOM     16  O   LIG d   1      -7.289  76.090 120.817  0.00  0.00    -0.276 OA
ATOM     17  H   LIG d   1      -9.417  76.810 118.596  0.00  0.00     0.149 HD
ENDBRANCH   6  13
BRANCH   5  18
ATOM     18  N   LIG d   1      -5.849  77.780 118.393  0.00  0.00     0.381 N 
ATOM     19  H   LIG d   1      -6.242  77.644 119.303  0.00  0.00    -0.090 HD
ATOM     20  H   LIG d   1      -5.828  78.766 118.202  0.00  0.00    -0.090 HD
ATOM     21  H   LIG d   1      -4.924  77.409 118.364  0.00  0.00    -0.090 HD
ENDBRANCH   5  18
BRANCH   3  22
ATOM     22  C   LIG d   1      -5.911  75.718 114.070  0.00  0.00     0.382 C 
ATOM     23  O   LIG d   1      -6.532  76.254 113.121  0.00  0.00    -0.241 OA
ATOM     24  O   LIG d   1      -4.849  75.108 113.842  0.00  0.00    -0.241 OA
ENDBRANCH   3  22
TORSDOF 7
ENDMDL
MODEL 2
REMARK VINA RESULT:      -5.3     15.841     17.554
REMARK  7 active torsions:
REMARK  status: ('A' for Active; 'I' for Inactive)
REMARK    1  A    between atoms: C_2  and  C_3 
REMARK    2  A    between atoms: C_3  and  O_6 
REMARK    3  A    between atoms: C_3  and  C_4 
REMARK    4  A    between atoms: C_7  and  O_6 
REMARK    5  A    between atoms: C_9  and  C_10 
REMARK    6  A    between atoms: N_15  and  C_14 
REMARK    7  A    between atoms: N_20  and  C_19 
REMARK       I    between atoms: C_22  and  N_20 
ROOT
ATOM      1  C   LIG d   1      -6.198  92.283 118.155  0.00  0.00     0.161 C 
ATOM      2  C   LIG d   1      -7.176  92.034 117.178  0.00  0.00     0.016 C 
ATOM      3  C   LIG d   1      -6.968  91.182 116.069  0.00  0.00     0.038 C 
ATOM      4  C   LIG d   1      -5.812  90.398 115.942  0.00  0.00     0.028 C 
ATOM      5  C   LIG d   1      -4.594  90.999 116.636  0.00  0.00    -0.047 C 
ATOM      6  C   LIG d   1      -4.970  91.351 118.094  0.00  0.00     0.091 C 
ENDROOT
BRANCH   1   7
ATOM      7  O   LIG d   1      -6.795  92.240 119.466  0.00  0.00    -0.368 OA
BRANCH   7   8
ATOM      8  C   LIG d   1      -7.062  93.521 120.088  0.00  0.00     0.119 C 
BRANCH   8   9
ATOM      9  C   LIG d   1      -6.872  93.347 121.607  0.00  0.00     0.028 C 
ATOM     10  C   LIG d   1      -5.758  92.343 121.948  0.00  0.00     0.006 C 
ENDBRANCH   8   9
BRANCH   8  11
ATOM     11  C   LIG d   1      -8.526  93.934 119.907  0.00  0.00     0.028 C 
ATOM     12  C   LIG d   1      -8.706  95.041 118.856  0.00  0.00     0.006 C 
ENDBRANCH   8  11
ENDBRANCH   7   8
ENDBRANCH   1   7
BRANCH   6  13
ATOM     13  N   LIG d   1      -3.860  92.022 118.819  0.00  0.00    -0.311 N 
ATOM     14  C   LIG d   1      -3.038  91.385 119.652  0.00  0.00     0.210 C 
ATOM     15  C   LIG d   1      -1.974  92.268 120.312  0.00  0.00     0.109 C 
ATOM     16  O   LIG d   1      -3.070  90.167 119.883  0.00  0.00    -0.276 OA
ATOM     17  H   LIG d   1      -3.743  93.004 118.667  0.00  0.00     0.149 HD
ENDBRANCH   6  13
BRANCH   5  18
ATOM     18  N   LIG d   1      -3.498  90.016 116.543  0.00  0.00     0.381 N 
ATOM     19  H   LIG d   1      -2.945  90.046 117.376  0.00  0.00    -0.090 HD
ATOM     20  H   LIG d   1      -2.910  90.258 115.765  0.00  0.00    -0.090 HD
ATOM     21  H   LIG d   1      -3.870  89.101 116.416  0.00  0.00    -0.090 HD
ENDBRANCH   5  18
BRANCH   3  22
ATOM     22  C   LIG d   1      -7.908  91.138 115.050  0.00  0.00     0.382 C 
ATOM     23  O   LIG d   1      -7.586  90.705 113.918  0.00  0.00    -0.241 OA
ATOM     24  O   LIG d   1      -9.062  91.568 115.237  0.00  0.00    -0.241 OA
ENDBRANCH   3  22
TORSDOF 7
ENDMDL
MODEL 3
REMARK VINA RESULT:      -5.2      2.390      4.203
REMARK  7 active torsions:
REMARK  status: ('A' for Active; 'I' for Inactive)
REMARK    1  A    between atoms: C_2  and  C_3 
REMARK    2  A    between atoms: C_3  and  O_6 
REMARK    3  A    between atoms: C_3  and  C_4 
REMARK    4  A    between atoms: C_7  and  O_6 
REMARK    5  A    between atoms: C_9  and  C_10 
REMARK    6  A    between atoms: N_15  and  C_14 
REMARK    7  A    between atoms: N_20  and  C_19 
REMARK       I    between atoms: C_22  and  N_20 
ROOT
ATOM      1  C   LIG d   1      -6.898  74.546 118.700  0.00  0.00     0.161 C 
ATOM      2  C   LIG d   1      -8.181  75.116 118.744  0.00  0.00     0.016 C 
ATOM      3  C   LIG d   1      -8.515  76.331 118.103  0.00  0.00     0.038 C 
ATOM      4  C   LIG d   1      -7.622  76.985 117.243  0.00  0.00     0.028 C 
ATOM      5  C   LIG d   1      -6.157  76.715 117.571  0.00  0.00    -0.047 C 
ATOM      6  C   LIG d   1      -5.940  75.188 117.675  0.00  0.00     0.091 C 
ENDROOT
BRANCH   1   7
ATOM      7  O   LIG d   1      -7.001  73.127 118.469  0.00  0.00    -0.368 OA
BRANCH   7   8
ATOM      8  C   LIG d   1      -7.835  72.722 117.356  0.00  0.00     0.119 C 
BRANCH   8   9
ATOM      9  C   LIG d   1      -8.785  71.621 117.867  0.00  0.00     0.028 C 
ATOM     10  C   LIG d   1      -9.224  70.659 116.749  0.00  0.00     0.006 C 
ENDBRANCH   8   9
BRANCH   8  11
ATOM     11  C   LIG d   1      -7.007  72.061 116.250  0.00  0.00     0.028 C 
ATOM     12  C   LIG d   1      -5.785  71.304 116.792  0.00  0.00     0.006 C 
ENDBRANCH   8  11
ENDBRANCH   7   8
ENDBRANCH   1   7
BRANCH   6  13
ATOM     13  N   LIG d   1      -4.552  74.839 118.076  0.00  0.00    -0.311 N 
ATOM     14  C   LIG d   1      -3.570  74.619 117.203  0.00  0.00     0.210 C 
ATOM     15  C   LIG d   1      -2.220  74.253 117.828  0.00  0.00     0.109 C 
ATOM     16  O   LIG d   1      -3.681  74.724 115.973  0.00  0.00    -0.276 OA
ATOM     17  H   LIG d   1      -4.366  74.764 119.057  0.00  0.00     0.149 HD
ENDBRANCH   6  13
BRANCH   5  18
ATOM     18  N   LIG d   1      -5.340  77.345 116.516  0.00  0.00     0.381 N 
ATOM     19  H   LIG d   1      -5.611  78.302 116.404  0.00  0.00    -0.090 HD
ATOM     20  H   LIG d   1      -5.506  76.867 115.648  0.00  0.00    -0.090 HD
ATOM     21  H   LIG d   1      -4.375  77.291 116.754  0.00  0.00    -0.090 HD
ENDBRANCH   5  18
BRANCH   3  22
ATOM     22  C   LIG d   1      -9.744  76.924 118.352  0.00  0.00     0.382 C 
ATOM     23  O   LIG d   1     -10.803  76.291 118.125  0.00  0.00    -0.241 OA
ATOM     24  O   LIG d   1      -9.807  78.099 118.760  0.00  0.00    -0.241 OA
ENDBRANCH   3  22
TORSDOF 7
ENDMDL
MODEL 4
REMARK VINA RESULT:      -5.2     15.975     18.101
REMARK  7 active torsions:
REMARK  status: ('A' for Active; 'I' for Inactive)
REMARK    1  A    between atoms: C_2  and  C_3 
REMARK    2  A    between atoms: C_3  and  O_6 
REMARK    3  A    between atoms: C_3  and  C_4 
REMARK    4  A    between atoms: C_7  and  O_6 
REMARK    5  A    between atoms: C_9  and  C_10 
REMARK    6  A    between atoms: N_15  and  C_14 
REMARK    7  A    between atoms: N_20  and  C_19 
REMARK       I    between atoms: C_22  and  N_20 
ROOT
ATOM      1  C   LIG d   1      -6.292  91.893 119.123  0.00  0.00     0.161 C 
ATOM      2  C   LIG d   1      -7.446  92.645 118.845  0.00  0.00     0.016 C 
ATOM      3  C   LIG d   1      -7.491  94.056 118.916  0.00  0.00     0.038 C 
ATOM      4  C   LIG d   1      -6.337  94.825 119.125  0.00  0.00     0.028 C 
ATOM      5  C   LIG d   1      -5.254  94.092 119.909  0.00  0.00    -0.047 C 
ATOM      6  C   LIG d   1      -4.995  92.720 119.244  0.00  0.00     0.091 C 
ENDROOT
BRANCH   1   7
ATOM      7  O   LIG d   1      -6.135  90.856 118.135  0.00  0.00    -0.368 OA
BRANCH   7   8
ATOM      8  C   LIG d   1      -6.310  91.259 116.755  0.00  0.00     0.119 C 
BRANCH   8   9
ATOM      9  C   LIG d   1      -7.510  90.473 116.191  0.00  0.00     0.028 C 
ATOM     10  C   LIG d   1      -7.519  90.438 114.654  0.00  0.00     0.006 C 
ENDBRANCH   8   9
BRANCH   8  11
ATOM     11  C   LIG d   1      -5.112  90.841 115.896  0.00  0.00     0.028 C 
ATOM     12  C   LIG d   1      -4.026  90.114 116.703  0.00  0.00     0.006 C 
ENDBRANCH   8  11
ENDBRANCH   7   8
ENDBRANCH   1   7
BRANCH   6  13
ATOM     13  N   LIG d   1      -4.009  91.903 119.997  0.00  0.00    -0.311 N 
ATOM     14  C   LIG d   1      -2.711  91.863 119.702  0.00  0.00     0.210 C 
ATOM     15  C   LIG d   1      -1.872  90.940 120.592  0.00  0.00     0.109 C 
ATOM     16  O   LIG d   1      -2.169  92.530 118.807  0.00  0.00    -0.276 OA
ATOM     17  H   LIG d   1      -4.358  91.354 120.759  0.00  0.00     0.149 HD
ENDBRANCH   6  13
BRANCH   5  18
ATOM     18  N   LIG d   1      -4.059  94.957 119.934  0.00  0.00     0.381 N 
ATOM     19  H   LIG d   1      -3.785  95.183 118.999  0.00  0.00    -0.090 HD
ATOM     20  H   LIG d   1      -3.305  94.457 120.372  0.00  0.00    -0.090 HD
ATOM     21  H   LIG d   1      -4.253  95.791 120.442  0.00  0.00    -0.090 HD
ENDBRANCH   5  18
BRANCH   3  22
ATOM     22  C   LIG d   1      -8.710  94.711 118.817  0.00  0.00     0.382 C 
ATOM     23  O   LIG d   1      -8.743  95.959 118.694  0.00  0.00    -0.241 OA
ATOM     24  O   LIG d   1      -9.777  94.073 118.893  0.00  0.00    -0.241 OA
ENDBRANCH   3  22
TORSDOF 7
ENDMDL
MODEL 5
REMARK VINA RESULT:      -5.2      2.384      4.435
REMARK  7 active torsions:
REMARK  status: ('A' for Active; 'I' for Inactive)
REMARK    1  A    between atoms: C_2  and  C_3 
REMARK    2  A    between atoms: C_3  and  O_6 
REMARK    3  A    between atoms: C_3  and  C_4 
REMARK    4  A    between atoms: C_7  and  O_6 
REMARK    5  A    between atoms: C_9  and  C_10 
REMARK    6  A    between atoms: N_15  and  C_14 
REMARK    7  A    between atoms: N_20  and  C_19 
REMARK       I    between atoms: C_22  and  N_20 
ROOT
ATOM      1  C   LIG d   1      -6.332  74.561 118.521  0.00  0.00     0.161 C 
ATOM      2  C   LIG d   1      -6.534  73.322 117.891  0.00  0.00     0.016 C 
ATOM      3  C   LIG d   1      -7.748  72.955 117.267  0.00  0.00     0.038 C 
ATOM      4  C   LIG d   1      -8.801  73.867 117.099  0.00  0.00     0.028 C 
ATOM      5  C   LIG d   1      -8.830  74.961 118.161  0.00  0.00    -0.047 C 
ATOM      6  C   LIG d   1      -7.430  75.611 118.250  0.00  0.00     0.091 C 
ENDROOT
BRANCH   1   7
ATOM      7  O   LIG d   1      -5.038  75.086 118.163  0.00  0.00    -0.368 OA
BRANCH   7   8
ATOM      8  C   LIG d   1      -4.354  74.411 117.079  0.00  0.00     0.119 C 
BRANCH   8   9
ATOM      9  C   LIG d   1      -2.873  74.272 117.481  0.00  0.00     0.028 C 
ATOM     10  C   LIG d   1      -1.917  74.766 116.382  0.00  0.00     0.006 C 
ENDBRANCH   8   9
BRANCH   8  11
ATOM     11  C   LIG d   1      -4.350  75.263 115.806  0.00  0.00     0.028 C 
ATOM     12  C   LIG d   1      -5.308  74.729 114.729  0.00  0.00     0.006 C 
ENDBRANCH   8  11
ENDBRANCH   7   8
ENDBRANCH   1   7
BRANCH   6  13
ATOM     13  N   LIG d   1      -7.348  76.635 119.324  0.00  0.00    -0.311 N 
ATOM     14  C   LIG d   1      -7.560  77.933 119.117  0.00  0.00     0.210 C 
ATOM     15  C   LIG d   1      -7.406  78.819 120.357  0.00  0.00     0.109 C 
ATOM     16  O   LIG d   1      -7.893  78.431 118.031  0.00  0.00    -0.276 OA
ATOM     17  H   LIG d   1      -7.114  76.314 120.243  0.00  0.00     0.149 HD
ENDBRANCH   6  13
BRANCH   5  18
ATOM     18  N   LIG d   1      -9.888  75.918 117.786  0.00  0.00     0.381 N 
ATOM     19  H   LIG d   1      -9.806  76.747 118.339  0.00  0.00    -0.090 HD
ATOM     20  H   LIG d   1     -10.784  75.502 117.973  0.00  0.00    -0.090 HD
ATOM     21  H   LIG d   1      -9.815  76.146 116.819  0.00  0.00    -0.090 HD
ENDBRANCH   5  18
BRANCH   3  22
ATOM     22  C   LIG d   1      -7.934  71.649 116.839  0.00  0.00     0.382 C 
ATOM     23  O   LIG d   1      -6.960  70.859 116.797  0.00  0.00    -0.241 OA
ATOM     24  O   LIG d   1      -9.054  71.264 116.453  0.00  0.00    -0.241 OA
ENDBRANCH   3  22
TORSDOF 7
ENDMDL
MODEL 6
REMARK VINA RESULT:      -5.2      2.537      3.268
REMARK  7 active torsions:
REMARK  status: ('A' for Active; 'I' for Inactive)
REMARK    1  A    between atoms: C_2  and  C_3 
REMARK    2  A    between atoms: C_3  and  O_6 
REMARK    3  A    between atoms: C_3  and  C_4 
REMARK    4  A    between atoms: C_7  and  O_6 
REMARK    5  A    between atoms: C_9  and  C_10 
REMARK    6  A    between atoms: N_15  and  C_14 
REMARK    7  A    between atoms: N_20  and  C_19 
REMARK       I    between atoms: C_22  and  N_20 
ROOT
ATOM      1  C   LIG d   1      -5.591  74.454 117.722  0.00  0.00     0.161 C 
ATOM      2  C   LIG d   1      -4.354  74.148 117.131  0.00  0.00     0.016 C 
ATOM      3  C   LIG d   1      -3.125  74.691 117.572  0.00  0.00     0.038 C 
ATOM      4  C   LIG d   1      -3.033  75.466 118.738  0.00  0.00     0.028 C 
ATOM      5  C   LIG d   1      -4.320  76.211 119.074  0.00  0.00    -0.047 C 
ATOM      6  C   LIG d   1      -5.498  75.210 119.064  0.00  0.00     0.091 C 
ENDROOT
BRANCH   1   7
ATOM      7  O   LIG d   1      -6.370  73.251 117.877  0.00  0.00    -0.368 OA
BRANCH   7   8
ATOM      8  C   LIG d   1      -7.337  72.979 116.834  0.00  0.00     0.119 C 
BRANCH   8   9
ATOM      9  C   LIG d   1      -8.704  73.492 117.324  0.00  0.00     0.028 C 
ATOM     10  C   LIG d   1      -9.107  74.818 116.655  0.00  0.00     0.006 C 
ENDBRANCH   8   9
BRANCH   8  11
ATOM     11  C   LIG d   1      -7.521  71.473 116.624  0.00  0.00     0.028 C 
ATOM     12  C   LIG d   1      -8.980  71.021 116.795  0.00  0.00     0.006 C 
ENDBRANCH   8  11
ENDBRANCH   7   8
ENDBRANCH   1   7
BRANCH   6  13
ATOM     13  N   LIG d   1      -6.807  75.872 119.300  0.00  0.00    -0.311 N 
ATOM     14  C   LIG d   1      -7.356  76.002 120.507  0.00  0.00     0.210 C 
ATOM     15  C   LIG d   1      -8.720  76.698 120.525  0.00  0.00     0.109 C 
ATOM     16  O   LIG d   1      -6.828  75.635 121.567  0.00  0.00    -0.276 OA
ATOM     17  H   LIG d   1      -7.290  76.226 118.498  0.00  0.00     0.149 HD
ENDBRANCH   6  13
BRANCH   5  18
ATOM     18  N   LIG d   1      -4.128  76.866 120.382  0.00  0.00     0.381 N 
ATOM     19  H   LIG d   1      -3.326  77.462 120.348  0.00  0.00    -0.090 HD
ATOM     20  H   LIG d   1      -3.967  76.159 121.078  0.00  0.00    -0.090 HD
ATOM     21  H   LIG d   1      -4.936  77.398 120.619  0.00  0.00    -0.090 HD
ENDBRANCH   5  18
BRANCH   3  22
ATOM     22  C   LIG d   1      -1.977  74.494 116.820  0.00  0.00     0.382 C 
ATOM     23  O   LIG d   1      -1.895  74.973 115.663  0.00  0.00    -0.241 OA
ATOM     24  O   LIG d   1      -1.041  73.805 117.266  0.00  0.00    -0.241 OA
ENDBRANCH   3  22
TORSDOF 7
ENDMDL
MODEL 7
REMARK VINA RESULT:      -4.9     16.178     18.259
REMARK  7 active torsions:
REMARK  status: ('A' for Active; 'I' for Inactive)
REMARK    1  A    between atoms: C_2  and  C_3 
REMARK    2  A    between atoms: C_3  and  O_6 
REMARK    3  A    between atoms: C_3  and  C_4 
REMARK    4  A    between atoms: C_7  and  O_6 
REMARK    5  A    between atoms: C_9  and  C_10 
REMARK    6  A    between atoms: N_15  and  C_14 
REMARK    7  A    between atoms: N_20  and  C_19 
REMARK       I    between atoms: C_22  and  N_20 
ROOT
ATOM      1  C   LIG d   1      -5.719  92.564 119.510  0.00  0.00     0.161 C 
ATOM      2  C   LIG d   1      -5.500  91.623 118.490  0.00  0.00     0.016 C 
ATOM      3  C   LIG d   1      -6.354  91.474 117.374  0.00  0.00     0.038 C 
ATOM      4  C   LIG d   1      -7.409  92.363 117.123  0.00  0.00     0.028 C 
ATOM      5  C   LIG d   1      -7.969  93.011 118.385  0.00  0.00    -0.047 C 
ATOM      6  C   LIG d   1      -6.802  93.617 119.197  0.00  0.00     0.091 C 
ENDROOT
BRANCH   1   7
ATOM      7  O   LIG d   1      -4.477  93.210 119.854  0.00  0.00    -0.368 OA
BRANCH   7   8
ATOM      8  C   LIG d   1      -3.285  92.393 119.753  0.00  0.00     0.119 C 
BRANCH   8   9
ATOM      9  C   LIG d   1      -2.871  91.999 121.184  0.00  0.00     0.028 C 
ATOM     10  C   LIG d   1      -2.911  90.478 121.408  0.00  0.00     0.006 C 
ENDBRANCH   8   9
BRANCH   8  11
ATOM     11  C   LIG d   1      -2.105  93.196 119.196  0.00  0.00     0.028 C 
ATOM     12  C   LIG d   1      -1.660  92.715 117.806  0.00  0.00     0.006 C 
ENDBRANCH   8  11
ENDBRANCH   7   8
ENDBRANCH   1   7
BRANCH   6  13
ATOM     13  N   LIG d   1      -7.253  94.197 120.489  0.00  0.00    -0.311 N 
ATOM     14  C   LIG d   1      -7.204  95.500 120.765  0.00  0.00     0.210 C 
ATOM     15  C   LIG d   1      -7.699  95.884 122.163  0.00  0.00     0.109 C 
ATOM     16  O   LIG d   1      -6.828  96.377 119.973  0.00  0.00    -0.276 OA
ATOM     17  H   LIG d   1      -7.602  93.560 121.178  0.00  0.00     0.149 HD
ENDBRANCH   6  13
BRANCH   5  18
ATOM     18  N   LIG d   1      -8.966  94.014 117.966  0.00  0.00     0.381 N 
ATOM     19  H   LIG d   1      -8.720  94.383 117.069  0.00  0.00    -0.090 HD
ATOM     20  H   LIG d   1      -8.964  94.770 118.629  0.00  0.00    -0.090 HD
ATOM     21  H   LIG d   1      -9.871  93.600 117.926  0.00  0.00    -0.090 HD
ENDBRANCH   5  18
BRANCH   3  22
ATOM     22  C   LIG d   1      -6.180  90.399 116.515  0.00  0.00     0.382 C 
ATOM     23  O   LIG d   1      -5.035  90.122 116.081  0.00  0.00    -0.241 OA
ATOM     24  O   LIG d   1      -7.159  89.731 116.132  0.00  0.00    -0.241 OA
ENDBRANCH   3  22
TORSDOF 7
ENDMDL
MODEL 8
REMARK VINA RESULT:      -4.9      1.926      2.350
REMARK  7 active torsions:
REMARK  status: ('A' for Active; 'I' for Inactive)
REMARK    1  A    between atoms: C_2  and  C_3 
REMARK    2  A    between atoms: C_3  and  O_6 
REMARK    3  A    between atoms: C_3  and  C_4 
REMARK    4  A    between atoms: C_7  and  O_6 
REMARK    5  A    between atoms: C_9  and  C_10 
REMARK    6  A    between atoms: N_15  and  C_14 
REMARK    7  A    between atoms: N_20  and  C_19 
REMARK       I    between atoms: C_22  and  N_20 
ROOT
ATOM      1  C   LIG d   1      -6.149  74.926 117.032  0.00  0.00     0.161 C 
ATOM      2  C   LIG d   1      -5.876  75.043 115.659  0.00  0.00     0.016 C 
ATOM      3  C   LIG d   1      -5.031  76.036 115.115  0.00  0.00     0.038 C 
ATOM      4  C   LIG d   1      -4.275  76.893 115.929  0.00  0.00     0.028 C 
ATOM      5  C   LIG d   1      -4.904  77.142 117.295  0.00  0.00    -0.047 C 
ATOM      6  C   LIG d   1      -5.246  75.781 117.945  0.00  0.00     0.091 C 
ENDROOT
BRANCH   1   7
ATOM      7  O   LIG d   1      -6.090  73.541 117.426  0.00  0.00    -0.368 OA
BRANCH   7   8
ATOM      8  C   LIG d   1      -7.316  72.975 117.950  0.00  0.00     0.119 C 
BRANCH   8   9
ATOM      9  C   LIG d   1      -7.514  71.600 117.282  0.00  0.00     0.028 C 
ATOM     10  C   LIG d   1      -8.887  71.471 116.600  0.00  0.00     0.006 C 
ENDBRANCH   8   9
BRANCH   8  11
ATOM     11  C   LIG d   1      -8.535  73.805 117.537  0.00  0.00     0.028 C 
ATOM     12  C   LIG d   1      -9.113  74.632 118.696  0.00  0.00     0.006 C 
ENDBRANCH   8  11
ENDBRANCH   7   8
ENDBRANCH   1   7
BRANCH   6  13
ATOM     13  N   LIG d   1      -5.942  75.935 119.249  0.00  0.00    -0.311 N 
ATOM     14  C   LIG d   1      -5.304  76.017 120.416  0.00  0.00     0.210 C 
ATOM     15  C   LIG d   1      -6.213  76.153 121.641  0.00  0.00     0.109 C 
ATOM     16  O   LIG d   1      -4.071  76.023 120.549  0.00  0.00    -0.276 OA
ATOM     17  H   LIG d   1      -6.943  75.971 119.231  0.00  0.00     0.149 HD
ENDBRANCH   6  13
BRANCH   5  18
ATOM     18  N   LIG d   1      -3.947  77.937 118.088  0.00  0.00     0.381 N 
ATOM     19  H   LIG d   1      -4.262  77.999 119.036  0.00  0.00    -0.090 HD
ATOM     20  H   LIG d   1      -3.904  78.866 117.709  0.00  0.00    -0.090 HD
ATOM     21  H   LIG d   1      -3.045  77.515 118.058  0.00  0.00    -0.090 HD
ENDBRANCH   5  18
BRANCH   3  22
ATOM     22  C   LIG d   1      -4.965  76.206 113.740  0.00  0.00     0.382 C 
ATOM     23  O   LIG d   1      -3.958  76.747 113.222  0.00  0.00    -0.241 OA
ATOM     24  O   LIG d   1      -5.920  75.866 113.016  0.00  0.00    -0.241 OA
ENDBRANCH   3  22
TORSDOF 7
ENDMDL
MODEL 9
REMARK VINA RESULT:      -4.8      3.415      5.887
REMARK  7 active torsions:
REMARK  status: ('A' for Active; 'I' for Inactive)
REMARK    1  A    between atoms: C_2  and  C_3 
REMARK    2  A    between atoms: C_3  and  O_6 
REMARK    3  A    between atoms: C_3  and  C_4 
REMARK    4  A    between atoms: C_7  and  O_6 
REMARK    5  A    between atoms: C_9  and  C_10 
REMARK    6  A    between atoms: N_15  and  C_14 
REMARK    7  A    between atoms: N_20  and  C_19 
REMARK       I    between atoms: C_22  and  N_20 
ROOT
ATOM      1  C   LIG d   1      -6.121  78.349 117.287  0.00  0.00     0.161 C 
ATOM      2  C   LIG d   1      -7.450  78.310 117.743  0.00  0.00     0.016 C 
ATOM      3  C   LIG d   1      -8.213  79.469 118.016  0.00  0.00     0.038 C 
ATOM      4  C   LIG d   1      -7.745  80.755 117.706  0.00  0.00     0.028 C 
ATOM      5  C   LIG d   1      -6.224  80.865 117.719  0.00  0.00    -0.047 C 
ATOM      6  C   LIG d   1      -5.632  79.741 116.838  0.00  0.00     0.091 C 
ENDROOT
BRANCH   1   7
ATOM      7  O   LIG d   1      -5.940  77.388 116.228  0.00  0.00    -0.368 OA
BRANCH   7   8
ATOM      8  C   LIG d   1      -6.262  76.013 116.553  0.00  0.00     0.119 C 
BRANCH   8   9
ATOM      9  C   LIG d   1      -5.081  75.139 116.089  0.00  0.00     0.028 C 
ATOM     10  C   LIG d   1      -5.298  74.559 114.681  0.00  0.00     0.006 C 
ENDBRANCH   8   9
BRANCH   8  11
ATOM     11  C   LIG d   1      -7.471  75.521 115.752  0.00  0.00     0.028 C 
ATOM     12  C   LIG d   1      -8.625  75.044 116.647  0.00  0.00     0.006 C 
ENDBRANCH   8  11
ENDBRANCH   7   8
ENDBRANCH   1   7
BRANCH   6  13
ATOM     13  N   LIG d   1      -4.146  79.726 116.862  0.00  0.00    -0.311 N 
ATOM     14  C   LIG d   1      -3.391  80.283 115.917  0.00  0.00     0.210 C 
ATOM     15  C   LIG d   1      -1.881  80.135 116.125  0.00  0.00     0.109 C 
ATOM     16  O   LIG d   1      -3.829  80.914 114.943  0.00  0.00    -0.276 OA
ATOM     17  H   LIG d   1      -3.707  79.262 117.634  0.00  0.00     0.149 HD
ENDBRANCH   6  13
BRANCH   5  18
ATOM     18  N   LIG d   1      -5.872  82.217 117.245  0.00  0.00     0.381 N 
ATOM     19  H   LIG d   1      -5.188  82.621 117.853  0.00  0.00    -0.090 HD
ATOM     20  H   LIG d   1      -6.694  82.794 117.268  0.00  0.00    -0.090 HD
ATOM     21  H   LIG d   1      -5.515  82.171 116.316  0.00  0.00    -0.090 HD
ENDBRANCH   5  18
BRANCH   3  22
ATOM     22  C   LIG d   1      -9.443  79.349 118.643  0.00  0.00     0.382 C 
ATOM     23  O   LIG d   1     -10.188  78.373 118.382  0.00  0.00    -0.241 OA
ATOM     24  O   LIG d   1      -9.838  80.227 119.433  0.00  0.00    -0.241 OA
ENDBRANCH   3  22
TORSDOF 7
ENDMDL
