MODEL 1
REMARK VINA RESULT:      -5.5      0.000      0.000
REMARK  7 active torsions:
REMARK  status: ('A' for Active; 'I' for Inactive)
REMARK    1  A    between atoms: C_2  and  C_3 
REMARK    2  A    between atoms: C_3  and  O_6 
REMARK    3  A    between atoms: C_3  and  C_4 
REMARK    4  A    between atoms: C_7  and  O_6 
REMARK    5  A    between atoms: C_9  and  C_10 
REMARK    6  A    between atoms: N_15  and  C_14 
REMARK    7  A    between atoms: N_20  and  C_19 
REMARK       I    between atoms: C_22  and  N_20 
ROOT
ATOM      1  C   LIG d   1      -6.832  77.722 117.316  0.00  0.00     0.161 C 
ATOM      2  C   LIG d   1      -5.889  77.506 116.297  0.00  0.00     0.016 C 
ATOM      3  C   LIG d   1      -5.751  76.277 115.612  0.00  0.00     0.038 C 
ATOM      4  C   LIG d   1      -6.655  75.220 115.797  0.00  0.00     0.028 C 
ATOM      5  C   LIG d   1      -7.309  75.216 117.175  0.00  0.00    -0.047 C 
ATOM      6  C   LIG d   1      -7.900  76.617 117.454  0.00  0.00     0.091 C 
ENDROOT
BRANCH   1   7
ATOM      7  O   LIG d   1      -7.461  79.006 117.134  0.00  0.00    -0.368 OA
BRANCH   7   8
ATOM      8  C   LIG d   1      -6.675  80.161 117.518  0.00  0.00     0.119 C 
BRANCH   8   9
ATOM      9  C   LIG d   1      -6.283  79.983 118.998  0.00  0.00     0.028 C 
ATOM     10  C   LIG d   1      -6.067  81.328 119.713  0.00  0.00     0.006 C 
ENDBRANCH   8   9
BRANCH   8  11
ATOM     11  C   LIG d   1      -7.509  81.444 117.471  0.00  0.00     0.028 C 
ATOM     12  C   LIG d   1      -9.022  81.171 117.453  0.00  0.00     0.006 C 
ENDBRANCH   8  11
ENDBRANCH   7   8
ENDBRANCH   1   7
BRANCH   6  13
ATOM     13  N   LIG d   1      -8.485  76.724 118.816  0.00  0.00    -0.311 N 
ATOM     14  C   LIG d   1      -9.725  77.150 119.049  0.00  0.00     0.210 C 
ATOM     15  C   LIG d   1     -10.123  77.203 120.528  0.00  0.00     0.109 C 
ATOM     16  O   LIG d   1     -10.544  77.458 118.171  0.00  0.00    -0.276 OA
ATOM     17  H   LIG d   1      -7.900  76.464 119.585  0.00  0.00     0.149 HD
ENDBRANCH   6  13
BRANCH   5  18
ATOM     18  N   LIG d   1      -8.326  74.147 117.182  0.00  0.00     0.381 N 
ATOM     19  H   LIG d   1      -8.232  73.585 116.360  0.00  0.00    -0.090 HD
ATOM     20  H   LIG d   1      -9.239  74.567 117.174  0.00  0.00    -0.090 HD
ATOM     21  H   LIG d   1      -8.220  73.581 117.995  0.00  0.00    -0.090 HD
ENDBRANCH   5  18
BRANCH   3  22
ATOM     22  C   LIG d   1      -4.675  76.082 114.760  0.00  0.00     0.382 C 
ATOM     23  O   LIG d   1      -4.619  76.701 113.670  0.00  0.00    -0.241 OA
ATOM     24  O   LIG d   1      -3.783  75.262 115.046  0.00  0.00    -0.241 OA
ENDBRANCH   3  22
TORSDOF 7
ENDMDL
MODEL 2
REMARK VINA RESULT:      -5.5      4.054      5.337
REMARK  7 active torsions:
REMARK  status: ('A' for Active; 'I' for Inactive)
REMARK    1  A    between atoms: C_2  and  C_3 
REMARK    2  A    between atoms: C_3  and  O_6 
REMARK    3  A    between atoms: C_3  and  C_4 
REMARK    4  A    between atoms: C_7  and  O_6 
REMARK    5  A    between atoms: C_9  and  C_10 
REMARK    6  A    between atoms: N_15  and  C_14 
REMARK    7  A    between atoms: N_20  and  C_19 
REMARK       I    between atoms: C_22  and  N_20 
ROOT
ATOM      1  C   LIG d   1      -3.765  74.553 117.031  0.00  0.00     0.161 C 
ATOM      2  C   LIG d   1      -2.693  75.291 116.503  0.00  0.00     0.016 C 
ATOM      3  C   LIG d   1      -2.805  76.115 115.359  0.00  0.00     0.038 C 
ATOM      4  C   LIG d   1      -4.042  76.377 114.752  0.00  0.00     0.028 C 
ATOM      5  C   LIG d   1      -5.060  75.259 114.945  0.00  0.00    -0.047 C 
ATOM      6  C   LIG d   1      -5.148  74.913 116.449  0.00  0.00     0.091 C 
ENDROOT
BRANCH   1   7
ATOM      7  O   LIG d   1      -3.780  74.673 118.468  0.00  0.00    -0.368 OA
BRANCH   7   8
ATOM      8  C   LIG d   1      -2.499  74.911 119.101  0.00  0.00     0.119 C 
BRANCH   8   9
ATOM      9  C   LIG d   1      -1.985  73.557 119.627  0.00  0.00     0.028 C 
ATOM     10  C   LIG d   1      -0.504  73.319 119.287  0.00  0.00     0.006 C 
ENDBRANCH   8   9
BRANCH   8  11
ATOM     11  C   LIG d   1      -2.645  75.799 120.340  0.00  0.00     0.028 C 
ATOM     12  C   LIG d   1      -3.919  76.658 120.310  0.00  0.00     0.006 C 
ENDBRANCH   8  11
ENDBRANCH   7   8
ENDBRANCH   1   7
BRANCH   6  13
ATOM     13  N   LIG d   1      -6.060  73.771 116.716  0.00  0.00    -0.311 N 
ATOM     14  C   LIG d   1      -7.340  73.918 117.054  0.00  0.00     0.210 C 
ATOM     15  C   LIG d   1      -8.097  72.610 117.304  0.00  0.00     0.109 C 
ATOM     16  O   LIG d   1      -7.929  75.006 117.138  0.00  0.00    -0.276 OA
ATOM     17  H   LIG d   1      -5.673  72.851 116.639  0.00  0.00     0.149 HD
ENDBRANCH   6  13
BRANCH   5  18
ATOM     18  N   LIG d   1      -6.343  75.722 114.382  0.00  0.00     0.381 N 
ATOM     19  H   LIG d   1      -6.296  76.703 114.195  0.00  0.00    -0.090 HD
ATOM     20  H   LIG d   1      -7.070  75.564 115.057  0.00  0.00    -0.090 HD
ATOM     21  H   LIG d   1      -6.545  75.225 113.542  0.00  0.00    -0.090 HD
ENDBRANCH   5  18
BRANCH   3  22
ATOM     22  C   LIG d   1      -1.663  76.655 114.788  0.00  0.00     0.382 C 
ATOM     23  O   LIG d   1      -0.779  77.168 115.517  0.00  0.00    -0.241 OA
ATOM     24  O   LIG d   1      -1.525  76.677 113.550  0.00  0.00    -0.241 OA
ENDBRANCH   3  22
TORSDOF 7
ENDMDL
MODEL 3
REMARK VINA RESULT:      -5.5     12.950     15.278
REMARK  7 active torsions:
REMARK  status: ('A' for Active; 'I' for Inactive)
REMARK    1  A    between atoms: C_2  and  C_3 
REMARK    2  A    between atoms: C_3  and  O_6 
REMARK    3  A    between atoms: C_3  and  C_4 
REMARK    4  A    between atoms: C_7  and  O_6 
REMARK    5  A    between atoms: C_9  and  C_10 
REMARK    6  A    between atoms: N_15  and  C_14 
REMARK    7  A    between atoms: N_20  and  C_19 
REMARK       I    between atoms: C_22  and  N_20 
ROOT
ATOM      1  C   LIG d   1      -5.191  91.736 118.353  0.00  0.00     0.161 C 
ATOM      2  C   LIG d   1      -5.510  90.942 117.239  0.00  0.00     0.016 C 
ATOM      3  C   LIG d   1      -6.405  91.349 116.224  0.00  0.00     0.038 C 
ATOM      4  C   LIG d   1      -6.931  92.649 116.176  0.00  0.00     0.028 C 
ATOM      5  C   LIG d   1      -7.035  93.311 117.546  0.00  0.00    -0.047 C 
ATOM      6  C   LIG d   1      -5.669  93.201 118.261  0.00  0.00     0.091 C 
ENDROOT
BRANCH   1   7
ATOM      7  O   LIG d   1      -3.772  91.686 118.599  0.00  0.00    -0.368 OA
BRANCH   7   8
ATOM      8  C   LIG d   1      -3.276  90.477 119.225  0.00  0.00     0.119 C 
BRANCH   8   9
ATOM      9  C   LIG d   1      -2.669  90.875 120.584  0.00  0.00     0.028 C 
ATOM     10  C   LIG d   1      -1.962  92.240 120.535  0.00  0.00     0.006 C 
ENDBRANCH   8   9
BRANCH   8  11
ATOM     11  C   LIG d   1      -2.118  89.872 118.425  0.00  0.00     0.028 C 
ATOM     12  C   LIG d   1      -2.533  88.626 117.627  0.00  0.00     0.006 C 
ENDBRANCH   8  11
ENDBRANCH   7   8
ENDBRANCH   1   7
BRANCH   6  13
ATOM     13  N   LIG d   1      -5.706  93.749 119.642  0.00  0.00    -0.311 N 
ATOM     14  C   LIG d   1      -4.831  94.642 120.101  0.00  0.00     0.210 C 
ATOM     15  C   LIG d   1      -5.037  95.060 121.560  0.00  0.00     0.109 C 
ATOM     16  O   LIG d   1      -3.922  95.151 119.427  0.00  0.00    -0.276 OA
ATOM     17  H   LIG d   1      -6.430  93.413 120.247  0.00  0.00     0.149 HD
ENDBRANCH   6  13
BRANCH   5  18
ATOM     18  N   LIG d   1      -7.466  94.706 117.336  0.00  0.00     0.381 N 
ATOM     19  H   LIG d   1      -6.876  95.325 117.855  0.00  0.00    -0.090 HD
ATOM     20  H   LIG d   1      -8.407  94.809 117.673  0.00  0.00    -0.090 HD
ATOM     21  H   LIG d   1      -7.426  94.932 116.366  0.00  0.00    -0.090 HD
ENDBRANCH   5  18
BRANCH   3  22
ATOM     22  C   LIG d   1      -6.815  90.438 115.262  0.00  0.00     0.382 C 
ATOM     23  O   LIG d   1      -7.961  90.529 114.759  0.00  0.00    -0.241 OA
ATOM     24  O   LIG d   1      -6.070  89.498 114.924  0.00  0.00    -0.241 OA
ENDBRANCH   3  22
TORSDOF 7
ENDMDL
MODEL 4
REMARK VINA RESULT:      -5.0      2.285      4.980
REMARK  7 active torsions:
REMARK  status: ('A' for Active; 'I' for Inactive)
REMARK    1  A    between atoms: C_2  and  C_3 
REMARK    2  A    between atoms: C_3  and  O_6 
REMARK    3  A    between atoms: C_3  and  C_4 
REMARK    4  A    between atoms: C_7  and  O_6 
REMARK    5  A    between atoms: C_9  and  C_10 
REMARK    6  A    between atoms: N_15  and  C_14 
REMARK    7  A    between atoms: N_20  and  C_19 
REMARK       I    between atoms: C_22  and  N_20 
ROOT
ATOM      1  C   LIG d   1      -6.597  77.845 117.212  0.00  0.00     0.161 C 
ATOM      2  C   LIG d   1      -6.604  79.250 117.239  0.00  0.00     0.016 C 
ATOM      3  C   LIG d   1      -7.710  80.014 117.676  0.00  0.00     0.038 C 
ATOM      4  C   LIG d   1      -8.837  79.419 118.263  0.00  0.00     0.028 C 
ATOM      5  C   LIG d   1      -9.081  77.989 117.792  0.00  0.00    -0.047 C 
ATOM      6  C   LIG d   1      -7.775  77.178 117.953  0.00  0.00     0.091 C 
ENDROOT
BRANCH   1   7
ATOM      7  O   LIG d   1      -5.341  77.353 117.722  0.00  0.00    -0.368 OA
BRANCH   7   8
ATOM      8  C   LIG d   1      -4.531  76.591 116.794  0.00  0.00     0.119 C 
BRANCH   8   9
ATOM      9  C   LIG d   1      -4.443  75.150 117.332  0.00  0.00     0.028 C 
ATOM     10  C   LIG d   1      -3.171  74.909 118.162  0.00  0.00     0.006 C 
ENDBRANCH   8   9
BRANCH   8  11
ATOM     11  C   LIG d   1      -3.087  77.102 116.766  0.00  0.00     0.028 C 
ATOM     12  C   LIG d   1      -2.960  78.494 116.128  0.00  0.00     0.006 C 
ENDBRANCH   8  11
ENDBRANCH   7   8
ENDBRANCH   1   7
BRANCH   6  13
ATOM     13  N   LIG d   1      -7.902  75.790 117.437  0.00  0.00    -0.311 N 
ATOM     14  C   LIG d   1      -8.192  74.745 118.209  0.00  0.00     0.210 C 
ATOM     15  C   LIG d   1      -8.257  73.399 117.479  0.00  0.00     0.109 C 
ATOM     16  O   LIG d   1      -8.434  74.808 119.424  0.00  0.00    -0.276 OA
ATOM     17  H   LIG d   1      -7.753  75.652 116.456  0.00  0.00     0.149 HD
ENDBRANCH   6  13
BRANCH   5  18
ATOM     18  N   LIG d   1     -10.200  77.444 118.584  0.00  0.00     0.381 N 
ATOM     19  H   LIG d   1      -9.911  77.309 119.532  0.00  0.00    -0.090 HD
ATOM     20  H   LIG d   1     -10.463  76.552 118.204  0.00  0.00    -0.090 HD
ATOM     21  H   LIG d   1     -10.976  78.069 118.552  0.00  0.00    -0.090 HD
ENDBRANCH   5  18
BRANCH   3  22
ATOM     22  C   LIG d   1      -7.712  81.388 117.491  0.00  0.00     0.382 C 
ATOM     23  O   LIG d   1      -7.292  82.144 118.400  0.00  0.00    -0.241 OA
ATOM     24  O   LIG d   1      -8.170  81.884 116.444  0.00  0.00    -0.241 OA
ENDBRANCH   3  22
TORSDOF 7
ENDMDL
MODEL 5
REMARK VINA RESULT:      -4.8     12.807     14.803
REMARK  7 active torsions:
REMARK  status: ('A' for Active; 'I' for Inactive)
REMARK    1  A    between atoms: C_2  and  C_3 
REMARK    2  A    between atoms: C_3  and  O_6 
REMARK    3  A    between atoms: C_3  and  C_4 
REMARK    4  A    between atoms: C_7  and  O_6 
REMARK    5  A    between atoms: C_9  and  C_10 
REMARK    6  A    between atoms: N_15  and  C_14 
REMARK    7  A    between atoms: N_20  and  C_19 
REMARK       I    between atoms: C_22  and  N_20 
ROOT
ATOM      1  C   LIG d   1       2.919  86.620 114.877  0.00  0.00     0.161 C 
ATOM      2  C   LIG d   1       3.102  87.961 114.501  0.00  0.00     0.016 C 
ATOM      3  C   LIG d   1       4.205  88.742 114.916  0.00  0.00     0.038 C 
ATOM      4  C   LIG d   1       5.286  88.186 115.617  0.00  0.00     0.028 C 
ATOM      5  C   LIG d   1       4.905  86.966 116.448  0.00  0.00    -0.047 C 
ATOM      6  C   LIG d   1       4.144  85.964 115.549  0.00  0.00     0.091 C 
ENDROOT
BRANCH   1   7
ATOM      7  O   LIG d   1       2.499  85.846 113.737  0.00  0.00    -0.368 OA
BRANCH   7   8
ATOM      8  C   LIG d   1       1.074  85.614 113.613  0.00  0.00     0.119 C 
BRANCH   8   9
ATOM      9  C   LIG d   1       0.882  84.164 113.127  0.00  0.00     0.028 C 
ATOM     10  C   LIG d   1       2.150  83.312 113.303  0.00  0.00     0.006 C 
ENDBRANCH   8   9
BRANCH   8  11
ATOM     11  C   LIG d   1       0.459  86.493 112.521  0.00  0.00     0.028 C 
ATOM     12  C   LIG d   1      -0.838  85.905 111.943  0.00  0.00     0.006 C 
ENDBRANCH   8  11
ENDBRANCH   7   8
ENDBRANCH   1   7
BRANCH   6  13
ATOM     13  N   LIG d   1       3.661  84.779 116.305  0.00  0.00    -0.311 N 
ATOM     14  C   LIG d   1       4.347  83.641 116.400  0.00  0.00     0.210 C 
ATOM     15  C   LIG d   1       3.659  82.537 117.209  0.00  0.00     0.109 C 
ATOM     16  O   LIG d   1       5.474  83.452 115.918  0.00  0.00    -0.276 OA
ATOM     17  H   LIG d   1       2.769  84.856 116.753  0.00  0.00     0.149 HD
ENDBRANCH   6  13
BRANCH   5  18
ATOM     18  N   LIG d   1       6.147  86.406 117.013  0.00  0.00     0.381 N 
ATOM     19  H   LIG d   1       5.999  86.149 117.968  0.00  0.00    -0.090 HD
ATOM     20  H   LIG d   1       6.864  87.110 116.984  0.00  0.00    -0.090 HD
ATOM     21  H   LIG d   1       6.433  85.610 116.487  0.00  0.00    -0.090 HD
ENDBRANCH   5  18
BRANCH   3  22
ATOM     22  C   LIG d   1       4.215  90.106 114.664  0.00  0.00     0.382 C 
ATOM     23  O   LIG d   1       4.089  90.527 113.489  0.00  0.00    -0.241 OA
ATOM     24  O   LIG d   1       4.393  90.918 115.591  0.00  0.00    -0.241 OA
ENDBRANCH   3  22
TORSDOF 7
ENDMDL
MODEL 6
REMARK VINA RESULT:      -4.8     12.109     14.645
REMARK  7 active torsions:
REMARK  status: ('A' for Active; 'I' for Inactive)
REMARK    1  A    between atoms: C_2  and  C_3 
REMARK    2  A    between atoms: C_3  and  O_6 
REMARK    3  A    between atoms: C_3  and  C_4 
REMARK    4  A    between atoms: C_7  and  O_6 
REMARK    5  A    between atoms: C_9  and  C_10 
REMARK    6  A    between atoms: N_15  and  C_14 
REMARK    7  A    between atoms: N_20  and  C_19 
REMARK       I    between atoms: C_22  and  N_20 
ROOT
ATOM      1  C   LIG d   1       1.444  87.155 115.343  0.00  0.00     0.161 C 
ATOM      2  C   LIG d   1       0.301  86.868 116.106  0.00  0.00     0.016 C 
ATOM      3  C   LIG d   1      -0.030  87.551 117.300  0.00  0.00     0.038 C 
ATOM      4  C   LIG d   1       0.686  88.677 117.732  0.00  0.00     0.028 C 
ATOM      5  C   LIG d   1       2.139  88.687 117.267  0.00  0.00    -0.047 C 
ATOM      6  C   LIG d   1       2.177  88.454 115.739  0.00  0.00     0.091 C 
ENDROOT
BRANCH   1   7
ATOM      7  O   LIG d   1       1.103  87.180 113.942  0.00  0.00    -0.368 OA
BRANCH   7   8
ATOM      8  C   LIG d   1       1.492  86.016 113.171  0.00  0.00     0.119 C 
BRANCH   8   9
ATOM      9  C   LIG d   1       2.317  86.513 111.968  0.00  0.00     0.028 C 
ATOM     10  C   LIG d   1       3.727  85.899 111.930  0.00  0.00     0.006 C 
ENDBRANCH   8   9
BRANCH   8  11
ATOM     11  C   LIG d   1       0.272  85.317 112.565  0.00  0.00     0.028 C 
ATOM     12  C   LIG d   1      -0.728  86.301 111.937  0.00  0.00     0.006 C 
ENDBRANCH   8  11
ENDBRANCH   7   8
ENDBRANCH   1   7
BRANCH   6  13
ATOM     13  N   LIG d   1       3.565  88.365 115.214  0.00  0.00    -0.311 N 
ATOM     14  C   LIG d   1       3.984  89.024 114.135  0.00  0.00     0.210 C 
ATOM     15  C   LIG d   1       5.447  88.776 113.754  0.00  0.00     0.109 C 
ATOM     16  O   LIG d   1       3.293  89.815 113.476  0.00  0.00    -0.276 OA
ATOM     17  H   LIG d   1       4.202  87.769 115.706  0.00  0.00     0.149 HD
ENDBRANCH   6  13
BRANCH   5  18
ATOM     18  N   LIG d   1       2.727  89.978 117.670  0.00  0.00     0.381 N 
ATOM     19  H   LIG d   1       2.036  90.537 118.128  0.00  0.00    -0.090 HD
ATOM     20  H   LIG d   1       3.033  90.467 116.847  0.00  0.00    -0.090 HD
ATOM     21  H   LIG d   1       3.499  89.825 118.280  0.00  0.00    -0.090 HD
ENDBRANCH   5  18
BRANCH   3  22
ATOM     22  C   LIG d   1      -1.064  87.083 118.095  0.00  0.00     0.382 C 
ATOM     23  O   LIG d   1      -0.843  86.193 118.951  0.00  0.00    -0.241 OA
ATOM     24  O   LIG d   1      -2.225  87.507 117.937  0.00  0.00    -0.241 OA
ENDBRANCH   3  22
TORSDOF 7
ENDMDL
MODEL 7
REMARK VINA RESULT:      -4.8     13.873     16.175
REMARK  7 active torsions:
REMARK  status: ('A' for Active; 'I' for Inactive)
REMARK    1  A    between atoms: C_2  and  C_3 
REMARK    2  A    between atoms: C_3  and  O_6 
REMARK    3  A    between atoms: C_3  and  C_4 
REMARK    4  A    between atoms: C_7  and  O_6 
REMARK    5  A    between atoms: C_9  and  C_10 
REMARK    6  A    between atoms: N_15  and  C_14 
REMARK    7  A    between atoms: N_20  and  C_19 
REMARK       I    between atoms: C_22  and  N_20 
ROOT
ATOM      1  C   LIG d   1       3.310  88.504 115.879  0.00  0.00     0.161 C 
ATOM      2  C   LIG d   1       3.624  89.356 116.951  0.00  0.00     0.016 C 
ATOM      3  C   LIG d   1       4.692  90.283 116.921  0.00  0.00     0.038 C 
ATOM      4  C   LIG d   1       5.429  90.528 115.752  0.00  0.00     0.028 C 
ATOM      5  C   LIG d   1       5.474  89.334 114.804  0.00  0.00    -0.047 C 
ATOM      6  C   LIG d   1       4.033  88.835 114.556  0.00  0.00     0.091 C 
ENDROOT
BRANCH   1   7
ATOM      7  O   LIG d   1       1.883  88.478 115.677  0.00  0.00    -0.368 OA
BRANCH   7   8
ATOM      8  C   LIG d   1       1.164  87.415 116.350  0.00  0.00     0.119 C 
BRANCH   8   9
ATOM      9  C   LIG d   1       0.663  86.439 115.267  0.00  0.00     0.028 C 
ATOM     10  C   LIG d   1       1.473  85.132 115.235  0.00  0.00     0.006 C 
ENDBRANCH   8   9
BRANCH   8  11
ATOM     11  C   LIG d   1      -0.100  87.944 117.035  0.00  0.00     0.028 C 
ATOM     12  C   LIG d   1      -0.798  86.881 117.898  0.00  0.00     0.006 C 
ENDBRANCH   8  11
ENDBRANCH   7   8
ENDBRANCH   1   7
BRANCH   6  13
ATOM     13  N   LIG d   1       3.993  87.617 113.705  0.00  0.00    -0.311 N 
ATOM     14  C   LIG d   1       3.109  87.435 112.726  0.00  0.00     0.210 C 
ATOM     15  C   LIG d   1       3.230  86.100 111.985  0.00  0.00     0.109 C 
ATOM     16  O   LIG d   1       2.256  88.266 112.380  0.00  0.00    -0.276 OA
ATOM     17  H   LIG d   1       4.670  86.904 113.897  0.00  0.00     0.149 HD
ENDBRANCH   6  13
BRANCH   5  18
ATOM     18  N   LIG d   1       6.155  89.771 113.570  0.00  0.00     0.381 N 
ATOM     19  H   LIG d   1       7.098  89.439 113.568  0.00  0.00    -0.090 HD
ATOM     20  H   LIG d   1       6.175  90.776 113.548  0.00  0.00    -0.090 HD
ATOM     21  H   LIG d   1       5.670  89.424 112.772  0.00  0.00    -0.090 HD
ENDBRANCH   5  18
BRANCH   3  22
ATOM     22  C   LIG d   1       5.057  90.948 118.081  0.00  0.00     0.382 C 
ATOM     23  O   LIG d   1       5.735  90.356 118.956  0.00  0.00    -0.241 OA
ATOM     24  O   LIG d   1       4.680  92.117 118.285  0.00  0.00    -0.241 OA
ENDBRANCH   3  22
TORSDOF 7
ENDMDL
MODEL 8
REMARK VINA RESULT:      -4.8     16.649     18.064
REMARK  7 active torsions:
REMARK  status: ('A' for Active; 'I' for Inactive)
REMARK    1  A    between atoms: C_2  and  C_3 
REMARK    2  A    between atoms: C_3  and  O_6 
REMARK    3  A    between atoms: C_3  and  C_4 
REMARK    4  A    between atoms: C_7  and  O_6 
REMARK    5  A    between atoms: C_9  and  C_10 
REMARK    6  A    between atoms: N_15  and  C_14 
REMARK    7  A    between atoms: N_20  and  C_19 
REMARK       I    between atoms: C_22  and  N_20 
ROOT
ATOM      1  C   LIG d   1     -24.726  83.128 115.406  0.00  0.00     0.161 C 
ATOM      2  C   LIG d   1     -25.112  81.781 115.304  0.00  0.00     0.016 C 
ATOM      3  C   LIG d   1     -24.673  80.922 114.270  0.00  0.00     0.038 C 
ATOM      4  C   LIG d   1     -23.693  81.314 113.346  0.00  0.00     0.028 C 
ATOM      5  C   LIG d   1     -23.654  82.819 113.107  0.00  0.00    -0.047 C 
ATOM      6  C   LIG d   1     -23.571  83.542 114.471  0.00  0.00     0.091 C 
ENDROOT
BRANCH   1   7
ATOM      7  O   LIG d   1     -24.400  83.441 116.775  0.00  0.00    -0.368 OA
BRANCH   7   8
ATOM      8  C   LIG d   1     -23.193  82.833 117.297  0.00  0.00     0.119 C 
BRANCH   8   9
ATOM      9  C   LIG d   1     -23.570  82.103 118.601  0.00  0.00     0.028 C 
ATOM     10  C   LIG d   1     -25.018  82.386 119.034  0.00  0.00     0.006 C 
ENDBRANCH   8   9
BRANCH   8  11
ATOM     11  C   LIG d   1     -22.168  83.894 117.709  0.00  0.00     0.028 C 
ATOM     12  C   LIG d   1     -22.807  85.263 117.991  0.00  0.00     0.006 C 
ENDBRANCH   8  11
ENDBRANCH   7   8
ENDBRANCH   1   7
BRANCH   6  13
ATOM     13  N   LIG d   1     -23.613  85.021 114.332  0.00  0.00    -0.311 N 
ATOM     14  C   LIG d   1     -22.523  85.787 114.313  0.00  0.00     0.210 C 
ATOM     15  C   LIG d   1     -22.791  87.290 114.182  0.00  0.00     0.109 C 
ATOM     16  O   LIG d   1     -21.359  85.362 114.360  0.00  0.00    -0.276 OA
ATOM     17  H   LIG d   1     -24.516  85.447 114.257  0.00  0.00     0.149 HD
ENDBRANCH   6  13
BRANCH   5  18
ATOM     18  N   LIG d   1     -22.501  83.102 112.232  0.00  0.00     0.381 N 
ATOM     19  H   LIG d   1     -22.112  82.243 111.896  0.00  0.00    -0.090 HD
ATOM     20  H   LIG d   1     -21.796  83.580 112.766  0.00  0.00    -0.090 HD
ATOM     21  H   LIG d   1     -22.786  83.668 111.463  0.00  0.00    -0.090 HD
ENDBRANCH   5  18
BRANCH   3  22
ATOM     22  C   LIG d   1     -25.247  79.668 114.130  0.00  0.00     0.382 C 
ATOM     23  O   LIG d   1     -26.210  79.503 113.342  0.00  0.00    -0.241 OA
ATOM     24  O   LIG d   1     -24.844  78.708 114.813  0.00  0.00    -0.241 OA
ENDBRANCH   3  22
TORSDOF 7
ENDMDL
MODEL 9
REMARK VINA RESULT:      -4.7     12.387     14.378
REMARK  7 active torsions:
REMARK  status: ('A' for Active; 'I' for Inactive)
REMARK    1  A    between atoms: C_2  and  C_3 
REMARK    2  A    between atoms: C_3  and  O_6 
REMARK    3  A    between atoms: C_3  and  C_4 
REMARK    4  A    between atoms: C_7  and  O_6 
REMARK    5  A    between atoms: C_9  and  C_10 
REMARK    6  A    between atoms: N_15  and  C_14 
REMARK    7  A    between atoms: N_20  and  C_19 
REMARK       I    between atoms: C_22  and  N_20 
ROOT
ATOM      1  C   LIG d   1     -15.807  67.102 116.187  0.00  0.00     0.161 C 
ATOM      2  C   LIG d   1     -15.346  68.018 115.226  0.00  0.00     0.016 C 
ATOM      3  C   LIG d   1     -15.484  67.820 113.833  0.00  0.00     0.038 C 
ATOM      4  C   LIG d   1     -16.232  66.757 113.306  0.00  0.00     0.028 C 
ATOM      5  C   LIG d   1     -16.284  65.539 114.222  0.00  0.00    -0.047 C 
ATOM      6  C   LIG d   1     -16.724  65.992 115.633  0.00  0.00     0.091 C 
ENDROOT
BRANCH   1   7
ATOM      7  O   LIG d   1     -16.465  67.808 117.258  0.00  0.00    -0.368 OA
BRANCH   7   8
ATOM      8  C   LIG d   1     -15.687  68.005 118.464  0.00  0.00     0.119 C 
BRANCH   8   9
ATOM      9  C   LIG d   1     -15.971  66.812 119.397  0.00  0.00     0.028 C 
ATOM     10  C   LIG d   1     -14.756  65.879 119.544  0.00  0.00     0.006 C 
ENDBRANCH   8   9
BRANCH   8  11
ATOM     11  C   LIG d   1     -16.157  69.242 119.234  0.00  0.00     0.028 C 
ATOM     12  C   LIG d   1     -15.137  69.713 120.283  0.00  0.00     0.006 C 
ENDBRANCH   8  11
ENDBRANCH   7   8
ENDBRANCH   1   7
BRANCH   6  13
ATOM     13  N   LIG d   1     -16.720  64.875 116.614  0.00  0.00    -0.311 N 
ATOM     14  C   LIG d   1     -17.805  64.167 116.924  0.00  0.00     0.210 C 
ATOM     15  C   LIG d   1     -17.585  63.073 117.973  0.00  0.00     0.109 C 
ATOM     16  O   LIG d   1     -18.921  64.320 116.406  0.00  0.00    -0.276 OA
ATOM     17  H   LIG d   1     -15.848  64.662 117.059  0.00  0.00     0.149 HD
ENDBRANCH   6  13
BRANCH   5  18
ATOM     18  N   LIG d   1     -17.206  64.562 113.614  0.00  0.00     0.381 N 
ATOM     19  H   LIG d   1     -17.745  64.115 114.328  0.00  0.00    -0.090 HD
ATOM     20  H   LIG d   1     -16.668  63.860 113.138  0.00  0.00    -0.090 HD
ATOM     21  H   LIG d   1     -17.812  65.021 112.969  0.00  0.00    -0.090 HD
ENDBRANCH   5  18
BRANCH   3  22
ATOM     22  C   LIG d   1     -14.835  68.670 112.951  0.00  0.00     0.382 C 
ATOM     23  O   LIG d   1     -15.471  69.201 112.009  0.00  0.00    -0.241 OA
ATOM     24  O   LIG d   1     -13.611  68.878 113.058  0.00  0.00    -0.241 OA
ENDBRANCH   3  22
TORSDOF 7
ENDMDL
