MODEL 1
REMARK VINA RESULT:      -5.9      0.000      0.000
REMARK  7 active torsions:
REMARK  status: ('A' for Active; 'I' for Inactive)
REMARK    1  A    between atoms: C_2  and  C_3 
REMARK    2  A    between atoms: C_3  and  O_6 
REMARK    3  A    between atoms: C_3  and  C_4 
REMARK    4  A    between atoms: C_7  and  O_6 
REMARK    5  A    between atoms: C_9  and  C_10 
REMARK    6  A    between atoms: N_15  and  C_14 
REMARK    7  A    between atoms: N_20  and  C_19 
REMARK       I    between atoms: C_22  and  N_20 
ROOT
ATOM      1  C   LIG d   1      -8.414  74.247 117.540  0.00  0.00     0.161 C 
ATOM      2  C   LIG d   1      -8.020  73.039 116.941  0.00  0.00     0.016 C 
ATOM      3  C   LIG d   1      -8.810  71.867 116.959  0.00  0.00     0.038 C 
ATOM      4  C   LIG d   1     -10.125  71.867 117.449  0.00  0.00     0.028 C 
ATOM      5  C   LIG d   1     -10.374  72.929 118.515  0.00  0.00    -0.047 C 
ATOM      6  C   LIG d   1      -9.892  74.298 117.982  0.00  0.00     0.091 C 
ENDROOT
BRANCH   1   7
ATOM      7  O   LIG d   1      -8.118  75.349 116.659  0.00  0.00    -0.368 OA
BRANCH   7   8
ATOM      8  C   LIG d   1      -6.713  75.618 116.425  0.00  0.00     0.119 C 
BRANCH   8   9
ATOM      9  C   LIG d   1      -6.448  77.080 116.835  0.00  0.00     0.028 C 
ATOM     10  C   LIG d   1      -7.648  77.714 117.558  0.00  0.00     0.006 C 
ENDBRANCH   8   9
BRANCH   8  11
ATOM     11  C   LIG d   1      -6.372  75.546 114.934  0.00  0.00     0.028 C 
ATOM     12  C   LIG d   1      -5.583  74.280 114.563  0.00  0.00     0.006 C 
ENDBRANCH   8  11
ENDBRANCH   7   8
ENDBRANCH   1   7
BRANCH   6  13
ATOM     13  N   LIG d   1     -10.022  75.378 118.994  0.00  0.00    -0.311 N 
ATOM     14  C   LIG d   1     -11.053  76.219 119.040  0.00  0.00     0.210 C 
ATOM     15  C   LIG d   1     -10.981  77.271 120.151  0.00  0.00     0.109 C 
ATOM     16  O   LIG d   1     -12.037  76.175 118.286  0.00  0.00    -0.276 OA
ATOM     17  H   LIG d   1      -9.283  75.466 119.664  0.00  0.00     0.149 HD
ENDBRANCH   6  13
BRANCH   5  18
ATOM     18  N   LIG d   1     -11.813  72.908 118.836  0.00  0.00     0.381 N 
ATOM     19  H   LIG d   1     -12.221  73.797 118.624  0.00  0.00    -0.090 HD
ATOM     20  H   LIG d   1     -11.924  72.738 119.820  0.00  0.00    -0.090 HD
ATOM     21  H   LIG d   1     -12.269  72.192 118.315  0.00  0.00    -0.090 HD
ENDBRANCH   5  18
BRANCH   3  22
ATOM     22  C   LIG d   1      -8.271  70.668 116.518  0.00  0.00     0.382 C 
ATOM     23  O   LIG d   1      -8.705  69.582 116.972  0.00  0.00    -0.241 OA
ATOM     24  O   LIG d   1      -7.328  70.660 115.706  0.00  0.00    -0.241 OA
ENDBRANCH   3  22
TORSDOF 7
ENDMDL
MODEL 2
REMARK VINA RESULT:      -5.8      2.194      4.487
REMARK  7 active torsions:
REMARK  status: ('A' for Active; 'I' for Inactive)
REMARK    1  A    between atoms: C_2  and  C_3 
REMARK    2  A    between atoms: C_3  and  O_6 
REMARK    3  A    between atoms: C_3  and  C_4 
REMARK    4  A    between atoms: C_7  and  O_6 
REMARK    5  A    between atoms: C_9  and  C_10 
REMARK    6  A    between atoms: N_15  and  C_14 
REMARK    7  A    between atoms: N_20  and  C_19 
REMARK       I    between atoms: C_22  and  N_20 
ROOT
ATOM      1  C   LIG d   1      -9.937  73.442 118.179  0.00  0.00     0.161 C 
ATOM      2  C   LIG d   1      -9.527  72.200 117.665  0.00  0.00     0.016 C 
ATOM      3  C   LIG d   1      -8.225  71.953 117.174  0.00  0.00     0.038 C 
ATOM      4  C   LIG d   1      -7.193  72.894 117.303  0.00  0.00     0.028 C 
ATOM      5  C   LIG d   1      -7.689  74.335 117.353  0.00  0.00    -0.047 C 
ATOM      6  C   LIG d   1      -8.793  74.447 118.430  0.00  0.00     0.091 C 
ENDROOT
BRANCH   1   7
ATOM      7  O   LIG d   1     -10.703  73.245 119.383  0.00  0.00    -0.368 OA
BRANCH   7   8
ATOM      8  C   LIG d   1     -12.143  73.225 119.226  0.00  0.00     0.119 C 
BRANCH   8   9
ATOM      9  C   LIG d   1     -12.499  74.207 118.093  0.00  0.00     0.028 C 
ATOM     10  C   LIG d   1     -13.192  75.477 118.614  0.00  0.00     0.006 C 
ENDBRANCH   8   9
BRANCH   8  11
ATOM     11  C   LIG d   1     -12.847  73.771 120.472  0.00  0.00     0.028 C 
ATOM     12  C   LIG d   1     -11.876  74.053 121.629  0.00  0.00     0.006 C 
ENDBRANCH   8  11
ENDBRANCH   7   8
ENDBRANCH   1   7
BRANCH   6  13
ATOM     13  N   LIG d   1      -9.392  75.806 118.486  0.00  0.00    -0.311 N 
ATOM     14  C   LIG d   1      -9.543  76.494 119.617  0.00  0.00     0.210 C 
ATOM     15  C   LIG d   1     -10.202  77.868 119.455  0.00  0.00     0.109 C 
ATOM     16  O   LIG d   1      -9.164  76.111 120.734  0.00  0.00    -0.276 OA
ATOM     17  H   LIG d   1      -9.699  76.206 117.621  0.00  0.00     0.149 HD
ENDBRANCH   6  13
BRANCH   5  18
ATOM     18  N   LIG d   1      -6.525  75.198 117.627  0.00  0.00     0.381 N 
ATOM     19  H   LIG d   1      -6.087  74.916 118.482  0.00  0.00    -0.090 HD
ATOM     20  H   LIG d   1      -6.840  76.146 117.732  0.00  0.00    -0.090 HD
ATOM     21  H   LIG d   1      -5.872  75.138 116.876  0.00  0.00    -0.090 HD
ENDBRANCH   5  18
BRANCH   3  22
ATOM     22  C   LIG d   1      -7.956  70.766 116.509  0.00  0.00     0.382 C 
ATOM     23  O   LIG d   1      -7.208  70.768 115.501  0.00  0.00    -0.241 OA
ATOM     24  O   LIG d   1      -8.486  69.701 116.878  0.00  0.00    -0.241 OA
ENDBRANCH   3  22
TORSDOF 7
ENDMDL
MODEL 3
REMARK VINA RESULT:      -5.7      0.755      1.839
REMARK  7 active torsions:
REMARK  status: ('A' for Active; 'I' for Inactive)
REMARK    1  A    between atoms: C_2  and  C_3 
REMARK    2  A    between atoms: C_3  and  O_6 
REMARK    3  A    between atoms: C_3  and  C_4 
REMARK    4  A    between atoms: C_7  and  O_6 
REMARK    5  A    between atoms: C_9  and  C_10 
REMARK    6  A    between atoms: N_15  and  C_14 
REMARK    7  A    between atoms: N_20  and  C_19 
REMARK       I    between atoms: C_22  and  N_20 
ROOT
ATOM      1  C   LIG d   1      -8.742  74.109 117.049  0.00  0.00     0.161 C 
ATOM      2  C   LIG d   1      -8.519  72.792 116.614  0.00  0.00     0.016 C 
ATOM      3  C   LIG d   1      -9.293  71.689 117.041  0.00  0.00     0.038 C 
ATOM      4  C   LIG d   1     -10.447  71.852 117.822  0.00  0.00     0.028 C 
ATOM      5  C   LIG d   1     -10.416  73.102 118.696  0.00  0.00    -0.047 C 
ATOM      6  C   LIG d   1     -10.065  74.322 117.814  0.00  0.00     0.091 C 
ENDROOT
BRANCH   1   7
ATOM      7  O   LIG d   1      -8.658  75.014 115.931  0.00  0.00    -0.368 OA
BRANCH   7   8
ATOM      8  C   LIG d   1      -7.478  75.853 115.877  0.00  0.00     0.119 C 
BRANCH   8   9
ATOM      9  C   LIG d   1      -6.749  75.542 114.556  0.00  0.00     0.028 C 
ATOM     10  C   LIG d   1      -5.726  74.403 114.705  0.00  0.00     0.006 C 
ENDBRANCH   8   9
BRANCH   8  11
ATOM     11  C   LIG d   1      -6.485  75.490 116.984  0.00  0.00     0.028 C 
ATOM     12  C   LIG d   1      -6.267  76.633 117.988  0.00  0.00     0.006 C 
ENDBRANCH   8  11
ENDBRANCH   7   8
ENDBRANCH   1   7
BRANCH   6  13
ATOM     13  N   LIG d   1      -9.931  75.573 118.605  0.00  0.00    -0.311 N 
ATOM     14  C   LIG d   1     -10.927  76.439 118.781  0.00  0.00     0.210 C 
ATOM     15  C   LIG d   1     -10.570  77.674 119.614  0.00  0.00     0.109 C 
ATOM     16  O   LIG d   1     -12.081  76.286 118.354  0.00  0.00    -0.276 OA
ATOM     17  H   LIG d   1      -9.036  75.761 119.014  0.00  0.00     0.149 HD
ENDBRANCH   6  13
BRANCH   5  18
ATOM     18  N   LIG d   1     -11.733  73.221 119.350  0.00  0.00     0.381 N 
ATOM     19  H   LIG d   1     -11.998  74.184 119.403  0.00  0.00    -0.090 HD
ATOM     20  H   LIG d   1     -11.665  72.860 120.286  0.00  0.00    -0.090 HD
ATOM     21  H   LIG d   1     -12.416  72.708 118.838  0.00  0.00    -0.090 HD
ENDBRANCH   5  18
BRANCH   3  22
ATOM     22  C   LIG d   1      -8.892  70.402 116.720  0.00  0.00     0.382 C 
ATOM     23  O   LIG d   1      -7.746  70.201 116.249  0.00  0.00    -0.241 OA
ATOM     24  O   LIG d   1      -9.677  69.443 116.853  0.00  0.00    -0.241 OA
ENDBRANCH   3  22
TORSDOF 7
ENDMDL
MODEL 4
REMARK VINA RESULT:      -5.5      2.175      4.325
REMARK  7 active torsions:
REMARK  status: ('A' for Active; 'I' for Inactive)
REMARK    1  A    between atoms: C_2  and  C_3 
REMARK    2  A    between atoms: C_3  and  O_6 
REMARK    3  A    between atoms: C_3  and  C_4 
REMARK    4  A    between atoms: C_7  and  O_6 
REMARK    5  A    between atoms: C_9  and  C_10 
REMARK    6  A    between atoms: N_15  and  C_14 
REMARK    7  A    between atoms: N_20  and  C_19 
REMARK       I    between atoms: C_22  and  N_20 
ROOT
ATOM      1  C   LIG d   1      -9.496  74.396 117.403  0.00  0.00     0.161 C 
ATOM      2  C   LIG d   1      -9.409  73.025 117.113  0.00  0.00     0.016 C 
ATOM      3  C   LIG d   1      -8.183  72.336 116.967  0.00  0.00     0.038 C 
ATOM      4  C   LIG d   1      -6.952  72.945 117.252  0.00  0.00     0.028 C 
ATOM      5  C   LIG d   1      -6.965  74.457 117.057  0.00  0.00    -0.047 C 
ATOM      6  C   LIG d   1      -8.165  75.053 117.827  0.00  0.00     0.091 C 
ENDROOT
BRANCH   1   7
ATOM      7  O   LIG d   1     -10.507  74.621 118.405  0.00  0.00    -0.368 OA
BRANCH   7   8
ATOM      8  C   LIG d   1     -10.661  73.579 119.400  0.00  0.00     0.119 C 
BRANCH   8   9
ATOM      9  C   LIG d   1     -12.170  73.300 119.547  0.00  0.00     0.028 C 
ATOM     10  C   LIG d   1     -13.035  74.408 118.925  0.00  0.00     0.006 C 
ENDBRANCH   8   9
BRANCH   8  11
ATOM     11  C   LIG d   1     -10.200  74.054 120.781  0.00  0.00     0.028 C 
ATOM     12  C   LIG d   1      -8.754  73.644 121.100  0.00  0.00     0.006 C 
ENDBRANCH   8  11
ENDBRANCH   7   8
ENDBRANCH   1   7
BRANCH   6  13
ATOM     13  N   LIG d   1      -8.300  76.518 117.621  0.00  0.00    -0.311 N 
ATOM     14  C   LIG d   1      -8.248  77.406 118.612  0.00  0.00     0.210 C 
ATOM     15  C   LIG d   1      -8.430  78.865 118.183  0.00  0.00     0.109 C 
ATOM     16  O   LIG d   1      -8.036  77.127 119.801  0.00  0.00    -0.276 OA
ATOM     17  H   LIG d   1      -8.444  76.835 116.682  0.00  0.00     0.149 HD
ENDBRANCH   6  13
BRANCH   5  18
ATOM     18  N   LIG d   1      -5.664  74.977 117.520  0.00  0.00     0.381 N 
ATOM     19  H   LIG d   1      -5.147  74.246 117.966  0.00  0.00    -0.090 HD
ATOM     20  H   LIG d   1      -5.827  75.704 118.194  0.00  0.00    -0.090 HD
ATOM     21  H   LIG d   1      -5.147  75.338 116.749  0.00  0.00    -0.090 HD
ENDBRANCH   5  18
BRANCH   3  22
ATOM     22  C   LIG d   1      -8.179  71.033 116.492  0.00  0.00     0.382 C 
ATOM     23  O   LIG d   1      -7.326  70.677 115.644  0.00  0.00    -0.241 OA
ATOM     24  O   LIG d   1      -9.046  70.221 116.868  0.00  0.00    -0.241 OA
ENDBRANCH   3  22
TORSDOF 7
ENDMDL
MODEL 5
REMARK VINA RESULT:      -5.5     16.867     19.701
REMARK  7 active torsions:
REMARK  status: ('A' for Active; 'I' for Inactive)
REMARK    1  A    between atoms: C_2  and  C_3 
REMARK    2  A    between atoms: C_3  and  O_6 
REMARK    3  A    between atoms: C_3  and  C_4 
REMARK    4  A    between atoms: C_7  and  O_6 
REMARK    5  A    between atoms: C_9  and  C_10 
REMARK    6  A    between atoms: N_15  and  C_14 
REMARK    7  A    between atoms: N_20  and  C_19 
REMARK       I    between atoms: C_22  and  N_20 
ROOT
ATOM      1  C   LIG d   1      -6.207  93.348 118.341  0.00  0.00     0.161 C 
ATOM      2  C   LIG d   1      -6.977  92.433 117.605  0.00  0.00     0.016 C 
ATOM      3  C   LIG d   1      -6.434  91.289 116.975  0.00  0.00     0.038 C 
ATOM      4  C   LIG d   1      -5.101  90.899 117.167  0.00  0.00     0.028 C 
ATOM      5  C   LIG d   1      -4.169  92.063 117.488  0.00  0.00    -0.047 C 
ATOM      6  C   LIG d   1      -4.770  92.879 118.655  0.00  0.00     0.091 C 
ENDROOT
BRANCH   1   7
ATOM      7  O   LIG d   1      -6.896  93.699 119.557  0.00  0.00    -0.368 OA
BRANCH   7   8
ATOM      8  C   LIG d   1      -7.190  95.106 119.740  0.00  0.00     0.119 C 
BRANCH   8   9
ATOM      9  C   LIG d   1      -8.516  95.204 120.519  0.00  0.00     0.028 C 
ATOM     10  C   LIG d   1      -8.823  93.928 121.319  0.00  0.00     0.006 C 
ENDBRANCH   8   9
BRANCH   8  11
ATOM     11  C   LIG d   1      -7.454  95.798 118.400  0.00  0.00     0.028 C 
ATOM     12  C   LIG d   1      -8.941  95.795 118.010  0.00  0.00     0.006 C 
ENDBRANCH   8  11
ENDBRANCH   7   8
ENDBRANCH   1   7
BRANCH   6  13
ATOM     13  N   LIG d   1      -3.964  94.086 118.977  0.00  0.00    -0.311 N 
ATOM     14  C   LIG d   1      -3.017  94.106 119.913  0.00  0.00     0.210 C 
ATOM     15  C   LIG d   1      -2.320  95.458 120.098  0.00  0.00     0.109 C 
ATOM     16  O   LIG d   1      -2.667  93.125 120.586  0.00  0.00    -0.276 OA
ATOM     17  H   LIG d   1      -4.161  94.918 118.457  0.00  0.00     0.149 HD
ENDBRANCH   6  13
BRANCH   5  18
ATOM     18  N   LIG d   1      -2.842  91.499 117.800  0.00  0.00     0.381 N 
ATOM     19  H   LIG d   1      -2.522  91.853 118.679  0.00  0.00    -0.090 HD
ATOM     20  H   LIG d   1      -2.192  91.786 117.089  0.00  0.00    -0.090 HD
ATOM     21  H   LIG d   1      -2.893  90.505 117.832  0.00  0.00    -0.090 HD
ENDBRANCH   5  18
BRANCH   3  22
ATOM     22  C   LIG d   1      -7.220  90.543 116.110  0.00  0.00     0.382 C 
ATOM     23  O   LIG d   1      -6.823  89.422 115.710  0.00  0.00    -0.241 OA
ATOM     24  O   LIG d   1      -8.301  90.997 115.688  0.00  0.00    -0.241 OA
ENDBRANCH   3  22
TORSDOF 7
ENDMDL
MODEL 6
REMARK VINA RESULT:      -5.3      2.653      6.838
REMARK  7 active torsions:
REMARK  status: ('A' for Active; 'I' for Inactive)
REMARK    1  A    between atoms: C_2  and  C_3 
REMARK    2  A    between atoms: C_3  and  O_6 
REMARK    3  A    between atoms: C_3  and  C_4 
REMARK    4  A    between atoms: C_7  and  O_6 
REMARK    5  A    between atoms: C_9  and  C_10 
REMARK    6  A    between atoms: N_15  and  C_14 
REMARK    7  A    between atoms: N_20  and  C_19 
REMARK       I    between atoms: C_22  and  N_20 
ROOT
ATOM      1  C   LIG d   1      -9.740  76.358 118.413  0.00  0.00     0.161 C 
ATOM      2  C   LIG d   1     -10.295  77.445 119.107  0.00  0.00     0.016 C 
ATOM      3  C   LIG d   1      -9.701  78.727 119.150  0.00  0.00     0.038 C 
ATOM      4  C   LIG d   1      -8.580  79.051 118.370  0.00  0.00     0.028 C 
ATOM      5  C   LIG d   1      -7.697  77.849 118.050  0.00  0.00    -0.047 C 
ATOM      6  C   LIG d   1      -8.577  76.721 117.466  0.00  0.00     0.091 C 
ENDROOT
BRANCH   1   7
ATOM      7  O   LIG d   1     -10.774  75.659 117.692  0.00  0.00    -0.368 OA
BRANCH   7   8
ATOM      8  C   LIG d   1     -10.979  74.271 118.056  0.00  0.00     0.119 C 
BRANCH   8   9
ATOM      9  C   LIG d   1     -10.751  73.422 116.791  0.00  0.00     0.028 C 
ATOM     10  C   LIG d   1      -9.957  72.138 117.081  0.00  0.00     0.006 C 
ENDBRANCH   8   9
BRANCH   8  11
ATOM     11  C   LIG d   1     -12.432  74.011 118.464  0.00  0.00     0.028 C 
ATOM     12  C   LIG d   1     -12.552  73.307 119.825  0.00  0.00     0.006 C 
ENDBRANCH   8  11
ENDBRANCH   7   8
ENDBRANCH   1   7
BRANCH   6  13
ATOM     13  N   LIG d   1      -7.805  75.478 117.204  0.00  0.00    -0.311 N 
ATOM     14  C   LIG d   1      -7.321  75.155 116.006  0.00  0.00     0.210 C 
ATOM     15  C   LIG d   1      -6.572  73.820 115.950  0.00  0.00     0.109 C 
ATOM     16  O   LIG d   1      -7.413  75.862 114.991  0.00  0.00    -0.276 OA
ATOM     17  H   LIG d   1      -7.657  74.862 117.978  0.00  0.00     0.149 HD
ENDBRANCH   6  13
BRANCH   5  18
ATOM     18  N   LIG d   1      -6.646  78.304 117.120  0.00  0.00     0.381 N 
ATOM     19  H   LIG d   1      -6.470  77.596 116.436  0.00  0.00    -0.090 HD
ATOM     20  H   LIG d   1      -5.799  78.459 117.638  0.00  0.00    -0.090 HD
ATOM     21  H   LIG d   1      -6.929  79.147 116.672  0.00  0.00    -0.090 HD
ENDBRANCH   5  18
BRANCH   3  22
ATOM     22  C   LIG d   1     -10.205  79.690 120.010  0.00  0.00     0.382 C 
ATOM     23  O   LIG d   1     -10.024  80.907 119.764  0.00  0.00    -0.241 OA
ATOM     24  O   LIG d   1     -10.799  79.357 121.053  0.00  0.00    -0.241 OA
ENDBRANCH   3  22
TORSDOF 7
ENDMDL
MODEL 7
REMARK VINA RESULT:      -5.3      2.182      4.838
REMARK  7 active torsions:
REMARK  status: ('A' for Active; 'I' for Inactive)
REMARK    1  A    between atoms: C_2  and  C_3 
REMARK    2  A    between atoms: C_3  and  O_6 
REMARK    3  A    between atoms: C_3  and  C_4 
REMARK    4  A    between atoms: C_7  and  O_6 
REMARK    5  A    between atoms: C_9  and  C_10 
REMARK    6  A    between atoms: N_15  and  C_14 
REMARK    7  A    between atoms: N_20  and  C_19 
REMARK       I    between atoms: C_22  and  N_20 
ROOT
ATOM      1  C   LIG d   1      -9.036  74.173 117.882  0.00  0.00     0.161 C 
ATOM      2  C   LIG d   1     -10.409  73.922 118.036  0.00  0.00     0.016 C 
ATOM      3  C   LIG d   1     -11.368  74.941 118.239  0.00  0.00     0.038 C 
ATOM      4  C   LIG d   1     -11.035  76.301 118.152  0.00  0.00     0.028 C 
ATOM      5  C   LIG d   1      -9.580  76.592 118.502  0.00  0.00    -0.047 C 
ATOM      6  C   LIG d   1      -8.669  75.657 117.673  0.00  0.00     0.091 C 
ENDROOT
BRANCH   1   7
ATOM      7  O   LIG d   1      -8.510  73.371 116.807  0.00  0.00    -0.368 OA
BRANCH   7   8
ATOM      8  C   LIG d   1      -7.610  72.301 117.190  0.00  0.00     0.119 C 
BRANCH   8   9
ATOM      9  C   LIG d   1      -6.189  72.717 116.764  0.00  0.00     0.028 C 
ATOM     10  C   LIG d   1      -6.177  73.492 115.436  0.00  0.00     0.006 C 
ENDBRANCH   8   9
BRANCH   8  11
ATOM     11  C   LIG d   1      -7.908  71.017 116.412  0.00  0.00     0.028 C 
ATOM     12  C   LIG d   1      -9.366  70.554 116.560  0.00  0.00     0.006 C 
ENDBRANCH   8  11
ENDBRANCH   7   8
ENDBRANCH   1   7
BRANCH   6  13
ATOM     13  N   LIG d   1      -7.231  75.818 118.016  0.00  0.00    -0.311 N 
ATOM     14  C   LIG d   1      -6.396  76.595 117.329  0.00  0.00     0.210 C 
ATOM     15  C   LIG d   1      -4.952  76.602 117.838  0.00  0.00     0.109 C 
ATOM     16  O   LIG d   1      -6.722  77.305 116.365  0.00  0.00    -0.276 OA
ATOM     17  H   LIG d   1      -6.890  75.302 118.803  0.00  0.00     0.149 HD
ENDBRANCH   6  13
BRANCH   5  18
ATOM     18  N   LIG d   1      -9.335  78.022 118.236  0.00  0.00     0.381 N 
ATOM     19  H   LIG d   1      -8.762  78.122 117.422  0.00  0.00    -0.090 HD
ATOM     20  H   LIG d   1      -8.844  78.418 119.018  0.00  0.00    -0.090 HD
ATOM     21  H   LIG d   1     -10.200  78.497 118.103  0.00  0.00    -0.090 HD
ENDBRANCH   5  18
BRANCH   3  22
ATOM     22  C   LIG d   1     -12.671  74.602 118.574  0.00  0.00     0.382 C 
ATOM     23  O   LIG d   1     -12.891  73.609 119.308  0.00  0.00    -0.241 OA
ATOM     24  O   LIG d   1     -13.630  75.250 118.114  0.00  0.00    -0.241 OA
ENDBRANCH   3  22
TORSDOF 7
ENDMDL
MODEL 8
REMARK VINA RESULT:      -5.3     16.404     18.534
REMARK  7 active torsions:
REMARK  status: ('A' for Active; 'I' for Inactive)
REMARK    1  A    between atoms: C_2  and  C_3 
REMARK    2  A    between atoms: C_3  and  O_6 
REMARK    3  A    between atoms: C_3  and  C_4 
REMARK    4  A    between atoms: C_7  and  O_6 
REMARK    5  A    between atoms: C_9  and  C_10 
REMARK    6  A    between atoms: N_15  and  C_14 
REMARK    7  A    between atoms: N_20  and  C_19 
REMARK       I    between atoms: C_22  and  N_20 
ROOT
ATOM      1  C   LIG d   1      -4.608  91.273 118.160  0.00  0.00     0.161 C 
ATOM      2  C   LIG d   1      -5.462  90.684 117.213  0.00  0.00     0.016 C 
ATOM      3  C   LIG d   1      -6.599  91.334 116.680  0.00  0.00     0.038 C 
ATOM      4  C   LIG d   1      -6.875  92.683 116.948  0.00  0.00     0.028 C 
ATOM      5  C   LIG d   1      -6.327  93.159 118.289  0.00  0.00    -0.047 C 
ATOM      6  C   LIG d   1      -4.830  92.784 118.380  0.00  0.00     0.091 C 
ENDROOT
BRANCH   1   7
ATOM      7  O   LIG d   1      -3.234  91.014 117.807  0.00  0.00    -0.368 OA
BRANCH   7   8
ATOM      8  C   LIG d   1      -2.484  90.187 118.730  0.00  0.00     0.119 C 
BRANCH   8   9
ATOM      9  C   LIG d   1      -0.990  90.513 118.535  0.00  0.00     0.028 C 
ATOM     10  C   LIG d   1      -0.739  92.019 118.346  0.00  0.00     0.006 C 
ENDBRANCH   8   9
BRANCH   8  11
ATOM     11  C   LIG d   1      -2.622  88.701 118.386  0.00  0.00     0.028 C 
ATOM     12  C   LIG d   1      -1.270  88.023 118.118  0.00  0.00     0.006 C 
ENDBRANCH   8  11
ENDBRANCH   7   8
ENDBRANCH   1   7
BRANCH   6  13
ATOM     13  N   LIG d   1      -4.236  93.139 119.696  0.00  0.00    -0.311 N 
ATOM     14  C   LIG d   1      -3.322  94.094 119.854  0.00  0.00     0.210 C 
ATOM     15  C   LIG d   1      -2.827  94.285 121.291  0.00  0.00     0.109 C 
ATOM     16  O   LIG d   1      -2.897  94.824 118.945  0.00  0.00    -0.276 OA
ATOM     17  H   LIG d   1      -4.547  92.617 120.492  0.00  0.00     0.149 HD
ENDBRANCH   6  13
BRANCH   5  18
ATOM     18  N   LIG d   1      -6.565  94.612 118.377  0.00  0.00     0.381 N 
ATOM     19  H   LIG d   1      -5.720  95.078 118.642  0.00  0.00    -0.090 HD
ATOM     20  H   LIG d   1      -7.257  94.785 119.085  0.00  0.00    -0.090 HD
ATOM     21  H   LIG d   1      -6.883  94.959 117.499  0.00  0.00    -0.090 HD
ENDBRANCH   5  18
BRANCH   3  22
ATOM     22  C   LIG d   1      -7.496  90.620 115.900  0.00  0.00     0.382 C 
ATOM     23  O   LIG d   1      -7.354  89.381 115.756  0.00  0.00    -0.241 OA
ATOM     24  O   LIG d   1      -8.419  91.205 115.303  0.00  0.00    -0.241 OA
ENDBRANCH   3  22
TORSDOF 7
ENDMDL
MODEL 9
REMARK VINA RESULT:      -5.2     16.985     19.235
REMARK  7 active torsions:
REMARK  status: ('A' for Active; 'I' for Inactive)
REMARK    1  A    between atoms: C_2  and  C_3 
REMARK    2  A    between atoms: C_3  and  O_6 
REMARK    3  A    between atoms: C_3  and  C_4 
REMARK    4  A    between atoms: C_7  and  O_6 
REMARK    5  A    between atoms: C_9  and  C_10 
REMARK    6  A    between atoms: N_15  and  C_14 
REMARK    7  A    between atoms: N_20  and  C_19 
REMARK       I    between atoms: C_22  and  N_20 
ROOT
ATOM      1  C   LIG d   1      -5.433  92.221 119.158  0.00  0.00     0.161 C 
ATOM      2  C   LIG d   1      -5.764  91.246 118.202  0.00  0.00     0.016 C 
ATOM      3  C   LIG d   1      -6.627  91.490 117.109  0.00  0.00     0.038 C 
ATOM      4  C   LIG d   1      -7.102  92.776 116.812  0.00  0.00     0.028 C 
ATOM      5  C   LIG d   1      -7.201  93.683 118.034  0.00  0.00    -0.047 C 
ATOM      6  C   LIG d   1      -5.852  93.659 118.788  0.00  0.00     0.091 C 
ENDROOT
BRANCH   1   7
ATOM      7  O   LIG d   1      -4.021  92.168 119.441  0.00  0.00    -0.368 OA
BRANCH   7   8
ATOM      8  C   LIG d   1      -3.155  91.883 118.314  0.00  0.00     0.119 C 
BRANCH   8   9
ATOM      9  C   LIG d   1      -2.151  90.804 118.763  0.00  0.00     0.028 C 
ATOM     10  C   LIG d   1      -2.567  89.393 118.316  0.00  0.00     0.006 C 
ENDBRANCH   8   9
BRANCH   8  11
ATOM     11  C   LIG d   1      -2.303  93.101 117.945  0.00  0.00     0.028 C 
ATOM     12  C   LIG d   1      -2.198  94.124 119.087  0.00  0.00     0.006 C 
ENDBRANCH   8  11
ENDBRANCH   7   8
ENDBRANCH   1   7
BRANCH   6  13
ATOM     13  N   LIG d   1      -5.890  94.453 120.043  0.00  0.00    -0.311 N 
ATOM     14  C   LIG d   1      -5.487  95.720 120.122  0.00  0.00     0.210 C 
ATOM     15  C   LIG d   1      -5.592  96.347 121.515  0.00  0.00     0.109 C 
ATOM     16  O   LIG d   1      -5.082  96.394 119.162  0.00  0.00    -0.276 OA
ATOM     17  H   LIG d   1      -6.234  93.994 120.864  0.00  0.00     0.149 HD
ENDBRANCH   6  13
BRANCH   5  18
ATOM     18  N   LIG d   1      -7.576  95.029 117.561  0.00  0.00     0.381 N 
ATOM     19  H   LIG d   1      -7.099  95.232 116.705  0.00  0.00    -0.090 HD
ATOM     20  H   LIG d   1      -7.292  95.705 118.248  0.00  0.00    -0.090 HD
ATOM     21  H   LIG d   1      -8.561  95.079 117.421  0.00  0.00    -0.090 HD
ENDBRANCH   5  18
BRANCH   3  22
ATOM     22  C   LIG d   1      -7.056  90.432 116.323  0.00  0.00     0.382 C 
ATOM     23  O   LIG d   1      -8.281  90.176 116.229  0.00  0.00    -0.241 OA
ATOM     24  O   LIG d   1      -6.231  89.702 115.741  0.00  0.00    -0.241 OA
ENDBRANCH   3  22
TORSDOF 7
ENDMDL
