MODEL 1
REMARK VINA RESULT:      -5.6      0.000      0.000
REMARK  7 active torsions:
REMARK  status: ('A' for Active; 'I' for Inactive)
REMARK    1  A    between atoms: C_2  and  C_3 
REMARK    2  A    between atoms: C_3  and  O_6 
REMARK    3  A    between atoms: C_3  and  C_4 
REMARK    4  A    between atoms: C_7  and  O_6 
REMARK    5  A    between atoms: C_9  and  C_10 
REMARK    6  A    between atoms: N_15  and  C_14 
REMARK    7  A    between atoms: N_20  and  C_19 
REMARK       I    between atoms: C_22  and  N_20 
ROOT
ATOM      1  C   LIG d   1      -8.659  75.143 117.525  0.00  0.00     0.161 C 
ATOM      2  C   LIG d   1      -8.565  73.784 117.180  0.00  0.00     0.016 C 
ATOM      3  C   LIG d   1      -7.335  73.104 117.024  0.00  0.00     0.038 C 
ATOM      4  C   LIG d   1      -6.110  73.703 117.353  0.00  0.00     0.028 C 
ATOM      5  C   LIG d   1      -6.123  75.222 117.220  0.00  0.00    -0.047 C 
ATOM      6  C   LIG d   1      -7.336  75.783 117.996  0.00  0.00     0.091 C 
ENDROOT
BRANCH   1   7
ATOM      7  O   LIG d   1      -9.686  75.324 118.520  0.00  0.00    -0.368 OA
BRANCH   7   8
ATOM      8  C   LIG d   1     -10.800  76.168 118.140  0.00  0.00     0.119 C 
BRANCH   8   9
ATOM      9  C   LIG d   1     -11.107  77.094 119.333  0.00  0.00     0.028 C 
ATOM     10  C   LIG d   1     -10.679  78.549 119.073  0.00  0.00     0.006 C 
ENDBRANCH   8   9
BRANCH   8  11
ATOM     11  C   LIG d   1     -12.074  75.347 117.926  0.00  0.00     0.028 C 
ATOM     12  C   LIG d   1     -12.896  75.176 119.214  0.00  0.00     0.006 C 
ENDBRANCH   8  11
ENDBRANCH   7   8
ENDBRANCH   1   7
BRANCH   6  13
ATOM     13  N   LIG d   1      -7.472  77.256 117.849  0.00  0.00    -0.311 N 
ATOM     14  C   LIG d   1      -6.943  78.130 118.703  0.00  0.00     0.210 C 
ATOM     15  C   LIG d   1      -7.219  79.601 118.376  0.00  0.00     0.109 C 
ATOM     16  O   LIG d   1      -6.244  77.828 119.681  0.00  0.00    -0.276 OA
ATOM     17  H   LIG d   1      -7.998  77.589 117.064  0.00  0.00     0.149 HD
ENDBRANCH   6  13
BRANCH   5  18
ATOM     18  N   LIG d   1      -4.831  75.725 117.724  0.00  0.00     0.381 N 
ATOM     19  H   LIG d   1      -4.218  74.957 117.910  0.00  0.00    -0.090 HD
ATOM     20  H   LIG d   1      -4.988  76.218 118.585  0.00  0.00    -0.090 HD
ATOM     21  H   LIG d   1      -4.418  76.335 117.054  0.00  0.00    -0.090 HD
ENDBRANCH   5  18
BRANCH   3  22
ATOM     22  C   LIG d   1      -7.321  71.822 116.496  0.00  0.00     0.382 C 
ATOM     23  O   LIG d   1      -7.859  70.879 117.124  0.00  0.00    -0.241 OA
ATOM     24  O   LIG d   1      -6.738  71.589 115.420  0.00  0.00    -0.241 OA
ENDBRANCH   3  22
TORSDOF 7
ENDMDL
MODEL 2
REMARK VINA RESULT:      -5.5     14.919     16.960
REMARK  7 active torsions:
REMARK  status: ('A' for Active; 'I' for Inactive)
REMARK    1  A    between atoms: C_2  and  C_3 
REMARK    2  A    between atoms: C_3  and  O_6 
REMARK    3  A    between atoms: C_3  and  C_4 
REMARK    4  A    between atoms: C_7  and  O_6 
REMARK    5  A    between atoms: C_9  and  C_10 
REMARK    6  A    between atoms: N_15  and  C_14 
REMARK    7  A    between atoms: N_20  and  C_19 
REMARK       I    between atoms: C_22  and  N_20 
ROOT
ATOM      1  C   LIG d   1      -6.011  91.953 118.664  0.00  0.00     0.161 C 
ATOM      2  C   LIG d   1      -6.833  91.177 117.829  0.00  0.00     0.016 C 
ATOM      3  C   LIG d   1      -6.332  90.320 116.823  0.00  0.00     0.038 C 
ATOM      4  C   LIG d   1      -4.960  90.063 116.683  0.00  0.00     0.028 C 
ATOM      5  C   LIG d   1      -4.077  91.207 117.169  0.00  0.00    -0.047 C 
ATOM      6  C   LIG d   1      -4.510  91.601 118.600  0.00  0.00     0.091 C 
ENDROOT
BRANCH   1   7
ATOM      7  O   LIG d   1      -6.486  91.878 120.022  0.00  0.00    -0.368 OA
BRANCH   7   8
ATOM      8  C   LIG d   1      -7.147  93.062 120.532  0.00  0.00     0.119 C 
BRANCH   8   9
ATOM      9  C   LIG d   1      -8.658  92.762 120.584  0.00  0.00     0.028 C 
ATOM     10  C   LIG d   1      -9.379  93.567 121.678  0.00  0.00     0.006 C 
ENDBRANCH   8   9
BRANCH   8  11
ATOM     11  C   LIG d   1      -7.001  94.242 119.566  0.00  0.00     0.028 C 
ATOM     12  C   LIG d   1      -6.208  95.411 120.170  0.00  0.00     0.006 C 
ENDBRANCH   8  11
ENDBRANCH   7   8
ENDBRANCH   1   7
BRANCH   6  13
ATOM     13  N   LIG d   1      -3.752  92.770 119.120  0.00  0.00    -0.311 N 
ATOM     14  C   LIG d   1      -3.182  92.797 120.323  0.00  0.00     0.210 C 
ATOM     15  C   LIG d   1      -2.466  94.107 120.669  0.00  0.00     0.109 C 
ATOM     16  O   LIG d   1      -3.174  91.850 121.124  0.00  0.00    -0.276 OA
ATOM     17  H   LIG d   1      -3.682  93.570 118.522  0.00  0.00     0.149 HD
ENDBRANCH   6  13
BRANCH   5  18
ATOM     18  N   LIG d   1      -2.676  90.752 117.094  0.00  0.00     0.381 N 
ATOM     19  H   LIG d   1      -2.532  90.235 116.249  0.00  0.00    -0.090 HD
ATOM     20  H   LIG d   1      -2.489  90.143 117.872  0.00  0.00    -0.090 HD
ATOM     21  H   LIG d   1      -2.061  91.535 117.121  0.00  0.00    -0.090 HD
ENDBRANCH   5  18
BRANCH   3  22
ATOM     22  C   LIG d   1      -7.206  89.739 115.917  0.00  0.00     0.382 C 
ATOM     23  O   LIG d   1      -8.243  89.164 116.327  0.00  0.00    -0.241 OA
ATOM     24  O   LIG d   1      -6.949  89.744 114.698  0.00  0.00    -0.241 OA
ENDBRANCH   3  22
TORSDOF 7
ENDMDL
MODEL 3
REMARK VINA RESULT:      -5.3      2.116      4.210
REMARK  7 active torsions:
REMARK  status: ('A' for Active; 'I' for Inactive)
REMARK    1  A    between atoms: C_2  and  C_3 
REMARK    2  A    between atoms: C_3  and  O_6 
REMARK    3  A    between atoms: C_3  and  C_4 
REMARK    4  A    between atoms: C_7  and  O_6 
REMARK    5  A    between atoms: C_9  and  C_10 
REMARK    6  A    between atoms: N_15  and  C_14 
REMARK    7  A    between atoms: N_20  and  C_19 
REMARK       I    between atoms: C_22  and  N_20 
ROOT
ATOM      1  C   LIG d   1      -8.065  74.500 119.432  0.00  0.00     0.161 C 
ATOM      2  C   LIG d   1      -7.519  73.411 118.732  0.00  0.00     0.016 C 
ATOM      3  C   LIG d   1      -8.043  72.931 117.509  0.00  0.00     0.038 C 
ATOM      4  C   LIG d   1      -9.063  73.606 116.823  0.00  0.00     0.028 C 
ATOM      5  C   LIG d   1      -9.977  74.413 117.739  0.00  0.00    -0.047 C 
ATOM      6  C   LIG d   1      -9.110  75.317 118.643  0.00  0.00     0.091 C 
ENDROOT
BRANCH   1   7
ATOM      7  O   LIG d   1      -7.008  75.359 119.902  0.00  0.00    -0.368 OA
BRANCH   7   8
ATOM      8  C   LIG d   1      -6.346  76.164 118.896  0.00  0.00     0.119 C 
BRANCH   8   9
ATOM      9  C   LIG d   1      -4.836  75.866 118.983  0.00  0.00     0.028 C 
ATOM     10  C   LIG d   1      -4.330  75.046 117.784  0.00  0.00     0.006 C 
ENDBRANCH   8   9
BRANCH   8  11
ATOM     11  C   LIG d   1      -6.482  77.659 119.200  0.00  0.00     0.028 C 
ATOM     12  C   LIG d   1      -6.983  78.469 117.994  0.00  0.00     0.006 C 
ENDBRANCH   8  11
ENDBRANCH   7   8
ENDBRANCH   1   7
BRANCH   6  13
ATOM     13  N   LIG d   1      -9.921  76.079 119.628  0.00  0.00    -0.311 N 
ATOM     14  C   LIG d   1     -10.487  77.255 119.359  0.00  0.00     0.210 C 
ATOM     15  C   LIG d   1     -11.263  77.880 120.522  0.00  0.00     0.109 C 
ATOM     16  O   LIG d   1     -10.445  77.824 118.258  0.00  0.00    -0.276 OA
ATOM     17  H   LIG d   1     -10.032  75.676 120.538  0.00  0.00     0.149 HD
ENDBRANCH   6  13
BRANCH   5  18
ATOM     18  N   LIG d   1     -10.908  75.173 116.883  0.00  0.00     0.381 N 
ATOM     19  H   LIG d   1     -10.399  75.845 116.344  0.00  0.00    -0.090 HD
ATOM     20  H   LIG d   1     -11.559  75.665 117.468  0.00  0.00    -0.090 HD
ATOM     21  H   LIG d   1     -11.397  74.552 116.277  0.00  0.00    -0.090 HD
ENDBRANCH   5  18
BRANCH   3  22
ATOM     22  C   LIG d   1      -7.570  71.739 116.981  0.00  0.00     0.382 C 
ATOM     23  O   LIG d   1      -8.079  70.649 117.338  0.00  0.00    -0.241 OA
ATOM     24  O   LIG d   1      -6.612  71.736 116.185  0.00  0.00    -0.241 OA
ENDBRANCH   3  22
TORSDOF 7
ENDMDL
MODEL 4
REMARK VINA RESULT:      -5.3     17.496     19.149
REMARK  7 active torsions:
REMARK  status: ('A' for Active; 'I' for Inactive)
REMARK    1  A    between atoms: C_2  and  C_3 
REMARK    2  A    between atoms: C_3  and  O_6 
REMARK    3  A    between atoms: C_3  and  C_4 
REMARK    4  A    between atoms: C_7  and  O_6 
REMARK    5  A    between atoms: C_9  and  C_10 
REMARK    6  A    between atoms: N_15  and  C_14 
REMARK    7  A    between atoms: N_20  and  C_19 
REMARK       I    between atoms: C_22  and  N_20 
ROOT
ATOM      1  C   LIG d   1       0.873  59.223 118.530  0.00  0.00     0.161 C 
ATOM      2  C   LIG d   1      -0.473  58.960 118.222  0.00  0.00     0.016 C 
ATOM      3  C   LIG d   1      -0.959  58.841 116.900  0.00  0.00     0.038 C 
ATOM      4  C   LIG d   1      -0.099  58.826 115.792  0.00  0.00     0.028 C 
ATOM      5  C   LIG d   1       1.200  59.592 116.023  0.00  0.00    -0.047 C 
ATOM      6  C   LIG d   1       1.845  59.099 117.338  0.00  0.00     0.091 C 
ENDROOT
BRANCH   1   7
ATOM      7  O   LIG d   1       1.300  58.375 119.615  0.00  0.00    -0.368 OA
BRANCH   7   8
ATOM      8  C   LIG d   1       1.370  58.999 120.921  0.00  0.00     0.119 C 
BRANCH   8   9
ATOM      9  C   LIG d   1       1.155  60.512 120.724  0.00  0.00     0.028 C 
ATOM     10  C   LIG d   1       0.037  61.068 121.621  0.00  0.00     0.006 C 
ENDBRANCH   8   9
BRANCH   8  11
ATOM     11  C   LIG d   1       2.769  58.863 121.528  0.00  0.00     0.028 C 
ATOM     12  C   LIG d   1       3.581  60.166 121.451  0.00  0.00     0.006 C 
ENDBRANCH   8  11
ENDBRANCH   7   8
ENDBRANCH   1   7
BRANCH   6  13
ATOM     13  N   LIG d   1       3.077  59.855 117.683  0.00  0.00    -0.311 N 
ATOM     14  C   LIG d   1       4.258  59.276 117.895  0.00  0.00     0.210 C 
ATOM     15  C   LIG d   1       5.394  60.237 118.257  0.00  0.00     0.109 C 
ATOM     16  O   LIG d   1       4.479  58.061 117.785  0.00  0.00    -0.276 OA
ATOM     17  H   LIG d   1       2.995  60.850 117.762  0.00  0.00     0.149 HD
ENDBRANCH   6  13
BRANCH   5  18
ATOM     18  N   LIG d   1       2.058  59.379 114.842  0.00  0.00     0.381 N 
ATOM     19  H   LIG d   1       2.436  60.253 114.536  0.00  0.00    -0.090 HD
ATOM     20  H   LIG d   1       1.500  58.998 114.098  0.00  0.00    -0.090 HD
ATOM     21  H   LIG d   1       2.798  58.750 115.067  0.00  0.00    -0.090 HD
ENDBRANCH   5  18
BRANCH   3  22
ATOM     22  C   LIG d   1      -2.326  58.775 116.674  0.00  0.00     0.382 C 
ATOM     23  O   LIG d   1      -2.816  59.289 115.640  0.00  0.00    -0.241 OA
ATOM     24  O   LIG d   1      -3.080  58.246 117.512  0.00  0.00    -0.241 OA
ENDBRANCH   3  22
TORSDOF 7
ENDMDL
MODEL 5
REMARK VINA RESULT:      -5.2     17.055     18.445
REMARK  7 active torsions:
REMARK  status: ('A' for Active; 'I' for Inactive)
REMARK    1  A    between atoms: C_2  and  C_3 
REMARK    2  A    between atoms: C_3  and  O_6 
REMARK    3  A    between atoms: C_3  and  C_4 
REMARK    4  A    between atoms: C_7  and  O_6 
REMARK    5  A    between atoms: C_9  and  C_10 
REMARK    6  A    between atoms: N_15  and  C_14 
REMARK    7  A    between atoms: N_20  and  C_19 
REMARK       I    between atoms: C_22  and  N_20 
ROOT
ATOM      1  C   LIG d   1      -0.692  60.208 118.168  0.00  0.00     0.161 C 
ATOM      2  C   LIG d   1      -2.043  59.830 118.086  0.00  0.00     0.016 C 
ATOM      3  C   LIG d   1      -2.469  58.560 117.634  0.00  0.00     0.038 C 
ATOM      4  C   LIG d   1      -1.561  57.522 117.374  0.00  0.00     0.028 C 
ATOM      5  C   LIG d   1      -0.179  58.016 116.960  0.00  0.00    -0.047 C 
ATOM      6  C   LIG d   1       0.315  59.052 117.995  0.00  0.00     0.091 C 
ENDROOT
BRANCH   1   7
ATOM      7  O   LIG d   1      -0.453  60.900 119.410  0.00  0.00    -0.368 OA
BRANCH   7   8
ATOM      8  C   LIG d   1      -0.022  60.079 120.523  0.00  0.00     0.119 C 
BRANCH   8   9
ATOM      9  C   LIG d   1      -1.185  60.021 121.533  0.00  0.00     0.028 C 
ATOM     10  C   LIG d   1      -1.853  58.637 121.579  0.00  0.00     0.006 C 
ENDBRANCH   8   9
BRANCH   8  11
ATOM     11  C   LIG d   1       1.139  60.731 121.279  0.00  0.00     0.028 C 
ATOM     12  C   LIG d   1       0.672  61.782 122.298  0.00  0.00     0.006 C 
ENDBRANCH   8  11
ENDBRANCH   7   8
ENDBRANCH   1   7
BRANCH   6  13
ATOM     13  N   LIG d   1       1.624  59.648 117.620  0.00  0.00    -0.311 N 
ATOM     14  C   LIG d   1       2.789  59.218 118.099  0.00  0.00     0.210 C 
ATOM     15  C   LIG d   1       4.017  59.985 117.599  0.00  0.00     0.109 C 
ATOM     16  O   LIG d   1       2.926  58.253 118.867  0.00  0.00    -0.276 OA
ATOM     17  H   LIG d   1       1.608  60.416 116.977  0.00  0.00     0.149 HD
ENDBRANCH   6  13
BRANCH   5  18
ATOM     18  N   LIG d   1       0.702  56.837 116.855  0.00  0.00     0.381 N 
ATOM     19  H   LIG d   1       0.195  56.012 117.106  0.00  0.00    -0.090 HD
ATOM     20  H   LIG d   1       1.467  56.946 117.498  0.00  0.00    -0.090 HD
ATOM     21  H   LIG d   1       1.049  56.753 115.925  0.00  0.00    -0.090 HD
ENDBRANCH   5  18
BRANCH   3  22
ATOM     22  C   LIG d   1      -3.816  58.331 117.399  0.00  0.00     0.382 C 
ATOM     23  O   LIG d   1      -4.287  57.174 117.524  0.00  0.00    -0.241 OA
ATOM     24  O   LIG d   1      -4.558  59.257 117.020  0.00  0.00    -0.241 OA
ENDBRANCH   3  22
TORSDOF 7
ENDMDL
MODEL 6
REMARK VINA RESULT:      -5.2     17.040     18.759
REMARK  7 active torsions:
REMARK  status: ('A' for Active; 'I' for Inactive)
REMARK    1  A    between atoms: C_2  and  C_3 
REMARK    2  A    between atoms: C_3  and  O_6 
REMARK    3  A    between atoms: C_3  and  C_4 
REMARK    4  A    between atoms: C_7  and  O_6 
REMARK    5  A    between atoms: C_9  and  C_10 
REMARK    6  A    between atoms: N_15  and  C_14 
REMARK    7  A    between atoms: N_20  and  C_19 
REMARK       I    between atoms: C_22  and  N_20 
ROOT
ATOM      1  C   LIG d   1       0.972  59.155 118.856  0.00  0.00     0.161 C 
ATOM      2  C   LIG d   1       2.329  59.411 119.114  0.00  0.00     0.016 C 
ATOM      3  C   LIG d   1       3.288  59.623 118.097  0.00  0.00     0.038 C 
ATOM      4  C   LIG d   1       2.924  59.744 116.748  0.00  0.00     0.028 C 
ATOM      5  C   LIG d   1       1.645  58.992 116.396  0.00  0.00    -0.047 C 
ATOM      6  C   LIG d   1       0.536  59.394 117.396  0.00  0.00     0.091 C 
ENDROOT
BRANCH   1   7
ATOM      7  O   LIG d   1       0.150  59.924 119.757  0.00  0.00    -0.368 OA
BRANCH   7   8
ATOM      8  C   LIG d   1      -0.260  59.254 120.974  0.00  0.00     0.119 C 
BRANCH   8   9
ATOM      9  C   LIG d   1      -1.687  58.718 120.749  0.00  0.00     0.028 C 
ATOM     10  C   LIG d   1      -2.734  59.843 120.684  0.00  0.00     0.006 C 
ENDBRANCH   8   9
BRANCH   8  11
ATOM     11  C   LIG d   1      -0.377  60.240 122.140  0.00  0.00     0.028 C 
ATOM     12  C   LIG d   1       0.522  61.475 121.969  0.00  0.00     0.006 C 
ENDBRANCH   8  11
ENDBRANCH   7   8
ENDBRANCH   1   7
BRANCH   6  13
ATOM     13  N   LIG d   1      -0.726  58.640 117.175  0.00  0.00    -0.311 N 
ATOM     14  C   LIG d   1      -1.925  59.218 117.124  0.00  0.00     0.210 C 
ATOM     15  C   LIG d   1      -3.098  58.256 116.907  0.00  0.00     0.109 C 
ATOM     16  O   LIG d   1      -2.126  60.439 117.205  0.00  0.00    -0.276 OA
ATOM     17  H   LIG d   1      -0.652  57.648 117.067  0.00  0.00     0.149 HD
ENDBRANCH   6  13
BRANCH   5  18
ATOM     18  N   LIG d   1       1.307  59.316 114.997  0.00  0.00     0.381 N 
ATOM     19  H   LIG d   1       0.433  59.802 114.963  0.00  0.00    -0.090 HD
ATOM     20  H   LIG d   1       1.213  58.460 114.479  0.00  0.00    -0.090 HD
ATOM     21  H   LIG d   1       2.024  59.879 114.595  0.00  0.00    -0.090 HD
ENDBRANCH   5  18
BRANCH   3  22
ATOM     22  C   LIG d   1       4.635  59.676 118.423  0.00  0.00     0.382 C 
ATOM     23  O   LIG d   1       5.503  59.570 117.523  0.00  0.00    -0.241 OA
ATOM     24  O   LIG d   1       4.994  59.785 119.611  0.00  0.00    -0.241 OA
ENDBRANCH   3  22
TORSDOF 7
ENDMDL
MODEL 7
REMARK VINA RESULT:      -5.2     15.065     16.775
REMARK  7 active torsions:
REMARK  status: ('A' for Active; 'I' for Inactive)
REMARK    1  A    between atoms: C_2  and  C_3 
REMARK    2  A    between atoms: C_3  and  O_6 
REMARK    3  A    between atoms: C_3  and  C_4 
REMARK    4  A    between atoms: C_7  and  O_6 
REMARK    5  A    between atoms: C_9  and  C_10 
REMARK    6  A    between atoms: N_15  and  C_14 
REMARK    7  A    between atoms: N_20  and  C_19 
REMARK       I    between atoms: C_22  and  N_20 
ROOT
ATOM      1  C   LIG d   1      -4.112  90.665 118.201  0.00  0.00     0.161 C 
ATOM      2  C   LIG d   1      -4.451  90.154 116.937  0.00  0.00     0.016 C 
ATOM      3  C   LIG d   1      -5.606  90.548 116.223  0.00  0.00     0.038 C 
ATOM      4  C   LIG d   1      -6.426  91.598 116.661  0.00  0.00     0.028 C 
ATOM      5  C   LIG d   1      -6.404  91.794 118.173  0.00  0.00    -0.047 C 
ATOM      6  C   LIG d   1      -4.935  91.892 118.645  0.00  0.00     0.091 C 
ENDROOT
BRANCH   1   7
ATOM      7  O   LIG d   1      -2.703  90.965 118.245  0.00  0.00    -0.368 OA
BRANCH   7   8
ATOM      8  C   LIG d   1      -1.942  90.302 119.286  0.00  0.00     0.119 C 
BRANCH   8   9
ATOM      9  C   LIG d   1      -0.686  89.698 118.628  0.00  0.00     0.028 C 
ATOM     10  C   LIG d   1      -0.388  90.319 117.253  0.00  0.00     0.006 C 
ENDBRANCH   8   9
BRANCH   8  11
ATOM     11  C   LIG d   1      -2.711  89.109 119.863  0.00  0.00     0.028 C 
ATOM     12  C   LIG d   1      -1.785  87.983 120.349  0.00  0.00     0.006 C 
ENDBRANCH   8  11
ENDBRANCH   7   8
ENDBRANCH   1   7
BRANCH   6  13
ATOM     13  N   LIG d   1      -4.821  92.001 120.122  0.00  0.00    -0.311 N 
ATOM     14  C   LIG d   1      -4.334  93.074 120.743  0.00  0.00     0.210 C 
ATOM     15  C   LIG d   1      -4.285  92.971 122.271  0.00  0.00     0.109 C 
ATOM     16  O   LIG d   1      -3.969  94.114 120.175  0.00  0.00    -0.276 OA
ATOM     17  H   LIG d   1      -5.124  91.214 120.662  0.00  0.00     0.149 HD
ENDBRANCH   6  13
BRANCH   5  18
ATOM     18  N   LIG d   1      -7.191  93.004 118.477  0.00  0.00     0.381 N 
ATOM     19  H   LIG d   1      -6.848  93.775 117.940  0.00  0.00    -0.090 HD
ATOM     20  H   LIG d   1      -7.084  93.225 119.451  0.00  0.00    -0.090 HD
ATOM     21  H   LIG d   1      -8.153  92.846 118.268  0.00  0.00    -0.090 HD
ENDBRANCH   5  18
BRANCH   3  22
ATOM     22  C   LIG d   1      -5.972  89.860 115.076  0.00  0.00     0.382 C 
ATOM     23  O   LIG d   1      -7.095  90.062 114.555  0.00  0.00    -0.241 OA
ATOM     24  O   LIG d   1      -5.211  89.007 114.580  0.00  0.00    -0.241 OA
ENDBRANCH   3  22
TORSDOF 7
ENDMDL
MODEL 8
REMARK VINA RESULT:      -5.1     15.325     17.263
REMARK  7 active torsions:
REMARK  status: ('A' for Active; 'I' for Inactive)
REMARK    1  A    between atoms: C_2  and  C_3 
REMARK    2  A    between atoms: C_3  and  O_6 
REMARK    3  A    between atoms: C_3  and  C_4 
REMARK    4  A    between atoms: C_7  and  O_6 
REMARK    5  A    between atoms: C_9  and  C_10 
REMARK    6  A    between atoms: N_15  and  C_14 
REMARK    7  A    between atoms: N_20  and  C_19 
REMARK       I    between atoms: C_22  and  N_20 
ROOT
ATOM      1  C   LIG d   1      -4.622  90.657 118.956  0.00  0.00     0.161 C 
ATOM      2  C   LIG d   1      -4.855  90.085 117.695  0.00  0.00     0.016 C 
ATOM      3  C   LIG d   1      -5.838  90.557 116.795  0.00  0.00     0.038 C 
ATOM      4  C   LIG d   1      -6.557  91.737 117.036  0.00  0.00     0.028 C 
ATOM      5  C   LIG d   1      -6.712  92.061 118.518  0.00  0.00    -0.047 C 
ATOM      6  C   LIG d   1      -5.320  92.013 119.190  0.00  0.00     0.091 C 
ENDROOT
BRANCH   1   7
ATOM      7  O   LIG d   1      -3.204  90.778 119.184  0.00  0.00    -0.368 OA
BRANCH   7   8
ATOM      8  C   LIG d   1      -2.394  91.067 118.018  0.00  0.00     0.119 C 
BRANCH   8   9
ATOM      9  C   LIG d   1      -1.172  90.129 118.058  0.00  0.00     0.028 C 
ATOM     10  C   LIG d   1      -0.155  90.441 116.949  0.00  0.00     0.006 C 
ENDBRANCH   8   9
BRANCH   8  11
ATOM     11  C   LIG d   1      -1.818  92.485 118.076  0.00  0.00     0.028 C 
ATOM     12  C   LIG d   1      -1.747  93.041 119.508  0.00  0.00     0.006 C 
ENDBRANCH   8  11
ENDBRANCH   7   8
ENDBRANCH   1   7
BRANCH   6  13
ATOM     13  N   LIG d   1      -5.392  92.236 120.657  0.00  0.00    -0.311 N 
ATOM     14  C   LIG d   1      -5.221  93.427 121.227  0.00  0.00     0.210 C 
ATOM     15  C   LIG d   1      -5.315  93.432 122.756  0.00  0.00     0.109 C 
ATOM     16  O   LIG d   1      -5.032  94.486 120.610  0.00  0.00    -0.276 OA
ATOM     17  H   LIG d   1      -5.572  91.436 121.232  0.00  0.00     0.149 HD
ENDBRANCH   6  13
BRANCH   5  18
ATOM     18  N   LIG d   1      -7.358  93.383 118.620  0.00  0.00     0.381 N 
ATOM     19  H   LIG d   1      -8.348  93.270 118.712  0.00  0.00    -0.090 HD
ATOM     20  H   LIG d   1      -7.177  93.900 117.778  0.00  0.00    -0.090 HD
ATOM     21  H   LIG d   1      -6.999  93.878 119.406  0.00  0.00    -0.090 HD
ENDBRANCH   5  18
BRANCH   3  22
ATOM     22  C   LIG d   1      -6.138  89.823 115.657  0.00  0.00     0.382 C 
ATOM     23  O   LIG d   1      -7.332  89.680 115.301  0.00  0.00    -0.241 OA
ATOM     24  O   LIG d   1      -5.232  89.267 115.008  0.00  0.00    -0.241 OA
ENDBRANCH   3  22
TORSDOF 7
ENDMDL
MODEL 9
REMARK VINA RESULT:      -5.1      2.359      6.316
REMARK  7 active torsions:
REMARK  status: ('A' for Active; 'I' for Inactive)
REMARK    1  A    between atoms: C_2  and  C_3 
REMARK    2  A    between atoms: C_3  and  O_6 
REMARK    3  A    between atoms: C_3  and  C_4 
REMARK    4  A    between atoms: C_7  and  O_6 
REMARK    5  A    between atoms: C_9  and  C_10 
REMARK    6  A    between atoms: N_15  and  C_14 
REMARK    7  A    between atoms: N_20  and  C_19 
REMARK       I    between atoms: C_22  and  N_20 
ROOT
ATOM      1  C   LIG d   1      -7.658  76.007 117.928  0.00  0.00     0.161 C 
ATOM      2  C   LIG d   1      -7.929  77.328 118.323  0.00  0.00     0.016 C 
ATOM      3  C   LIG d   1      -9.235  77.864 118.403  0.00  0.00     0.038 C 
ATOM      4  C   LIG d   1     -10.376  77.065 118.238  0.00  0.00     0.028 C 
ATOM      5  C   LIG d   1     -10.141  75.851 117.345  0.00  0.00    -0.047 C 
ATOM      6  C   LIG d   1      -8.896  75.089 117.851  0.00  0.00     0.091 C 
ENDROOT
BRANCH   1   7
ATOM      7  O   LIG d   1      -6.661  75.432 118.795  0.00  0.00    -0.368 OA
BRANCH   7   8
ATOM      8  C   LIG d   1      -5.382  75.131 118.184  0.00  0.00     0.119 C 
BRANCH   8   9
ATOM      9  C   LIG d   1      -4.336  76.076 118.808  0.00  0.00     0.028 C 
ATOM     10  C   LIG d   1      -2.955  75.414 118.945  0.00  0.00     0.006 C 
ENDBRANCH   8   9
BRANCH   8  11
ATOM     11  C   LIG d   1      -5.387  75.462 116.689  0.00  0.00     0.028 C 
ATOM     12  C   LIG d   1      -5.159  74.226 115.804  0.00  0.00     0.006 C 
ENDBRANCH   8  11
ENDBRANCH   7   8
ENDBRANCH   1   7
BRANCH   6  13
ATOM     13  N   LIG d   1      -8.546  73.934 116.983  0.00  0.00    -0.311 N 
ATOM     14  C   LIG d   1      -8.217  72.734 117.457  0.00  0.00     0.210 C 
ATOM     15  C   LIG d   1      -7.872  71.690 116.390  0.00  0.00     0.109 C 
ATOM     16  O   LIG d   1      -8.209  72.425 118.658  0.00  0.00    -0.276 OA
ATOM     17  H   LIG d   1      -8.557  74.088 115.994  0.00  0.00     0.149 HD
ENDBRANCH   6  13
BRANCH   5  18
ATOM     18  N   LIG d   1     -11.369  75.035 117.371  0.00  0.00     0.381 N 
ATOM     19  H   LIG d   1     -11.265  74.286 118.026  0.00  0.00    -0.090 HD
ATOM     20  H   LIG d   1     -11.515  74.638 116.459  0.00  0.00    -0.090 HD
ATOM     21  H   LIG d   1     -12.149  75.600 117.623  0.00  0.00    -0.090 HD
ENDBRANCH   5  18
BRANCH   3  22
ATOM     22  C   LIG d   1      -9.407  79.224 118.613  0.00  0.00     0.382 C 
ATOM     23  O   LIG d   1      -8.475  79.907 119.100  0.00  0.00    -0.241 OA
ATOM     24  O   LIG d   1     -10.499  79.768 118.361  0.00  0.00    -0.241 OA
ENDBRANCH   3  22
TORSDOF 7
ENDMDL
