MODEL 1
REMARK VINA RESULT:      -6.2      0.000      0.000
REMARK  7 active torsions:
REMARK  status: ('A' for Active; 'I' for Inactive)
REMARK    1  A    between atoms: C_2  and  C_3 
REMARK    2  A    between atoms: C_3  and  O_6 
REMARK    3  A    between atoms: C_3  and  C_4 
REMARK    4  A    between atoms: C_7  and  O_6 
REMARK    5  A    between atoms: C_9  and  C_10 
REMARK    6  A    between atoms: N_15  and  C_14 
REMARK    7  A    between atoms: N_20  and  C_19 
REMARK       I    between atoms: C_22  and  N_20 
ROOT
ATOM      1  C   LIG d   1      -7.280  77.470 117.274  0.00  0.00     0.161 C 
ATOM      2  C   LIG d   1      -8.512  78.120 117.458  0.00  0.00     0.016 C 
ATOM      3  C   LIG d   1      -8.630  79.503 117.726  0.00  0.00     0.038 C 
ATOM      4  C   LIG d   1      -7.524  80.364 117.678  0.00  0.00     0.028 C 
ATOM      5  C   LIG d   1      -6.203  79.672 117.995  0.00  0.00    -0.047 C 
ATOM      6  C   LIG d   1      -6.070  78.413 117.108  0.00  0.00     0.091 C 
ENDROOT
BRANCH   1   7
ATOM      7  O   LIG d   1      -7.366  76.565 116.156  0.00  0.00    -0.368 OA
BRANCH   7   8
ATOM      8  C   LIG d   1      -7.597  75.172 116.480  0.00  0.00     0.119 C 
BRANCH   8   9
ATOM      9  C   LIG d   1      -6.507  74.345 115.771  0.00  0.00     0.028 C 
ATOM     10  C   LIG d   1      -5.915  75.075 114.553  0.00  0.00     0.006 C 
ENDBRANCH   8   9
BRANCH   8  11
ATOM     11  C   LIG d   1      -8.924  74.677 115.898  0.00  0.00     0.028 C 
ATOM     12  C   LIG d   1      -9.035  73.144 115.887  0.00  0.00     0.006 C 
ENDBRANCH   8  11
ENDBRANCH   7   8
ENDBRANCH   1   7
BRANCH   6  13
ATOM     13  N   LIG d   1      -4.844  77.631 117.415  0.00  0.00    -0.311 N 
ATOM     14  C   LIG d   1      -3.872  77.415 116.531  0.00  0.00     0.210 C 
ATOM     15  C   LIG d   1      -2.705  76.566 117.046  0.00  0.00     0.109 C 
ATOM     16  O   LIG d   1      -3.849  77.874 115.379  0.00  0.00    -0.276 OA
ATOM     17  H   LIG d   1      -4.766  77.248 118.337  0.00  0.00     0.149 HD
ENDBRANCH   6  13
BRANCH   5  18
ATOM     18  N   LIG d   1      -5.122  80.652 117.775  0.00  0.00     0.381 N 
ATOM     19  H   LIG d   1      -4.522  80.680 118.575  0.00  0.00    -0.090 HD
ATOM     20  H   LIG d   1      -5.529  81.563 117.654  0.00  0.00    -0.090 HD
ATOM     21  H   LIG d   1      -4.597  80.404 116.965  0.00  0.00    -0.090 HD
ENDBRANCH   5  18
BRANCH   3  22
ATOM     22  C   LIG d   1      -9.861  80.030 118.085  0.00  0.00     0.382 C 
ATOM     23  O   LIG d   1     -10.501  80.739 117.271  0.00  0.00    -0.241 OA
ATOM     24  O   LIG d   1     -10.319  79.844 119.228  0.00  0.00    -0.241 OA
ENDBRANCH   3  22
TORSDOF 7
ENDMDL
MODEL 2
REMARK VINA RESULT:      -6.0      9.220     11.559
REMARK  7 active torsions:
REMARK  status: ('A' for Active; 'I' for Inactive)
REMARK    1  A    between atoms: C_2  and  C_3 
REMARK    2  A    between atoms: C_3  and  O_6 
REMARK    3  A    between atoms: C_3  and  C_4 
REMARK    4  A    between atoms: C_7  and  O_6 
REMARK    5  A    between atoms: C_9  and  C_10 
REMARK    6  A    between atoms: N_15  and  C_14 
REMARK    7  A    between atoms: N_20  and  C_19 
REMARK       I    between atoms: C_22  and  N_20 
ROOT
ATOM      1  C   LIG d   1       0.190  82.562 110.813  0.00  0.00     0.161 C 
ATOM      2  C   LIG d   1      -1.053  82.507 111.466  0.00  0.00     0.016 C 
ATOM      3  C   LIG d   1      -1.194  82.268 112.853  0.00  0.00     0.038 C 
ATOM      4  C   LIG d   1      -0.087  82.218 113.712  0.00  0.00     0.028 C 
ATOM      5  C   LIG d   1       1.196  81.765 113.023  0.00  0.00    -0.047 C 
ATOM      6  C   LIG d   1       1.412  82.620 111.754  0.00  0.00     0.091 C 
ENDROOT
BRANCH   1   7
ATOM      7  O   LIG d   1       0.211  83.673 109.895  0.00  0.00    -0.368 OA
BRANCH   7   8
ATOM      8  C   LIG d   1       0.298  84.991 110.491  0.00  0.00     0.119 C 
BRANCH   8   9
ATOM      9  C   LIG d   1      -0.886  85.820 109.957  0.00  0.00     0.028 C 
ATOM     10  C   LIG d   1      -1.471  86.761 111.023  0.00  0.00     0.006 C 
ENDBRANCH   8   9
BRANCH   8  11
ATOM     11  C   LIG d   1       1.555  85.731 110.025  0.00  0.00     0.028 C 
ATOM     12  C   LIG d   1       2.218  86.545 111.147  0.00  0.00     0.006 C 
ENDBRANCH   8  11
ENDBRANCH   7   8
ENDBRANCH   1   7
BRANCH   6  13
ATOM     13  N   LIG d   1       2.600  82.186 110.974  0.00  0.00    -0.311 N 
ATOM     14  C   LIG d   1       3.807  82.733 111.111  0.00  0.00     0.210 C 
ATOM     15  C   LIG d   1       4.889  82.151 110.196  0.00  0.00     0.109 C 
ATOM     16  O   LIG d   1       4.091  83.623 111.927  0.00  0.00    -0.276 OA
ATOM     17  H   LIG d   1       2.466  81.448 110.311  0.00  0.00     0.149 HD
ENDBRANCH   6  13
BRANCH   5  18
ATOM     18  N   LIG d   1       2.295  81.890 113.999  0.00  0.00     0.381 N 
ATOM     19  H   LIG d   1       2.879  81.079 113.957  0.00  0.00    -0.090 HD
ATOM     20  H   LIG d   1       1.904  81.950 114.923  0.00  0.00    -0.090 HD
ATOM     21  H   LIG d   1       2.832  82.706 113.804  0.00  0.00    -0.090 HD
ENDBRANCH   5  18
BRANCH   3  22
ATOM     22  C   LIG d   1      -2.453  82.037 113.385  0.00  0.00     0.382 C 
ATOM     23  O   LIG d   1      -3.427  81.822 112.624  0.00  0.00    -0.241 OA
ATOM     24  O   LIG d   1      -2.636  82.084 114.617  0.00  0.00    -0.241 OA
ENDBRANCH   3  22
TORSDOF 7
ENDMDL
MODEL 3
REMARK VINA RESULT:      -5.9      9.776     12.976
REMARK  7 active torsions:
REMARK  status: ('A' for Active; 'I' for Inactive)
REMARK    1  A    between atoms: C_2  and  C_3 
REMARK    2  A    between atoms: C_3  and  O_6 
REMARK    3  A    between atoms: C_3  and  C_4 
REMARK    4  A    between atoms: C_7  and  O_6 
REMARK    5  A    between atoms: C_9  and  C_10 
REMARK    6  A    between atoms: N_15  and  C_14 
REMARK    7  A    between atoms: N_20  and  C_19 
REMARK       I    between atoms: C_22  and  N_20 
ROOT
ATOM      1  C   LIG d   1       1.132  83.145 111.572  0.00  0.00     0.161 C 
ATOM      2  C   LIG d   1       2.487  82.926 111.270  0.00  0.00     0.016 C 
ATOM      3  C   LIG d   1       2.934  81.918 110.386  0.00  0.00     0.038 C 
ATOM      4  C   LIG d   1       2.040  81.153 109.621  0.00  0.00     0.028 C 
ATOM      5  C   LIG d   1       0.669  80.996 110.269  0.00  0.00    -0.047 C 
ATOM      6  C   LIG d   1       0.137  82.393 110.663  0.00  0.00     0.091 C 
ENDROOT
BRANCH   1   7
ATOM      7  O   LIG d   1       0.851  84.558 111.562  0.00  0.00    -0.368 OA
BRANCH   7   8
ATOM      8  C   LIG d   1       1.354  85.299 110.422  0.00  0.00     0.119 C 
BRANCH   8   9
ATOM      9  C   LIG d   1       1.898  86.642 110.947  0.00  0.00     0.028 C 
ATOM     10  C   LIG d   1       3.333  86.523 111.487  0.00  0.00     0.006 C 
ENDBRANCH   8   9
BRANCH   8  11
ATOM     11  C   LIG d   1       0.224  85.669 109.456  0.00  0.00     0.028 C 
ATOM     12  C   LIG d   1      -1.105  85.951 110.174  0.00  0.00     0.006 C 
ENDBRANCH   8  11
ENDBRANCH   7   8
ENDBRANCH   1   7
BRANCH   6  13
ATOM     13  N   LIG d   1      -1.163  82.324 111.379  0.00  0.00    -0.311 N 
ATOM     14  C   LIG d   1      -1.345  81.629 112.501  0.00  0.00     0.210 C 
ATOM     15  C   LIG d   1      -2.769  81.675 113.066  0.00  0.00     0.109 C 
ATOM     16  O   LIG d   1      -0.456  81.006 113.100  0.00  0.00    -0.276 OA
ATOM     17  H   LIG d   1      -1.931  82.826 110.980  0.00  0.00     0.149 HD
ENDBRANCH   6  13
BRANCH   5  18
ATOM     18  N   LIG d   1      -0.202  80.297 109.305  0.00  0.00     0.381 N 
ATOM     19  H   LIG d   1      -1.003  79.929 109.778  0.00  0.00    -0.090 HD
ATOM     20  H   LIG d   1       0.308  79.530 108.904  0.00  0.00    -0.090 HD
ATOM     21  H   LIG d   1      -0.490  80.925 108.588  0.00  0.00    -0.090 HD
ENDBRANCH   5  18
BRANCH   3  22
ATOM     22  C   LIG d   1       4.289  81.640 110.289  0.00  0.00     0.382 C 
ATOM     23  O   LIG d   1       5.131  82.486 110.674  0.00  0.00    -0.241 OA
ATOM     24  O   LIG d   1       4.680  80.572 109.781  0.00  0.00    -0.241 OA
ENDBRANCH   3  22
TORSDOF 7
ENDMDL
MODEL 4
REMARK VINA RESULT:      -5.9      2.135      5.363
REMARK  7 active torsions:
REMARK  status: ('A' for Active; 'I' for Inactive)
REMARK    1  A    between atoms: C_2  and  C_3 
REMARK    2  A    between atoms: C_3  and  O_6 
REMARK    3  A    between atoms: C_3  and  C_4 
REMARK    4  A    between atoms: C_7  and  O_6 
REMARK    5  A    between atoms: C_9  and  C_10 
REMARK    6  A    between atoms: N_15  and  C_14 
REMARK    7  A    between atoms: N_20  and  C_19 
REMARK       I    between atoms: C_22  and  N_20 
ROOT
ATOM      1  C   LIG d   1      -6.747  76.188 116.473  0.00  0.00     0.161 C 
ATOM      2  C   LIG d   1      -7.643  75.107 116.439  0.00  0.00     0.016 C 
ATOM      3  C   LIG d   1      -7.241  73.770 116.212  0.00  0.00     0.038 C 
ATOM      4  C   LIG d   1      -5.888  73.402 116.154  0.00  0.00     0.028 C 
ATOM      5  C   LIG d   1      -4.974  74.527 115.680  0.00  0.00    -0.047 C 
ATOM      6  C   LIG d   1      -5.256  75.792 116.522  0.00  0.00     0.091 C 
ENDROOT
BRANCH   1   7
ATOM      7  O   LIG d   1      -7.071  77.057 117.576  0.00  0.00    -0.368 OA
BRANCH   7   8
ATOM      8  C   LIG d   1      -7.394  78.428 117.235  0.00  0.00     0.119 C 
BRANCH   8   9
ATOM      9  C   LIG d   1      -6.439  79.339 118.030  0.00  0.00     0.028 C 
ATOM     10  C   LIG d   1      -5.970  78.694 119.345  0.00  0.00     0.006 C 
ENDBRANCH   8   9
BRANCH   8  11
ATOM     11  C   LIG d   1      -8.801  78.803 117.709  0.00  0.00     0.028 C 
ATOM     12  C   LIG d   1      -9.056  80.318 117.675  0.00  0.00     0.006 C 
ENDBRANCH   8  11
ENDBRANCH   7   8
ENDBRANCH   1   7
BRANCH   6  13
ATOM     13  N   LIG d   1      -4.464  76.964 116.067  0.00  0.00    -0.311 N 
ATOM     14  C   LIG d   1      -3.490  77.516 116.790  0.00  0.00     0.210 C 
ATOM     15  C   LIG d   1      -2.814  78.729 116.144  0.00  0.00     0.109 C 
ATOM     16  O   LIG d   1      -3.101  77.096 117.890  0.00  0.00    -0.276 OA
ATOM     17  H   LIG d   1      -4.693  77.350 115.172  0.00  0.00     0.149 HD
ENDBRANCH   6  13
BRANCH   5  18
ATOM     18  N   LIG d   1      -3.583  74.051 115.798  0.00  0.00     0.381 N 
ATOM     19  H   LIG d   1      -3.391  73.800 116.747  0.00  0.00    -0.090 HD
ATOM     20  H   LIG d   1      -2.961  74.797 115.537  0.00  0.00    -0.090 HD
ATOM     21  H   LIG d   1      -3.440  73.266 115.203  0.00  0.00    -0.090 HD
ENDBRANCH   5  18
BRANCH   3  22
ATOM     22  C   LIG d   1      -8.199  72.791 116.001  0.00  0.00     0.382 C 
ATOM     23  O   LIG d   1      -7.862  71.583 115.956  0.00  0.00    -0.241 OA
ATOM     24  O   LIG d   1      -9.390  73.103 115.811  0.00  0.00    -0.241 OA
ENDBRANCH   3  22
TORSDOF 7
ENDMDL
MODEL 5
REMARK VINA RESULT:      -5.8      8.946     11.462
REMARK  7 active torsions:
REMARK  status: ('A' for Active; 'I' for Inactive)
REMARK    1  A    between atoms: C_2  and  C_3 
REMARK    2  A    between atoms: C_3  and  O_6 
REMARK    3  A    between atoms: C_3  and  C_4 
REMARK    4  A    between atoms: C_7  and  O_6 
REMARK    5  A    between atoms: C_9  and  C_10 
REMARK    6  A    between atoms: N_15  and  C_14 
REMARK    7  A    between atoms: N_20  and  C_19 
REMARK       I    between atoms: C_22  and  N_20 
ROOT
ATOM      1  C   LIG d   1       0.200  83.054 111.984  0.00  0.00     0.161 C 
ATOM      2  C   LIG d   1      -1.004  82.706 112.619  0.00  0.00     0.016 C 
ATOM      3  C   LIG d   1      -1.591  81.423 112.526  0.00  0.00     0.038 C 
ATOM      4  C   LIG d   1      -0.931  80.349 111.911  0.00  0.00     0.028 C 
ATOM      5  C   LIG d   1       0.049  80.782 110.825  0.00  0.00    -0.047 C 
ATOM      6  C   LIG d   1       0.990  81.864 111.401  0.00  0.00     0.091 C 
ENDROOT
BRANCH   1   7
ATOM      7  O   LIG d   1       1.028  83.811 112.889  0.00  0.00    -0.368 OA
BRANCH   7   8
ATOM      8  C   LIG d   1       1.026  85.248 112.705  0.00  0.00     0.119 C 
BRANCH   8   9
ATOM      9  C   LIG d   1       0.592  85.527 111.253  0.00  0.00     0.028 C 
ATOM     10  C   LIG d   1      -0.524  86.581 111.167  0.00  0.00     0.006 C 
ENDBRANCH   8   9
BRANCH   8  11
ATOM     11  C   LIG d   1       2.439  85.827 112.824  0.00  0.00     0.028 C 
ATOM     12  C   LIG d   1       3.145  85.961 111.466  0.00  0.00     0.006 C 
ENDBRANCH   8  11
ENDBRANCH   7   8
ENDBRANCH   1   7
BRANCH   6  13
ATOM     13  N   LIG d   1       1.926  82.403 110.380  0.00  0.00    -0.311 N 
ATOM     14  C   LIG d   1       3.252  82.344 110.497  0.00  0.00     0.210 C 
ATOM     15  C   LIG d   1       4.031  82.977 109.340  0.00  0.00     0.109 C 
ATOM     16  O   LIG d   1       3.856  81.799 111.433  0.00  0.00    -0.276 OA
ATOM     17  H   LIG d   1       1.521  82.834 109.572  0.00  0.00     0.149 HD
ENDBRANCH   6  13
BRANCH   5  18
ATOM     18  N   LIG d   1       0.765  79.577 110.366  0.00  0.00     0.381 N 
ATOM     19  H   LIG d   1       1.234  79.147 111.138  0.00  0.00    -0.090 HD
ATOM     20  H   LIG d   1       1.456  79.848 109.688  0.00  0.00    -0.090 HD
ATOM     21  H   LIG d   1       0.124  78.934 109.957  0.00  0.00    -0.090 HD
ENDBRANCH   5  18
BRANCH   3  22
ATOM     22  C   LIG d   1      -2.871  81.216 113.018  0.00  0.00     0.382 C 
ATOM     23  O   LIG d   1      -3.837  81.858 112.541  0.00  0.00    -0.241 OA
ATOM     24  O   LIG d   1      -3.064  80.427 113.962  0.00  0.00    -0.241 OA
ENDBRANCH   3  22
TORSDOF 7
ENDMDL
MODEL 6
REMARK VINA RESULT:      -5.7      1.840      2.268
REMARK  7 active torsions:
REMARK  status: ('A' for Active; 'I' for Inactive)
REMARK    1  A    between atoms: C_2  and  C_3 
REMARK    2  A    between atoms: C_3  and  O_6 
REMARK    3  A    between atoms: C_3  and  C_4 
REMARK    4  A    between atoms: C_7  and  O_6 
REMARK    5  A    between atoms: C_9  and  C_10 
REMARK    6  A    between atoms: N_15  and  C_14 
REMARK    7  A    between atoms: N_20  and  C_19 
REMARK       I    between atoms: C_22  and  N_20 
ROOT
ATOM      1  C   LIG d   1      -6.034  77.218 116.918  0.00  0.00     0.161 C 
ATOM      2  C   LIG d   1      -6.750  78.354 117.330  0.00  0.00     0.016 C 
ATOM      3  C   LIG d   1      -6.162  79.630 117.488  0.00  0.00     0.038 C 
ATOM      4  C   LIG d   1      -4.841  79.891 117.097  0.00  0.00     0.028 C 
ATOM      5  C   LIG d   1      -3.939  78.663 117.152  0.00  0.00    -0.047 C 
ATOM      6  C   LIG d   1      -4.617  77.508 116.380  0.00  0.00     0.091 C 
ENDROOT
BRANCH   1   7
ATOM      7  O   LIG d   1      -6.800  76.485 115.942  0.00  0.00    -0.368 OA
BRANCH   7   8
ATOM      8  C   LIG d   1      -7.467  75.292 116.422  0.00  0.00     0.119 C 
BRANCH   8   9
ATOM      9  C   LIG d   1      -6.963  74.107 115.575  0.00  0.00     0.028 C 
ATOM     10  C   LIG d   1      -6.167  73.087 116.408  0.00  0.00     0.006 C 
ENDBRANCH   8   9
BRANCH   8  11
ATOM     11  C   LIG d   1      -8.976  75.357 116.168  0.00  0.00     0.028 C 
ATOM     12  C   LIG d   1      -9.587  73.984 115.850  0.00  0.00     0.006 C 
ENDBRANCH   8  11
ENDBRANCH   7   8
ENDBRANCH   1   7
BRANCH   6  13
ATOM     13  N   LIG d   1      -3.840  76.243 116.456  0.00  0.00    -0.311 N 
ATOM     14  C   LIG d   1      -3.513  75.518 115.387  0.00  0.00     0.210 C 
ATOM     15  C   LIG d   1      -2.727  74.239 115.689  0.00  0.00     0.109 C 
ATOM     16  O   LIG d   1      -3.771  75.831 114.215  0.00  0.00    -0.276 OA
ATOM     17  H   LIG d   1      -3.562  75.932 117.366  0.00  0.00     0.149 HD
ENDBRANCH   6  13
BRANCH   5  18
ATOM     18  N   LIG d   1      -2.630  79.045 116.589  0.00  0.00     0.381 N 
ATOM     19  H   LIG d   1      -2.541  80.041 116.586  0.00  0.00    -0.090 HD
ATOM     20  H   LIG d   1      -2.578  78.721 115.639  0.00  0.00    -0.090 HD
ATOM     21  H   LIG d   1      -1.896  78.640 117.127  0.00  0.00    -0.090 HD
ENDBRANCH   5  18
BRANCH   3  22
ATOM     22  C   LIG d   1      -6.888  80.653 118.081  0.00  0.00     0.382 C 
ATOM     23  O   LIG d   1      -7.844  81.182 117.465  0.00  0.00    -0.241 OA
ATOM     24  O   LIG d   1      -6.570  81.083 119.206  0.00  0.00    -0.241 OA
ENDBRANCH   3  22
TORSDOF 7
ENDMDL
MODEL 7
REMARK VINA RESULT:      -5.6     11.818     14.346
REMARK  7 active torsions:
REMARK  status: ('A' for Active; 'I' for Inactive)
REMARK    1  A    between atoms: C_2  and  C_3 
REMARK    2  A    between atoms: C_3  and  O_6 
REMARK    3  A    between atoms: C_3  and  C_4 
REMARK    4  A    between atoms: C_7  and  O_6 
REMARK    5  A    between atoms: C_9  and  C_10 
REMARK    6  A    between atoms: N_15  and  C_14 
REMARK    7  A    between atoms: N_20  and  C_19 
REMARK       I    between atoms: C_22  and  N_20 
ROOT
ATOM      1  C   LIG d   1       3.211  85.887 112.461  0.00  0.00     0.161 C 
ATOM      2  C   LIG d   1       4.048  87.005 112.311  0.00  0.00     0.016 C 
ATOM      3  C   LIG d   1       4.408  87.857 113.380  0.00  0.00     0.038 C 
ATOM      4  C   LIG d   1       4.074  87.560 114.710  0.00  0.00     0.028 C 
ATOM      5  C   LIG d   1       2.809  86.719 114.843  0.00  0.00    -0.047 C 
ATOM      6  C   LIG d   1       2.928  85.483 113.923  0.00  0.00     0.091 C 
ENDROOT
BRANCH   1   7
ATOM      7  O   LIG d   1       3.752  84.770 111.728  0.00  0.00    -0.368 OA
BRANCH   7   8
ATOM      8  C   LIG d   1       3.414  84.707 110.321  0.00  0.00     0.119 C 
BRANCH   8   9
ATOM      9  C   LIG d   1       1.895  84.932 110.199  0.00  0.00     0.028 C 
ATOM     10  C   LIG d   1       1.103  83.614 110.205  0.00  0.00     0.006 C 
ENDBRANCH   8   9
BRANCH   8  11
ATOM     11  C   LIG d   1       3.664  83.308 109.750  0.00  0.00     0.028 C 
ATOM     12  C   LIG d   1       4.907  82.632 110.350  0.00  0.00     0.006 C 
ENDBRANCH   8  11
ENDBRANCH   7   8
ENDBRANCH   1   7
BRANCH   6  13
ATOM     13  N   LIG d   1       1.697  84.650 113.930  0.00  0.00    -0.311 N 
ATOM     14  C   LIG d   1       0.490  85.125 113.627  0.00  0.00     0.210 C 
ATOM     15  C   LIG d   1      -0.647  84.102 113.715  0.00  0.00     0.109 C 
ATOM     16  O   LIG d   1       0.258  86.287 113.263  0.00  0.00    -0.276 OA
ATOM     17  H   LIG d   1       1.799  83.687 114.183  0.00  0.00     0.149 HD
ENDBRANCH   6  13
BRANCH   5  18
ATOM     18  N   LIG d   1       2.656  86.368 116.268  0.00  0.00     0.381 N 
ATOM     19  H   LIG d   1       2.039  85.585 116.359  0.00  0.00    -0.090 HD
ATOM     20  H   LIG d   1       2.249  87.148 116.753  0.00  0.00    -0.090 HD
ATOM     21  H   LIG d   1       3.544  86.147 116.662  0.00  0.00    -0.090 HD
ENDBRANCH   5  18
BRANCH   3  22
ATOM     22  C   LIG d   1       5.076  89.044 113.118  0.00  0.00     0.382 C 
ATOM     23  O   LIG d   1       6.328  89.055 113.042  0.00  0.00    -0.241 OA
ATOM     24  O   LIG d   1       4.445  90.112 113.002  0.00  0.00    -0.241 OA
ENDBRANCH   3  22
TORSDOF 7
ENDMDL
MODEL 8
REMARK VINA RESULT:      -5.5      9.793     12.221
REMARK  7 active torsions:
REMARK  status: ('A' for Active; 'I' for Inactive)
REMARK    1  A    between atoms: C_2  and  C_3 
REMARK    2  A    between atoms: C_3  and  O_6 
REMARK    3  A    between atoms: C_3  and  C_4 
REMARK    4  A    between atoms: C_7  and  O_6 
REMARK    5  A    between atoms: C_9  and  C_10 
REMARK    6  A    between atoms: N_15  and  C_14 
REMARK    7  A    between atoms: N_20  and  C_19 
REMARK       I    between atoms: C_22  and  N_20 
ROOT
ATOM      1  C   LIG d   1       0.516  84.493 110.972  0.00  0.00     0.161 C 
ATOM      2  C   LIG d   1       1.452  85.539 110.914  0.00  0.00     0.016 C 
ATOM      3  C   LIG d   1       1.922  86.227 112.056  0.00  0.00     0.038 C 
ATOM      4  C   LIG d   1       1.600  85.812 113.356  0.00  0.00     0.028 C 
ATOM      5  C   LIG d   1       0.265  85.081 113.446  0.00  0.00    -0.047 C 
ATOM      6  C   LIG d   1       0.239  83.952 112.391  0.00  0.00     0.091 C 
ENDROOT
BRANCH   1   7
ATOM      7  O   LIG d   1       0.926  83.422 110.099  0.00  0.00    -0.368 OA
BRANCH   7   8
ATOM      8  C   LIG d   1       2.088  82.665 110.520  0.00  0.00     0.119 C 
BRANCH   8   9
ATOM      9  C   LIG d   1       3.143  82.777 109.403  0.00  0.00     0.028 C 
ATOM     10  C   LIG d   1       4.426  81.994 109.727  0.00  0.00     0.006 C 
ENDBRANCH   8   9
BRANCH   8  11
ATOM     11  C   LIG d   1       1.771  81.171 110.630  0.00  0.00     0.028 C 
ATOM     12  C   LIG d   1       0.421  80.801 109.995  0.00  0.00     0.006 C 
ENDBRANCH   8  11
ENDBRANCH   7   8
ENDBRANCH   1   7
BRANCH   6  13
ATOM     13  N   LIG d   1      -1.066  83.241 112.354  0.00  0.00    -0.311 N 
ATOM     14  C   LIG d   1      -1.306  82.114 113.021  0.00  0.00     0.210 C 
ATOM     15  C   LIG d   1      -2.711  81.535 112.829  0.00  0.00     0.109 C 
ATOM     16  O   LIG d   1      -0.499  81.556 113.780  0.00  0.00    -0.276 OA
ATOM     17  H   LIG d   1      -1.788  83.642 111.787  0.00  0.00     0.149 HD
ENDBRANCH   6  13
BRANCH   5  18
ATOM     18  N   LIG d   1       0.120  84.585 114.828  0.00  0.00     0.381 N 
ATOM     19  H   LIG d   1      -0.038  85.353 115.449  0.00  0.00    -0.090 HD
ATOM     20  H   LIG d   1       0.973  84.129 115.100  0.00  0.00    -0.090 HD
ATOM     21  H   LIG d   1      -0.640  83.943 114.881  0.00  0.00    -0.090 HD
ENDBRANCH   5  18
BRANCH   3  22
ATOM     22  C   LIG d   1       2.693  87.370 111.901  0.00  0.00     0.382 C 
ATOM     23  O   LIG d   1       2.160  88.502 111.989  0.00  0.00    -0.241 OA
ATOM     24  O   LIG d   1       3.905  87.282 111.630  0.00  0.00    -0.241 OA
ENDBRANCH   3  22
TORSDOF 7
ENDMDL
MODEL 9
REMARK VINA RESULT:      -5.3     10.388     12.445
REMARK  7 active torsions:
REMARK  status: ('A' for Active; 'I' for Inactive)
REMARK    1  A    between atoms: C_2  and  C_3 
REMARK    2  A    between atoms: C_3  and  O_6 
REMARK    3  A    between atoms: C_3  and  C_4 
REMARK    4  A    between atoms: C_7  and  O_6 
REMARK    5  A    between atoms: C_9  and  C_10 
REMARK    6  A    between atoms: N_15  and  C_14 
REMARK    7  A    between atoms: N_20  and  C_19 
REMARK       I    between atoms: C_22  and  N_20 
ROOT
ATOM      1  C   LIG d   1       0.880  85.529 112.867  0.00  0.00     0.161 C 
ATOM      2  C   LIG d   1      -0.291  84.849 113.244  0.00  0.00     0.016 C 
ATOM      3  C   LIG d   1      -0.747  84.766 114.580  0.00  0.00     0.038 C 
ATOM      4  C   LIG d   1      -0.141  85.491 115.617  0.00  0.00     0.028 C 
ATOM      5  C   LIG d   1       1.336  85.782 115.369  0.00  0.00    -0.047 C 
ATOM      6  C   LIG d   1       1.494  86.418 113.969  0.00  0.00     0.091 C 
ENDROOT
BRANCH   1   7
ATOM      7  O   LIG d   1       0.633  86.304 111.677  0.00  0.00    -0.368 OA
BRANCH   7   8
ATOM      8  C   LIG d   1       1.306  85.856 110.475  0.00  0.00     0.119 C 
BRANCH   8   9
ATOM      9  C   LIG d   1       0.220  85.471 109.453  0.00  0.00     0.028 C 
ATOM     10  C   LIG d   1      -1.192  85.867 109.918  0.00  0.00     0.006 C 
ENDBRANCH   8   9
BRANCH   8  11
ATOM     11  C   LIG d   1       2.101  84.571 110.726  0.00  0.00     0.028 C 
ATOM     12  C   LIG d   1       3.617  84.767 110.564  0.00  0.00     0.006 C 
ENDBRANCH   8  11
ENDBRANCH   7   8
ENDBRANCH   1   7
BRANCH   6  13
ATOM     13  N   LIG d   1       2.916  86.657 113.613  0.00  0.00    -0.311 N 
ATOM     14  C   LIG d   1       3.342  87.758 112.994  0.00  0.00     0.210 C 
ATOM     15  C   LIG d   1       4.846  87.794 112.702  0.00  0.00     0.109 C 
ATOM     16  O   LIG d   1       2.623  88.721 112.689  0.00  0.00    -0.276 OA
ATOM     17  H   LIG d   1       3.573  85.941 113.852  0.00  0.00     0.149 HD
ENDBRANCH   6  13
BRANCH   5  18
ATOM     18  N   LIG d   1       1.806  86.658 116.459  0.00  0.00     0.381 N 
ATOM     19  H   LIG d   1       2.691  86.334 116.795  0.00  0.00    -0.090 HD
ATOM     20  H   LIG d   1       1.146  86.618 117.216  0.00  0.00    -0.090 HD
ATOM     21  H   LIG d   1       1.890  87.595 116.131  0.00  0.00    -0.090 HD
ENDBRANCH   5  18
BRANCH   3  22
ATOM     22  C   LIG d   1      -1.799  83.920 114.895  0.00  0.00     0.382 C 
ATOM     23  O   LIG d   1      -1.706  82.691 114.662  0.00  0.00    -0.241 OA
ATOM     24  O   LIG d   1      -2.857  84.376 115.369  0.00  0.00    -0.241 OA
ENDBRANCH   3  22
TORSDOF 7
ENDMDL
