MODEL 1
REMARK VINA RESULT:      -5.5      0.000      0.000
REMARK  7 active torsions:
REMARK  status: ('A' for Active; 'I' for Inactive)
REMARK    1  A    between atoms: C_2  and  C_3 
REMARK    2  A    between atoms: C_3  and  O_6 
REMARK    3  A    between atoms: C_3  and  C_4 
REMARK    4  A    between atoms: C_7  and  O_6 
REMARK    5  A    between atoms: C_9  and  C_10 
REMARK    6  A    between atoms: N_15  and  C_14 
REMARK    7  A    between atoms: N_20  and  C_19 
REMARK       I    between atoms: C_22  and  N_20 
ROOT
ATOM      1  C   LIG d   1      -4.904  75.434 117.441  0.00  0.00     0.161 C 
ATOM      2  C   LIG d   1      -6.061  76.229 117.489  0.00  0.00     0.016 C 
ATOM      3  C   LIG d   1      -6.063  77.617 117.223  0.00  0.00     0.038 C 
ATOM      4  C   LIG d   1      -4.925  78.281 116.740  0.00  0.00     0.028 C 
ATOM      5  C   LIG d   1      -3.616  77.623 117.160  0.00  0.00    -0.047 C 
ATOM      6  C   LIG d   1      -3.675  76.119 116.808  0.00  0.00     0.091 C 
ENDROOT
BRANCH   1   7
ATOM      7  O   LIG d   1      -5.191  74.194 116.764  0.00  0.00    -0.368 OA
BRANCH   7   8
ATOM      8  C   LIG d   1      -6.266  74.232 115.794  0.00  0.00     0.119 C 
BRANCH   8   9
ATOM      9  C   LIG d   1      -6.961  72.856 115.819  0.00  0.00     0.028 C 
ATOM     10  C   LIG d   1      -6.947  72.218 117.218  0.00  0.00     0.006 C 
ENDBRANCH   8   9
BRANCH   8  11
ATOM     11  C   LIG d   1      -5.725  74.386 114.369  0.00  0.00     0.028 C 
ATOM     12  C   LIG d   1      -5.865  75.819 113.831  0.00  0.00     0.006 C 
ENDBRANCH   8  11
ENDBRANCH   7   8
ENDBRANCH   1   7
BRANCH   6  13
ATOM     13  N   LIG d   1      -2.466  75.382 117.261  0.00  0.00    -0.311 N 
ATOM     14  C   LIG d   1      -1.851  74.458 116.525  0.00  0.00     0.210 C 
ATOM     15  C   LIG d   1      -0.635  73.806 117.189  0.00  0.00     0.109 C 
ATOM     16  O   LIG d   1      -2.178  74.140 115.372  0.00  0.00    -0.276 OA
ATOM     17  H   LIG d   1      -2.114  75.601 118.173  0.00  0.00     0.149 HD
ENDBRANCH   6  13
BRANCH   5  18
ATOM     18  N   LIG d   1      -2.520  78.334 116.476  0.00  0.00     0.381 N 
ATOM     19  H   LIG d   1      -1.910  78.747 117.153  0.00  0.00    -0.090 HD
ATOM     20  H   LIG d   1      -2.911  79.069 115.913  0.00  0.00    -0.090 HD
ATOM     21  H   LIG d   1      -2.009  77.701 115.900  0.00  0.00    -0.090 HD
ENDBRANCH   5  18
BRANCH   3  22
ATOM     22  C   LIG d   1      -7.203  78.365 117.479  0.00  0.00     0.382 C 
ATOM     23  O   LIG d   1      -8.312  77.793 117.605  0.00  0.00    -0.241 OA
ATOM     24  O   LIG d   1      -7.143  79.607 117.541  0.00  0.00    -0.241 OA
ENDBRANCH   3  22
TORSDOF 7
ENDMDL
MODEL 2
REMARK VINA RESULT:      -5.5      2.144      3.169
REMARK  7 active torsions:
REMARK  status: ('A' for Active; 'I' for Inactive)
REMARK    1  A    between atoms: C_2  and  C_3 
REMARK    2  A    between atoms: C_3  and  O_6 
REMARK    3  A    between atoms: C_3  and  C_4 
REMARK    4  A    between atoms: C_7  and  O_6 
REMARK    5  A    between atoms: C_9  and  C_10 
REMARK    6  A    between atoms: N_15  and  C_14 
REMARK    7  A    between atoms: N_20  and  C_19 
REMARK       I    between atoms: C_22  and  N_20 
ROOT
ATOM      1  C   LIG d   1      -6.689  77.033 117.333  0.00  0.00     0.161 C 
ATOM      2  C   LIG d   1      -7.915  77.519 117.817  0.00  0.00     0.016 C 
ATOM      3  C   LIG d   1      -8.132  78.872 118.168  0.00  0.00     0.038 C 
ATOM      4  C   LIG d   1      -7.177  79.867 117.913  0.00  0.00     0.028 C 
ATOM      5  C   LIG d   1      -5.745  79.341 117.895  0.00  0.00    -0.047 C 
ATOM      6  C   LIG d   1      -5.670  78.124 116.944  0.00  0.00     0.091 C 
ENDROOT
BRANCH   1   7
ATOM      7  O   LIG d   1      -6.921  76.144 116.223  0.00  0.00    -0.368 OA
BRANCH   7   8
ATOM      8  C   LIG d   1      -6.397  74.801 116.362  0.00  0.00     0.119 C 
BRANCH   8   9
ATOM      9  C   LIG d   1      -5.843  74.375 114.989  0.00  0.00     0.028 C 
ATOM     10  C   LIG d   1      -5.692  75.562 114.023  0.00  0.00     0.006 C 
ENDBRANCH   8   9
BRANCH   8  11
ATOM     11  C   LIG d   1      -7.512  73.799 116.678  0.00  0.00     0.028 C 
ATOM     12  C   LIG d   1      -7.200  72.381 116.172  0.00  0.00     0.006 C 
ENDBRANCH   8  11
ENDBRANCH   7   8
ENDBRANCH   1   7
BRANCH   6  13
ATOM     13  N   LIG d   1      -4.323  77.497 116.932  0.00  0.00    -0.311 N 
ATOM     14  C   LIG d   1      -3.397  77.766 116.013  0.00  0.00     0.210 C 
ATOM     15  C   LIG d   1      -2.083  76.994 116.174  0.00  0.00     0.109 C 
ATOM     16  O   LIG d   1      -3.527  78.594 115.099  0.00  0.00    -0.276 OA
ATOM     17  H   LIG d   1      -4.121  76.835 117.656  0.00  0.00     0.149 HD
ENDBRANCH   6  13
BRANCH   5  18
ATOM     18  N   LIG d   1      -4.867  80.452 117.482  0.00  0.00     0.381 N 
ATOM     19  H   LIG d   1      -5.301  80.970 116.745  0.00  0.00    -0.090 HD
ATOM     20  H   LIG d   1      -4.004  80.073 117.136  0.00  0.00    -0.090 HD
ATOM     21  H   LIG d   1      -4.688  81.051 118.258  0.00  0.00    -0.090 HD
ENDBRANCH   5  18
BRANCH   3  22
ATOM     22  C   LIG d   1      -9.303  79.234 118.817  0.00  0.00     0.382 C 
ATOM     23  O   LIG d   1     -10.137  79.973 118.240  0.00  0.00    -0.241 OA
ATOM     24  O   LIG d   1      -9.514  78.869 119.989  0.00  0.00    -0.241 OA
ENDBRANCH   3  22
TORSDOF 7
ENDMDL
MODEL 3
REMARK VINA RESULT:      -5.3     13.711     16.371
REMARK  7 active torsions:
REMARK  status: ('A' for Active; 'I' for Inactive)
REMARK    1  A    between atoms: C_2  and  C_3 
REMARK    2  A    between atoms: C_3  and  O_6 
REMARK    3  A    between atoms: C_3  and  C_4 
REMARK    4  A    between atoms: C_7  and  O_6 
REMARK    5  A    between atoms: C_9  and  C_10 
REMARK    6  A    between atoms: N_15  and  C_14 
REMARK    7  A    between atoms: N_20  and  C_19 
REMARK       I    between atoms: C_22  and  N_20 
ROOT
ATOM      1  C   LIG d   1      -2.933  92.122 117.666  0.00  0.00     0.161 C 
ATOM      2  C   LIG d   1      -2.975  93.141 118.632  0.00  0.00     0.016 C 
ATOM      3  C   LIG d   1      -4.171  93.771 119.047  0.00  0.00     0.038 C 
ATOM      4  C   LIG d   1      -5.431  93.317 118.630  0.00  0.00     0.028 C 
ATOM      5  C   LIG d   1      -5.407  92.625 117.271  0.00  0.00    -0.047 C 
ATOM      6  C   LIG d   1      -4.308  91.537 117.282  0.00  0.00     0.091 C 
ENDROOT
BRANCH   1   7
ATOM      7  O   LIG d   1      -2.046  91.072 118.101  0.00  0.00    -0.368 OA
BRANCH   7   8
ATOM      8  C   LIG d   1      -2.618  90.083 118.992  0.00  0.00     0.119 C 
BRANCH   8   9
ATOM      9  C   LIG d   1      -2.016  90.316 120.391  0.00  0.00     0.028 C 
ATOM     10  C   LIG d   1      -3.054  90.844 121.396  0.00  0.00     0.006 C 
ENDBRANCH   8   9
BRANCH   8  11
ATOM     11  C   LIG d   1      -2.192  88.666 118.598  0.00  0.00     0.028 C 
ATOM     12  C   LIG d   1      -1.629  88.588 117.170  0.00  0.00     0.006 C 
ENDBRANCH   8  11
ENDBRANCH   7   8
ENDBRANCH   1   7
BRANCH   6  13
ATOM     13  N   LIG d   1      -4.160  90.868 115.963  0.00  0.00    -0.311 N 
ATOM     14  C   LIG d   1      -4.841  89.779 115.613  0.00  0.00     0.210 C 
ATOM     15  C   LIG d   1      -4.523  89.238 114.215  0.00  0.00     0.109 C 
ATOM     16  O   LIG d   1      -5.703  89.228 116.314  0.00  0.00    -0.276 OA
ATOM     17  H   LIG d   1      -3.505  91.268 115.320  0.00  0.00     0.149 HD
ENDBRANCH   6  13
BRANCH   5  18
ATOM     18  N   LIG d   1      -6.755  92.082 117.023  0.00  0.00     0.381 N 
ATOM     19  H   LIG d   1      -7.315  92.175 117.847  0.00  0.00    -0.090 HD
ATOM     20  H   LIG d   1      -6.677  91.104 116.804  0.00  0.00    -0.090 HD
ATOM     21  H   LIG d   1      -7.184  92.566 116.265  0.00  0.00    -0.090 HD
ENDBRANCH   5  18
BRANCH   3  22
ATOM     22  C   LIG d   1      -4.110  94.894 119.857  0.00  0.00     0.382 C 
ATOM     23  O   LIG d   1      -3.787  94.780 121.064  0.00  0.00    -0.241 OA
ATOM     24  O   LIG d   1      -4.418  96.015 119.408  0.00  0.00    -0.241 OA
ENDBRANCH   3  22
TORSDOF 7
ENDMDL
MODEL 4
REMARK VINA RESULT:      -5.2      2.347      3.226
REMARK  7 active torsions:
REMARK  status: ('A' for Active; 'I' for Inactive)
REMARK    1  A    between atoms: C_2  and  C_3 
REMARK    2  A    between atoms: C_3  and  O_6 
REMARK    3  A    between atoms: C_3  and  C_4 
REMARK    4  A    between atoms: C_7  and  O_6 
REMARK    5  A    between atoms: C_9  and  C_10 
REMARK    6  A    between atoms: N_15  and  C_14 
REMARK    7  A    between atoms: N_20  and  C_19 
REMARK       I    between atoms: C_22  and  N_20 
ROOT
ATOM      1  C   LIG d   1      -3.141  76.575 117.110  0.00  0.00     0.161 C 
ATOM      2  C   LIG d   1      -3.495  77.806 116.533  0.00  0.00     0.016 C 
ATOM      3  C   LIG d   1      -2.638  78.541 115.682  0.00  0.00     0.038 C 
ATOM      4  C   LIG d   1      -1.418  78.019 115.228  0.00  0.00     0.028 C 
ATOM      5  C   LIG d   1      -0.799  77.005 116.184  0.00  0.00    -0.047 C 
ATOM      6  C   LIG d   1      -1.859  75.937 116.538  0.00  0.00     0.091 C 
ENDROOT
BRANCH   1   7
ATOM      7  O   LIG d   1      -4.246  75.654 117.013  0.00  0.00    -0.368 OA
BRANCH   7   8
ATOM      8  C   LIG d   1      -5.325  76.044 116.128  0.00  0.00     0.119 C 
BRANCH   8   9
ATOM      9  C   LIG d   1      -6.636  75.502 116.729  0.00  0.00     0.028 C 
ATOM     10  C   LIG d   1      -7.764  76.547 116.714  0.00  0.00     0.006 C 
ENDBRANCH   8   9
BRANCH   8  11
ATOM     11  C   LIG d   1      -5.195  75.367 114.760  0.00  0.00     0.028 C 
ATOM     12  C   LIG d   1      -5.846  73.975 114.721  0.00  0.00     0.006 C 
ENDBRANCH   8  11
ENDBRANCH   7   8
ENDBRANCH   1   7
BRANCH   6  13
ATOM     13  N   LIG d   1      -1.362  74.954 117.535  0.00  0.00    -0.311 N 
ATOM     14  C   LIG d   1      -0.877  73.757 117.207  0.00  0.00     0.210 C 
ATOM     15  C   LIG d   1      -0.437  72.890 118.391  0.00  0.00     0.109 C 
ATOM     16  O   LIG d   1      -0.739  73.345 116.045  0.00  0.00    -0.276 OA
ATOM     17  H   LIG d   1      -1.408  75.219 118.499  0.00  0.00     0.149 HD
ENDBRANCH   6  13
BRANCH   5  18
ATOM     18  N   LIG d   1       0.394  76.441 115.525  0.00  0.00     0.381 N 
ATOM     19  H   LIG d   1       0.955  75.957 116.197  0.00  0.00    -0.090 HD
ATOM     20  H   LIG d   1       0.939  77.192 115.142  0.00  0.00    -0.090 HD
ATOM     21  H   LIG d   1       0.119  75.816 114.800  0.00  0.00    -0.090 HD
ENDBRANCH   5  18
BRANCH   3  22
ATOM     22  C   LIG d   1      -2.981  79.832 115.309  0.00  0.00     0.382 C 
ATOM     23  O   LIG d   1      -3.393  80.645 116.171  0.00  0.00    -0.241 OA
ATOM     24  O   LIG d   1      -2.927  80.180 114.115  0.00  0.00    -0.241 OA
ENDBRANCH   3  22
TORSDOF 7
ENDMDL
MODEL 5
REMARK VINA RESULT:      -5.2     13.907     15.507
REMARK  7 active torsions:
REMARK  status: ('A' for Active; 'I' for Inactive)
REMARK    1  A    between atoms: C_2  and  C_3 
REMARK    2  A    between atoms: C_3  and  O_6 
REMARK    3  A    between atoms: C_3  and  C_4 
REMARK    4  A    between atoms: C_7  and  O_6 
REMARK    5  A    between atoms: C_9  and  C_10 
REMARK    6  A    between atoms: N_15  and  C_14 
REMARK    7  A    between atoms: N_20  and  C_19 
REMARK       I    between atoms: C_22  and  N_20 
ROOT
ATOM      1  C   LIG d   1      -3.498  90.398 117.548  0.00  0.00     0.161 C 
ATOM      2  C   LIG d   1      -4.352  90.023 116.498  0.00  0.00     0.016 C 
ATOM      3  C   LIG d   1      -5.420  90.828 116.038  0.00  0.00     0.038 C 
ATOM      4  C   LIG d   1      -5.613  92.138 116.499  0.00  0.00     0.028 C 
ATOM      5  C   LIG d   1      -5.087  92.366 117.913  0.00  0.00    -0.047 C 
ATOM      6  C   LIG d   1      -3.625  91.871 117.990  0.00  0.00     0.091 C 
ENDROOT
BRANCH   1   7
ATOM      7  O   LIG d   1      -2.133  90.095 117.200  0.00  0.00    -0.368 OA
BRANCH   7   8
ATOM      8  C   LIG d   1      -1.683  88.750 117.497  0.00  0.00     0.119 C 
BRANCH   8   9
ATOM      9  C   LIG d   1      -1.959  88.489 118.991  0.00  0.00     0.028 C 
ATOM     10  C   LIG d   1      -0.682  88.560 119.845  0.00  0.00     0.006 C 
ENDBRANCH   8   9
BRANCH   8  11
ATOM     11  C   LIG d   1      -0.165  88.622 117.337  0.00  0.00     0.028 C 
ATOM     12  C   LIG d   1       0.241  87.986 115.998  0.00  0.00     0.006 C 
ENDBRANCH   8  11
ENDBRANCH   7   8
ENDBRANCH   1   7
BRANCH   6  13
ATOM     13  N   LIG d   1      -3.061  91.980 119.361  0.00  0.00    -0.311 N 
ATOM     14  C   LIG d   1      -1.866  92.506 119.622  0.00  0.00     0.210 C 
ATOM     15  C   LIG d   1      -1.468  92.503 121.101  0.00  0.00     0.109 C 
ATOM     16  O   LIG d   1      -1.111  93.004 118.773  0.00  0.00    -0.276 OA
ATOM     17  H   LIG d   1      -3.621  91.629 120.113  0.00  0.00     0.149 HD
ENDBRANCH   6  13
BRANCH   5  18
ATOM     18  N   LIG d   1      -5.228  93.803 118.214  0.00  0.00     0.381 N 
ATOM     19  H   LIG d   1      -5.843  94.230 117.550  0.00  0.00    -0.090 HD
ATOM     20  H   LIG d   1      -4.328  94.241 118.137  0.00  0.00    -0.090 HD
ATOM     21  H   LIG d   1      -5.587  93.924 119.136  0.00  0.00    -0.090 HD
ENDBRANCH   5  18
BRANCH   3  22
ATOM     22  C   LIG d   1      -6.332  90.307 115.132  0.00  0.00     0.382 C 
ATOM     23  O   LIG d   1      -7.557  90.537 115.275  0.00  0.00    -0.241 OA
ATOM     24  O   LIG d   1      -5.949  89.574 114.201  0.00  0.00    -0.241 OA
ENDBRANCH   3  22
TORSDOF 7
ENDMDL
MODEL 6
REMARK VINA RESULT:      -5.1     14.101     16.176
REMARK  7 active torsions:
REMARK  status: ('A' for Active; 'I' for Inactive)
REMARK    1  A    between atoms: C_2  and  C_3 
REMARK    2  A    between atoms: C_3  and  O_6 
REMARK    3  A    between atoms: C_3  and  C_4 
REMARK    4  A    between atoms: C_7  and  O_6 
REMARK    5  A    between atoms: C_9  and  C_10 
REMARK    6  A    between atoms: N_15  and  C_14 
REMARK    7  A    between atoms: N_20  and  C_19 
REMARK       I    between atoms: C_22  and  N_20 
ROOT
ATOM      1  C   LIG d   1      -4.240  92.306 116.909  0.00  0.00     0.161 C 
ATOM      2  C   LIG d   1      -5.558  92.055 116.493  0.00  0.00     0.016 C 
ATOM      3  C   LIG d   1      -5.992  90.807 115.990  0.00  0.00     0.038 C 
ATOM      4  C   LIG d   1      -5.167  89.673 116.011  0.00  0.00     0.028 C 
ATOM      5  C   LIG d   1      -3.680  90.004 115.952  0.00  0.00    -0.047 C 
ATOM      6  C   LIG d   1      -3.355  91.049 117.043  0.00  0.00     0.091 C 
ENDROOT
BRANCH   1   7
ATOM      7  O   LIG d   1      -4.250  93.046 118.146  0.00  0.00    -0.368 OA
BRANCH   7   8
ATOM      8  C   LIG d   1      -5.251  92.652 119.116  0.00  0.00     0.119 C 
BRANCH   8   9
ATOM      9  C   LIG d   1      -5.844  93.940 119.718  0.00  0.00     0.028 C 
ATOM     10  C   LIG d   1      -7.065  94.448 118.932  0.00  0.00     0.006 C 
ENDBRANCH   8   9
BRANCH   8  11
ATOM     11  C   LIG d   1      -4.620  91.906 120.296  0.00  0.00     0.028 C 
ATOM     12  C   LIG d   1      -3.167  92.330 120.560  0.00  0.00     0.006 C 
ENDBRANCH   8  11
ENDBRANCH   7   8
ENDBRANCH   1   7
BRANCH   6  13
ATOM     13  N   LIG d   1      -1.936  91.492 116.999  0.00  0.00    -0.311 N 
ATOM     14  C   LIG d   1      -0.979  90.959 117.756  0.00  0.00     0.210 C 
ATOM     15  C   LIG d   1       0.411  91.575 117.569  0.00  0.00     0.109 C 
ATOM     16  O   LIG d   1      -1.142  90.012 118.540  0.00  0.00    -0.276 OA
ATOM     17  H   LIG d   1      -1.710  92.234 116.367  0.00  0.00     0.149 HD
ENDBRANCH   6  13
BRANCH   5  18
ATOM     18  N   LIG d   1      -2.935  88.742 116.120  0.00  0.00     0.381 N 
ATOM     19  H   LIG d   1      -3.339  88.031 115.543  0.00  0.00    -0.090 HD
ATOM     20  H   LIG d   1      -3.005  88.448 117.078  0.00  0.00    -0.090 HD
ATOM     21  H   LIG d   1      -1.979  88.875 115.875  0.00  0.00    -0.090 HD
ENDBRANCH   5  18
BRANCH   3  22
ATOM     22  C   LIG d   1      -7.252  90.695 115.423  0.00  0.00     0.382 C 
ATOM     23  O   LIG d   1      -8.009  89.752 115.758  0.00  0.00    -0.241 OA
ATOM     24  O   LIG d   1      -7.624  91.499 114.547  0.00  0.00    -0.241 OA
ENDBRANCH   3  22
TORSDOF 7
ENDMDL
MODEL 7
REMARK VINA RESULT:      -5.1     13.748     15.770
REMARK  7 active torsions:
REMARK  status: ('A' for Active; 'I' for Inactive)
REMARK    1  A    between atoms: C_2  and  C_3 
REMARK    2  A    between atoms: C_3  and  O_6 
REMARK    3  A    between atoms: C_3  and  C_4 
REMARK    4  A    between atoms: C_7  and  O_6 
REMARK    5  A    between atoms: C_9  and  C_10 
REMARK    6  A    between atoms: N_15  and  C_14 
REMARK    7  A    between atoms: N_20  and  C_19 
REMARK       I    between atoms: C_22  and  N_20 
ROOT
ATOM      1  C   LIG d   1      -4.101  91.552 117.030  0.00  0.00     0.161 C 
ATOM      2  C   LIG d   1      -5.219  91.949 116.279  0.00  0.00     0.016 C 
ATOM      3  C   LIG d   1      -5.747  91.191 115.209  0.00  0.00     0.038 C 
ATOM      4  C   LIG d   1      -5.280  89.902 114.912  0.00  0.00     0.028 C 
ATOM      5  C   LIG d   1      -3.827  89.676 115.316  0.00  0.00    -0.047 C 
ATOM      6  C   LIG d   1      -3.646  90.096 116.793  0.00  0.00     0.091 C 
ENDROOT
BRANCH   1   7
ATOM      7  O   LIG d   1      -4.348  91.777 118.432  0.00  0.00    -0.368 OA
BRANCH   7   8
ATOM      8  C   LIG d   1      -3.547  92.806 119.063  0.00  0.00     0.119 C 
BRANCH   8   9
ATOM      9  C   LIG d   1      -2.553  93.331 118.009  0.00  0.00     0.028 C 
ATOM     10  C   LIG d   1      -1.095  93.270 118.495  0.00  0.00     0.006 C 
ENDBRANCH   8   9
BRANCH   8  11
ATOM     11  C   LIG d   1      -2.680  92.227 120.185  0.00  0.00     0.028 C 
ATOM     12  C   LIG d   1      -3.336  91.028 120.887  0.00  0.00     0.006 C 
ENDBRANCH   8  11
ENDBRANCH   7   8
ENDBRANCH   1   7
BRANCH   6  13
ATOM     13  N   LIG d   1      -2.234  89.987 117.245  0.00  0.00    -0.311 N 
ATOM     14  C   LIG d   1      -1.818  89.091 118.138  0.00  0.00     0.210 C 
ATOM     15  C   LIG d   1      -0.326  89.162 118.478  0.00  0.00     0.109 C 
ATOM     16  O   LIG d   1      -2.536  88.222 118.656  0.00  0.00    -0.276 OA
ATOM     17  H   LIG d   1      -1.578  90.633 116.851  0.00  0.00     0.149 HD
ENDBRANCH   6  13
BRANCH   5  18
ATOM     18  N   LIG d   1      -3.513  88.255 115.077  0.00  0.00     0.381 N 
ATOM     19  H   LIG d   1      -3.022  88.157 114.211  0.00  0.00    -0.090 HD
ATOM     20  H   LIG d   1      -4.373  87.739 115.012  0.00  0.00    -0.090 HD
ATOM     21  H   LIG d   1      -2.958  87.898 115.824  0.00  0.00    -0.090 HD
ENDBRANCH   5  18
BRANCH   3  22
ATOM     22  C   LIG d   1      -6.728  91.739 114.396  0.00  0.00     0.382 C 
ATOM     23  O   LIG d   1      -7.934  91.451 114.588  0.00  0.00    -0.241 OA
ATOM     24  O   LIG d   1      -6.418  92.483 113.446  0.00  0.00    -0.241 OA
ENDBRANCH   3  22
TORSDOF 7
ENDMDL
MODEL 8
REMARK VINA RESULT:      -5.1      2.959      6.081
REMARK  7 active torsions:
REMARK  status: ('A' for Active; 'I' for Inactive)
REMARK    1  A    between atoms: C_2  and  C_3 
REMARK    2  A    between atoms: C_3  and  O_6 
REMARK    3  A    between atoms: C_3  and  C_4 
REMARK    4  A    between atoms: C_7  and  O_6 
REMARK    5  A    between atoms: C_9  and  C_10 
REMARK    6  A    between atoms: N_15  and  C_14 
REMARK    7  A    between atoms: N_20  and  C_19 
REMARK       I    between atoms: C_22  and  N_20 
ROOT
ATOM      1  C   LIG d   1      -4.556  77.955 116.498  0.00  0.00     0.161 C 
ATOM      2  C   LIG d   1      -4.710  76.787 115.733  0.00  0.00     0.016 C 
ATOM      3  C   LIG d   1      -5.917  76.053 115.669  0.00  0.00     0.038 C 
ATOM      4  C   LIG d   1      -7.103  76.525 116.250  0.00  0.00     0.028 C 
ATOM      5  C   LIG d   1      -6.869  77.436 117.450  0.00  0.00    -0.047 C 
ATOM      6  C   LIG d   1      -5.870  78.546 117.050  0.00  0.00     0.091 C 
ENDROOT
BRANCH   1   7
ATOM      7  O   LIG d   1      -3.842  78.948 115.735  0.00  0.00    -0.368 OA
BRANCH   7   8
ATOM      8  C   LIG d   1      -2.534  79.318 116.235  0.00  0.00     0.119 C 
BRANCH   8   9
ATOM      9  C   LIG d   1      -2.561  80.831 116.528  0.00  0.00     0.028 C 
ATOM     10  C   LIG d   1      -1.900  81.180 117.873  0.00  0.00     0.006 C 
ENDBRANCH   8   9
BRANCH   8  11
ATOM     11  C   LIG d   1      -1.454  79.131 115.165  0.00  0.00     0.028 C 
ATOM     12  C   LIG d   1      -1.839  79.758 113.815  0.00  0.00     0.006 C 
ENDBRANCH   8  11
ENDBRANCH   7   8
ENDBRANCH   1   7
BRANCH   6  13
ATOM     13  N   LIG d   1      -5.520  79.432 118.190  0.00  0.00    -0.311 N 
ATOM     14  C   LIG d   1      -5.885  80.711 118.263  0.00  0.00     0.210 C 
ATOM     15  C   LIG d   1      -5.403  81.451 119.515  0.00  0.00     0.109 C 
ATOM     16  O   LIG d   1      -6.588  81.295 117.425  0.00  0.00    -0.276 OA
ATOM     17  H   LIG d   1      -4.977  79.032 118.930  0.00  0.00     0.149 HD
ENDBRANCH   6  13
BRANCH   5  18
ATOM     18  N   LIG d   1      -8.181  77.964 117.872  0.00  0.00     0.381 N 
ATOM     19  H   LIG d   1      -8.079  78.489 118.717  0.00  0.00    -0.090 HD
ATOM     20  H   LIG d   1      -8.799  77.193 118.052  0.00  0.00    -0.090 HD
ATOM     21  H   LIG d   1      -8.561  78.544 117.156  0.00  0.00    -0.090 HD
ENDBRANCH   5  18
BRANCH   3  22
ATOM     22  C   LIG d   1      -5.935  74.812 115.050  0.00  0.00     0.382 C 
ATOM     23  O   LIG d   1      -6.475  73.835 115.621  0.00  0.00    -0.241 OA
ATOM     24  O   LIG d   1      -5.378  74.648 113.948  0.00  0.00    -0.241 OA
ENDBRANCH   3  22
TORSDOF 7
ENDMDL
MODEL 9
REMARK VINA RESULT:      -5.1     14.214     17.086
REMARK  7 active torsions:
REMARK  status: ('A' for Active; 'I' for Inactive)
REMARK    1  A    between atoms: C_2  and  C_3 
REMARK    2  A    between atoms: C_3  and  O_6 
REMARK    3  A    between atoms: C_3  and  C_4 
REMARK    4  A    between atoms: C_7  and  O_6 
REMARK    5  A    between atoms: C_9  and  C_10 
REMARK    6  A    between atoms: N_15  and  C_14 
REMARK    7  A    between atoms: N_20  and  C_19 
REMARK       I    between atoms: C_22  and  N_20 
ROOT
ATOM      1  C   LIG d   1      -3.669  92.572 117.592  0.00  0.00     0.161 C 
ATOM      2  C   LIG d   1      -3.277  92.995 118.873  0.00  0.00     0.016 C 
ATOM      3  C   LIG d   1      -4.189  93.430 119.862  0.00  0.00     0.038 C 
ATOM      4  C   LIG d   1      -5.577  93.327 119.687  0.00  0.00     0.028 C 
ATOM      5  C   LIG d   1      -6.009  93.380 118.225  0.00  0.00    -0.047 C 
ATOM      6  C   LIG d   1      -5.187  92.347 117.421  0.00  0.00     0.091 C 
ENDROOT
BRANCH   1   7
ATOM      7  O   LIG d   1      -2.943  91.382 117.227  0.00  0.00    -0.368 OA
BRANCH   7   8
ATOM      8  C   LIG d   1      -1.845  91.013 118.098  0.00  0.00     0.119 C 
BRANCH   8   9
ATOM      9  C   LIG d   1      -0.540  91.192 117.299  0.00  0.00     0.028 C 
ATOM     10  C   LIG d   1       0.639  91.618 118.189  0.00  0.00     0.006 C 
ENDBRANCH   8   9
BRANCH   8  11
ATOM     11  C   LIG d   1      -1.898  89.526 118.461  0.00  0.00     0.028 C 
ATOM     12  C   LIG d   1      -1.990  88.614 117.227  0.00  0.00     0.006 C 
ENDBRANCH   8  11
ENDBRANCH   7   8
ENDBRANCH   1   7
BRANCH   6  13
ATOM     13  N   LIG d   1      -5.487  92.392 115.966  0.00  0.00    -0.311 N 
ATOM     14  C   LIG d   1      -6.385  91.604 115.379  0.00  0.00     0.210 C 
ATOM     15  C   LIG d   1      -6.526  91.799 113.866  0.00  0.00     0.109 C 
ATOM     16  O   LIG d   1      -7.102  90.784 115.972  0.00  0.00    -0.276 OA
ATOM     17  H   LIG d   1      -4.973  93.051 115.415  0.00  0.00     0.149 HD
ENDBRANCH   6  13
BRANCH   5  18
ATOM     18  N   LIG d   1      -7.461  93.124 118.180  0.00  0.00     0.381 N 
ATOM     19  H   LIG d   1      -7.647  92.330 117.600  0.00  0.00    -0.090 HD
ATOM     20  H   LIG d   1      -7.920  93.922 117.778  0.00  0.00    -0.090 HD
ATOM     21  H   LIG d   1      -7.808  92.961 119.100  0.00  0.00    -0.090 HD
ENDBRANCH   5  18
BRANCH   3  22
ATOM     22  C   LIG d   1      -3.714  94.012 121.027  0.00  0.00     0.382 C 
ATOM     23  O   LIG d   1      -2.697  94.746 120.991  0.00  0.00    -0.241 OA
ATOM     24  O   LIG d   1      -4.262  93.777 122.120  0.00  0.00    -0.241 OA
ENDBRANCH   3  22
TORSDOF 7
ENDMDL
