MODEL 1
REMARK VINA RESULT:      -6.1      0.000      0.000
REMARK  7 active torsions:
REMARK  status: ('A' for Active; 'I' for Inactive)
REMARK    1  A    between atoms: C_2  and  C_3 
REMARK    2  A    between atoms: C_3  and  O_6 
REMARK    3  A    between atoms: C_3  and  C_4 
REMARK    4  A    between atoms: C_7  and  O_6 
REMARK    5  A    between atoms: C_9  and  C_10 
REMARK    6  A    between atoms: N_15  and  C_14 
REMARK    7  A    between atoms: N_20  and  C_19 
REMARK       I    between atoms: C_22  and  N_20 
ROOT
ATOM      1  C   LIG d   1      -8.185  75.310 116.869  0.00  0.00     0.161 C 
ATOM      2  C   LIG d   1      -7.222  75.028 115.886  0.00  0.00     0.016 C 
ATOM      3  C   LIG d   1      -6.109  75.860 115.626  0.00  0.00     0.038 C 
ATOM      4  C   LIG d   1      -5.800  76.961 116.439  0.00  0.00     0.028 C 
ATOM      5  C   LIG d   1      -7.019  77.569 117.124  0.00  0.00    -0.047 C 
ATOM      6  C   LIG d   1      -7.804  76.447 117.840  0.00  0.00     0.091 C 
ENDROOT
BRANCH   1   7
ATOM      7  O   LIG d   1      -8.501  74.110 117.602  0.00  0.00    -0.368 OA
BRANCH   7   8
ATOM      8  C   LIG d   1      -9.687  73.396 117.175  0.00  0.00     0.119 C 
BRANCH   8   9
ATOM      9  C   LIG d   1     -10.764  73.598 118.258  0.00  0.00     0.028 C 
ATOM     10  C   LIG d   1     -11.831  74.624 117.840  0.00  0.00     0.006 C 
ENDBRANCH   8   9
BRANCH   8  11
ATOM     11  C   LIG d   1      -9.440  71.885 117.126  0.00  0.00     0.028 C 
ATOM     12  C   LIG d   1      -7.994  71.530 116.744  0.00  0.00     0.006 C 
ENDBRANCH   8  11
ENDBRANCH   7   8
ENDBRANCH   1   7
BRANCH   6  13
ATOM     13  N   LIG d   1      -9.058  76.943 118.466  0.00  0.00    -0.311 N 
ATOM     14  C   LIG d   1      -9.358  76.761 119.751  0.00  0.00     0.210 C 
ATOM     15  C   LIG d   1     -10.709  77.335 120.187  0.00  0.00     0.109 C 
ATOM     16  O   LIG d   1      -8.618  76.207 120.578  0.00  0.00    -0.276 OA
ATOM     17  H   LIG d   1      -9.701  77.431 117.874  0.00  0.00     0.149 HD
ENDBRANCH   6  13
BRANCH   5  18
ATOM     18  N   LIG d   1      -6.536  78.616 118.045  0.00  0.00     0.381 N 
ATOM     19  H   LIG d   1      -6.108  79.355 117.523  0.00  0.00    -0.090 HD
ATOM     20  H   LIG d   1      -5.844  78.218 118.655  0.00  0.00    -0.090 HD
ATOM     21  H   LIG d   1      -7.295  78.975 118.581  0.00  0.00    -0.090 HD
ENDBRANCH   5  18
BRANCH   3  22
ATOM     22  C   LIG d   1      -5.314  75.617 114.516  0.00  0.00     0.382 C 
ATOM     23  O   LIG d   1      -5.256  76.460 113.589  0.00  0.00    -0.241 OA
ATOM     24  O   LIG d   1      -4.688  74.545 114.411  0.00  0.00    -0.241 OA
ENDBRANCH   3  22
TORSDOF 7
ENDMDL
MODEL 2
REMARK VINA RESULT:      -5.6      2.822      4.962
REMARK  7 active torsions:
REMARK  status: ('A' for Active; 'I' for Inactive)
REMARK    1  A    between atoms: C_2  and  C_3 
REMARK    2  A    between atoms: C_3  and  O_6 
REMARK    3  A    between atoms: C_3  and  C_4 
REMARK    4  A    between atoms: C_7  and  O_6 
REMARK    5  A    between atoms: C_9  and  C_10 
REMARK    6  A    between atoms: N_15  and  C_14 
REMARK    7  A    between atoms: N_20  and  C_19 
REMARK       I    between atoms: C_22  and  N_20 
ROOT
ATOM      1  C   LIG d   1      -9.179  77.306 118.392  0.00  0.00     0.161 C 
ATOM      2  C   LIG d   1      -8.031  77.494 117.605  0.00  0.00     0.016 C 
ATOM      3  C   LIG d   1      -7.515  76.508 116.732  0.00  0.00     0.038 C 
ATOM      4  C   LIG d   1      -8.204  75.314 116.473  0.00  0.00     0.028 C 
ATOM      5  C   LIG d   1      -9.101  74.870 117.624  0.00  0.00    -0.047 C 
ATOM      6  C   LIG d   1     -10.006  76.052 118.039  0.00  0.00     0.091 C 
ENDROOT
BRANCH   1   7
ATOM      7  O   LIG d   1     -10.007  78.484 118.337  0.00  0.00    -0.368 OA
BRANCH   7   8
ATOM      8  C   LIG d   1      -9.322  79.753 118.479  0.00  0.00     0.119 C 
BRANCH   8   9
ATOM      9  C   LIG d   1      -9.245  80.071 119.985  0.00  0.00     0.028 C 
ATOM     10  C   LIG d   1     -10.593  79.868 120.697  0.00  0.00     0.006 C 
ENDBRANCH   8   9
BRANCH   8  11
ATOM     11  C   LIG d   1     -10.132  80.897 117.863  0.00  0.00     0.028 C 
ATOM     12  C   LIG d   1      -9.260  82.095 117.458  0.00  0.00     0.006 C 
ENDBRANCH   8  11
ENDBRANCH   7   8
ENDBRANCH   1   7
BRANCH   6  13
ATOM     13  N   LIG d   1     -10.856  75.729 119.215  0.00  0.00    -0.311 N 
ATOM     14  C   LIG d   1     -12.186  75.682 119.167  0.00  0.00     0.210 C 
ATOM     15  C   LIG d   1     -12.870  75.350 120.497  0.00  0.00     0.109 C 
ATOM     16  O   LIG d   1     -12.864  75.852 118.142  0.00  0.00    -0.276 OA
ATOM     17  H   LIG d   1     -10.387  75.547 120.081  0.00  0.00     0.149 HD
ENDBRANCH   6  13
BRANCH   5  18
ATOM     18  N   LIG d   1      -9.861  73.692 117.167  0.00  0.00     0.381 N 
ATOM     19  H   LIG d   1     -10.785  73.967 116.900  0.00  0.00    -0.090 HD
ATOM     20  H   LIG d   1      -9.934  73.038 117.927  0.00  0.00    -0.090 HD
ATOM     21  H   LIG d   1      -9.398  73.265 116.396  0.00  0.00    -0.090 HD
ENDBRANCH   5  18
BRANCH   3  22
ATOM     22  C   LIG d   1      -6.276  76.696 116.138  0.00  0.00     0.382 C 
ATOM     23  O   LIG d   1      -6.191  76.825 114.893  0.00  0.00    -0.241 OA
ATOM     24  O   LIG d   1      -5.239  76.694 116.827  0.00  0.00    -0.241 OA
ENDBRANCH   3  22
TORSDOF 7
ENDMDL
MODEL 3
REMARK VINA RESULT:      -5.5     15.078     17.385
REMARK  7 active torsions:
REMARK  status: ('A' for Active; 'I' for Inactive)
REMARK    1  A    between atoms: C_2  and  C_3 
REMARK    2  A    between atoms: C_3  and  O_6 
REMARK    3  A    between atoms: C_3  and  C_4 
REMARK    4  A    between atoms: C_7  and  O_6 
REMARK    5  A    between atoms: C_9  and  C_10 
REMARK    6  A    between atoms: N_15  and  C_14 
REMARK    7  A    between atoms: N_20  and  C_19 
REMARK       I    between atoms: C_22  and  N_20 
ROOT
ATOM      1  C   LIG d   1      -4.760  91.636 117.816  0.00  0.00     0.161 C 
ATOM      2  C   LIG d   1      -5.531  90.889 116.909  0.00  0.00     0.016 C 
ATOM      3  C   LIG d   1      -6.634  91.422 116.203  0.00  0.00     0.038 C 
ATOM      4  C   LIG d   1      -6.949  92.789 116.242  0.00  0.00     0.028 C 
ATOM      5  C   LIG d   1      -6.511  93.475 117.532  0.00  0.00    -0.047 C 
ATOM      6  C   LIG d   1      -5.020  93.156 117.788  0.00  0.00     0.091 C 
ENDROOT
BRANCH   1   7
ATOM      7  O   LIG d   1      -3.360  91.363 117.607  0.00  0.00    -0.368 OA
BRANCH   7   8
ATOM      8  C   LIG d   1      -2.710  90.557 118.620  0.00  0.00     0.119 C 
BRANCH   8   9
ATOM      9  C   LIG d   1      -1.320  91.170 118.877  0.00  0.00     0.028 C 
ATOM     10  C   LIG d   1      -1.117  91.570 120.348  0.00  0.00     0.006 C 
ENDBRANCH   8   9
BRANCH   8  11
ATOM     11  C   LIG d   1      -2.439  89.137 118.114  0.00  0.00     0.028 C 
ATOM     12  C   LIG d   1      -2.416  88.096 119.245  0.00  0.00     0.006 C 
ENDBRANCH   8  11
ENDBRANCH   7   8
ENDBRANCH   1   7
BRANCH   6  13
ATOM     13  N   LIG d   1      -4.533  93.720 119.074  0.00  0.00    -0.311 N 
ATOM     14  C   LIG d   1      -3.363  94.342 119.205  0.00  0.00     0.210 C 
ATOM     15  C   LIG d   1      -3.045  94.829 120.622  0.00  0.00     0.109 C 
ATOM     16  O   LIG d   1      -2.572  94.565 118.276  0.00  0.00    -0.276 OA
ATOM     17  H   LIG d   1      -5.126  93.611 119.873  0.00  0.00     0.149 HD
ENDBRANCH   6  13
BRANCH   5  18
ATOM     18  N   LIG d   1      -6.776  94.918 117.381  0.00  0.00     0.381 N 
ATOM     19  H   LIG d   1      -6.787  95.356 118.280  0.00  0.00    -0.090 HD
ATOM     20  H   LIG d   1      -7.680  95.040 116.960  0.00  0.00    -0.090 HD
ATOM     21  H   LIG d   1      -6.076  95.335 116.808  0.00  0.00    -0.090 HD
ENDBRANCH   5  18
BRANCH   3  22
ATOM     22  C   LIG d   1      -7.459  90.577 115.477  0.00  0.00     0.382 C 
ATOM     23  O   LIG d   1      -7.702  90.821 114.271  0.00  0.00    -0.241 OA
ATOM     24  O   LIG d   1      -7.999  89.597 116.026  0.00  0.00    -0.241 OA
ENDBRANCH   3  22
TORSDOF 7
ENDMDL
MODEL 4
REMARK VINA RESULT:      -5.4     16.502     18.741
REMARK  7 active torsions:
REMARK  status: ('A' for Active; 'I' for Inactive)
REMARK    1  A    between atoms: C_2  and  C_3 
REMARK    2  A    between atoms: C_3  and  O_6 
REMARK    3  A    between atoms: C_3  and  C_4 
REMARK    4  A    between atoms: C_7  and  O_6 
REMARK    5  A    between atoms: C_9  and  C_10 
REMARK    6  A    between atoms: N_15  and  C_14 
REMARK    7  A    between atoms: N_20  and  C_19 
REMARK       I    between atoms: C_22  and  N_20 
ROOT
ATOM      1  C   LIG d   1      -6.512  93.567 117.824  0.00  0.00     0.161 C 
ATOM      2  C   LIG d   1      -7.057  92.452 117.165  0.00  0.00     0.016 C 
ATOM      3  C   LIG d   1      -6.280  91.366 116.700  0.00  0.00     0.038 C 
ATOM      4  C   LIG d   1      -4.914  91.251 116.998  0.00  0.00     0.028 C 
ATOM      5  C   LIG d   1      -4.228  92.594 117.222  0.00  0.00    -0.047 C 
ATOM      6  C   LIG d   1      -5.040  93.406 118.256  0.00  0.00     0.091 C 
ENDROOT
BRANCH   1   7
ATOM      7  O   LIG d   1      -7.333  93.914 118.957  0.00  0.00    -0.368 OA
BRANCH   7   8
ATOM      8  C   LIG d   1      -8.342  94.927 118.727  0.00  0.00     0.119 C 
BRANCH   8   9
ATOM      9  C   LIG d   1      -7.714  96.292 119.071  0.00  0.00     0.028 C 
ATOM     10  C   LIG d   1      -7.430  97.139 117.819  0.00  0.00     0.006 C 
ENDBRANCH   8   9
BRANCH   8  11
ATOM     11  C   LIG d   1      -9.521  94.768 119.692  0.00  0.00     0.028 C 
ATOM     12  C   LIG d   1      -9.604  95.904 120.724  0.00  0.00     0.006 C 
ENDBRANCH   8  11
ENDBRANCH   7   8
ENDBRANCH   1   7
BRANCH   6  13
ATOM     13  N   LIG d   1      -4.483  94.767 118.471  0.00  0.00    -0.311 N 
ATOM     14  C   LIG d   1      -4.162  95.247 119.672  0.00  0.00     0.210 C 
ATOM     15  C   LIG d   1      -3.623  96.681 119.672  0.00  0.00     0.109 C 
ATOM     16  O   LIG d   1      -4.242  94.609 120.733  0.00  0.00    -0.276 OA
ATOM     17  H   LIG d   1      -4.356  95.341 117.661  0.00  0.00     0.149 HD
ENDBRANCH   6  13
BRANCH   5  18
ATOM     18  N   LIG d   1      -2.845  92.320 117.659  0.00  0.00     0.381 N 
ATOM     19  H   LIG d   1      -2.601  92.931 118.413  0.00  0.00    -0.090 HD
ATOM     20  H   LIG d   1      -2.221  92.499 116.892  0.00  0.00    -0.090 HD
ATOM     21  H   LIG d   1      -2.762  91.371 117.950  0.00  0.00    -0.090 HD
ENDBRANCH   5  18
BRANCH   3  22
ATOM     22  C   LIG d   1      -6.862  90.401 115.892  0.00  0.00     0.382 C 
ATOM     23  O   LIG d   1      -8.097  90.190 115.958  0.00  0.00    -0.241 OA
ATOM     24  O   LIG d   1      -6.161  89.708 115.131  0.00  0.00    -0.241 OA
ENDBRANCH   3  22
TORSDOF 7
ENDMDL
MODEL 5
REMARK VINA RESULT:      -5.4     15.879     18.187
REMARK  7 active torsions:
REMARK  status: ('A' for Active; 'I' for Inactive)
REMARK    1  A    between atoms: C_2  and  C_3 
REMARK    2  A    between atoms: C_3  and  O_6 
REMARK    3  A    between atoms: C_3  and  C_4 
REMARK    4  A    between atoms: C_7  and  O_6 
REMARK    5  A    between atoms: C_9  and  C_10 
REMARK    6  A    between atoms: N_15  and  C_14 
REMARK    7  A    between atoms: N_20  and  C_19 
REMARK       I    between atoms: C_22  and  N_20 
ROOT
ATOM      1  C   LIG d   1      -4.763  92.546 117.754  0.00  0.00     0.161 C 
ATOM      2  C   LIG d   1      -4.904  91.527 116.797  0.00  0.00     0.016 C 
ATOM      3  C   LIG d   1      -6.077  91.337 116.030  0.00  0.00     0.038 C 
ATOM      4  C   LIG d   1      -7.139  92.253 116.061  0.00  0.00     0.028 C 
ATOM      5  C   LIG d   1      -7.247  93.011 117.380  0.00  0.00    -0.047 C 
ATOM      6  C   LIG d   1      -5.868  93.621 117.722  0.00  0.00     0.091 C 
ENDROOT
BRANCH   1   7
ATOM      7  O   LIG d   1      -3.464  93.158 117.626  0.00  0.00    -0.368 OA
BRANCH   7   8
ATOM      8  C   LIG d   1      -2.571  93.000 118.756  0.00  0.00     0.119 C 
BRANCH   8   9
ATOM      9  C   LIG d   1      -1.408  93.993 118.569  0.00  0.00     0.028 C 
ATOM     10  C   LIG d   1      -0.457  93.576 117.434  0.00  0.00     0.006 C 
ENDBRANCH   8   9
BRANCH   8  11
ATOM     11  C   LIG d   1      -1.923  91.613 118.764  0.00  0.00     0.028 C 
ATOM     12  C   LIG d   1      -2.260  90.805 120.028  0.00  0.00     0.006 C 
ENDBRANCH   8  11
ENDBRANCH   7   8
ENDBRANCH   1   7
BRANCH   6  13
ATOM     13  N   LIG d   1      -5.864  94.310 119.039  0.00  0.00    -0.311 N 
ATOM     14  C   LIG d   1      -6.142  95.603 119.191  0.00  0.00     0.210 C 
ATOM     15  C   LIG d   1      -6.062  96.117 120.632  0.00  0.00     0.109 C 
ATOM     16  O   LIG d   1      -6.480  96.367 118.274  0.00  0.00    -0.276 OA
ATOM     17  H   LIG d   1      -5.632  93.758 119.841  0.00  0.00     0.149 HD
ENDBRANCH   6  13
BRANCH   5  18
ATOM     18  N   LIG d   1      -8.306  94.026 117.225  0.00  0.00     0.381 N 
ATOM     19  H   LIG d   1      -9.205  93.590 117.285  0.00  0.00    -0.090 HD
ATOM     20  H   LIG d   1      -8.221  94.449 116.318  0.00  0.00    -0.090 HD
ATOM     21  H   LIG d   1      -8.218  94.722 117.933  0.00  0.00    -0.090 HD
ENDBRANCH   5  18
BRANCH   3  22
ATOM     22  C   LIG d   1      -6.212  90.199 115.250  0.00  0.00     0.382 C 
ATOM     23  O   LIG d   1      -7.332  89.892 114.777  0.00  0.00    -0.241 OA
ATOM     24  O   LIG d   1      -5.236  89.451 115.051  0.00  0.00    -0.241 OA
ENDBRANCH   3  22
TORSDOF 7
ENDMDL
MODEL 6
REMARK VINA RESULT:      -5.1      2.637      4.994
REMARK  7 active torsions:
REMARK  status: ('A' for Active; 'I' for Inactive)
REMARK    1  A    between atoms: C_2  and  C_3 
REMARK    2  A    between atoms: C_3  and  O_6 
REMARK    3  A    between atoms: C_3  and  C_4 
REMARK    4  A    between atoms: C_7  and  O_6 
REMARK    5  A    between atoms: C_9  and  C_10 
REMARK    6  A    between atoms: N_15  and  C_14 
REMARK    7  A    between atoms: N_20  and  C_19 
REMARK       I    between atoms: C_22  and  N_20 
ROOT
ATOM      1  C   LIG d   1      -7.546  77.367 117.178  0.00  0.00     0.161 C 
ATOM      2  C   LIG d   1      -6.990  78.645 117.353  0.00  0.00     0.016 C 
ATOM      3  C   LIG d   1      -7.561  79.635 118.185  0.00  0.00     0.038 C 
ATOM      4  C   LIG d   1      -8.652  79.359 119.023  0.00  0.00     0.028 C 
ATOM      5  C   LIG d   1      -9.548  78.241 118.503  0.00  0.00    -0.047 C 
ATOM      6  C   LIG d   1      -8.673  77.011 118.169  0.00  0.00     0.091 C 
ENDROOT
BRANCH   1   7
ATOM      7  O   LIG d   1      -6.505  76.371 117.225  0.00  0.00    -0.368 OA
BRANCH   7   8
ATOM      8  C   LIG d   1      -6.352  75.551 116.040  0.00  0.00     0.119 C 
BRANCH   8   9
ATOM      9  C   LIG d   1      -4.854  75.530 115.681  0.00  0.00     0.028 C 
ATOM     10  C   LIG d   1      -4.000  76.333 116.677  0.00  0.00     0.006 C 
ENDBRANCH   8   9
BRANCH   8  11
ATOM     11  C   LIG d   1      -7.049  76.184 114.832  0.00  0.00     0.028 C 
ATOM     12  C   LIG d   1      -6.132  76.291 113.603  0.00  0.00     0.006 C 
ENDBRANCH   8  11
ENDBRANCH   7   8
ENDBRANCH   1   7
BRANCH   6  13
ATOM     13  N   LIG d   1      -9.460  75.899 117.575  0.00  0.00    -0.311 N 
ATOM     14  C   LIG d   1      -9.441  74.653 118.046  0.00  0.00     0.210 C 
ATOM     15  C   LIG d   1     -10.311  73.657 117.273  0.00  0.00     0.109 C 
ATOM     16  O   LIG d   1      -8.812  74.286 119.049  0.00  0.00    -0.276 OA
ATOM     17  H   LIG d   1     -10.024  76.116 116.776  0.00  0.00     0.149 HD
ENDBRANCH   6  13
BRANCH   5  18
ATOM     18  N   LIG d   1     -10.563  77.965 119.537  0.00  0.00     0.381 N 
ATOM     19  H   LIG d   1     -11.395  78.486 119.343  0.00  0.00    -0.090 HD
ATOM     20  H   LIG d   1     -10.207  78.261 120.429  0.00  0.00    -0.090 HD
ATOM     21  H   LIG d   1     -10.770  76.991 119.560  0.00  0.00    -0.090 HD
ENDBRANCH   5  18
BRANCH   3  22
ATOM     22  C   LIG d   1      -7.064  80.929 118.155  0.00  0.00     0.382 C 
ATOM     23  O   LIG d   1      -6.322  81.337 119.080  0.00  0.00    -0.241 OA
ATOM     24  O   LIG d   1      -7.384  81.707 117.236  0.00  0.00    -0.241 OA
ENDBRANCH   3  22
TORSDOF 7
ENDMDL
MODEL 7
REMARK VINA RESULT:      -4.9     17.191     19.975
REMARK  7 active torsions:
REMARK  status: ('A' for Active; 'I' for Inactive)
REMARK    1  A    between atoms: C_2  and  C_3 
REMARK    2  A    between atoms: C_3  and  O_6 
REMARK    3  A    between atoms: C_3  and  C_4 
REMARK    4  A    between atoms: C_7  and  O_6 
REMARK    5  A    between atoms: C_9  and  C_10 
REMARK    6  A    between atoms: N_15  and  C_14 
REMARK    7  A    between atoms: N_20  and  C_19 
REMARK       I    between atoms: C_22  and  N_20 
ROOT
ATOM      1  C   LIG d   1      10.996  77.480 115.032  0.00  0.00     0.161 C 
ATOM      2  C   LIG d   1      11.175  78.726 114.409  0.00  0.00     0.016 C 
ATOM      3  C   LIG d   1      12.370  79.106 113.757  0.00  0.00     0.038 C 
ATOM      4  C   LIG d   1      13.423  78.201 113.551  0.00  0.00     0.028 C 
ATOM      5  C   LIG d   1      13.486  77.098 114.601  0.00  0.00    -0.047 C 
ATOM      6  C   LIG d   1      12.093  76.439 114.722  0.00  0.00     0.091 C 
ENDROOT
BRANCH   1   7
ATOM      7  O   LIG d   1       9.696  76.951 114.704  0.00  0.00    -0.368 OA
BRANCH   7   8
ATOM      8  C   LIG d   1       8.707  76.991 115.762  0.00  0.00     0.119 C 
BRANCH   8   9
ATOM      9  C   LIG d   1       7.684  78.085 115.398  0.00  0.00     0.028 C 
ATOM     10  C   LIG d   1       7.952  79.407 116.137  0.00  0.00     0.006 C 
ENDBRANCH   8   9
BRANCH   8  11
ATOM     11  C   LIG d   1       9.327  77.440 117.088  0.00  0.00     0.028 C 
ATOM     12  C   LIG d   1       9.056  76.454 118.236  0.00  0.00     0.006 C 
ENDBRANCH   8  11
ENDBRANCH   7   8
ENDBRANCH   1   7
BRANCH   6  13
ATOM     13  N   LIG d   1      12.045  75.405 115.788  0.00  0.00    -0.311 N 
ATOM     14  C   LIG d   1      12.332  74.121 115.578  0.00  0.00     0.210 C 
ATOM     15  C   LIG d   1      12.201  73.219 116.809  0.00  0.00     0.109 C 
ATOM     16  O   LIG d   1      12.713  73.650 114.496  0.00  0.00    -0.276 OA
ATOM     17  H   LIG d   1      11.775  75.706 116.704  0.00  0.00     0.149 HD
ENDBRANCH   6  13
BRANCH   5  18
ATOM     18  N   LIG d   1      14.539  76.151 114.190  0.00  0.00     0.381 N 
ATOM     19  H   LIG d   1      14.376  75.258 114.611  0.00  0.00    -0.090 HD
ATOM     20  H   LIG d   1      15.428  76.493 114.511  0.00  0.00    -0.090 HD
ATOM     21  H   LIG d   1      14.548  76.061 113.197  0.00  0.00    -0.090 HD
ENDBRANCH   5  18
BRANCH   3  22
ATOM     22  C   LIG d   1      12.537  80.417 113.337  0.00  0.00     0.382 C 
ATOM     23  O   LIG d   1      12.250  80.739 112.159  0.00  0.00    -0.241 OA
ATOM     24  O   LIG d   1      13.014  81.272 114.108  0.00  0.00    -0.241 OA
ENDBRANCH   3  22
TORSDOF 7
ENDMDL
MODEL 8
REMARK VINA RESULT:      -4.8     16.429     18.681
REMARK  7 active torsions:
REMARK  status: ('A' for Active; 'I' for Inactive)
REMARK    1  A    between atoms: C_2  and  C_3 
REMARK    2  A    between atoms: C_3  and  O_6 
REMARK    3  A    between atoms: C_3  and  C_4 
REMARK    4  A    between atoms: C_7  and  O_6 
REMARK    5  A    between atoms: C_9  and  C_10 
REMARK    6  A    between atoms: N_15  and  C_14 
REMARK    7  A    between atoms: N_20  and  C_19 
REMARK       I    between atoms: C_22  and  N_20 
ROOT
ATOM      1  C   LIG d   1      -5.796  93.611 118.112  0.00  0.00     0.161 C 
ATOM      2  C   LIG d   1      -6.517  93.249 116.962  0.00  0.00     0.016 C 
ATOM      3  C   LIG d   1      -6.146  92.177 116.117  0.00  0.00     0.038 C 
ATOM      4  C   LIG d   1      -5.108  91.295 116.451  0.00  0.00     0.028 C 
ATOM      5  C   LIG d   1      -4.040  91.924 117.339  0.00  0.00    -0.047 C 
ATOM      6  C   LIG d   1      -4.726  92.591 118.553  0.00  0.00     0.091 C 
ENDROOT
BRANCH   1   7
ATOM      7  O   LIG d   1      -6.708  93.880 119.195  0.00  0.00    -0.368 OA
BRANCH   7   8
ATOM      8  C   LIG d   1      -6.943  95.277 119.499  0.00  0.00     0.119 C 
BRANCH   8   9
ATOM      9  C   LIG d   1      -8.063  95.772 118.563  0.00  0.00     0.028 C 
ATOM     10  C   LIG d   1      -7.754  97.153 117.959  0.00  0.00     0.006 C 
ENDBRANCH   8   9
BRANCH   8  11
ATOM     11  C   LIG d   1      -5.721  96.134 119.159  0.00  0.00     0.028 C 
ATOM     12  C   LIG d   1      -4.925  96.558 120.403  0.00  0.00     0.006 C 
ENDBRANCH   8  11
ENDBRANCH   7   8
ENDBRANCH   1   7
BRANCH   6  13
ATOM     13  N   LIG d   1      -3.759  93.303 119.429  0.00  0.00    -0.311 N 
ATOM     14  C   LIG d   1      -3.195  92.749 120.501  0.00  0.00     0.210 C 
ATOM     15  C   LIG d   1      -2.243  93.665 121.277  0.00  0.00     0.109 C 
ATOM     16  O   LIG d   1      -3.368  91.576 120.864  0.00  0.00    -0.276 OA
ATOM     17  H   LIG d   1      -3.538  94.250 119.190  0.00  0.00     0.149 HD
ENDBRANCH   6  13
BRANCH   5  18
ATOM     18  N   LIG d   1      -3.094  90.859 117.722  0.00  0.00     0.381 N 
ATOM     19  H   LIG d   1      -2.522  90.616 116.938  0.00  0.00    -0.090 HD
ATOM     20  H   LIG d   1      -3.615  90.045 117.997  0.00  0.00    -0.090 HD
ATOM     21  H   LIG d   1      -2.522  91.166 118.478  0.00  0.00    -0.090 HD
ENDBRANCH   5  18
BRANCH   3  22
ATOM     22  C   LIG d   1      -6.792  92.005 114.902  0.00  0.00     0.382 C 
ATOM     23  O   LIG d   1      -6.512  92.749 113.932  0.00  0.00    -0.241 OA
ATOM     24  O   LIG d   1      -7.683  91.143 114.778  0.00  0.00    -0.241 OA
ENDBRANCH   3  22
TORSDOF 7
ENDMDL
MODEL 9
REMARK VINA RESULT:      -4.8      2.350      4.948
REMARK  7 active torsions:
REMARK  status: ('A' for Active; 'I' for Inactive)
REMARK    1  A    between atoms: C_2  and  C_3 
REMARK    2  A    between atoms: C_3  and  O_6 
REMARK    3  A    between atoms: C_3  and  C_4 
REMARK    4  A    between atoms: C_7  and  O_6 
REMARK    5  A    between atoms: C_9  and  C_10 
REMARK    6  A    between atoms: N_15  and  C_14 
REMARK    7  A    between atoms: N_20  and  C_19 
REMARK       I    between atoms: C_22  and  N_20 
ROOT
ATOM      1  C   LIG d   1      -6.688  77.853 117.233  0.00  0.00     0.161 C 
ATOM      2  C   LIG d   1      -5.952  77.423 116.116  0.00  0.00     0.016 C 
ATOM      3  C   LIG d   1      -6.254  76.248 115.391  0.00  0.00     0.038 C 
ATOM      4  C   LIG d   1      -7.413  75.498 115.644  0.00  0.00     0.028 C 
ATOM      5  C   LIG d   1      -7.906  75.612 117.082  0.00  0.00    -0.047 C 
ATOM      6  C   LIG d   1      -8.020  77.108 117.456  0.00  0.00     0.091 C 
ENDROOT
BRANCH   1   7
ATOM      7  O   LIG d   1      -6.916  79.274 117.151  0.00  0.00    -0.368 OA
BRANCH   7   8
ATOM      8  C   LIG d   1      -6.026  80.109 117.932  0.00  0.00     0.119 C 
BRANCH   8   9
ATOM      9  C   LIG d   1      -5.395  79.220 119.022  0.00  0.00     0.028 C 
ATOM     10  C   LIG d   1      -3.889  79.480 119.192  0.00  0.00     0.006 C 
ENDBRANCH   8   9
BRANCH   8  11
ATOM     11  C   LIG d   1      -6.799  81.192 118.689  0.00  0.00     0.028 C 
ATOM     12  C   LIG d   1      -8.323  81.024 118.577  0.00  0.00     0.006 C 
ENDBRANCH   8  11
ENDBRANCH   7   8
ENDBRANCH   1   7
BRANCH   6  13
ATOM     13  N   LIG d   1      -8.417  77.309 118.874  0.00  0.00    -0.311 N 
ATOM     14  C   LIG d   1      -9.673  77.527 119.260  0.00  0.00     0.210 C 
ATOM     15  C   LIG d   1      -9.860  77.728 120.767  0.00  0.00     0.109 C 
ATOM     16  O   LIG d   1     -10.654  77.540 118.501  0.00  0.00    -0.276 OA
ATOM     17  H   LIG d   1      -7.688  77.283 119.559  0.00  0.00     0.149 HD
ENDBRANCH   6  13
BRANCH   5  18
ATOM     18  N   LIG d   1      -9.192  74.895 117.170  0.00  0.00     0.381 N 
ATOM     19  H   LIG d   1      -9.109  74.129 117.808  0.00  0.00    -0.090 HD
ATOM     20  H   LIG d   1      -9.422  74.527 116.263  0.00  0.00    -0.090 HD
ATOM     21  H   LIG d   1      -9.909  75.515 117.476  0.00  0.00    -0.090 HD
ENDBRANCH   5  18
BRANCH   3  22
ATOM     22  C   LIG d   1      -5.371  75.790 114.425  0.00  0.00     0.382 C 
ATOM     23  O   LIG d   1      -5.085  76.515 113.443  0.00  0.00    -0.241 OA
ATOM     24  O   LIG d   1      -4.891  74.643 114.501  0.00  0.00    -0.241 OA
ENDBRANCH   3  22
TORSDOF 7
ENDMDL
