MODEL 1
REMARK VINA RESULT:      -6.1      0.000      0.000
REMARK  7 active torsions:
REMARK  status: ('A' for Active; 'I' for Inactive)
REMARK    1  A    between atoms: C_2  and  C_3 
REMARK    2  A    between atoms: C_3  and  O_6 
REMARK    3  A    between atoms: C_3  and  C_4 
REMARK    4  A    between atoms: C_7  and  O_6 
REMARK    5  A    between atoms: C_9  and  C_10 
REMARK    6  A    between atoms: N_15  and  C_14 
REMARK    7  A    between atoms: N_20  and  C_19 
REMARK       I    between atoms: C_22  and  N_20 
ROOT
ATOM      1  C   LIG d   1      -8.469  74.699 117.763  0.00  0.00     0.161 C 
ATOM      2  C   LIG d   1      -8.091  73.490 117.155  0.00  0.00     0.016 C 
ATOM      3  C   LIG d   1      -8.898  72.329 117.164  0.00  0.00     0.038 C 
ATOM      4  C   LIG d   1     -10.212  72.343 117.654  0.00  0.00     0.028 C 
ATOM      5  C   LIG d   1     -10.447  73.401 118.728  0.00  0.00    -0.047 C 
ATOM      6  C   LIG d   1      -9.946  74.766 118.205  0.00  0.00     0.091 C 
ENDROOT
BRANCH   1   7
ATOM      7  O   LIG d   1      -8.157  75.803 116.890  0.00  0.00    -0.368 OA
BRANCH   7   8
ATOM      8  C   LIG d   1      -6.753  76.007 116.597  0.00  0.00     0.119 C 
BRANCH   8   9
ATOM      9  C   LIG d   1      -6.395  77.444 117.021  0.00  0.00     0.028 C 
ATOM     10  C   LIG d   1      -7.457  78.065 117.945  0.00  0.00     0.006 C 
ENDBRANCH   8   9
BRANCH   8  11
ATOM     11  C   LIG d   1      -6.484  75.949 115.090  0.00  0.00     0.028 C 
ATOM     12  C   LIG d   1      -5.828  74.630 114.652  0.00  0.00     0.006 C 
ENDBRANCH   8  11
ENDBRANCH   7   8
ENDBRANCH   1   7
BRANCH   6  13
ATOM     13  N   LIG d   1     -10.061  75.841 119.226  0.00  0.00    -0.311 N 
ATOM     14  C   LIG d   1     -11.105  76.663 119.310  0.00  0.00     0.210 C 
ATOM     15  C   LIG d   1     -11.014  77.713 120.422  0.00  0.00     0.109 C 
ATOM     16  O   LIG d   1     -12.113  76.603 118.589  0.00  0.00    -0.276 OA
ATOM     17  H   LIG d   1      -9.302  75.940 119.871  0.00  0.00     0.149 HD
ENDBRANCH   6  13
BRANCH   5  18
ATOM     18  N   LIG d   1     -11.887  73.398 119.050  0.00  0.00     0.381 N 
ATOM     19  H   LIG d   1     -12.417  73.621 118.231  0.00  0.00    -0.090 HD
ATOM     20  H   LIG d   1     -12.066  74.102 119.743  0.00  0.00    -0.090 HD
ATOM     21  H   LIG d   1     -12.157  72.503 119.396  0.00  0.00    -0.090 HD
ENDBRANCH   5  18
BRANCH   3  22
ATOM     22  C   LIG d   1      -8.376  71.126 116.715  0.00  0.00     0.382 C 
ATOM     23  O   LIG d   1      -7.422  71.122 115.899  0.00  0.00    -0.241 OA
ATOM     24  O   LIG d   1      -8.875  70.045 117.079  0.00  0.00    -0.241 OA
ENDBRANCH   3  22
TORSDOF 7
ENDMDL
MODEL 2
REMARK VINA RESULT:      -6.0      2.003      4.555
REMARK  7 active torsions:
REMARK  status: ('A' for Active; 'I' for Inactive)
REMARK    1  A    between atoms: C_2  and  C_3 
REMARK    2  A    between atoms: C_3  and  O_6 
REMARK    3  A    between atoms: C_3  and  C_4 
REMARK    4  A    between atoms: C_7  and  O_6 
REMARK    5  A    between atoms: C_9  and  C_10 
REMARK    6  A    between atoms: N_15  and  C_14 
REMARK    7  A    between atoms: N_20  and  C_19 
REMARK       I    between atoms: C_22  and  N_20 
ROOT
ATOM      1  C   LIG d   1      -9.822  74.293 117.866  0.00  0.00     0.161 C 
ATOM      2  C   LIG d   1      -9.571  72.973 117.456  0.00  0.00     0.016 C 
ATOM      3  C   LIG d   1      -8.310  72.527 116.998  0.00  0.00     0.038 C 
ATOM      4  C   LIG d   1      -7.168  73.340 117.062  0.00  0.00     0.028 C 
ATOM      5  C   LIG d   1      -7.481  74.831 116.994  0.00  0.00    -0.047 C 
ATOM      6  C   LIG d   1      -8.562  75.165 118.048  0.00  0.00     0.091 C 
ENDROOT
BRANCH   1   7
ATOM      7  O   LIG d   1     -10.607  74.288 119.075  0.00  0.00    -0.368 OA
BRANCH   7   8
ATOM      8  C   LIG d   1     -11.960  73.785 118.955  0.00  0.00     0.119 C 
BRANCH   8   9
ATOM      9  C   LIG d   1     -12.917  74.953 119.260  0.00  0.00     0.028 C 
ATOM     10  C   LIG d   1     -12.168  76.250 119.608  0.00  0.00     0.006 C 
ENDBRANCH   8   9
BRANCH   8  11
ATOM     11  C   LIG d   1     -12.258  72.728 120.022  0.00  0.00     0.028 C 
ATOM     12  C   LIG d   1     -13.428  73.119 120.938  0.00  0.00     0.006 C 
ENDBRANCH   8  11
ENDBRANCH   7   8
ENDBRANCH   1   7
BRANCH   6  13
ATOM     13  N   LIG d   1      -8.987  76.588 117.992  0.00  0.00    -0.311 N 
ATOM     14  C   LIG d   1      -8.473  77.538 118.770  0.00  0.00     0.210 C 
ATOM     15  C   LIG d   1      -9.067  78.935 118.564  0.00  0.00     0.109 C 
ATOM     16  O   LIG d   1      -7.558  77.363 119.589  0.00  0.00    -0.276 OA
ATOM     17  H   LIG d   1      -9.703  76.824 117.333  0.00  0.00     0.149 HD
ENDBRANCH   6  13
BRANCH   5  18
ATOM     18  N   LIG d   1      -6.218  75.561 117.210  0.00  0.00     0.381 N 
ATOM     19  H   LIG d   1      -6.360  76.293 117.877  0.00  0.00    -0.090 HD
ATOM     20  H   LIG d   1      -5.931  75.978 116.342  0.00  0.00    -0.090 HD
ATOM     21  H   LIG d   1      -5.514  74.936 117.536  0.00  0.00    -0.090 HD
ENDBRANCH   5  18
BRANCH   3  22
ATOM     22  C   LIG d   1      -8.191  71.267 116.432  0.00  0.00     0.382 C 
ATOM     23  O   LIG d   1      -7.183  70.983 115.741  0.00  0.00    -0.241 OA
ATOM     24  O   LIG d   1      -9.100  70.426 116.566  0.00  0.00    -0.241 OA
ENDBRANCH   3  22
TORSDOF 7
ENDMDL
MODEL 3
REMARK VINA RESULT:      -5.7      0.804      1.684
REMARK  7 active torsions:
REMARK  status: ('A' for Active; 'I' for Inactive)
REMARK    1  A    between atoms: C_2  and  C_3 
REMARK    2  A    between atoms: C_3  and  O_6 
REMARK    3  A    between atoms: C_3  and  C_4 
REMARK    4  A    between atoms: C_7  and  O_6 
REMARK    5  A    between atoms: C_9  and  C_10 
REMARK    6  A    between atoms: N_15  and  C_14 
REMARK    7  A    between atoms: N_20  and  C_19 
REMARK       I    between atoms: C_22  and  N_20 
ROOT
ATOM      1  C   LIG d   1      -8.320  74.593 117.677  0.00  0.00     0.161 C 
ATOM      2  C   LIG d   1      -7.961  73.370 117.084  0.00  0.00     0.016 C 
ATOM      3  C   LIG d   1      -8.793  72.227 117.095  0.00  0.00     0.038 C 
ATOM      4  C   LIG d   1     -10.111  72.273 117.571  0.00  0.00     0.028 C 
ATOM      5  C   LIG d   1     -10.335  73.345 118.633  0.00  0.00    -0.047 C 
ATOM      6  C   LIG d   1      -9.800  74.695 118.103  0.00  0.00     0.091 C 
ENDROOT
BRANCH   1   7
ATOM      7  O   LIG d   1      -7.976  75.682 116.798  0.00  0.00    -0.368 OA
BRANCH   7   8
ATOM      8  C   LIG d   1      -6.954  76.590 117.279  0.00  0.00     0.119 C 
BRANCH   8   9
ATOM      9  C   LIG d   1      -6.011  76.893 116.098  0.00  0.00     0.028 C 
ATOM     10  C   LIG d   1      -6.019  75.777 115.040  0.00  0.00     0.006 C 
ENDBRANCH   8   9
BRANCH   8  11
ATOM     11  C   LIG d   1      -6.073  75.926 118.341  0.00  0.00     0.028 C 
ATOM     12  C   LIG d   1      -5.518  76.927 119.366  0.00  0.00     0.006 C 
ENDBRANCH   8  11
ENDBRANCH   7   8
ENDBRANCH   1   7
BRANCH   6  13
ATOM     13  N   LIG d   1      -9.903  75.780 119.113  0.00  0.00    -0.311 N 
ATOM     14  C   LIG d   1     -10.955  76.591 119.214  0.00  0.00     0.210 C 
ATOM     15  C   LIG d   1     -10.849  77.655 120.310  0.00  0.00     0.109 C 
ATOM     16  O   LIG d   1     -11.980  76.508 118.520  0.00  0.00    -0.276 OA
ATOM     17  H   LIG d   1      -9.128  75.898 119.737  0.00  0.00     0.149 HD
ENDBRANCH   6  13
BRANCH   5  18
ATOM     18  N   LIG d   1     -11.777  73.375 118.939  0.00  0.00     0.381 N 
ATOM     19  H   LIG d   1     -12.081  72.467 119.230  0.00  0.00    -0.090 HD
ATOM     20  H   LIG d   1     -12.281  73.623 118.106  0.00  0.00    -0.090 HD
ATOM     21  H   LIG d   1     -11.960  74.040 119.657  0.00  0.00    -0.090 HD
ENDBRANCH   5  18
BRANCH   3  22
ATOM     22  C   LIG d   1      -8.291  71.009 116.661  0.00  0.00     0.382 C 
ATOM     23  O   LIG d   1      -7.322  70.978 115.865  0.00  0.00    -0.241 OA
ATOM     24  O   LIG d   1      -8.824  69.942 117.022  0.00  0.00    -0.241 OA
ENDBRANCH   3  22
TORSDOF 7
ENDMDL
MODEL 4
REMARK VINA RESULT:      -5.7      2.160      4.874
REMARK  7 active torsions:
REMARK  status: ('A' for Active; 'I' for Inactive)
REMARK    1  A    between atoms: C_2  and  C_3 
REMARK    2  A    between atoms: C_3  and  O_6 
REMARK    3  A    between atoms: C_3  and  C_4 
REMARK    4  A    between atoms: C_7  and  O_6 
REMARK    5  A    between atoms: C_9  and  C_10 
REMARK    6  A    between atoms: N_15  and  C_14 
REMARK    7  A    between atoms: N_20  and  C_19 
REMARK       I    between atoms: C_22  and  N_20 
ROOT
ATOM      1  C   LIG d   1      -8.337  74.438 117.537  0.00  0.00     0.161 C 
ATOM      2  C   LIG d   1      -7.564  74.364 116.366  0.00  0.00     0.016 C 
ATOM      3  C   LIG d   1      -6.752  75.424 115.902  0.00  0.00     0.038 C 
ATOM      4  C   LIG d   1      -6.539  76.583 116.663  0.00  0.00     0.028 C 
ATOM      5  C   LIG d   1      -7.693  76.909 117.605  0.00  0.00    -0.047 C 
ATOM      6  C   LIG d   1      -8.031  75.652 118.438  0.00  0.00     0.091 C 
ENDROOT
BRANCH   1   7
ATOM      7  O   LIG d   1      -8.208  73.213 118.285  0.00  0.00    -0.368 OA
BRANCH   7   8
ATOM      8  C   LIG d   1      -9.339  72.309 118.228  0.00  0.00     0.119 C 
BRANCH   8   9
ATOM      9  C   LIG d   1      -9.253  71.544 116.893  0.00  0.00     0.028 C 
ATOM     10  C   LIG d   1      -7.938  70.760 116.749  0.00  0.00     0.006 C 
ENDBRANCH   8   9
BRANCH   8  11
ATOM     11  C   LIG d   1     -10.663  73.076 118.172  0.00  0.00     0.028 C 
ATOM     12  C   LIG d   1     -11.569  72.789 119.380  0.00  0.00     0.006 C 
ENDBRANCH   8  11
ENDBRANCH   7   8
ENDBRANCH   1   7
BRANCH   6  13
ATOM     13  N   LIG d   1      -9.205  75.859 119.326  0.00  0.00    -0.311 N 
ATOM     14  C   LIG d   1      -9.176  75.647 120.641  0.00  0.00     0.210 C 
ATOM     15  C   LIG d   1     -10.501  75.902 121.367  0.00  0.00     0.109 C 
ATOM     16  O   LIG d   1      -8.170  75.301 121.280  0.00  0.00    -0.276 OA
ATOM     17  H   LIG d   1     -10.054  76.169 118.896  0.00  0.00     0.149 HD
ENDBRANCH   6  13
BRANCH   5  18
ATOM     18  N   LIG d   1      -7.280  78.058 118.434  0.00  0.00     0.381 N 
ATOM     19  H   LIG d   1      -6.486  77.808 118.988  0.00  0.00    -0.090 HD
ATOM     20  H   LIG d   1      -8.034  78.299 119.054  0.00  0.00    -0.090 HD
ATOM     21  H   LIG d   1      -7.058  78.836 117.852  0.00  0.00    -0.090 HD
ENDBRANCH   5  18
BRANCH   3  22
ATOM     22  C   LIG d   1      -6.174  75.347 114.644  0.00  0.00     0.382 C 
ATOM     23  O   LIG d   1      -6.295  76.301 113.839  0.00  0.00    -0.241 OA
ATOM     24  O   LIG d   1      -5.570  74.317 114.288  0.00  0.00    -0.241 OA
ENDBRANCH   3  22
TORSDOF 7
ENDMDL
MODEL 5
REMARK VINA RESULT:      -5.4      2.300      4.682
REMARK  7 active torsions:
REMARK  status: ('A' for Active; 'I' for Inactive)
REMARK    1  A    between atoms: C_2  and  C_3 
REMARK    2  A    between atoms: C_3  and  O_6 
REMARK    3  A    between atoms: C_3  and  C_4 
REMARK    4  A    between atoms: C_7  and  O_6 
REMARK    5  A    between atoms: C_9  and  C_10 
REMARK    6  A    between atoms: N_15  and  C_14 
REMARK    7  A    between atoms: N_20  and  C_19 
REMARK       I    between atoms: C_22  and  N_20 
ROOT
ATOM      1  C   LIG d   1      -8.251  75.225 117.256  0.00  0.00     0.161 C 
ATOM      2  C   LIG d   1      -7.274  74.560 116.497  0.00  0.00     0.016 C 
ATOM      3  C   LIG d   1      -6.003  75.110 116.210  0.00  0.00     0.038 C 
ATOM      4  C   LIG d   1      -5.565  76.308 116.795  0.00  0.00     0.028 C 
ATOM      5  C   LIG d   1      -6.703  77.256 117.159  0.00  0.00    -0.047 C 
ATOM      6  C   LIG d   1      -7.750  76.485 117.994  0.00  0.00     0.091 C 
ENDROOT
BRANCH   1   7
ATOM      7  O   LIG d   1      -8.856  74.306 118.187  0.00  0.00    -0.368 OA
BRANCH   7   8
ATOM      8  C   LIG d   1      -9.948  73.505 117.673  0.00  0.00     0.119 C 
BRANCH   8   9
ATOM      9  C   LIG d   1     -11.203  73.849 118.498  0.00  0.00     0.028 C 
ATOM     10  C   LIG d   1     -11.627  72.700 119.428  0.00  0.00     0.006 C 
ENDBRANCH   8   9
BRANCH   8  11
ATOM     11  C   LIG d   1      -9.703  72.012 117.910  0.00  0.00     0.028 C 
ATOM     12  C   LIG d   1      -9.164  71.291 116.665  0.00  0.00     0.006 C 
ENDBRANCH   8  11
ENDBRANCH   7   8
ENDBRANCH   1   7
BRANCH   6  13
ATOM     13  N   LIG d   1      -8.938  77.316 118.322  0.00  0.00    -0.311 N 
ATOM     14  C   LIG d   1      -9.066  77.995 119.460  0.00  0.00     0.210 C 
ATOM     15  C   LIG d   1     -10.378  78.772 119.605  0.00  0.00     0.109 C 
ATOM     16  O   LIG d   1      -8.203  78.054 120.349  0.00  0.00    -0.276 OA
ATOM     17  H   LIG d   1      -9.672  77.350 117.642  0.00  0.00     0.149 HD
ENDBRANCH   6  13
BRANCH   5  18
ATOM     18  N   LIG d   1      -6.115  78.400 117.882  0.00  0.00     0.381 N 
ATOM     19  H   LIG d   1      -5.704  78.084 118.738  0.00  0.00    -0.090 HD
ATOM     20  H   LIG d   1      -6.846  79.053 118.105  0.00  0.00    -0.090 HD
ATOM     21  H   LIG d   1      -5.425  78.843 117.316  0.00  0.00    -0.090 HD
ENDBRANCH   5  18
BRANCH   3  22
ATOM     22  C   LIG d   1      -5.171  74.479 115.299  0.00  0.00     0.382 C 
ATOM     23  O   LIG d   1      -3.929  74.647 115.363  0.00  0.00    -0.241 OA
ATOM     24  O   LIG d   1      -5.649  73.780 114.385  0.00  0.00    -0.241 OA
ENDBRANCH   3  22
TORSDOF 7
ENDMDL
MODEL 6
REMARK VINA RESULT:      -5.3     10.521     13.784
REMARK  7 active torsions:
REMARK  status: ('A' for Active; 'I' for Inactive)
REMARK    1  A    between atoms: C_2  and  C_3 
REMARK    2  A    between atoms: C_3  and  O_6 
REMARK    3  A    between atoms: C_3  and  C_4 
REMARK    4  A    between atoms: C_7  and  O_6 
REMARK    5  A    between atoms: C_9  and  C_10 
REMARK    6  A    between atoms: N_15  and  C_14 
REMARK    7  A    between atoms: N_20  and  C_19 
REMARK       I    between atoms: C_22  and  N_20 
ROOT
ATOM      1  C   LIG d   1     -16.646  64.410 116.578  0.00  0.00     0.161 C 
ATOM      2  C   LIG d   1     -16.349  65.377 115.603  0.00  0.00     0.016 C 
ATOM      3  C   LIG d   1     -15.435  66.435 115.810  0.00  0.00     0.038 C 
ATOM      4  C   LIG d   1     -14.637  66.511 116.961  0.00  0.00     0.028 C 
ATOM      5  C   LIG d   1     -15.267  65.845 118.180  0.00  0.00    -0.047 C 
ATOM      6  C   LIG d   1     -15.703  64.412 117.800  0.00  0.00     0.091 C 
ENDROOT
BRANCH   1   7
ATOM      7  O   LIG d   1     -16.681  63.102 115.974  0.00  0.00    -0.368 OA
BRANCH   7   8
ATOM      8  C   LIG d   1     -17.996  62.540 115.746  0.00  0.00     0.119 C 
BRANCH   8   9
ATOM      9  C   LIG d   1     -18.029  61.151 116.413  0.00  0.00     0.028 C 
ATOM     10  C   LIG d   1     -18.051  60.007 115.385  0.00  0.00     0.006 C 
ENDBRANCH   8   9
BRANCH   8  11
ATOM     11  C   LIG d   1     -18.241  62.280 114.256  0.00  0.00     0.028 C 
ATOM     12  C   LIG d   1     -18.755  63.523 113.512  0.00  0.00     0.006 C 
ENDBRANCH   8  11
ENDBRANCH   7   8
ENDBRANCH   1   7
BRANCH   6  13
ATOM     13  N   LIG d   1     -16.405  63.719 118.911  0.00  0.00    -0.311 N 
ATOM     14  C   LIG d   1     -15.797  62.892 119.760  0.00  0.00     0.210 C 
ATOM     15  C   LIG d   1     -16.709  62.268 120.820  0.00  0.00     0.109 C 
ATOM     16  O   LIG d   1     -14.582  62.642 119.755  0.00  0.00    -0.276 OA
ATOM     17  H   LIG d   1     -17.387  63.890 119.008  0.00  0.00     0.149 HD
ENDBRANCH   6  13
BRANCH   5  18
ATOM     18  N   LIG d   1     -14.272  65.877 119.269  0.00  0.00     0.381 N 
ATOM     19  H   LIG d   1     -14.038  66.825 119.486  0.00  0.00    -0.090 HD
ATOM     20  H   LIG d   1     -13.438  65.409 118.961  0.00  0.00    -0.090 HD
ATOM     21  H   LIG d   1     -14.637  65.424 120.078  0.00  0.00    -0.090 HD
ENDBRANCH   5  18
BRANCH   3  22
ATOM     22  C   LIG d   1     -15.341  67.455 114.875  0.00  0.00     0.382 C 
ATOM     23  O   LIG d   1     -15.066  67.187 113.681  0.00  0.00    -0.241 OA
ATOM     24  O   LIG d   1     -15.484  68.643 115.220  0.00  0.00    -0.241 OA
ENDBRANCH   3  22
TORSDOF 7
ENDMDL
MODEL 7
REMARK VINA RESULT:      -5.2     10.286     13.401
REMARK  7 active torsions:
REMARK  status: ('A' for Active; 'I' for Inactive)
REMARK    1  A    between atoms: C_2  and  C_3 
REMARK    2  A    between atoms: C_3  and  O_6 
REMARK    3  A    between atoms: C_3  and  C_4 
REMARK    4  A    between atoms: C_7  and  O_6 
REMARK    5  A    between atoms: C_9  and  C_10 
REMARK    6  A    between atoms: N_15  and  C_14 
REMARK    7  A    between atoms: N_20  and  C_19 
REMARK       I    between atoms: C_22  and  N_20 
ROOT
ATOM      1  C   LIG d   1     -17.472  65.372 117.075  0.00  0.00     0.161 C 
ATOM      2  C   LIG d   1     -16.969  66.089 115.977  0.00  0.00     0.016 C 
ATOM      3  C   LIG d   1     -15.667  66.638 115.936  0.00  0.00     0.038 C 
ATOM      4  C   LIG d   1     -14.720  66.375 116.937  0.00  0.00     0.028 C 
ATOM      5  C   LIG d   1     -15.343  66.080 118.298  0.00  0.00    -0.047 C 
ATOM      6  C   LIG d   1     -16.417  64.980 118.130  0.00  0.00     0.091 C 
ENDROOT
BRANCH   1   7
ATOM      7  O   LIG d   1     -18.177  64.203 116.613  0.00  0.00    -0.368 OA
BRANCH   7   8
ATOM      8  C   LIG d   1     -17.376  63.196 115.947  0.00  0.00     0.119 C 
BRANCH   8   9
ATOM      9  C   LIG d   1     -18.067  62.863 114.611  0.00  0.00     0.028 C 
ATOM     10  C   LIG d   1     -17.676  63.837 113.488  0.00  0.00     0.006 C 
ENDBRANCH   8   9
BRANCH   8  11
ATOM     11  C   LIG d   1     -17.362  61.884 116.736  0.00  0.00     0.028 C 
ATOM     12  C   LIG d   1     -18.007  60.720 115.967  0.00  0.00     0.006 C 
ENDBRANCH   8  11
ENDBRANCH   7   8
ENDBRANCH   1   7
BRANCH   6  13
ATOM     13  N   LIG d   1     -17.135  64.690 119.398  0.00  0.00    -0.311 N 
ATOM     14  C   LIG d   1     -16.806  63.691 120.215  0.00  0.00     0.210 C 
ATOM     15  C   LIG d   1     -17.689  63.556 121.460  0.00  0.00     0.109 C 
ATOM     16  O   LIG d   1     -15.848  62.923 120.043  0.00  0.00    -0.276 OA
ATOM     17  H   LIG d   1     -17.907  65.284 119.631  0.00  0.00     0.149 HD
ENDBRANCH   6  13
BRANCH   5  18
ATOM     18  N   LIG d   1     -14.254  65.689 119.212  0.00  0.00     0.381 N 
ATOM     19  H   LIG d   1     -14.251  64.695 119.330  0.00  0.00    -0.090 HD
ATOM     20  H   LIG d   1     -14.414  66.113 120.109  0.00  0.00    -0.090 HD
ATOM     21  H   LIG d   1     -13.377  65.990 118.846  0.00  0.00    -0.090 HD
ENDBRANCH   5  18
BRANCH   3  22
ATOM     22  C   LIG d   1     -15.313  67.493 114.904  0.00  0.00     0.382 C 
ATOM     23  O   LIG d   1     -15.079  67.032 113.760  0.00  0.00    -0.241 OA
ATOM     24  O   LIG d   1     -15.182  68.714 115.111  0.00  0.00    -0.241 OA
ENDBRANCH   3  22
TORSDOF 7
ENDMDL
MODEL 8
REMARK VINA RESULT:      -5.2     10.245     12.300
REMARK  7 active torsions:
REMARK  status: ('A' for Active; 'I' for Inactive)
REMARK    1  A    between atoms: C_2  and  C_3 
REMARK    2  A    between atoms: C_3  and  O_6 
REMARK    3  A    between atoms: C_3  and  C_4 
REMARK    4  A    between atoms: C_7  and  O_6 
REMARK    5  A    between atoms: C_9  and  C_10 
REMARK    6  A    between atoms: N_15  and  C_14 
REMARK    7  A    between atoms: N_20  and  C_19 
REMARK       I    between atoms: C_22  and  N_20 
ROOT
ATOM      1  C   LIG d   1     -14.981  64.953 117.431  0.00  0.00     0.161 C 
ATOM      2  C   LIG d   1     -15.775  64.288 116.482  0.00  0.00     0.016 C 
ATOM      3  C   LIG d   1     -16.776  63.350 116.825  0.00  0.00     0.038 C 
ATOM      4  C   LIG d   1     -17.156  63.125 118.156  0.00  0.00     0.028 C 
ATOM      5  C   LIG d   1     -16.041  63.398 119.159  0.00  0.00    -0.047 C 
ATOM      6  C   LIG d   1     -15.457  64.804 118.891  0.00  0.00     0.091 C 
ENDROOT
BRANCH   1   7
ATOM      7  O   LIG d   1     -14.867  66.347 117.082  0.00  0.00    -0.368 OA
BRANCH   7   8
ATOM      8  C   LIG d   1     -15.772  66.823 116.056  0.00  0.00     0.119 C 
BRANCH   8   9
ATOM      9  C   LIG d   1     -14.957  67.711 115.095  0.00  0.00     0.028 C 
ATOM     10  C   LIG d   1     -15.358  67.505 113.625  0.00  0.00     0.006 C 
ENDBRANCH   8   9
BRANCH   8  11
ATOM     11  C   LIG d   1     -16.846  67.743 116.644  0.00  0.00     0.028 C 
ATOM     12  C   LIG d   1     -18.091  66.976 117.119  0.00  0.00     0.006 C 
ENDBRANCH   8  11
ENDBRANCH   7   8
ENDBRANCH   1   7
BRANCH   6  13
ATOM     13  N   LIG d   1     -14.304  65.117 119.775  0.00  0.00    -0.311 N 
ATOM     14  C   LIG d   1     -14.422  65.764 120.933  0.00  0.00     0.210 C 
ATOM     15  C   LIG d   1     -13.105  66.001 121.678  0.00  0.00     0.109 C 
ATOM     16  O   LIG d   1     -15.496  66.136 121.429  0.00  0.00    -0.276 OA
ATOM     17  H   LIG d   1     -13.398  64.823 119.464  0.00  0.00     0.149 HD
ENDBRANCH   6  13
BRANCH   5  18
ATOM     18  N   LIG d   1     -16.613  63.257 120.511  0.00  0.00     0.381 N 
ATOM     19  H   LIG d   1     -17.237  62.475 120.536  0.00  0.00    -0.090 HD
ATOM     20  H   LIG d   1     -17.138  64.086 120.730  0.00  0.00    -0.090 HD
ATOM     21  H   LIG d   1     -15.884  63.131 121.179  0.00  0.00    -0.090 HD
ENDBRANCH   5  18
BRANCH   3  22
ATOM     22  C   LIG d   1     -17.380  62.596 115.830  0.00  0.00     0.382 C 
ATOM     23  O   LIG d   1     -17.523  61.359 115.981  0.00  0.00    -0.241 OA
ATOM     24  O   LIG d   1     -17.745  63.131 114.766  0.00  0.00    -0.241 OA
ENDBRANCH   3  22
TORSDOF 7
ENDMDL
MODEL 9
REMARK VINA RESULT:      -5.1      1.757      4.824
REMARK  7 active torsions:
REMARK  status: ('A' for Active; 'I' for Inactive)
REMARK    1  A    between atoms: C_2  and  C_3 
REMARK    2  A    between atoms: C_3  and  O_6 
REMARK    3  A    between atoms: C_3  and  C_4 
REMARK    4  A    between atoms: C_7  and  O_6 
REMARK    5  A    between atoms: C_9  and  C_10 
REMARK    6  A    between atoms: N_15  and  C_14 
REMARK    7  A    between atoms: N_20  and  C_19 
REMARK       I    between atoms: C_22  and  N_20 
ROOT
ATOM      1  C   LIG d   1      -8.811  74.987 117.939  0.00  0.00     0.161 C 
ATOM      2  C   LIG d   1      -9.080  76.279 118.421  0.00  0.00     0.016 C 
ATOM      3  C   LIG d   1     -10.258  76.617 119.126  0.00  0.00     0.038 C 
ATOM      4  C   LIG d   1     -11.185  75.644 119.530  0.00  0.00     0.028 C 
ATOM      5  C   LIG d   1     -11.204  74.414 118.629  0.00  0.00    -0.047 C 
ATOM      6  C   LIG d   1      -9.759  73.890 118.466  0.00  0.00     0.091 C 
ENDROOT
BRANCH   1   7
ATOM      7  O   LIG d   1      -7.440  74.639 118.212  0.00  0.00    -0.368 OA
BRANCH   7   8
ATOM      8  C   LIG d   1      -6.642  74.243 117.069  0.00  0.00     0.119 C 
BRANCH   8   9
ATOM      9  C   LIG d   1      -5.161  74.344 117.481  0.00  0.00     0.028 C 
ATOM     10  C   LIG d   1      -4.915  75.449 118.522  0.00  0.00     0.006 C 
ENDBRANCH   8   9
BRANCH   8  11
ATOM     11  C   LIG d   1      -6.808  75.226 115.907  0.00  0.00     0.028 C 
ATOM     12  C   LIG d   1      -5.965  74.846 114.679  0.00  0.00     0.006 C 
ENDBRANCH   8  11
ENDBRANCH   7   8
ENDBRANCH   1   7
BRANCH   6  13
ATOM     13  N   LIG d   1      -9.676  72.737 117.532  0.00  0.00    -0.311 N 
ATOM     14  C   LIG d   1      -9.061  71.594 117.830  0.00  0.00     0.210 C 
ATOM     15  C   LIG d   1      -9.075  70.542 116.717  0.00  0.00     0.109 C 
ATOM     16  O   LIG d   1      -8.534  71.339 118.923  0.00  0.00    -0.276 OA
ATOM     17  H   LIG d   1     -10.105  72.846 116.634  0.00  0.00     0.149 HD
ENDBRANCH   6  13
BRANCH   5  18
ATOM     18  N   LIG d   1     -12.112  73.426 119.242  0.00  0.00     0.381 N 
ATOM     19  H   LIG d   1     -11.599  72.604 119.492  0.00  0.00    -0.090 HD
ATOM     20  H   LIG d   1     -12.813  73.169 118.570  0.00  0.00    -0.090 HD
ATOM     21  H   LIG d   1     -12.543  73.816 120.051  0.00  0.00    -0.090 HD
ENDBRANCH   5  18
BRANCH   3  22
ATOM     22  C   LIG d   1     -10.538  77.947 119.399  0.00  0.00     0.382 C 
ATOM     23  O   LIG d   1     -11.150  78.256 120.449  0.00  0.00    -0.241 OA
ATOM     24  O   LIG d   1     -10.225  78.838 118.587  0.00  0.00    -0.241 OA
ENDBRANCH   3  22
TORSDOF 7
ENDMDL
