MODEL 1
REMARK VINA RESULT:      -5.7      0.000      0.000
REMARK  7 active torsions:
REMARK  status: ('A' for Active; 'I' for Inactive)
REMARK    1  A    between atoms: C_2  and  C_3 
REMARK    2  A    between atoms: C_3  and  O_6 
REMARK    3  A    between atoms: C_3  and  C_4 
REMARK    4  A    between atoms: C_7  and  O_6 
REMARK    5  A    between atoms: C_9  and  C_10 
REMARK    6  A    between atoms: N_15  and  C_14 
REMARK    7  A    between atoms: N_20  and  C_19 
REMARK       I    between atoms: C_22  and  N_20 
ROOT
ATOM      1  C   LIG d   1      -5.013  75.342 116.695  0.00  0.00     0.161 C 
ATOM      2  C   LIG d   1      -5.560  75.712 115.455  0.00  0.00     0.016 C 
ATOM      3  C   LIG d   1      -4.776  75.986 114.310  0.00  0.00     0.038 C 
ATOM      4  C   LIG d   1      -3.392  75.761 114.288  0.00  0.00     0.028 C 
ATOM      5  C   LIG d   1      -2.738  75.872 115.661  0.00  0.00    -0.047 C 
ATOM      6  C   LIG d   1      -3.513  74.983 116.660  0.00  0.00     0.091 C 
ENDROOT
BRANCH   1   7
ATOM      7  O   LIG d   1      -5.775  74.257 117.260  0.00  0.00    -0.368 OA
BRANCH   7   8
ATOM      8  C   LIG d   1      -7.021  73.938 116.594  0.00  0.00     0.119 C 
BRANCH   8   9
ATOM      9  C   LIG d   1      -8.166  74.278 117.567  0.00  0.00     0.028 C 
ATOM     10  C   LIG d   1      -8.783  75.659 117.288  0.00  0.00     0.006 C 
ENDBRANCH   8   9
BRANCH   8  11
ATOM     11  C   LIG d   1      -7.144  72.433 116.333  0.00  0.00     0.028 C 
ATOM     12  C   LIG d   1      -8.593  71.929 116.425  0.00  0.00     0.006 C 
ENDBRANCH   8  11
ENDBRANCH   7   8
ENDBRANCH   1   7
BRANCH   6  13
ATOM     13  N   LIG d   1      -2.990  75.099 118.046  0.00  0.00    -0.311 N 
ATOM     14  C   LIG d   1      -2.000  74.346 118.522  0.00  0.00     0.210 C 
ATOM     15  C   LIG d   1      -1.628  74.614 119.983  0.00  0.00     0.109 C 
ATOM     16  O   LIG d   1      -1.374  73.503 117.862  0.00  0.00    -0.276 OA
ATOM     17  H   LIG d   1      -3.420  75.781 118.640  0.00  0.00     0.149 HD
ENDBRANCH   6  13
BRANCH   5  18
ATOM     18  N   LIG d   1      -1.323  75.479 115.514  0.00  0.00     0.381 N 
ATOM     19  H   LIG d   1      -1.082  75.438 114.544  0.00  0.00    -0.090 HD
ATOM     20  H   LIG d   1      -1.197  74.564 115.909  0.00  0.00    -0.090 HD
ATOM     21  H   LIG d   1      -0.737  76.135 115.981  0.00  0.00    -0.090 HD
ENDBRANCH   5  18
BRANCH   3  22
ATOM     22  C   LIG d   1      -5.373  76.529 113.183  0.00  0.00     0.382 C 
ATOM     23  O   LIG d   1      -6.595  76.341 112.968  0.00  0.00    -0.241 OA
ATOM     24  O   LIG d   1      -4.696  77.169 112.355  0.00  0.00    -0.241 OA
ENDBRANCH   3  22
TORSDOF 7
ENDMDL
MODEL 2
REMARK VINA RESULT:      -5.7      3.346      4.899
REMARK  7 active torsions:
REMARK  status: ('A' for Active; 'I' for Inactive)
REMARK    1  A    between atoms: C_2  and  C_3 
REMARK    2  A    between atoms: C_3  and  O_6 
REMARK    3  A    between atoms: C_3  and  C_4 
REMARK    4  A    between atoms: C_7  and  O_6 
REMARK    5  A    between atoms: C_9  and  C_10 
REMARK    6  A    between atoms: N_15  and  C_14 
REMARK    7  A    between atoms: N_20  and  C_19 
REMARK       I    between atoms: C_22  and  N_20 
ROOT
ATOM      1  C   LIG d   1      -7.625  76.452 117.559  0.00  0.00     0.161 C 
ATOM      2  C   LIG d   1      -8.714  77.250 117.949  0.00  0.00     0.016 C 
ATOM      3  C   LIG d   1      -8.687  78.663 117.934  0.00  0.00     0.038 C 
ATOM      4  C   LIG d   1      -7.615  79.379 117.381  0.00  0.00     0.028 C 
ATOM      5  C   LIG d   1      -6.290  78.627 117.442  0.00  0.00    -0.047 C 
ATOM      6  C   LIG d   1      -6.487  77.214 116.848  0.00  0.00     0.091 C 
ENDROOT
BRANCH   1   7
ATOM      7  O   LIG d   1      -8.087  75.362 116.737  0.00  0.00    -0.368 OA
BRANCH   7   8
ATOM      8  C   LIG d   1      -7.987  74.038 117.319  0.00  0.00     0.119 C 
BRANCH   8   9
ATOM      9  C   LIG d   1      -6.959  73.245 116.489  0.00  0.00     0.028 C 
ATOM     10  C   LIG d   1      -7.409  71.798 116.225  0.00  0.00     0.006 C 
ENDBRANCH   8   9
BRANCH   8  11
ATOM     11  C   LIG d   1      -9.303  73.267 117.180  0.00  0.00     0.028 C 
ATOM     12  C   LIG d   1     -10.492  74.176 116.830  0.00  0.00     0.006 C 
ENDBRANCH   8  11
ENDBRANCH   7   8
ENDBRANCH   1   7
BRANCH   6  13
ATOM     13  N   LIG d   1      -5.259  76.382 116.946  0.00  0.00    -0.311 N 
ATOM     14  C   LIG d   1      -4.360  76.284 115.968  0.00  0.00     0.210 C 
ATOM     15  C   LIG d   1      -3.178  75.357 116.267  0.00  0.00     0.109 C 
ATOM     16  O   LIG d   1      -4.413  76.902 114.894  0.00  0.00    -0.276 OA
ATOM     17  H   LIG d   1      -5.121  75.871 117.795  0.00  0.00     0.149 HD
ENDBRANCH   6  13
BRANCH   5  18
ATOM     18  N   LIG d   1      -5.290  79.428 116.710  0.00  0.00     0.381 N 
ATOM     19  H   LIG d   1      -4.451  78.895 116.590  0.00  0.00    -0.090 HD
ATOM     20  H   LIG d   1      -5.069  80.245 117.250  0.00  0.00    -0.090 HD
ATOM     21  H   LIG d   1      -5.652  79.695 115.821  0.00  0.00    -0.090 HD
ENDBRANCH   5  18
BRANCH   3  22
ATOM     22  C   LIG d   1      -9.726  79.376 118.513  0.00  0.00     0.382 C 
ATOM     23  O   LIG d   1     -10.177  79.029 119.632  0.00  0.00    -0.241 OA
ATOM     24  O   LIG d   1     -10.248  80.334 117.911  0.00  0.00    -0.241 OA
ENDBRANCH   3  22
TORSDOF 7
ENDMDL
MODEL 3
REMARK VINA RESULT:      -5.6      3.936      5.441
REMARK  7 active torsions:
REMARK  status: ('A' for Active; 'I' for Inactive)
REMARK    1  A    between atoms: C_2  and  C_3 
REMARK    2  A    between atoms: C_3  and  O_6 
REMARK    3  A    between atoms: C_3  and  C_4 
REMARK    4  A    between atoms: C_7  and  O_6 
REMARK    5  A    between atoms: C_9  and  C_10 
REMARK    6  A    between atoms: N_15  and  C_14 
REMARK    7  A    between atoms: N_20  and  C_19 
REMARK       I    between atoms: C_22  and  N_20 
ROOT
ATOM      1  C   LIG d   1      -6.855  77.675 117.168  0.00  0.00     0.161 C 
ATOM      2  C   LIG d   1      -8.149  78.046 117.571  0.00  0.00     0.016 C 
ATOM      3  C   LIG d   1      -8.538  79.386 117.801  0.00  0.00     0.038 C 
ATOM      4  C   LIG d   1      -7.696  80.465 117.495  0.00  0.00     0.028 C 
ATOM      5  C   LIG d   1      -6.213  80.116 117.567  0.00  0.00    -0.047 C 
ATOM      6  C   LIG d   1      -5.956  78.847 116.723  0.00  0.00     0.091 C 
ENDROOT
BRANCH   1   7
ATOM      7  O   LIG d   1      -6.934  76.680 116.128  0.00  0.00    -0.368 OA
BRANCH   7   8
ATOM      8  C   LIG d   1      -6.254  75.428 116.391  0.00  0.00     0.119 C 
BRANCH   8   9
ATOM      9  C   LIG d   1      -5.736  74.891 115.043  0.00  0.00     0.028 C 
ATOM     10  C   LIG d   1      -5.563  76.003 113.995  0.00  0.00     0.006 C 
ENDBRANCH   8   9
BRANCH   8  11
ATOM     11  C   LIG d   1      -7.227  74.363 116.905  0.00  0.00     0.028 C 
ATOM     12  C   LIG d   1      -7.007  72.990 116.252  0.00  0.00     0.006 C 
ENDBRANCH   8  11
ENDBRANCH   7   8
ENDBRANCH   1   7
BRANCH   6  13
ATOM     13  N   LIG d   1      -4.545  78.387 116.807  0.00  0.00    -0.311 N 
ATOM     14  C   LIG d   1      -3.616  78.702 115.905  0.00  0.00     0.210 C 
ATOM     15  C   LIG d   1      -2.230  78.108 116.170  0.00  0.00     0.109 C 
ATOM     16  O   LIG d   1      -3.802  79.444 114.928  0.00  0.00    -0.276 OA
ATOM     17  H   LIG d   1      -4.299  77.807 117.585  0.00  0.00     0.149 HD
ENDBRANCH   6  13
BRANCH   5  18
ATOM     18  N   LIG d   1      -5.455  81.289 117.093  0.00  0.00     0.381 N 
ATOM     19  H   LIG d   1      -4.947  81.694 117.853  0.00  0.00    -0.090 HD
ATOM     20  H   LIG d   1      -6.102  81.975 116.746  0.00  0.00    -0.090 HD
ATOM     21  H   LIG d   1      -4.826  81.019 116.369  0.00  0.00    -0.090 HD
ENDBRANCH   5  18
BRANCH   3  22
ATOM     22  C   LIG d   1      -9.769  79.654 118.380  0.00  0.00     0.382 C 
ATOM     23  O   LIG d   1     -10.458  80.619 117.969  0.00  0.00    -0.241 OA
ATOM     24  O   LIG d   1     -10.180  78.971 119.337  0.00  0.00    -0.241 OA
ENDBRANCH   3  22
TORSDOF 7
ENDMDL
MODEL 4
REMARK VINA RESULT:      -5.5      2.170      5.181
REMARK  7 active torsions:
REMARK  status: ('A' for Active; 'I' for Inactive)
REMARK    1  A    between atoms: C_2  and  C_3 
REMARK    2  A    between atoms: C_3  and  O_6 
REMARK    3  A    between atoms: C_3  and  C_4 
REMARK    4  A    between atoms: C_7  and  O_6 
REMARK    5  A    between atoms: C_9  and  C_10 
REMARK    6  A    between atoms: N_15  and  C_14 
REMARK    7  A    between atoms: N_20  and  C_19 
REMARK       I    between atoms: C_22  and  N_20 
ROOT
ATOM      1  C   LIG d   1      -2.855  75.360 116.089  0.00  0.00     0.161 C 
ATOM      2  C   LIG d   1      -2.418  74.626 117.204  0.00  0.00     0.016 C 
ATOM      3  C   LIG d   1      -1.123  74.749 117.758  0.00  0.00     0.038 C 
ATOM      4  C   LIG d   1      -0.221  75.730 117.322  0.00  0.00     0.028 C 
ATOM      5  C   LIG d   1      -0.435  76.149 115.871  0.00  0.00    -0.047 C 
ATOM      6  C   LIG d   1      -1.923  76.515 115.669  0.00  0.00     0.091 C 
ENDROOT
BRANCH   1   7
ATOM      7  O   LIG d   1      -4.190  75.852 116.319  0.00  0.00    -0.368 OA
BRANCH   7   8
ATOM      8  C   LIG d   1      -5.260  75.120 115.672  0.00  0.00     0.119 C 
BRANCH   8   9
ATOM      9  C   LIG d   1      -6.028  76.115 114.781  0.00  0.00     0.028 C 
ATOM     10  C   LIG d   1      -5.614  76.020 113.303  0.00  0.00     0.006 C 
ENDBRANCH   8   9
BRANCH   8  11
ATOM     11  C   LIG d   1      -6.285  74.613 116.691  0.00  0.00     0.028 C 
ATOM     12  C   LIG d   1      -6.902  73.263 116.294  0.00  0.00     0.006 C 
ENDBRANCH   8  11
ENDBRANCH   7   8
ENDBRANCH   1   7
BRANCH   6  13
ATOM     13  N   LIG d   1      -2.236  76.856 114.257  0.00  0.00    -0.311 N 
ATOM     14  C   LIG d   1      -2.232  78.101 113.784  0.00  0.00     0.210 C 
ATOM     15  C   LIG d   1      -2.603  78.232 112.304  0.00  0.00     0.109 C 
ATOM     16  O   LIG d   1      -1.925  79.106 114.443  0.00  0.00    -0.276 OA
ATOM     17  H   LIG d   1      -2.466  76.097 113.645  0.00  0.00     0.149 HD
ENDBRANCH   6  13
BRANCH   5  18
ATOM     18  N   LIG d   1       0.480  77.272 115.592  0.00  0.00     0.381 N 
ATOM     19  H   LIG d   1       0.653  77.786 116.433  0.00  0.00    -0.090 HD
ATOM     20  H   LIG d   1       0.045  77.889 114.929  0.00  0.00    -0.090 HD
ATOM     21  H   LIG d   1       1.339  76.928 115.222  0.00  0.00    -0.090 HD
ENDBRANCH   5  18
BRANCH   3  22
ATOM     22  C   LIG d   1      -0.705  73.856 118.732  0.00  0.00     0.382 C 
ATOM     23  O   LIG d   1      -1.392  72.837 118.986  0.00  0.00    -0.241 OA
ATOM     24  O   LIG d   1       0.328  74.079 119.392  0.00  0.00    -0.241 OA
ENDBRANCH   3  22
TORSDOF 7
ENDMDL
MODEL 5
REMARK VINA RESULT:      -5.2      3.084      5.690
REMARK  7 active torsions:
REMARK  status: ('A' for Active; 'I' for Inactive)
REMARK    1  A    between atoms: C_2  and  C_3 
REMARK    2  A    between atoms: C_3  and  O_6 
REMARK    3  A    between atoms: C_3  and  C_4 
REMARK    4  A    between atoms: C_7  and  O_6 
REMARK    5  A    between atoms: C_9  and  C_10 
REMARK    6  A    between atoms: N_15  and  C_14 
REMARK    7  A    between atoms: N_20  and  C_19 
REMARK       I    between atoms: C_22  and  N_20 
ROOT
ATOM      1  C   LIG d   1      -5.274  76.289 117.573  0.00  0.00     0.161 C 
ATOM      2  C   LIG d   1      -5.709  74.975 117.330  0.00  0.00     0.016 C 
ATOM      3  C   LIG d   1      -7.072  74.610 117.245  0.00  0.00     0.038 C 
ATOM      4  C   LIG d   1      -8.098  75.566 117.249  0.00  0.00     0.028 C 
ATOM      5  C   LIG d   1      -7.732  76.844 117.997  0.00  0.00    -0.047 C 
ATOM      6  C   LIG d   1      -6.376  77.364 117.469  0.00  0.00     0.091 C 
ENDROOT
BRANCH   1   7
ATOM      7  O   LIG d   1      -4.176  76.611 116.697  0.00  0.00    -0.368 OA
BRANCH   7   8
ATOM      8  C   LIG d   1      -3.791  75.581 115.753  0.00  0.00     0.119 C 
BRANCH   8   9
ATOM      9  C   LIG d   1      -2.277  75.345 115.918  0.00  0.00     0.028 C 
ATOM     10  C   LIG d   1      -1.949  74.476 117.144  0.00  0.00     0.006 C 
ENDBRANCH   8   9
BRANCH   8  11
ATOM     11  C   LIG d   1      -3.972  76.054 114.308  0.00  0.00     0.028 C 
ATOM     12  C   LIG d   1      -5.383  75.781 113.764  0.00  0.00     0.006 C 
ENDBRANCH   8  11
ENDBRANCH   7   8
ENDBRANCH   1   7
BRANCH   6  13
ATOM     13  N   LIG d   1      -5.904  78.565 118.206  0.00  0.00    -0.311 N 
ATOM     14  C   LIG d   1      -6.122  79.812 117.793  0.00  0.00     0.210 C 
ATOM     15  C   LIG d   1      -5.532  80.904 118.691  0.00  0.00     0.109 C 
ATOM     16  O   LIG d   1      -6.776  80.119 116.784  0.00  0.00    -0.276 OA
ATOM     17  H   LIG d   1      -5.391  78.409 119.052  0.00  0.00     0.149 HD
ENDBRANCH   6  13
BRANCH   5  18
ATOM     18  N   LIG d   1      -8.835  77.804 117.805  0.00  0.00     0.381 N 
ATOM     19  H   LIG d   1      -9.713  77.344 117.941  0.00  0.00    -0.090 HD
ATOM     20  H   LIG d   1      -8.804  78.150 116.862  0.00  0.00    -0.090 HD
ATOM     21  H   LIG d   1      -8.745  78.560 118.447  0.00  0.00    -0.090 HD
ENDBRANCH   5  18
BRANCH   3  22
ATOM     22  C   LIG d   1      -7.422  73.269 117.196  0.00  0.00     0.382 C 
ATOM     23  O   LIG d   1      -7.895  72.706 118.213  0.00  0.00    -0.241 OA
ATOM     24  O   LIG d   1      -7.229  72.603 116.161  0.00  0.00    -0.241 OA
ENDBRANCH   3  22
TORSDOF 7
ENDMDL
MODEL 6
REMARK VINA RESULT:      -5.1      2.240      5.438
REMARK  7 active torsions:
REMARK  status: ('A' for Active; 'I' for Inactive)
REMARK    1  A    between atoms: C_2  and  C_3 
REMARK    2  A    between atoms: C_3  and  O_6 
REMARK    3  A    between atoms: C_3  and  C_4 
REMARK    4  A    between atoms: C_7  and  O_6 
REMARK    5  A    between atoms: C_9  and  C_10 
REMARK    6  A    between atoms: N_15  and  C_14 
REMARK    7  A    between atoms: N_20  and  C_19 
REMARK       I    between atoms: C_22  and  N_20 
ROOT
ATOM      1  C   LIG d   1      -3.992  76.251 116.537  0.00  0.00     0.161 C 
ATOM      2  C   LIG d   1      -4.800  75.227 117.058  0.00  0.00     0.016 C 
ATOM      3  C   LIG d   1      -5.815  74.582 116.315  0.00  0.00     0.038 C 
ATOM      4  C   LIG d   1      -5.990  74.813 114.943  0.00  0.00     0.028 C 
ATOM      5  C   LIG d   1      -5.533  76.199 114.499  0.00  0.00    -0.047 C 
ATOM      6  C   LIG d   1      -4.094  76.440 115.008  0.00  0.00     0.091 C 
ENDROOT
BRANCH   1   7
ATOM      7  O   LIG d   1      -2.620  76.036 116.924  0.00  0.00    -0.368 OA
BRANCH   7   8
ATOM      8  C   LIG d   1      -2.273  74.685 117.317  0.00  0.00     0.119 C 
BRANCH   8   9
ATOM      9  C   LIG d   1      -1.817  74.733 118.788  0.00  0.00     0.028 C 
ATOM     10  C   LIG d   1      -0.286  74.695 118.929  0.00  0.00     0.006 C 
ENDBRANCH   8   9
BRANCH   8  11
ATOM     11  C   LIG d   1      -1.061  74.171 116.533  0.00  0.00     0.028 C 
ATOM     12  C   LIG d   1      -0.964  74.775 115.123  0.00  0.00     0.006 C 
ENDBRANCH   8  11
ENDBRANCH   7   8
ENDBRANCH   1   7
BRANCH   6  13
ATOM     13  N   LIG d   1      -3.601  77.805 114.690  0.00  0.00    -0.311 N 
ATOM     14  C   LIG d   1      -2.946  78.106 113.570  0.00  0.00     0.210 C 
ATOM     15  C   LIG d   1      -2.509  79.569 113.449  0.00  0.00     0.109 C 
ATOM     16  O   LIG d   1      -2.713  77.307 112.651  0.00  0.00    -0.276 OA
ATOM     17  H   LIG d   1      -3.773  78.522 115.368  0.00  0.00     0.149 HD
ENDBRANCH   6  13
BRANCH   5  18
ATOM     18  N   LIG d   1      -5.643  76.256 113.029  0.00  0.00     0.381 N 
ATOM     19  H   LIG d   1      -6.040  75.404 112.686  0.00  0.00    -0.090 HD
ATOM     20  H   LIG d   1      -4.723  76.355 112.638  0.00  0.00    -0.090 HD
ATOM     21  H   LIG d   1      -6.212  77.028 112.759  0.00  0.00    -0.090 HD
ENDBRANCH   5  18
BRANCH   3  22
ATOM     22  C   LIG d   1      -6.694  73.721 116.955  0.00  0.00     0.382 C 
ATOM     23  O   LIG d   1      -7.104  73.989 118.110  0.00  0.00    -0.241 OA
ATOM     24  O   LIG d   1      -7.047  72.658 116.410  0.00  0.00    -0.241 OA
ENDBRANCH   3  22
TORSDOF 7
ENDMDL
MODEL 7
REMARK VINA RESULT:      -5.1      4.691      6.628
REMARK  7 active torsions:
REMARK  status: ('A' for Active; 'I' for Inactive)
REMARK    1  A    between atoms: C_2  and  C_3 
REMARK    2  A    between atoms: C_3  and  O_6 
REMARK    3  A    between atoms: C_3  and  C_4 
REMARK    4  A    between atoms: C_7  and  O_6 
REMARK    5  A    between atoms: C_9  and  C_10 
REMARK    6  A    between atoms: N_15  and  C_14 
REMARK    7  A    between atoms: N_20  and  C_19 
REMARK       I    between atoms: C_22  and  N_20 
ROOT
ATOM      1  C   LIG d   1      -5.664  79.072 117.038  0.00  0.00     0.161 C 
ATOM      2  C   LIG d   1      -6.914  78.442 117.156  0.00  0.00     0.016 C 
ATOM      3  C   LIG d   1      -8.063  79.084 117.671  0.00  0.00     0.038 C 
ATOM      4  C   LIG d   1      -8.077  80.455 117.965  0.00  0.00     0.028 C 
ATOM      5  C   LIG d   1      -6.706  81.009 118.337  0.00  0.00    -0.047 C 
ATOM      6  C   LIG d   1      -5.687  80.600 117.249  0.00  0.00     0.091 C 
ENDROOT
BRANCH   1   7
ATOM      7  O   LIG d   1      -5.074  78.751 115.762  0.00  0.00    -0.368 OA
BRANCH   7   8
ATOM      8  C   LIG d   1      -3.922  77.873 115.795  0.00  0.00     0.119 C 
BRANCH   8   9
ATOM      9  C   LIG d   1      -2.911  78.397 114.757  0.00  0.00     0.028 C 
ATOM     10  C   LIG d   1      -3.065  77.709 113.390  0.00  0.00     0.006 C 
ENDBRANCH   8   9
BRANCH   8  11
ATOM     11  C   LIG d   1      -4.285  76.460 115.331  0.00  0.00     0.028 C 
ATOM     12  C   LIG d   1      -4.069  75.400 116.423  0.00  0.00     0.006 C 
ENDBRANCH   8  11
ENDBRANCH   7   8
ENDBRANCH   1   7
BRANCH   6  13
ATOM     13  N   LIG d   1      -4.303  81.030 117.578  0.00  0.00    -0.311 N 
ATOM     14  C   LIG d   1      -3.479  81.587 116.693  0.00  0.00     0.210 C 
ATOM     15  C   LIG d   1      -2.089  81.937 117.234  0.00  0.00     0.109 C 
ATOM     16  O   LIG d   1      -3.777  81.854 115.519  0.00  0.00    -0.276 OA
ATOM     17  H   LIG d   1      -3.989  80.879 118.517  0.00  0.00     0.149 HD
ENDBRANCH   6  13
BRANCH   5  18
ATOM     18  N   LIG d   1      -6.840  82.471 118.483  0.00  0.00     0.381 N 
ATOM     19  H   LIG d   1      -7.496  82.819 117.813  0.00  0.00    -0.090 HD
ATOM     20  H   LIG d   1      -5.949  82.899 118.304  0.00  0.00    -0.090 HD
ATOM     21  H   LIG d   1      -7.145  82.695 119.405  0.00  0.00    -0.090 HD
ENDBRANCH   5  18
BRANCH   3  22
ATOM     22  C   LIG d   1      -9.204  78.342 117.936  0.00  0.00     0.382 C 
ATOM     23  O   LIG d   1      -9.214  77.107 117.717  0.00  0.00    -0.241 OA
ATOM     24  O   LIG d   1     -10.239  78.900 118.348  0.00  0.00    -0.241 OA
ENDBRANCH   3  22
TORSDOF 7
ENDMDL
MODEL 8
REMARK VINA RESULT:      -4.9     15.001     17.229
REMARK  7 active torsions:
REMARK  status: ('A' for Active; 'I' for Inactive)
REMARK    1  A    between atoms: C_2  and  C_3 
REMARK    2  A    between atoms: C_3  and  O_6 
REMARK    3  A    between atoms: C_3  and  C_4 
REMARK    4  A    between atoms: C_7  and  O_6 
REMARK    5  A    between atoms: C_9  and  C_10 
REMARK    6  A    between atoms: N_15  and  C_14 
REMARK    7  A    between atoms: N_20  and  C_19 
REMARK       I    between atoms: C_22  and  N_20 
ROOT
ATOM      1  C   LIG d   1       3.876  88.875 115.773  0.00  0.00     0.161 C 
ATOM      2  C   LIG d   1       3.089  87.866 115.193  0.00  0.00     0.016 C 
ATOM      3  C   LIG d   1       1.783  87.550 115.632  0.00  0.00     0.038 C 
ATOM      4  C   LIG d   1       1.114  88.327 116.589  0.00  0.00     0.028 C 
ATOM      5  C   LIG d   1       2.054  89.039 117.556  0.00  0.00    -0.047 C 
ATOM      6  C   LIG d   1       3.122  89.806 116.744  0.00  0.00     0.091 C 
ENDROOT
BRANCH   1   7
ATOM      7  O   LIG d   1       4.522  89.645 114.740  0.00  0.00    -0.368 OA
BRANCH   7   8
ATOM      8  C   LIG d   1       5.971  89.631 114.747  0.00  0.00     0.119 C 
BRANCH   8   9
ATOM      9  C   LIG d   1       6.438  89.378 113.300  0.00  0.00     0.028 C 
ATOM     10  C   LIG d   1       5.759  88.151 112.670  0.00  0.00     0.006 C 
ENDBRANCH   8   9
BRANCH   8  11
ATOM     11  C   LIG d   1       6.514  88.452 115.559  0.00  0.00     0.028 C 
ATOM     12  C   LIG d   1       7.386  88.896 116.744  0.00  0.00     0.006 C 
ENDBRANCH   8  11
ENDBRANCH   7   8
ENDBRANCH   1   7
BRANCH   6  13
ATOM     13  N   LIG d   1       4.132  90.463 117.614  0.00  0.00    -0.311 N 
ATOM     14  C   LIG d   1       4.346  91.777 117.626  0.00  0.00     0.210 C 
ATOM     15  C   LIG d   1       5.448  92.244 118.583  0.00  0.00     0.109 C 
ATOM     16  O   LIG d   1       3.707  92.604 116.959  0.00  0.00    -0.276 OA
ATOM     17  H   LIG d   1       4.674  89.869 118.211  0.00  0.00     0.149 HD
ENDBRANCH   6  13
BRANCH   5  18
ATOM     18  N   LIG d   1       1.233  89.919 118.409  0.00  0.00     0.381 N 
ATOM     19  H   LIG d   1       1.752  90.182 119.223  0.00  0.00    -0.090 HD
ATOM     20  H   LIG d   1       0.416  89.414 118.706  0.00  0.00    -0.090 HD
ATOM     21  H   LIG d   1       0.963  90.732 117.901  0.00  0.00    -0.090 HD
ENDBRANCH   5  18
BRANCH   3  22
ATOM     22  C   LIG d   1       1.147  86.420 115.140  0.00  0.00     0.382 C 
ATOM     23  O   LIG d   1       0.755  86.390 113.949  0.00  0.00    -0.241 OA
ATOM     24  O   LIG d   1       0.923  85.447 115.885  0.00  0.00    -0.241 OA
ENDBRANCH   3  22
TORSDOF 7
ENDMDL
MODEL 9
REMARK VINA RESULT:      -4.9      2.610      3.055
REMARK  7 active torsions:
REMARK  status: ('A' for Active; 'I' for Inactive)
REMARK    1  A    between atoms: C_2  and  C_3 
REMARK    2  A    between atoms: C_3  and  O_6 
REMARK    3  A    between atoms: C_3  and  C_4 
REMARK    4  A    between atoms: C_7  and  O_6 
REMARK    5  A    between atoms: C_9  and  C_10 
REMARK    6  A    between atoms: N_15  and  C_14 
REMARK    7  A    between atoms: N_20  and  C_19 
REMARK       I    between atoms: C_22  and  N_20 
ROOT
ATOM      1  C   LIG d   1      -5.219  76.252 118.243  0.00  0.00     0.161 C 
ATOM      2  C   LIG d   1      -6.066  77.321 117.908  0.00  0.00     0.016 C 
ATOM      3  C   LIG d   1      -5.641  78.447 117.166  0.00  0.00     0.038 C 
ATOM      4  C   LIG d   1      -4.371  78.509 116.575  0.00  0.00     0.028 C 
ATOM      5  C   LIG d   1      -3.320  77.683 117.309  0.00  0.00    -0.047 C 
ATOM      6  C   LIG d   1      -3.860  76.249 117.512  0.00  0.00     0.091 C 
ENDROOT
BRANCH   1   7
ATOM      7  O   LIG d   1      -5.904  75.001 118.031  0.00  0.00    -0.368 OA
BRANCH   7   8
ATOM      8  C   LIG d   1      -6.867  74.978 116.949  0.00  0.00     0.119 C 
BRANCH   8   9
ATOM      9  C   LIG d   1      -8.089  74.173 117.434  0.00  0.00     0.028 C 
ATOM     10  C   LIG d   1      -8.139  72.760 116.828  0.00  0.00     0.006 C 
ENDBRANCH   8   9
BRANCH   8  11
ATOM     11  C   LIG d   1      -6.328  74.208 115.740  0.00  0.00     0.028 C 
ATOM     12  C   LIG d   1      -5.689  75.125 114.686  0.00  0.00     0.006 C 
ENDBRANCH   8  11
ENDBRANCH   7   8
ENDBRANCH   1   7
BRANCH   6  13
ATOM     13  N   LIG d   1      -2.928  75.398 118.297  0.00  0.00    -0.311 N 
ATOM     14  C   LIG d   1      -2.024  74.594 117.741  0.00  0.00     0.210 C 
ATOM     15  C   LIG d   1      -1.178  73.789 118.732  0.00  0.00     0.109 C 
ATOM     16  O   LIG d   1      -1.821  74.496 116.521  0.00  0.00    -0.276 OA
ATOM     17  H   LIG d   1      -3.004  75.440 119.295  0.00  0.00     0.149 HD
ENDBRANCH   6  13
BRANCH   5  18
ATOM     18  N   LIG d   1      -2.081  77.727 116.510  0.00  0.00     0.381 N 
ATOM     19  H   LIG d   1      -1.973  76.870 116.006  0.00  0.00    -0.090 HD
ATOM     20  H   LIG d   1      -1.297  77.828 117.131  0.00  0.00    -0.090 HD
ATOM     21  H   LIG d   1      -2.111  78.493 115.875  0.00  0.00    -0.090 HD
ENDBRANCH   5  18
BRANCH   3  22
ATOM     22  C   LIG d   1      -6.479  79.545 117.043  0.00  0.00     0.382 C 
ATOM     23  O   LIG d   1      -7.719  79.406 117.180  0.00  0.00    -0.241 OA
ATOM     24  O   LIG d   1      -6.016  80.664 116.752  0.00  0.00    -0.241 OA
ENDBRANCH   3  22
TORSDOF 7
ENDMDL
