MODEL 1
REMARK VINA RESULT:      -5.7      0.000      0.000
REMARK  7 active torsions:
REMARK  status: ('A' for Active; 'I' for Inactive)
REMARK    1  A    between atoms: C_2  and  C_3 
REMARK    2  A    between atoms: C_3  and  O_6 
REMARK    3  A    between atoms: C_3  and  C_4 
REMARK    4  A    between atoms: C_7  and  O_6 
REMARK    5  A    between atoms: C_9  and  C_10 
REMARK    6  A    between atoms: N_15  and  C_14 
REMARK    7  A    between atoms: N_20  and  C_19 
REMARK       I    between atoms: C_22  and  N_20 
ROOT
ATOM      1  C   LIG d   1      -7.555  76.422 117.578  0.00  0.00     0.161 C 
ATOM      2  C   LIG d   1      -8.623  77.248 117.965  0.00  0.00     0.016 C 
ATOM      3  C   LIG d   1      -8.528  78.656 118.048  0.00  0.00     0.038 C 
ATOM      4  C   LIG d   1      -7.393  79.350 117.602  0.00  0.00     0.028 C 
ATOM      5  C   LIG d   1      -6.111  78.528 117.679  0.00  0.00    -0.047 C 
ATOM      6  C   LIG d   1      -6.343  77.169 116.981  0.00  0.00     0.091 C 
ENDROOT
BRANCH   1   7
ATOM      7  O   LIG d   1      -8.024  75.414 116.661  0.00  0.00    -0.368 OA
BRANCH   7   8
ATOM      8  C   LIG d   1      -8.229  74.092 117.218  0.00  0.00     0.119 C 
BRANCH   8   9
ATOM      9  C   LIG d   1      -7.095  73.189 116.696  0.00  0.00     0.028 C 
ATOM     10  C   LIG d   1      -6.121  72.767 117.810  0.00  0.00     0.006 C 
ENDBRANCH   8   9
BRANCH   8  11
ATOM     11  C   LIG d   1      -9.523  73.462 116.694  0.00  0.00     0.028 C 
ATOM     12  C   LIG d   1      -9.354  71.982 116.314  0.00  0.00     0.006 C 
ENDBRANCH   8  11
ENDBRANCH   7   8
ENDBRANCH   1   7
BRANCH   6  13
ATOM     13  N   LIG d   1      -5.165  76.269 117.085  0.00  0.00    -0.311 N 
ATOM     14  C   LIG d   1      -4.532  75.765 116.027  0.00  0.00     0.210 C 
ATOM     15  C   LIG d   1      -3.354  74.844 116.357  0.00  0.00     0.109 C 
ATOM     16  O   LIG d   1      -4.815  76.019 114.846  0.00  0.00    -0.276 OA
ATOM     17  H   LIG d   1      -4.849  76.036 118.006  0.00  0.00     0.149 HD
ENDBRANCH   6  13
BRANCH   5  18
ATOM     18  N   LIG d   1      -5.034  79.321 117.057  0.00  0.00     0.381 N 
ATOM     19  H   LIG d   1      -5.413  80.165 116.674  0.00  0.00    -0.090 HD
ATOM     20  H   LIG d   1      -4.630  78.788 116.307  0.00  0.00    -0.090 HD
ATOM     21  H   LIG d   1      -4.336  79.539 117.733  0.00  0.00    -0.090 HD
ENDBRANCH   5  18
BRANCH   3  22
ATOM     22  C   LIG d   1      -9.561  79.383 118.620  0.00  0.00     0.382 C 
ATOM     23  O   LIG d   1      -9.978  79.084 119.766  0.00  0.00    -0.241 OA
ATOM     24  O   LIG d   1     -10.111  80.304 117.988  0.00  0.00    -0.241 OA
ENDBRANCH   3  22
TORSDOF 7
ENDMDL
MODEL 2
REMARK VINA RESULT:      -5.6      0.904      1.643
REMARK  7 active torsions:
REMARK  status: ('A' for Active; 'I' for Inactive)
REMARK    1  A    between atoms: C_2  and  C_3 
REMARK    2  A    between atoms: C_3  and  O_6 
REMARK    3  A    between atoms: C_3  and  C_4 
REMARK    4  A    between atoms: C_7  and  O_6 
REMARK    5  A    between atoms: C_9  and  C_10 
REMARK    6  A    between atoms: N_15  and  C_14 
REMARK    7  A    between atoms: N_20  and  C_19 
REMARK       I    between atoms: C_22  and  N_20 
ROOT
ATOM      1  C   LIG d   1      -7.096  75.920 117.161  0.00  0.00     0.161 C 
ATOM      2  C   LIG d   1      -8.337  76.432 117.575  0.00  0.00     0.016 C 
ATOM      3  C   LIG d   1      -8.563  77.801 117.847  0.00  0.00     0.038 C 
ATOM      4  C   LIG d   1      -7.595  78.780 117.576  0.00  0.00     0.028 C 
ATOM      5  C   LIG d   1      -6.166  78.252 117.637  0.00  0.00    -0.047 C 
ATOM      6  C   LIG d   1      -6.060  76.988 116.753  0.00  0.00     0.091 C 
ENDROOT
BRANCH   1   7
ATOM      7  O   LIG d   1      -7.290  74.976 116.089  0.00  0.00    -0.368 OA
BRANCH   7   8
ATOM      8  C   LIG d   1      -7.221  73.575 116.454  0.00  0.00     0.119 C 
BRANCH   8   9
ATOM      9  C   LIG d   1      -8.629  73.145 116.908  0.00  0.00     0.028 C 
ATOM     10  C   LIG d   1      -9.150  71.926 116.129  0.00  0.00     0.006 C 
ENDBRANCH   8   9
BRANCH   8  11
ATOM     11  C   LIG d   1      -6.318  73.361 117.673  0.00  0.00     0.028 C 
ATOM     12  C   LIG d   1      -6.782  72.195 118.560  0.00  0.00     0.006 C 
ENDBRANCH   8  11
ENDBRANCH   7   8
ENDBRANCH   1   7
BRANCH   6  13
ATOM     13  N   LIG d   1      -4.715  76.359 116.822  0.00  0.00    -0.311 N 
ATOM     14  C   LIG d   1      -3.891  76.275 115.779  0.00  0.00     0.210 C 
ATOM     15  C   LIG d   1      -2.561  75.570 116.062  0.00  0.00     0.109 C 
ATOM     16  O   LIG d   1      -4.122  76.745 114.655  0.00  0.00    -0.276 OA
ATOM     17  H   LIG d   1      -4.434  75.980 117.705  0.00  0.00     0.149 HD
ENDBRANCH   6  13
BRANCH   5  18
ATOM     18  N   LIG d   1      -5.270  79.340 117.200  0.00  0.00     0.381 N 
ATOM     19  H   LIG d   1      -4.379  78.963 116.946  0.00  0.00    -0.090 HD
ATOM     20  H   LIG d   1      -5.136  79.977 117.965  0.00  0.00    -0.090 HD
ATOM     21  H   LIG d   1      -5.670  79.820 116.424  0.00  0.00    -0.090 HD
ENDBRANCH   5  18
BRANCH   3  22
ATOM     22  C   LIG d   1      -9.755  78.197 118.434  0.00  0.00     0.382 C 
ATOM     23  O   LIG d   1     -10.556  77.336 118.870  0.00  0.00    -0.241 OA
ATOM     24  O   LIG d   1     -10.059  79.404 118.494  0.00  0.00    -0.241 OA
ENDBRANCH   3  22
TORSDOF 7
ENDMDL
MODEL 3
REMARK VINA RESULT:      -5.4      1.453      2.093
REMARK  7 active torsions:
REMARK  status: ('A' for Active; 'I' for Inactive)
REMARK    1  A    between atoms: C_2  and  C_3 
REMARK    2  A    between atoms: C_3  and  O_6 
REMARK    3  A    between atoms: C_3  and  C_4 
REMARK    4  A    between atoms: C_7  and  O_6 
REMARK    5  A    between atoms: C_9  and  C_10 
REMARK    6  A    between atoms: N_15  and  C_14 
REMARK    7  A    between atoms: N_20  and  C_19 
REMARK       I    between atoms: C_22  and  N_20 
ROOT
ATOM      1  C   LIG d   1      -6.627  76.172 118.525  0.00  0.00     0.161 C 
ATOM      2  C   LIG d   1      -7.520  77.257 118.529  0.00  0.00     0.016 C 
ATOM      3  C   LIG d   1      -7.294  78.454 117.813  0.00  0.00     0.038 C 
ATOM      4  C   LIG d   1      -6.223  78.591 116.917  0.00  0.00     0.028 C 
ATOM      5  C   LIG d   1      -5.025  77.715 117.267  0.00  0.00    -0.047 C 
ATOM      6  C   LIG d   1      -5.508  76.260 117.466  0.00  0.00     0.091 C 
ENDROOT
BRANCH   1   7
ATOM      7  O   LIG d   1      -7.357  74.938 118.382  0.00  0.00    -0.368 OA
BRANCH   7   8
ATOM      8  C   LIG d   1      -7.870  74.651 117.057  0.00  0.00     0.119 C 
BRANCH   8   9
ATOM      9  C   LIG d   1      -9.386  74.408 117.191  0.00  0.00     0.028 C 
ATOM     10  C   LIG d   1     -10.199  75.711 117.106  0.00  0.00     0.006 C 
ENDBRANCH   8   9
BRANCH   8  11
ATOM     11  C   LIG d   1      -7.296  73.341 116.509  0.00  0.00     0.028 C 
ATOM     12  C   LIG d   1      -8.366  72.254 116.322  0.00  0.00     0.006 C 
ENDBRANCH   8  11
ENDBRANCH   7   8
ENDBRANCH   1   7
BRANCH   6  13
ATOM     13  N   LIG d   1      -4.412  75.352 117.893  0.00  0.00    -0.311 N 
ATOM     14  C   LIG d   1      -3.662  74.657 117.040  0.00  0.00     0.210 C 
ATOM     15  C   LIG d   1      -2.600  73.765 117.691  0.00  0.00     0.109 C 
ATOM     16  O   LIG d   1      -3.753  74.718 115.805  0.00  0.00    -0.276 OA
ATOM     17  H   LIG d   1      -4.248  75.266 118.877  0.00  0.00     0.149 HD
ENDBRANCH   6  13
BRANCH   5  18
ATOM     18  N   LIG d   1      -4.039  77.852 116.178  0.00  0.00     0.381 N 
ATOM     19  H   LIG d   1      -3.241  77.280 116.369  0.00  0.00    -0.090 HD
ATOM     20  H   LIG d   1      -3.737  78.810 116.132  0.00  0.00    -0.090 HD
ATOM     21  H   LIG d   1      -4.449  77.583 115.311  0.00  0.00    -0.090 HD
ENDBRANCH   5  18
BRANCH   3  22
ATOM     22  C   LIG d   1      -8.122  79.546 118.020  0.00  0.00     0.382 C 
ATOM     23  O   LIG d   1      -7.941  80.604 117.370  0.00  0.00    -0.241 OA
ATOM     24  O   LIG d   1      -9.021  79.503 118.881  0.00  0.00    -0.241 OA
ENDBRANCH   3  22
TORSDOF 7
ENDMDL
MODEL 4
REMARK VINA RESULT:      -5.2      2.281      5.418
REMARK  7 active torsions:
REMARK  status: ('A' for Active; 'I' for Inactive)
REMARK    1  A    between atoms: C_2  and  C_3 
REMARK    2  A    between atoms: C_3  and  O_6 
REMARK    3  A    between atoms: C_3  and  C_4 
REMARK    4  A    between atoms: C_7  and  O_6 
REMARK    5  A    between atoms: C_9  and  C_10 
REMARK    6  A    between atoms: N_15  and  C_14 
REMARK    7  A    between atoms: N_20  and  C_19 
REMARK       I    between atoms: C_22  and  N_20 
ROOT
ATOM      1  C   LIG d   1      -7.295  75.610 117.558  0.00  0.00     0.161 C 
ATOM      2  C   LIG d   1      -8.065  74.509 117.147  0.00  0.00     0.016 C 
ATOM      3  C   LIG d   1      -7.535  73.209 116.975  0.00  0.00     0.038 C 
ATOM      4  C   LIG d   1      -6.222  72.888 117.350  0.00  0.00     0.028 C 
ATOM      5  C   LIG d   1      -5.268  74.076 117.293  0.00  0.00    -0.047 C 
ATOM      6  C   LIG d   1      -5.886  75.255 118.079  0.00  0.00     0.091 C 
ENDROOT
BRANCH   1   7
ATOM      7  O   LIG d   1      -8.018  76.370 118.547  0.00  0.00    -0.368 OA
BRANCH   7   8
ATOM      8  C   LIG d   1      -8.566  77.635 118.102  0.00  0.00     0.119 C 
BRANCH   8   9
ATOM      9  C   LIG d   1      -7.698  78.754 118.707  0.00  0.00     0.028 C 
ATOM     10  C   LIG d   1      -6.964  79.574 117.633  0.00  0.00     0.006 C 
ENDBRANCH   8   9
BRANCH   8  11
ATOM     11  C   LIG d   1      -9.972  77.862 118.666  0.00  0.00     0.028 C 
ATOM     12  C   LIG d   1      -9.968  78.695 119.957  0.00  0.00     0.006 C 
ENDBRANCH   8  11
ENDBRANCH   7   8
ENDBRANCH   1   7
BRANCH   6  13
ATOM     13  N   LIG d   1      -5.056  76.485 118.003  0.00  0.00    -0.311 N 
ATOM     14  C   LIG d   1      -4.164  76.826 118.932  0.00  0.00     0.210 C 
ATOM     15  C   LIG d   1      -3.429  78.144 118.670  0.00  0.00     0.109 C 
ATOM     16  O   LIG d   1      -3.889  76.146 119.932  0.00  0.00    -0.276 OA
ATOM     17  H   LIG d   1      -5.192  77.079 117.209  0.00  0.00     0.149 HD
ENDBRANCH   6  13
BRANCH   5  18
ATOM     18  N   LIG d   1      -3.971  73.633 117.840  0.00  0.00     0.381 N 
ATOM     19  H   LIG d   1      -3.509  73.041 117.179  0.00  0.00    -0.090 HD
ATOM     20  H   LIG d   1      -4.136  73.103 118.678  0.00  0.00    -0.090 HD
ATOM     21  H   LIG d   1      -3.400  74.423 118.045  0.00  0.00    -0.090 HD
ENDBRANCH   5  18
BRANCH   3  22
ATOM     22  C   LIG d   1      -8.311  72.224 116.383  0.00  0.00     0.382 C 
ATOM     23  O   LIG d   1      -9.555  72.223 116.547  0.00  0.00    -0.241 OA
ATOM     24  O   LIG d   1      -7.778  71.310 115.726  0.00  0.00    -0.241 OA
ENDBRANCH   3  22
TORSDOF 7
ENDMDL
MODEL 5
REMARK VINA RESULT:      -5.2      1.952      5.153
REMARK  7 active torsions:
REMARK  status: ('A' for Active; 'I' for Inactive)
REMARK    1  A    between atoms: C_2  and  C_3 
REMARK    2  A    between atoms: C_3  and  O_6 
REMARK    3  A    between atoms: C_3  and  C_4 
REMARK    4  A    between atoms: C_7  and  O_6 
REMARK    5  A    between atoms: C_9  and  C_10 
REMARK    6  A    between atoms: N_15  and  C_14 
REMARK    7  A    between atoms: N_20  and  C_19 
REMARK       I    between atoms: C_22  and  N_20 
ROOT
ATOM      1  C   LIG d   1      -5.986  75.887 116.346  0.00  0.00     0.161 C 
ATOM      2  C   LIG d   1      -4.910  75.003 116.159  0.00  0.00     0.016 C 
ATOM      3  C   LIG d   1      -3.825  74.896 117.059  0.00  0.00     0.038 C 
ATOM      4  C   LIG d   1      -3.818  75.563 118.294  0.00  0.00     0.028 C 
ATOM      5  C   LIG d   1      -4.639  76.847 118.294  0.00  0.00    -0.047 C 
ATOM      6  C   LIG d   1      -6.051  76.541 117.742  0.00  0.00     0.091 C 
ENDROOT
BRANCH   1   7
ATOM      7  O   LIG d   1      -7.227  75.216 116.050  0.00  0.00    -0.368 OA
BRANCH   7   8
ATOM      8  C   LIG d   1      -7.712  74.298 117.060  0.00  0.00     0.119 C 
BRANCH   8   9
ATOM      9  C   LIG d   1      -7.367  72.871 116.593  0.00  0.00     0.028 C 
ATOM     10  C   LIG d   1      -8.620  72.030 116.297  0.00  0.00     0.006 C 
ENDBRANCH   8   9
BRANCH   8  11
ATOM     11  C   LIG d   1      -9.240  74.334 117.157  0.00  0.00     0.028 C 
ATOM     12  C   LIG d   1      -9.805  75.763 117.147  0.00  0.00     0.006 C 
ENDBRANCH   8  11
ENDBRANCH   7   8
ENDBRANCH   1   7
BRANCH   6  13
ATOM     13  N   LIG d   1      -6.892  77.760 117.629  0.00  0.00    -0.311 N 
ATOM     14  C   LIG d   1      -7.711  78.178 118.593  0.00  0.00     0.210 C 
ATOM     15  C   LIG d   1      -8.503  79.447 118.265  0.00  0.00     0.109 C 
ATOM     16  O   LIG d   1      -7.832  77.636 119.702  0.00  0.00    -0.276 OA
ATOM     17  H   LIG d   1      -6.832  78.278 116.775  0.00  0.00     0.149 HD
ENDBRANCH   6  13
BRANCH   5  18
ATOM     18  N   LIG d   1      -4.658  77.365 119.675  0.00  0.00     0.381 N 
ATOM     19  H   LIG d   1      -4.345  78.315 119.685  0.00  0.00    -0.090 HD
ATOM     20  H   LIG d   1      -4.027  76.819 120.235  0.00  0.00    -0.090 HD
ATOM     21  H   LIG d   1      -5.580  77.307 120.048  0.00  0.00    -0.090 HD
ENDBRANCH   5  18
BRANCH   3  22
ATOM     22  C   LIG d   1      -2.713  74.146 116.709  0.00  0.00     0.382 C 
ATOM     23  O   LIG d   1      -2.192  73.369 117.545  0.00  0.00    -0.241 OA
ATOM     24  O   LIG d   1      -2.197  74.270 115.582  0.00  0.00    -0.241 OA
ENDBRANCH   3  22
TORSDOF 7
ENDMDL
MODEL 6
REMARK VINA RESULT:      -5.2     14.324     16.893
REMARK  7 active torsions:
REMARK  status: ('A' for Active; 'I' for Inactive)
REMARK    1  A    between atoms: C_2  and  C_3 
REMARK    2  A    between atoms: C_3  and  O_6 
REMARK    3  A    between atoms: C_3  and  C_4 
REMARK    4  A    between atoms: C_7  and  O_6 
REMARK    5  A    between atoms: C_9  and  C_10 
REMARK    6  A    between atoms: N_15  and  C_14 
REMARK    7  A    between atoms: N_20  and  C_19 
REMARK       I    between atoms: C_22  and  N_20 
ROOT
ATOM      1  C   LIG d   1      -5.905  91.831 119.077  0.00  0.00     0.161 C 
ATOM      2  C   LIG d   1      -6.134  91.122 117.886  0.00  0.00     0.016 C 
ATOM      3  C   LIG d   1      -7.054  91.541 116.897  0.00  0.00     0.038 C 
ATOM      4  C   LIG d   1      -7.700  92.784 116.964  0.00  0.00     0.028 C 
ATOM      5  C   LIG d   1      -7.881  93.297 118.388  0.00  0.00    -0.047 C 
ATOM      6  C   LIG d   1      -6.518  93.246 119.116  0.00  0.00     0.091 C 
ENDROOT
BRANCH   1   7
ATOM      7  O   LIG d   1      -4.490  91.890 119.345  0.00  0.00    -0.368 OA
BRANCH   7   8
ATOM      8  C   LIG d   1      -3.616  91.686 118.207  0.00  0.00     0.119 C 
BRANCH   8   9
ATOM      9  C   LIG d   1      -2.742  90.454 118.510  0.00  0.00     0.028 C 
ATOM     10  C   LIG d   1      -2.852  89.374 117.420  0.00  0.00     0.006 C 
ENDBRANCH   8   9
BRANCH   8  11
ATOM     11  C   LIG d   1      -2.634  92.850 118.043  0.00  0.00     0.028 C 
ATOM     12  C   LIG d   1      -2.808  93.933 119.119  0.00  0.00     0.006 C 
ENDBRANCH   8  11
ENDBRANCH   7   8
ENDBRANCH   1   7
BRANCH   6  13
ATOM     13  N   LIG d   1      -6.622  93.651 120.542  0.00  0.00    -0.311 N 
ATOM     14  C   LIG d   1      -6.371  94.886 120.974  0.00  0.00     0.210 C 
ATOM     15  C   LIG d   1      -6.519  95.086 122.485  0.00  0.00     0.109 C 
ATOM     16  O   LIG d   1      -6.072  95.843 120.243  0.00  0.00    -0.276 OA
ATOM     17  H   LIG d   1      -6.890  92.945 121.199  0.00  0.00     0.149 HD
ENDBRANCH   6  13
BRANCH   5  18
ATOM     18  N   LIG d   1      -8.441  94.659 118.304  0.00  0.00     0.381 N 
ATOM     19  H   LIG d   1      -9.398  94.650 118.593  0.00  0.00    -0.090 HD
ATOM     20  H   LIG d   1      -8.403  94.967 117.348  0.00  0.00    -0.090 HD
ATOM     21  H   LIG d   1      -7.918  95.279 118.882  0.00  0.00    -0.090 HD
ENDBRANCH   5  18
BRANCH   3  22
ATOM     22  C   LIG d   1      -7.365  90.693 115.845  0.00  0.00     0.382 C 
ATOM     23  O   LIG d   1      -6.924  89.518 115.835  0.00  0.00    -0.241 OA
ATOM     24  O   LIG d   1      -8.044  91.101 114.883  0.00  0.00    -0.241 OA
ENDBRANCH   3  22
TORSDOF 7
ENDMDL
MODEL 7
REMARK VINA RESULT:      -5.1      2.359      5.654
REMARK  7 active torsions:
REMARK  status: ('A' for Active; 'I' for Inactive)
REMARK    1  A    between atoms: C_2  and  C_3 
REMARK    2  A    between atoms: C_3  and  O_6 
REMARK    3  A    between atoms: C_3  and  C_4 
REMARK    4  A    between atoms: C_7  and  O_6 
REMARK    5  A    between atoms: C_9  and  C_10 
REMARK    6  A    between atoms: N_15  and  C_14 
REMARK    7  A    between atoms: N_20  and  C_19 
REMARK       I    between atoms: C_22  and  N_20 
ROOT
ATOM      1  C   LIG d   1      -6.042  74.563 117.532  0.00  0.00     0.161 C 
ATOM      2  C   LIG d   1      -6.488  73.300 117.110  0.00  0.00     0.016 C 
ATOM      3  C   LIG d   1      -7.831  73.025 116.763  0.00  0.00     0.038 C 
ATOM      4  C   LIG d   1      -8.795  74.039 116.668  0.00  0.00     0.028 C 
ATOM      5  C   LIG d   1      -8.507  75.234 117.572  0.00  0.00    -0.047 C 
ATOM      6  C   LIG d   1      -7.056  75.708 117.329  0.00  0.00     0.091 C 
ENDROOT
BRANCH   1   7
ATOM      7  O   LIG d   1      -4.792  74.880 116.888  0.00  0.00    -0.368 OA
BRANCH   7   8
ATOM      8  C   LIG d   1      -3.601  74.730 117.699  0.00  0.00     0.119 C 
BRANCH   8   9
ATOM      9  C   LIG d   1      -3.132  76.142 118.099  0.00  0.00     0.028 C 
ATOM     10  C   LIG d   1      -2.857  77.037 116.879  0.00  0.00     0.006 C 
ENDBRANCH   8   9
BRANCH   8  11
ATOM     11  C   LIG d   1      -2.446  74.134 116.888  0.00  0.00     0.028 C 
ATOM     12  C   LIG d   1      -1.288  73.645 117.771  0.00  0.00     0.006 C 
ENDBRANCH   8  11
ENDBRANCH   7   8
ENDBRANCH   1   7
BRANCH   6  13
ATOM     13  N   LIG d   1      -6.665  76.821 118.234  0.00  0.00    -0.311 N 
ATOM     14  C   LIG d   1      -6.349  78.041 117.801  0.00  0.00     0.210 C 
ATOM     15  C   LIG d   1      -5.956  79.034 118.899  0.00  0.00     0.109 C 
ATOM     16  O   LIG d   1      -6.389  78.403 116.616  0.00  0.00    -0.276 OA
ATOM     17  H   LIG d   1      -6.637  76.623 119.215  0.00  0.00     0.149 HD
ENDBRANCH   6  13
BRANCH   5  18
ATOM     18  N   LIG d   1      -9.512  76.271 117.272  0.00  0.00     0.381 N 
ATOM     19  H   LIG d   1     -10.103  76.410 118.067  0.00  0.00    -0.090 HD
ATOM     20  H   LIG d   1     -10.082  75.960 116.505  0.00  0.00    -0.090 HD
ATOM     21  H   LIG d   1      -9.059  77.126 117.033  0.00  0.00    -0.090 HD
ENDBRANCH   5  18
BRANCH   3  22
ATOM     22  C   LIG d   1      -8.229  71.715 116.543  0.00  0.00     0.382 C 
ATOM     23  O   LIG d   1      -7.405  70.779 116.674  0.00  0.00    -0.241 OA
ATOM     24  O   LIG d   1      -9.391  71.462 116.173  0.00  0.00    -0.241 OA
ENDBRANCH   3  22
TORSDOF 7
ENDMDL
MODEL 8
REMARK VINA RESULT:      -5.0     14.165     16.590
REMARK  7 active torsions:
REMARK  status: ('A' for Active; 'I' for Inactive)
REMARK    1  A    between atoms: C_2  and  C_3 
REMARK    2  A    between atoms: C_3  and  O_6 
REMARK    3  A    between atoms: C_3  and  C_4 
REMARK    4  A    between atoms: C_7  and  O_6 
REMARK    5  A    between atoms: C_9  and  C_10 
REMARK    6  A    between atoms: N_15  and  C_14 
REMARK    7  A    between atoms: N_20  and  C_19 
REMARK       I    between atoms: C_22  and  N_20 
ROOT
ATOM      1  C   LIG d   1      -5.792  91.806 118.870  0.00  0.00     0.161 C 
ATOM      2  C   LIG d   1      -6.155  91.078 117.725  0.00  0.00     0.016 C 
ATOM      3  C   LIG d   1      -7.180  91.481 116.838  0.00  0.00     0.038 C 
ATOM      4  C   LIG d   1      -7.813  92.727 116.955  0.00  0.00     0.028 C 
ATOM      5  C   LIG d   1      -7.831  93.266 118.382  0.00  0.00    -0.047 C 
ATOM      6  C   LIG d   1      -6.395  93.224 118.953  0.00  0.00     0.091 C 
ENDROOT
BRANCH   1   7
ATOM      7  O   LIG d   1      -4.355  91.867 118.975  0.00  0.00    -0.368 OA
BRANCH   7   8
ATOM      8  C   LIG d   1      -3.687  90.621 119.293  0.00  0.00     0.119 C 
BRANCH   8   9
ATOM      9  C   LIG d   1      -3.103  90.759 120.712  0.00  0.00     0.028 C 
ATOM     10  C   LIG d   1      -3.014  92.224 121.171  0.00  0.00     0.006 C 
ENDBRANCH   8   9
BRANCH   8  11
ATOM     11  C   LIG d   1      -2.480  90.387 118.379  0.00  0.00     0.028 C 
ATOM     12  C   LIG d   1      -2.614  89.112 117.531  0.00  0.00     0.006 C 
ENDBRANCH   8  11
ENDBRANCH   7   8
ENDBRANCH   1   7
BRANCH   6  13
ATOM     13  N   LIG d   1      -6.337  93.655 120.374  0.00  0.00    -0.311 N 
ATOM     14  C   LIG d   1      -6.048  94.899 120.751  0.00  0.00     0.210 C 
ATOM     15  C   LIG d   1      -6.022  95.125 122.266  0.00  0.00     0.109 C 
ATOM     16  O   LIG d   1      -5.842  95.844 119.975  0.00  0.00    -0.276 OA
ATOM     17  H   LIG d   1      -6.522  92.959 121.069  0.00  0.00     0.149 HD
ENDBRANCH   6  13
BRANCH   5  18
ATOM     18  N   LIG d   1      -8.396  94.628 118.337  0.00  0.00     0.381 N 
ATOM     19  H   LIG d   1      -8.965  94.785 119.145  0.00  0.00    -0.090 HD
ATOM     20  H   LIG d   1      -8.976  94.712 117.521  0.00  0.00    -0.090 HD
ATOM     21  H   LIG d   1      -7.662  95.300 118.303  0.00  0.00    -0.090 HD
ENDBRANCH   5  18
BRANCH   3  22
ATOM     22  C   LIG d   1      -7.608  90.615 115.844  0.00  0.00     0.382 C 
ATOM     23  O   LIG d   1      -8.093  91.073 114.781  0.00  0.00    -0.241 OA
ATOM     24  O   LIG d   1      -7.557  89.383 116.014  0.00  0.00    -0.241 OA
ENDBRANCH   3  22
TORSDOF 7
ENDMDL
MODEL 9
REMARK VINA RESULT:      -5.0     13.243     15.225
REMARK  7 active torsions:
REMARK  status: ('A' for Active; 'I' for Inactive)
REMARK    1  A    between atoms: C_2  and  C_3 
REMARK    2  A    between atoms: C_3  and  O_6 
REMARK    3  A    between atoms: C_3  and  C_4 
REMARK    4  A    between atoms: C_7  and  O_6 
REMARK    5  A    between atoms: C_9  and  C_10 
REMARK    6  A    between atoms: N_15  and  C_14 
REMARK    7  A    between atoms: N_20  and  C_19 
REMARK       I    between atoms: C_22  and  N_20 
ROOT
ATOM      1  C   LIG d   1      -4.240  91.043 118.666  0.00  0.00     0.161 C 
ATOM      2  C   LIG d   1      -3.904  91.246 120.014  0.00  0.00     0.016 C 
ATOM      3  C   LIG d   1      -4.769  91.859 120.949  0.00  0.00     0.038 C 
ATOM      4  C   LIG d   1      -6.098  92.177 120.631  0.00  0.00     0.028 C 
ATOM      5  C   LIG d   1      -6.316  92.453 119.147  0.00  0.00    -0.047 C 
ATOM      6  C   LIG d   1      -5.727  91.283 118.327  0.00  0.00     0.091 C 
ENDROOT
BRANCH   1   7
ATOM      7  O   LIG d   1      -3.840  89.721 118.255  0.00  0.00    -0.368 OA
BRANCH   7   8
ATOM      8  C   LIG d   1      -2.542  89.275 118.720  0.00  0.00     0.119 C 
BRANCH   8   9
ATOM      9  C   LIG d   1      -1.695  88.941 117.477  0.00  0.00     0.028 C 
ATOM     10  C   LIG d   1      -0.549  89.944 117.262  0.00  0.00     0.006 C 
ENDBRANCH   8   9
BRANCH   8  11
ATOM     11  C   LIG d   1      -2.651  87.962 119.501  0.00  0.00     0.028 C 
ATOM     12  C   LIG d   1      -1.302  87.240 119.645  0.00  0.00     0.006 C 
ENDBRANCH   8  11
ENDBRANCH   7   8
ENDBRANCH   1   7
BRANCH   6  13
ATOM     13  N   LIG d   1      -5.823  91.512 116.862  0.00  0.00    -0.311 N 
ATOM     14  C   LIG d   1      -6.458  90.688 116.031  0.00  0.00     0.210 C 
ATOM     15  C   LIG d   1      -6.420  91.100 114.556  0.00  0.00     0.109 C 
ATOM     16  O   LIG d   1      -7.076  89.670 116.379  0.00  0.00    -0.276 OA
ATOM     17  H   LIG d   1      -5.376  92.331 116.498  0.00  0.00     0.149 HD
ENDBRANCH   6  13
BRANCH   5  18
ATOM     18  N   LIG d   1      -7.765  92.635 118.936  0.00  0.00     0.381 N 
ATOM     19  H   LIG d   1      -8.271  92.235 119.700  0.00  0.00    -0.090 HD
ATOM     20  H   LIG d   1      -8.033  92.155 118.095  0.00  0.00    -0.090 HD
ATOM     21  H   LIG d   1      -7.979  93.604 118.857  0.00  0.00    -0.090 HD
ENDBRANCH   5  18
BRANCH   3  22
ATOM     22  C   LIG d   1      -4.294  92.197 122.207  0.00  0.00     0.382 C 
ATOM     23  O   LIG d   1      -3.062  92.345 122.393  0.00  0.00    -0.241 OA
ATOM     24  O   LIG d   1      -5.078  92.311 123.169  0.00  0.00    -0.241 OA
ENDBRANCH   3  22
TORSDOF 7
ENDMDL
