MODEL 1
REMARK VINA RESULT:      -5.4      0.000      0.000
REMARK  7 active torsions:
REMARK  status: ('A' for Active; 'I' for Inactive)
REMARK    1  A    between atoms: C_2  and  C_3 
REMARK    2  A    between atoms: C_3  and  O_6 
REMARK    3  A    between atoms: C_3  and  C_4 
REMARK    4  A    between atoms: C_7  and  O_6 
REMARK    5  A    between atoms: C_9  and  C_10 
REMARK    6  A    between atoms: N_15  and  C_14 
REMARK    7  A    between atoms: N_20  and  C_19 
REMARK       I    between atoms: C_22  and  N_20 
ROOT
ATOM      1  C   LIG d   1      -2.815  75.815 115.978  0.00  0.00     0.161 C 
ATOM      2  C   LIG d   1      -2.389  75.238 117.186  0.00  0.00     0.016 C 
ATOM      3  C   LIG d   1      -1.100  75.438 117.732  0.00  0.00     0.038 C 
ATOM      4  C   LIG d   1      -0.195  76.356 117.180  0.00  0.00     0.028 C 
ATOM      5  C   LIG d   1      -0.394  76.577 115.684  0.00  0.00    -0.047 C 
ATOM      6  C   LIG d   1      -1.880  76.908 115.419  0.00  0.00     0.091 C 
ENDROOT
BRANCH   1   7
ATOM      7  O   LIG d   1      -4.153  76.328 116.127  0.00  0.00    -0.368 OA
BRANCH   7   8
ATOM      8  C   LIG d   1      -5.224  75.447 115.706  0.00  0.00     0.119 C 
BRANCH   8   9
ATOM      9  C   LIG d   1      -5.083  75.242 114.185  0.00  0.00     0.028 C 
ATOM     10  C   LIG d   1      -6.195  75.950 113.392  0.00  0.00     0.006 C 
ENDBRANCH   8   9
BRANCH   8  11
ATOM     11  C   LIG d   1      -6.594  76.103 115.902  0.00  0.00     0.028 C 
ATOM     12  C   LIG d   1      -7.581  75.205 116.664  0.00  0.00     0.006 C 
ENDBRANCH   8  11
ENDBRANCH   7   8
ENDBRANCH   1   7
BRANCH   6  13
ATOM     13  N   LIG d   1      -2.179  77.056 113.970  0.00  0.00    -0.311 N 
ATOM     14  C   LIG d   1      -2.715  78.155 113.441  0.00  0.00     0.210 C 
ATOM     15  C   LIG d   1      -2.959  78.091 111.930  0.00  0.00     0.109 C 
ATOM     16  O   LIG d   1      -2.981  79.187 114.074  0.00  0.00    -0.276 OA
ATOM     17  H   LIG d   1      -1.964  76.278 113.379  0.00  0.00     0.149 HD
ENDBRANCH   6  13
BRANCH   5  18
ATOM     18  N   LIG d   1       0.521  77.657 115.268  0.00  0.00     0.381 N 
ATOM     19  H   LIG d   1       1.195  77.299 114.620  0.00  0.00    -0.090 HD
ATOM     20  H   LIG d   1       1.012  77.997 116.076  0.00  0.00    -0.090 HD
ATOM     21  H   LIG d   1       0.006  78.398 114.846  0.00  0.00    -0.090 HD
ENDBRANCH   5  18
BRANCH   3  22
ATOM     22  C   LIG d   1      -0.690  74.684 118.821  0.00  0.00     0.382 C 
ATOM     23  O   LIG d   1      -1.304  74.773 119.912  0.00  0.00    -0.241 OA
ATOM     24  O   LIG d   1       0.312  73.949 118.740  0.00  0.00    -0.241 OA
ENDBRANCH   3  22
TORSDOF 7
ENDMDL
MODEL 2
REMARK VINA RESULT:      -5.4      1.782      4.958
REMARK  7 active torsions:
REMARK  status: ('A' for Active; 'I' for Inactive)
REMARK    1  A    between atoms: C_2  and  C_3 
REMARK    2  A    between atoms: C_3  and  O_6 
REMARK    3  A    between atoms: C_3  and  C_4 
REMARK    4  A    between atoms: C_7  and  O_6 
REMARK    5  A    between atoms: C_9  and  C_10 
REMARK    6  A    between atoms: N_15  and  C_14 
REMARK    7  A    between atoms: N_20  and  C_19 
REMARK       I    between atoms: C_22  and  N_20 
ROOT
ATOM      1  C   LIG d   1      -2.398  77.520 116.417  0.00  0.00     0.161 C 
ATOM      2  C   LIG d   1      -2.823  78.375 115.386  0.00  0.00     0.016 C 
ATOM      3  C   LIG d   1      -2.204  78.431 114.117  0.00  0.00     0.038 C 
ATOM      4  C   LIG d   1      -1.205  77.521 113.738  0.00  0.00     0.028 C 
ATOM      5  C   LIG d   1      -0.403  76.978 114.916  0.00  0.00    -0.047 C 
ATOM      6  C   LIG d   1      -1.382  76.443 115.986  0.00  0.00     0.091 C 
ENDROOT
BRANCH   1   7
ATOM      7  O   LIG d   1      -3.541  76.908 117.046  0.00  0.00    -0.368 OA
BRANCH   7   8
ATOM      8  C   LIG d   1      -4.730  76.786 116.228  0.00  0.00     0.119 C 
BRANCH   8   9
ATOM      9  C   LIG d   1      -5.937  77.177 117.103  0.00  0.00     0.028 C 
ATOM     10  C   LIG d   1      -5.795  78.587 117.701  0.00  0.00     0.006 C 
ENDBRANCH   8   9
BRANCH   8  11
ATOM     11  C   LIG d   1      -4.980  75.331 115.820  0.00  0.00     0.028 C 
ATOM     12  C   LIG d   1      -5.476  75.194 114.372  0.00  0.00     0.006 C 
ENDBRANCH   8  11
ENDBRANCH   7   8
ENDBRANCH   1   7
BRANCH   6  13
ATOM     13  N   LIG d   1      -0.682  75.969 117.208  0.00  0.00    -0.311 N 
ATOM     14  C   LIG d   1      -0.411  74.688 117.448  0.00  0.00     0.210 C 
ATOM     15  C   LIG d   1       0.300  74.415 118.778  0.00  0.00     0.109 C 
ATOM     16  O   LIG d   1      -0.662  73.754 116.672  0.00  0.00    -0.276 OA
ATOM     17  H   LIG d   1      -0.413  76.664 117.878  0.00  0.00     0.149 HD
ENDBRANCH   6  13
BRANCH   5  18
ATOM     18  N   LIG d   1       0.508  75.941 114.395  0.00  0.00     0.381 N 
ATOM     19  H   LIG d   1       0.164  75.034 114.640  0.00  0.00    -0.090 HD
ATOM     20  H   LIG d   1       1.412  76.061 114.817  0.00  0.00    -0.090 HD
ATOM     21  H   LIG d   1       0.582  76.020 113.404  0.00  0.00    -0.090 HD
ENDBRANCH   5  18
BRANCH   3  22
ATOM     22  C   LIG d   1      -2.556  79.431 113.224  0.00  0.00     0.382 C 
ATOM     23  O   LIG d   1      -3.526  79.264 112.445  0.00  0.00    -0.241 OA
ATOM     24  O   LIG d   1      -1.889  80.481 113.156  0.00  0.00    -0.241 OA
ENDBRANCH   3  22
TORSDOF 7
ENDMDL
MODEL 3
REMARK VINA RESULT:      -5.4      2.324      4.653
REMARK  7 active torsions:
REMARK  status: ('A' for Active; 'I' for Inactive)
REMARK    1  A    between atoms: C_2  and  C_3 
REMARK    2  A    between atoms: C_3  and  O_6 
REMARK    3  A    between atoms: C_3  and  C_4 
REMARK    4  A    between atoms: C_7  and  O_6 
REMARK    5  A    between atoms: C_9  and  C_10 
REMARK    6  A    between atoms: N_15  and  C_14 
REMARK    7  A    between atoms: N_20  and  C_19 
REMARK       I    between atoms: C_22  and  N_20 
ROOT
ATOM      1  C   LIG d   1      -2.940  77.936 115.301  0.00  0.00     0.161 C 
ATOM      2  C   LIG d   1      -1.620  78.310 115.601  0.00  0.00     0.016 C 
ATOM      3  C   LIG d   1      -0.694  77.454 116.240  0.00  0.00     0.038 C 
ATOM      4  C   LIG d   1      -0.983  76.104 116.490  0.00  0.00     0.028 C 
ATOM      5  C   LIG d   1      -2.472  75.826 116.663  0.00  0.00    -0.047 C 
ATOM      6  C   LIG d   1      -3.239  76.431 115.466  0.00  0.00     0.091 C 
ENDROOT
BRANCH   1   7
ATOM      7  O   LIG d   1      -3.282  78.372 113.971  0.00  0.00    -0.368 OA
BRANCH   7   8
ATOM      8  C   LIG d   1      -2.320  79.236 113.316  0.00  0.00     0.119 C 
BRANCH   8   9
ATOM      9  C   LIG d   1      -3.012  80.588 113.058  0.00  0.00     0.028 C 
ATOM     10  C   LIG d   1      -2.019  81.684 112.635  0.00  0.00     0.006 C 
ENDBRANCH   8   9
BRANCH   8  11
ATOM     11  C   LIG d   1      -1.944  78.702 111.931  0.00  0.00     0.028 C 
ATOM     12  C   LIG d   1      -1.184  77.367 111.992  0.00  0.00     0.006 C 
ENDBRANCH   8  11
ENDBRANCH   7   8
ENDBRANCH   1   7
BRANCH   6  13
ATOM     13  N   LIG d   1      -4.711  76.277 115.598  0.00  0.00    -0.311 N 
ATOM     14  C   LIG d   1      -5.478  75.726 114.659  0.00  0.00     0.210 C 
ATOM     15  C   LIG d   1      -6.973  75.683 114.988  0.00  0.00     0.109 C 
ATOM     16  O   LIG d   1      -5.058  75.240 113.598  0.00  0.00    -0.276 OA
ATOM     17  H   LIG d   1      -5.131  76.616 116.441  0.00  0.00     0.149 HD
ENDBRANCH   6  13
BRANCH   5  18
ATOM     18  N   LIG d   1      -2.642  74.365 116.779  0.00  0.00     0.381 N 
ATOM     19  H   LIG d   1      -1.757  73.911 116.667  0.00  0.00    -0.090 HD
ATOM     20  H   LIG d   1      -3.253  74.049 116.047  0.00  0.00    -0.090 HD
ATOM     21  H   LIG d   1      -3.030  74.136 117.668  0.00  0.00    -0.090 HD
ENDBRANCH   5  18
BRANCH   3  22
ATOM     22  C   LIG d   1       0.522  77.959 116.674  0.00  0.00     0.382 C 
ATOM     23  O   LIG d   1       0.766  79.185 116.568  0.00  0.00    -0.241 OA
ATOM     24  O   LIG d   1       1.396  77.196 117.128  0.00  0.00    -0.241 OA
ENDBRANCH   3  22
TORSDOF 7
ENDMDL
MODEL 4
REMARK VINA RESULT:      -5.2     13.646     15.721
REMARK  7 active torsions:
REMARK  status: ('A' for Active; 'I' for Inactive)
REMARK    1  A    between atoms: C_2  and  C_3 
REMARK    2  A    between atoms: C_3  and  O_6 
REMARK    3  A    between atoms: C_3  and  C_4 
REMARK    4  A    between atoms: C_7  and  O_6 
REMARK    5  A    between atoms: C_9  and  C_10 
REMARK    6  A    between atoms: N_15  and  C_14 
REMARK    7  A    between atoms: N_20  and  C_19 
REMARK       I    between atoms: C_22  and  N_20 
ROOT
ATOM      1  C   LIG d   1      -3.782  90.493 117.754  0.00  0.00     0.161 C 
ATOM      2  C   LIG d   1      -4.543  90.017 116.673  0.00  0.00     0.016 C 
ATOM      3  C   LIG d   1      -5.580  90.761 116.064  0.00  0.00     0.038 C 
ATOM      4  C   LIG d   1      -5.829  92.100 116.401  0.00  0.00     0.028 C 
ATOM      5  C   LIG d   1      -5.423  92.451 117.828  0.00  0.00    -0.047 C 
ATOM      6  C   LIG d   1      -3.964  91.994 118.062  0.00  0.00     0.091 C 
ENDROOT
BRANCH   1   7
ATOM      7  O   LIG d   1      -2.389  90.191 117.541  0.00  0.00    -0.368 OA
BRANCH   7   8
ATOM      8  C   LIG d   1      -1.833  89.137 118.365  0.00  0.00     0.119 C 
BRANCH   8   9
ATOM      9  C   LIG d   1      -1.673  87.890 117.474  0.00  0.00     0.028 C 
ATOM     10  C   LIG d   1      -0.229  87.704 116.978  0.00  0.00     0.006 C 
ENDBRANCH   8   9
BRANCH   8  11
ATOM     11  C   LIG d   1      -2.807  88.722 119.472  0.00  0.00     0.028 C 
ATOM     12  C   LIG d   1      -2.723  87.225 119.808  0.00  0.00     0.006 C 
ENDBRANCH   8  11
ENDBRANCH   7   8
ENDBRANCH   1   7
BRANCH   6  13
ATOM     13  N   LIG d   1      -3.515  92.225 119.459  0.00  0.00    -0.311 N 
ATOM     14  C   LIG d   1      -2.863  93.318 119.849  0.00  0.00     0.210 C 
ATOM     15  C   LIG d   1      -2.474  93.346 121.331  0.00  0.00     0.109 C 
ATOM     16  O   LIG d   1      -2.597  94.282 119.115  0.00  0.00    -0.276 OA
ATOM     17  H   LIG d   1      -3.717  91.507 120.128  0.00  0.00     0.149 HD
ENDBRANCH   6  13
BRANCH   5  18
ATOM     18  N   LIG d   1      -5.608  93.904 117.999  0.00  0.00     0.381 N 
ATOM     19  H   LIG d   1      -6.537  94.092 118.320  0.00  0.00    -0.090 HD
ATOM     20  H   LIG d   1      -5.485  94.355 117.109  0.00  0.00    -0.090 HD
ATOM     21  H   LIG d   1      -4.945  94.258 118.653  0.00  0.00    -0.090 HD
ENDBRANCH   5  18
BRANCH   3  22
ATOM     22  C   LIG d   1      -6.409  90.150 115.135  0.00  0.00     0.382 C 
ATOM     23  O   LIG d   1      -7.598  90.530 115.010  0.00  0.00    -0.241 OA
ATOM     24  O   LIG d   1      -5.995  89.195 114.451  0.00  0.00    -0.241 OA
ENDBRANCH   3  22
TORSDOF 7
ENDMDL
MODEL 5
REMARK VINA RESULT:      -5.0      2.968      5.542
REMARK  7 active torsions:
REMARK  status: ('A' for Active; 'I' for Inactive)
REMARK    1  A    between atoms: C_2  and  C_3 
REMARK    2  A    between atoms: C_3  and  O_6 
REMARK    3  A    between atoms: C_3  and  C_4 
REMARK    4  A    between atoms: C_7  and  O_6 
REMARK    5  A    between atoms: C_9  and  C_10 
REMARK    6  A    between atoms: N_15  and  C_14 
REMARK    7  A    between atoms: N_20  and  C_19 
REMARK       I    between atoms: C_22  and  N_20 
ROOT
ATOM      1  C   LIG d   1      -4.206  77.484 117.462  0.00  0.00     0.161 C 
ATOM      2  C   LIG d   1      -4.994  77.162 116.344  0.00  0.00     0.016 C 
ATOM      3  C   LIG d   1      -4.865  75.952 115.624  0.00  0.00     0.038 C 
ATOM      4  C   LIG d   1      -4.037  74.910 116.067  0.00  0.00     0.028 C 
ATOM      5  C   LIG d   1      -2.854  75.389 116.901  0.00  0.00    -0.047 C 
ATOM      6  C   LIG d   1      -3.375  76.313 118.026  0.00  0.00     0.091 C 
ENDROOT
BRANCH   1   7
ATOM      7  O   LIG d   1      -5.033  78.054 118.495  0.00  0.00    -0.368 OA
BRANCH   7   8
ATOM      8  C   LIG d   1      -6.368  78.452 118.095  0.00  0.00     0.119 C 
BRANCH   8   9
ATOM      9  C   LIG d   1      -6.536  79.940 118.459  0.00  0.00     0.028 C 
ATOM     10  C   LIG d   1      -8.011  80.338 118.634  0.00  0.00     0.006 C 
ENDBRANCH   8   9
BRANCH   8  11
ATOM     11  C   LIG d   1      -7.436  77.713 118.907  0.00  0.00     0.028 C 
ATOM     12  C   LIG d   1      -8.159  76.629 118.092  0.00  0.00     0.006 C 
ENDBRANCH   8  11
ENDBRANCH   7   8
ENDBRANCH   1   7
BRANCH   6  13
ATOM     13  N   LIG d   1      -2.274  76.893 118.839  0.00  0.00    -0.311 N 
ATOM     14  C   LIG d   1      -1.811  76.331 119.954  0.00  0.00     0.210 C 
ATOM     15  C   LIG d   1      -0.686  77.105 120.649  0.00  0.00     0.109 C 
ATOM     16  O   LIG d   1      -2.204  75.249 120.417  0.00  0.00    -0.276 OA
ATOM     17  H   LIG d   1      -1.876  77.754 118.519  0.00  0.00     0.149 HD
ENDBRANCH   6  13
BRANCH   5  18
ATOM     18  N   LIG d   1      -2.155  74.194 117.411  0.00  0.00     0.381 N 
ATOM     19  H   LIG d   1      -2.360  74.071 118.383  0.00  0.00    -0.090 HD
ATOM     20  H   LIG d   1      -1.164  74.331 117.313  0.00  0.00    -0.090 HD
ATOM     21  H   LIG d   1      -2.439  73.389 116.899  0.00  0.00    -0.090 HD
ENDBRANCH   5  18
BRANCH   3  22
ATOM     22  C   LIG d   1      -5.540  75.791 114.424  0.00  0.00     0.382 C 
ATOM     23  O   LIG d   1      -5.001  75.164 113.480  0.00  0.00    -0.241 OA
ATOM     24  O   LIG d   1      -6.663  76.304 114.257  0.00  0.00    -0.241 OA
ENDBRANCH   3  22
TORSDOF 7
ENDMDL
MODEL 6
REMARK VINA RESULT:      -5.0      2.457      3.750
REMARK  7 active torsions:
REMARK  status: ('A' for Active; 'I' for Inactive)
REMARK    1  A    between atoms: C_2  and  C_3 
REMARK    2  A    between atoms: C_3  and  O_6 
REMARK    3  A    between atoms: C_3  and  C_4 
REMARK    4  A    between atoms: C_7  and  O_6 
REMARK    5  A    between atoms: C_9  and  C_10 
REMARK    6  A    between atoms: N_15  and  C_14 
REMARK    7  A    between atoms: N_20  and  C_19 
REMARK       I    between atoms: C_22  and  N_20 
ROOT
ATOM      1  C   LIG d   1      -2.214  75.355 118.463  0.00  0.00     0.161 C 
ATOM      2  C   LIG d   1      -0.949  75.338 119.074  0.00  0.00     0.016 C 
ATOM      3  C   LIG d   1       0.240  74.993 118.392  0.00  0.00     0.038 C 
ATOM      4  C   LIG d   1       0.266  74.786 117.005  0.00  0.00     0.028 C 
ATOM      5  C   LIG d   1      -1.064  74.299 116.440  0.00  0.00    -0.047 C 
ATOM      6  C   LIG d   1      -2.190  75.241 116.925  0.00  0.00     0.091 C 
ENDROOT
BRANCH   1   7
ATOM      7  O   LIG d   1      -2.935  76.536 118.866  0.00  0.00    -0.368 OA
BRANCH   7   8
ATOM      8  C   LIG d   1      -2.829  77.681 117.985  0.00  0.00     0.119 C 
BRANCH   8   9
ATOM      9  C   LIG d   1      -1.784  78.637 118.592  0.00  0.00     0.028 C 
ATOM     10  C   LIG d   1      -0.542  78.792 117.699  0.00  0.00     0.006 C 
ENDBRANCH   8   9
BRANCH   8  11
ATOM     11  C   LIG d   1      -4.136  78.478 117.946  0.00  0.00     0.028 C 
ATOM     12  C   LIG d   1      -5.378  77.581 117.825  0.00  0.00     0.006 C 
ENDBRANCH   8  11
ENDBRANCH   7   8
ENDBRANCH   1   7
BRANCH   6  13
ATOM     13  N   LIG d   1      -3.536  74.787 116.487  0.00  0.00    -0.311 N 
ATOM     14  C   LIG d   1      -4.118  75.197 115.361  0.00  0.00     0.210 C 
ATOM     15  C   LIG d   1      -5.515  74.623 115.108  0.00  0.00     0.109 C 
ATOM     16  O   LIG d   1      -3.596  75.957 114.531  0.00  0.00    -0.276 OA
ATOM     17  H   LIG d   1      -4.018  74.145 117.085  0.00  0.00     0.149 HD
ENDBRANCH   6  13
BRANCH   5  18
ATOM     18  N   LIG d   1      -0.937  74.257 114.971  0.00  0.00     0.381 N 
ATOM     19  H   LIG d   1      -1.726  74.704 114.550  0.00  0.00    -0.090 HD
ATOM     20  H   LIG d   1      -0.922  73.297 114.673  0.00  0.00    -0.090 HD
ATOM     21  H   LIG d   1      -0.097  74.713 114.689  0.00  0.00    -0.090 HD
ENDBRANCH   5  18
BRANCH   3  22
ATOM     22  C   LIG d   1       1.415  74.812 119.107  0.00  0.00     0.382 C 
ATOM     23  O   LIG d   1       1.370  74.417 120.297  0.00  0.00    -0.241 OA
ATOM     24  O   LIG d   1       2.516  75.082 118.591  0.00  0.00    -0.241 OA
ENDBRANCH   3  22
TORSDOF 7
ENDMDL
MODEL 7
REMARK VINA RESULT:      -5.0      3.071      4.107
REMARK  7 active torsions:
REMARK  status: ('A' for Active; 'I' for Inactive)
REMARK    1  A    between atoms: C_2  and  C_3 
REMARK    2  A    between atoms: C_3  and  O_6 
REMARK    3  A    between atoms: C_3  and  C_4 
REMARK    4  A    between atoms: C_7  and  O_6 
REMARK    5  A    between atoms: C_9  and  C_10 
REMARK    6  A    between atoms: N_15  and  C_14 
REMARK    7  A    between atoms: N_20  and  C_19 
REMARK       I    between atoms: C_22  and  N_20 
ROOT
ATOM      1  C   LIG d   1      -4.666  77.305 116.537  0.00  0.00     0.161 C 
ATOM      2  C   LIG d   1      -3.835  76.307 116.001  0.00  0.00     0.016 C 
ATOM      3  C   LIG d   1      -2.800  75.681 116.732  0.00  0.00     0.038 C 
ATOM      4  C   LIG d   1      -2.623  75.903 118.106  0.00  0.00     0.028 C 
ATOM      5  C   LIG d   1      -3.112  77.273 118.565  0.00  0.00    -0.047 C 
ATOM      6  C   LIG d   1      -4.560  77.481 118.067  0.00  0.00     0.091 C 
ENDROOT
BRANCH   1   7
ATOM      7  O   LIG d   1      -6.034  77.059 116.155  0.00  0.00    -0.368 OA
BRANCH   7   8
ATOM      8  C   LIG d   1      -6.313  75.754 115.590  0.00  0.00     0.119 C 
BRANCH   8   9
ATOM      9  C   LIG d   1      -6.994  75.977 114.225  0.00  0.00     0.028 C 
ATOM     10  C   LIG d   1      -5.978  76.112 113.078  0.00  0.00     0.006 C 
ENDBRANCH   8   9
BRANCH   8  11
ATOM     11  C   LIG d   1      -7.337  74.989 116.433  0.00  0.00     0.028 C 
ATOM     12  C   LIG d   1      -7.177  73.464 116.326  0.00  0.00     0.006 C 
ENDBRANCH   8  11
ENDBRANCH   7   8
ENDBRANCH   1   7
BRANCH   6  13
ATOM     13  N   LIG d   1      -5.086  78.831 118.401  0.00  0.00    -0.311 N 
ATOM     14  C   LIG d   1      -6.241  79.031 119.033  0.00  0.00     0.210 C 
ATOM     15  C   LIG d   1      -6.606  80.502 119.261  0.00  0.00     0.109 C 
ATOM     16  O   LIG d   1      -6.983  78.131 119.453  0.00  0.00    -0.276 OA
ATOM     17  H   LIG d   1      -4.532  79.618 118.124  0.00  0.00     0.149 HD
ENDBRANCH   6  13
BRANCH   5  18
ATOM     18  N   LIG d   1      -2.994  77.318 120.035  0.00  0.00     0.381 N 
ATOM     19  H   LIG d   1      -3.208  78.238 120.364  0.00  0.00    -0.090 HD
ATOM     20  H   LIG d   1      -2.047  77.103 120.292  0.00  0.00    -0.090 HD
ATOM     21  H   LIG d   1      -3.615  76.657 120.447  0.00  0.00    -0.090 HD
ENDBRANCH   5  18
BRANCH   3  22
ATOM     22  C   LIG d   1      -1.903  74.849 116.078  0.00  0.00     0.382 C 
ATOM     23  O   LIG d   1      -1.130  74.117 116.741  0.00  0.00    -0.241 OA
ATOM     24  O   LIG d   1      -1.827  74.856 114.835  0.00  0.00    -0.241 OA
ENDBRANCH   3  22
TORSDOF 7
ENDMDL
MODEL 8
REMARK VINA RESULT:      -4.9      1.335      2.258
REMARK  7 active torsions:
REMARK  status: ('A' for Active; 'I' for Inactive)
REMARK    1  A    between atoms: C_2  and  C_3 
REMARK    2  A    between atoms: C_3  and  O_6 
REMARK    3  A    between atoms: C_3  and  C_4 
REMARK    4  A    between atoms: C_7  and  O_6 
REMARK    5  A    between atoms: C_9  and  C_10 
REMARK    6  A    between atoms: N_15  and  C_14 
REMARK    7  A    between atoms: N_20  and  C_19 
REMARK       I    between atoms: C_22  and  N_20 
ROOT
ATOM      1  C   LIG d   1      -1.380  75.302 115.464  0.00  0.00     0.161 C 
ATOM      2  C   LIG d   1      -0.608  74.824 116.536  0.00  0.00     0.016 C 
ATOM      3  C   LIG d   1       0.428  75.571 117.142  0.00  0.00     0.038 C 
ATOM      4  C   LIG d   1       0.663  76.915 116.814  0.00  0.00     0.028 C 
ATOM      5  C   LIG d   1       0.244  77.273 115.392  0.00  0.00    -0.047 C 
ATOM      6  C   LIG d   1      -1.212  76.806 115.166  0.00  0.00     0.091 C 
ENDROOT
BRANCH   1   7
ATOM      7  O   LIG d   1      -2.769  74.986 115.684  0.00  0.00    -0.368 OA
BRANCH   7   8
ATOM      8  C   LIG d   1      -3.604  76.075 116.149  0.00  0.00     0.119 C 
BRANCH   8   9
ATOM      9  C   LIG d   1      -3.557  76.069 117.690  0.00  0.00     0.028 C 
ATOM     10  C   LIG d   1      -3.050  77.401 118.267  0.00  0.00     0.006 C 
ENDBRANCH   8   9
BRANCH   8  11
ATOM     11  C   LIG d   1      -5.074  75.844 115.788  0.00  0.00     0.028 C 
ATOM     12  C   LIG d   1      -5.281  75.548 114.294  0.00  0.00     0.006 C 
ENDBRANCH   8  11
ENDBRANCH   7   8
ENDBRANCH   1   7
BRANCH   6  13
ATOM     13  N   LIG d   1      -1.673  77.043 113.773  0.00  0.00    -0.311 N 
ATOM     14  C   LIG d   1      -2.420  78.086 113.415  0.00  0.00     0.210 C 
ATOM     15  C   LIG d   1      -2.802  78.129 111.932  0.00  0.00     0.109 C 
ATOM     16  O   LIG d   1      -2.775  78.997 114.178  0.00  0.00    -0.276 OA
ATOM     17  H   LIG d   1      -1.404  76.369 113.083  0.00  0.00     0.149 HD
ENDBRANCH   6  13
BRANCH   5  18
ATOM     18  N   LIG d   1       0.416  78.729 115.231  0.00  0.00     0.381 N 
ATOM     19  H   LIG d   1       0.590  79.151 116.121  0.00  0.00    -0.090 HD
ATOM     20  H   LIG d   1      -0.433  79.118 114.859  0.00  0.00    -0.090 HD
ATOM     21  H   LIG d   1       1.174  78.917 114.612  0.00  0.00    -0.090 HD
ENDBRANCH   5  18
BRANCH   3  22
ATOM     22  C   LIG d   1       1.268  74.961 118.061  0.00  0.00     0.382 C 
ATOM     23  O   LIG d   1       0.791  74.200 118.938  0.00  0.00    -0.241 OA
ATOM     24  O   LIG d   1       2.491  75.197 118.053  0.00  0.00    -0.241 OA
ENDBRANCH   3  22
TORSDOF 7
ENDMDL
MODEL 9
REMARK VINA RESULT:      -4.8      4.137      6.527
REMARK  7 active torsions:
REMARK  status: ('A' for Active; 'I' for Inactive)
REMARK    1  A    between atoms: C_2  and  C_3 
REMARK    2  A    between atoms: C_3  and  O_6 
REMARK    3  A    between atoms: C_3  and  C_4 
REMARK    4  A    between atoms: C_7  and  O_6 
REMARK    5  A    between atoms: C_9  and  C_10 
REMARK    6  A    between atoms: N_15  and  C_14 
REMARK    7  A    between atoms: N_20  and  C_19 
REMARK       I    between atoms: C_22  and  N_20 
ROOT
ATOM      1  C   LIG d   1      -6.420  77.436 117.664  0.00  0.00     0.161 C 
ATOM      2  C   LIG d   1      -7.771  77.221 117.985  0.00  0.00     0.016 C 
ATOM      3  C   LIG d   1      -8.556  78.149 118.708  0.00  0.00     0.038 C 
ATOM      4  C   LIG d   1      -8.082  79.430 119.029  0.00  0.00     0.028 C 
ATOM      5  C   LIG d   1      -6.565  79.496 119.168  0.00  0.00    -0.047 C 
ATOM      6  C   LIG d   1      -5.918  78.874 117.910  0.00  0.00     0.091 C 
ENDROOT
BRANCH   1   7
ATOM      7  O   LIG d   1      -6.175  77.045 116.299  0.00  0.00    -0.368 OA
BRANCH   7   8
ATOM      8  C   LIG d   1      -5.537  75.758 116.108  0.00  0.00     0.119 C 
BRANCH   8   9
ATOM      9  C   LIG d   1      -4.060  76.021 115.757  0.00  0.00     0.028 C 
ATOM     10  C   LIG d   1      -3.094  75.380 116.768  0.00  0.00     0.006 C 
ENDBRANCH   8   9
BRANCH   8  11
ATOM     11  C   LIG d   1      -6.117  75.023 114.896  0.00  0.00     0.028 C 
ATOM     12  C   LIG d   1      -6.646  75.980 113.816  0.00  0.00     0.006 C 
ENDBRANCH   8  11
ENDBRANCH   7   8
ENDBRANCH   1   7
BRANCH   6  13
ATOM     13  N   LIG d   1      -4.435  78.822 118.001  0.00  0.00    -0.311 N 
ATOM     14  C   LIG d   1      -3.782  78.326 119.051  0.00  0.00     0.210 C 
ATOM     15  C   LIG d   1      -2.255  78.387 118.950  0.00  0.00     0.109 C 
ATOM     16  O   LIG d   1      -4.323  77.812 120.042  0.00  0.00    -0.276 OA
ATOM     17  H   LIG d   1      -3.918  79.190 117.227  0.00  0.00     0.149 HD
ENDBRANCH   6  13
BRANCH   5  18
ATOM     18  N   LIG d   1      -6.197  80.911 119.367  0.00  0.00     0.381 N 
ATOM     19  H   LIG d   1      -5.221  81.036 119.188  0.00  0.00    -0.090 HD
ATOM     20  H   LIG d   1      -6.377  81.162 120.324  0.00  0.00    -0.090 HD
ATOM     21  H   LIG d   1      -6.731  81.491 118.758  0.00  0.00    -0.090 HD
ENDBRANCH   5  18
BRANCH   3  22
ATOM     22  C   LIG d   1      -9.818  77.784 119.151  0.00  0.00     0.382 C 
ATOM     23  O   LIG d   1     -10.837  78.172 118.531  0.00  0.00    -0.241 OA
ATOM     24  O   LIG d   1      -9.952  77.107 120.188  0.00  0.00    -0.241 OA
ENDBRANCH   3  22
TORSDOF 7
ENDMDL
