MODEL 1
REMARK VINA RESULT:      -6.0      0.000      0.000
REMARK  7 active torsions:
REMARK  status: ('A' for Active; 'I' for Inactive)
REMARK    1  A    between atoms: C_2  and  C_3 
REMARK    2  A    between atoms: C_3  and  O_6 
REMARK    3  A    between atoms: C_3  and  C_4 
REMARK    4  A    between atoms: C_7  and  O_6 
REMARK    5  A    between atoms: C_9  and  C_10 
REMARK    6  A    between atoms: N_15  and  C_14 
REMARK    7  A    between atoms: N_20  and  C_19 
REMARK       I    between atoms: C_22  and  N_20 
ROOT
ATOM      1  C   LIG d   1      -7.368  76.822 117.637  0.00  0.00     0.161 C 
ATOM      2  C   LIG d   1      -8.712  77.070 117.962  0.00  0.00     0.016 C 
ATOM      3  C   LIG d   1      -9.185  78.325 118.410  0.00  0.00     0.038 C 
ATOM      4  C   LIG d   1      -8.369  79.465 118.418  0.00  0.00     0.028 C 
ATOM      5  C   LIG d   1      -6.886  79.148 118.579  0.00  0.00    -0.047 C 
ATOM      6  C   LIG d   1      -6.484  78.083 117.533  0.00  0.00     0.091 C 
ENDROOT
BRANCH   1   7
ATOM      7  O   LIG d   1      -7.294  76.056 116.418  0.00  0.00    -0.368 OA
BRANCH   7   8
ATOM      8  C   LIG d   1      -6.679  74.748 116.523  0.00  0.00     0.119 C 
BRANCH   8   9
ATOM      9  C   LIG d   1      -5.962  74.465 115.189  0.00  0.00     0.028 C 
ATOM     10  C   LIG d   1      -5.873  75.713 114.294  0.00  0.00     0.006 C 
ENDBRANCH   8   9
BRANCH   8  11
ATOM     11  C   LIG d   1      -7.734  73.647 116.659  0.00  0.00     0.028 C 
ATOM     12  C   LIG d   1      -7.323  72.339 115.963  0.00  0.00     0.006 C 
ENDBRANCH   8  11
ENDBRANCH   7   8
ENDBRANCH   1   7
BRANCH   6  13
ATOM     13  N   LIG d   1      -5.069  77.653 117.677  0.00  0.00    -0.311 N 
ATOM     14  C   LIG d   1      -4.133  77.896 116.761  0.00  0.00     0.210 C 
ATOM     15  C   LIG d   1      -2.742  77.349 117.097  0.00  0.00     0.109 C 
ATOM     16  O   LIG d   1      -4.315  78.541 115.717  0.00  0.00    -0.276 OA
ATOM     17  H   LIG d   1      -4.827  77.151 118.508  0.00  0.00     0.149 HD
ENDBRANCH   6  13
BRANCH   5  18
ATOM     18  N   LIG d   1      -6.141  80.412 118.432  0.00  0.00     0.381 N 
ATOM     19  H   LIG d   1      -6.778  81.162 118.252  0.00  0.00    -0.090 HD
ATOM     20  H   LIG d   1      -5.518  80.333 117.648  0.00  0.00    -0.090 HD
ATOM     21  H   LIG d   1      -5.622  80.601 119.261  0.00  0.00    -0.090 HD
ENDBRANCH   5  18
BRANCH   3  22
ATOM     22  C   LIG d   1     -10.480  78.438 118.893  0.00  0.00     0.382 C 
ATOM     23  O   LIG d   1     -10.814  79.446 119.561  0.00  0.00    -0.241 OA
ATOM     24  O   LIG d   1     -11.306  77.524 118.708  0.00  0.00    -0.241 OA
ENDBRANCH   3  22
TORSDOF 7
ENDMDL
MODEL 2
REMARK VINA RESULT:      -5.9      4.272      6.545
REMARK  7 active torsions:
REMARK  status: ('A' for Active; 'I' for Inactive)
REMARK    1  A    between atoms: C_2  and  C_3 
REMARK    2  A    between atoms: C_3  and  O_6 
REMARK    3  A    between atoms: C_3  and  C_4 
REMARK    4  A    between atoms: C_7  and  O_6 
REMARK    5  A    between atoms: C_9  and  C_10 
REMARK    6  A    between atoms: N_15  and  C_14 
REMARK    7  A    between atoms: N_20  and  C_19 
REMARK       I    between atoms: C_22  and  N_20 
ROOT
ATOM      1  C   LIG d   1      -2.907  75.281 115.657  0.00  0.00     0.161 C 
ATOM      2  C   LIG d   1      -2.461  74.558 116.775  0.00  0.00     0.016 C 
ATOM      3  C   LIG d   1      -1.192  74.747 117.369  0.00  0.00     0.038 C 
ATOM      4  C   LIG d   1      -0.337  75.787 116.974  0.00  0.00     0.028 C 
ATOM      5  C   LIG d   1      -0.532  76.215 115.523  0.00  0.00    -0.047 C 
ATOM      6  C   LIG d   1      -2.033  76.496 115.281  0.00  0.00     0.091 C 
ENDROOT
BRANCH   1   7
ATOM      7  O   LIG d   1      -4.275  75.690 115.854  0.00  0.00    -0.368 OA
BRANCH   7   8
ATOM      8  C   LIG d   1      -5.270  74.638 115.798  0.00  0.00     0.119 C 
BRANCH   8   9
ATOM      9  C   LIG d   1      -5.771  74.552 114.344  0.00  0.00     0.028 C 
ATOM     10  C   LIG d   1      -5.812  75.927 113.655  0.00  0.00     0.006 C 
ENDBRANCH   8   9
BRANCH   8  11
ATOM     11  C   LIG d   1      -6.504  74.993 116.632  0.00  0.00     0.028 C 
ATOM     12  C   LIG d   1      -7.489  73.821 116.767  0.00  0.00     0.006 C 
ENDBRANCH   8  11
ENDBRANCH   7   8
ENDBRANCH   1   7
BRANCH   6  13
ATOM     13  N   LIG d   1      -2.324  76.839 113.865  0.00  0.00    -0.311 N 
ATOM     14  C   LIG d   1      -2.438  78.090 113.422  0.00  0.00     0.210 C 
ATOM     15  C   LIG d   1      -2.761  78.221 111.930  0.00  0.00     0.109 C 
ATOM     16  O   LIG d   1      -2.269  79.104 114.116  0.00  0.00    -0.276 OA
ATOM     17  H   LIG d   1      -2.445  76.077 113.226  0.00  0.00     0.149 HD
ENDBRANCH   6  13
BRANCH   5  18
ATOM     18  N   LIG d   1       0.322  77.393 115.287  0.00  0.00     0.381 N 
ATOM     19  H   LIG d   1       1.261  77.100 115.103  0.00  0.00    -0.090 HD
ATOM     20  H   LIG d   1       0.326  77.963 116.114  0.00  0.00    -0.090 HD
ATOM     21  H   LIG d   1      -0.026  77.918 114.515  0.00  0.00    -0.090 HD
ENDBRANCH   5  18
BRANCH   3  22
ATOM     22  C   LIG d   1      -0.750  73.866 118.343  0.00  0.00     0.382 C 
ATOM     23  O   LIG d   1      -0.463  74.290 119.489  0.00  0.00    -0.241 OA
ATOM     24  O   LIG d   1      -0.593  72.659 118.079  0.00  0.00    -0.241 OA
ENDBRANCH   3  22
TORSDOF 7
ENDMDL
MODEL 3
REMARK VINA RESULT:      -5.8      2.604      4.350
REMARK  7 active torsions:
REMARK  status: ('A' for Active; 'I' for Inactive)
REMARK    1  A    between atoms: C_2  and  C_3 
REMARK    2  A    between atoms: C_3  and  O_6 
REMARK    3  A    between atoms: C_3  and  C_4 
REMARK    4  A    between atoms: C_7  and  O_6 
REMARK    5  A    between atoms: C_9  and  C_10 
REMARK    6  A    between atoms: N_15  and  C_14 
REMARK    7  A    between atoms: N_20  and  C_19 
REMARK       I    between atoms: C_22  and  N_20 
ROOT
ATOM      1  C   LIG d   1      -5.610  75.525 117.496  0.00  0.00     0.161 C 
ATOM      2  C   LIG d   1      -6.122  74.314 117.002  0.00  0.00     0.016 C 
ATOM      3  C   LIG d   1      -7.497  74.090 116.760  0.00  0.00     0.038 C 
ATOM      4  C   LIG d   1      -8.443  75.122 116.854  0.00  0.00     0.028 C 
ATOM      5  C   LIG d   1      -8.046  76.221 117.833  0.00  0.00    -0.047 C 
ATOM      6  C   LIG d   1      -6.614  76.698 117.499  0.00  0.00     0.091 C 
ENDROOT
BRANCH   1   7
ATOM      7  O   LIG d   1      -4.420  75.887 116.768  0.00  0.00    -0.368 OA
BRANCH   7   8
ATOM      8  C   LIG d   1      -4.146  75.115 115.572  0.00  0.00     0.119 C 
BRANCH   8   9
ATOM      9  C   LIG d   1      -2.650  74.743 115.595  0.00  0.00     0.028 C 
ATOM     10  C   LIG d   1      -2.069  74.733 117.018  0.00  0.00     0.006 C 
ENDBRANCH   8   9
BRANCH   8  11
ATOM     11  C   LIG d   1      -4.334  75.960 114.309  0.00  0.00     0.028 C 
ATOM     12  C   LIG d   1      -5.739  75.818 113.701  0.00  0.00     0.006 C 
ENDBRANCH   8  11
ENDBRANCH   7   8
ENDBRANCH   1   7
BRANCH   6  13
ATOM     13  N   LIG d   1      -6.115  77.714 118.461  0.00  0.00    -0.311 N 
ATOM     14  C   LIG d   1      -5.812  78.964 118.116  0.00  0.00     0.210 C 
ATOM     15  C   LIG d   1      -5.296  79.844 119.259  0.00  0.00     0.109 C 
ATOM     16  O   LIG d   1      -5.953  79.438 116.978  0.00  0.00    -0.276 OA
ATOM     17  H   LIG d   1      -6.002  77.424 119.413  0.00  0.00     0.149 HD
ENDBRANCH   6  13
BRANCH   5  18
ATOM     18  N   LIG d   1      -9.051  77.295 117.729  0.00  0.00     0.381 N 
ATOM     19  H   LIG d   1      -8.973  77.748 116.841  0.00  0.00    -0.090 HD
ATOM     20  H   LIG d   1      -8.876  77.976 118.447  0.00  0.00    -0.090 HD
ATOM     21  H   LIG d   1      -9.967  76.917 117.837  0.00  0.00    -0.090 HD
ENDBRANCH   5  18
BRANCH   3  22
ATOM     22  C   LIG d   1      -7.943  72.813 116.458  0.00  0.00     0.382 C 
ATOM     23  O   LIG d   1      -7.116  71.906 116.194  0.00  0.00    -0.241 OA
ATOM     24  O   LIG d   1      -9.162  72.566 116.404  0.00  0.00    -0.241 OA
ENDBRANCH   3  22
TORSDOF 7
ENDMDL
MODEL 4
REMARK VINA RESULT:      -5.8      2.396      5.470
REMARK  7 active torsions:
REMARK  status: ('A' for Active; 'I' for Inactive)
REMARK    1  A    between atoms: C_2  and  C_3 
REMARK    2  A    between atoms: C_3  and  O_6 
REMARK    3  A    between atoms: C_3  and  C_4 
REMARK    4  A    between atoms: C_7  and  O_6 
REMARK    5  A    between atoms: C_9  and  C_10 
REMARK    6  A    between atoms: N_15  and  C_14 
REMARK    7  A    between atoms: N_20  and  C_19 
REMARK       I    between atoms: C_22  and  N_20 
ROOT
ATOM      1  C   LIG d   1      -5.250  76.448 115.976  0.00  0.00     0.161 C 
ATOM      2  C   LIG d   1      -4.262  75.480 115.729  0.00  0.00     0.016 C 
ATOM      3  C   LIG d   1      -3.135  75.288 116.562  0.00  0.00     0.038 C 
ATOM      4  C   LIG d   1      -2.998  75.955 117.788  0.00  0.00     0.028 C 
ATOM      5  C   LIG d   1      -3.711  77.302 117.829  0.00  0.00    -0.047 C 
ATOM      6  C   LIG d   1      -5.174  77.108 117.369  0.00  0.00     0.091 C 
ENDROOT
BRANCH   1   7
ATOM      7  O   LIG d   1      -6.557  75.878 115.762  0.00  0.00    -0.368 OA
BRANCH   7   8
ATOM      8  C   LIG d   1      -7.080  75.062 116.839  0.00  0.00     0.119 C 
BRANCH   8   9
ATOM      9  C   LIG d   1      -6.797  73.590 116.483  0.00  0.00     0.028 C 
ATOM     10  C   LIG d   1      -8.083  72.752 116.384  0.00  0.00     0.006 C 
ENDBRANCH   8   9
BRANCH   8  11
ATOM     11  C   LIG d   1      -8.605  75.171 116.930  0.00  0.00     0.028 C 
ATOM     12  C   LIG d   1      -9.071  76.475 117.596  0.00  0.00     0.006 C 
ENDBRANCH   8  11
ENDBRANCH   7   8
ENDBRANCH   1   7
BRANCH   6  13
ATOM     13  N   LIG d   1      -5.921  78.392 117.298  0.00  0.00    -0.311 N 
ATOM     14  C   LIG d   1      -6.604  78.899 118.323  0.00  0.00     0.210 C 
ATOM     15  C   LIG d   1      -7.318  80.223 118.031  0.00  0.00     0.109 C 
ATOM     16  O   LIG d   1      -6.660  78.395 119.455  0.00  0.00    -0.276 OA
ATOM     17  H   LIG d   1      -5.903  78.883 116.426  0.00  0.00     0.149 HD
ENDBRANCH   6  13
BRANCH   5  18
ATOM     18  N   LIG d   1      -3.602  77.822 119.205  0.00  0.00     0.381 N 
ATOM     19  H   LIG d   1      -3.985  78.746 119.249  0.00  0.00    -0.090 HD
ATOM     20  H   LIG d   1      -2.631  77.872 119.458  0.00  0.00    -0.090 HD
ATOM     21  H   LIG d   1      -4.087  77.223 119.836  0.00  0.00    -0.090 HD
ENDBRANCH   5  18
BRANCH   3  22
ATOM     22  C   LIG d   1      -2.111  74.449 116.149  0.00  0.00     0.382 C 
ATOM     23  O   LIG d   1      -1.357  73.917 116.998  0.00  0.00    -0.241 OA
ATOM     24  O   LIG d   1      -1.904  74.254 114.936  0.00  0.00    -0.241 OA
ENDBRANCH   3  22
TORSDOF 7
ENDMDL
MODEL 5
REMARK VINA RESULT:      -5.7      2.353      3.547
REMARK  7 active torsions:
REMARK  status: ('A' for Active; 'I' for Inactive)
REMARK    1  A    between atoms: C_2  and  C_3 
REMARK    2  A    between atoms: C_3  and  O_6 
REMARK    3  A    between atoms: C_3  and  C_4 
REMARK    4  A    between atoms: C_7  and  O_6 
REMARK    5  A    between atoms: C_9  and  C_10 
REMARK    6  A    between atoms: N_15  and  C_14 
REMARK    7  A    between atoms: N_20  and  C_19 
REMARK       I    between atoms: C_22  and  N_20 
ROOT
ATOM      1  C   LIG d   1      -4.838  75.806 117.713  0.00  0.00     0.161 C 
ATOM      2  C   LIG d   1      -5.906  76.685 117.958  0.00  0.00     0.016 C 
ATOM      3  C   LIG d   1      -5.872  78.061 117.631  0.00  0.00     0.038 C 
ATOM      4  C   LIG d   1      -4.819  78.622 116.894  0.00  0.00     0.028 C 
ATOM      5  C   LIG d   1      -3.497  77.884 117.069  0.00  0.00    -0.047 C 
ATOM      6  C   LIG d   1      -3.725  76.377 116.809  0.00  0.00     0.091 C 
ENDROOT
BRANCH   1   7
ATOM      7  O   LIG d   1      -5.339  74.569 117.169  0.00  0.00    -0.368 OA
BRANCH   7   8
ATOM      8  C   LIG d   1      -6.441  74.682 116.235  0.00  0.00     0.119 C 
BRANCH   8   9
ATOM      9  C   LIG d   1      -7.491  73.626 116.628  0.00  0.00     0.028 C 
ATOM     10  C   LIG d   1      -7.242  72.269 115.946  0.00  0.00     0.006 C 
ENDBRANCH   8   9
BRANCH   8  11
ATOM     11  C   LIG d   1      -6.006  74.314 114.814  0.00  0.00     0.028 C 
ATOM     12  C   LIG d   1      -5.704  75.545 113.945  0.00  0.00     0.006 C 
ENDBRANCH   8  11
ENDBRANCH   7   8
ENDBRANCH   1   7
BRANCH   6  13
ATOM     13  N   LIG d   1      -2.499  75.570 117.041  0.00  0.00    -0.311 N 
ATOM     14  C   LIG d   1      -1.964  74.768 116.121  0.00  0.00     0.210 C 
ATOM     15  C   LIG d   1      -0.712  74.011 116.573  0.00  0.00     0.109 C 
ATOM     16  O   LIG d   1      -2.390  74.637 114.964  0.00  0.00    -0.276 OA
ATOM     17  H   LIG d   1      -2.071  75.640 117.943  0.00  0.00     0.149 HD
ENDBRANCH   6  13
BRANCH   5  18
ATOM     18  N   LIG d   1      -2.522  78.489 116.141  0.00  0.00     0.381 N 
ATOM     19  H   LIG d   1      -2.402  79.458 116.361  0.00  0.00    -0.090 HD
ATOM     20  H   LIG d   1      -2.879  78.420 115.205  0.00  0.00    -0.090 HD
ATOM     21  H   LIG d   1      -1.648  78.015 116.208  0.00  0.00    -0.090 HD
ENDBRANCH   5  18
BRANCH   3  22
ATOM     22  C   LIG d   1      -6.883  78.898 118.078  0.00  0.00     0.382 C 
ATOM     23  O   LIG d   1      -7.009  80.046 117.588  0.00  0.00    -0.241 OA
ATOM     24  O   LIG d   1      -7.643  78.536 118.996  0.00  0.00    -0.241 OA
ENDBRANCH   3  22
TORSDOF 7
ENDMDL
MODEL 6
REMARK VINA RESULT:      -5.7     11.181     13.669
REMARK  7 active torsions:
REMARK  status: ('A' for Active; 'I' for Inactive)
REMARK    1  A    between atoms: C_2  and  C_3 
REMARK    2  A    between atoms: C_3  and  O_6 
REMARK    3  A    between atoms: C_3  and  C_4 
REMARK    4  A    between atoms: C_7  and  O_6 
REMARK    5  A    between atoms: C_9  and  C_10 
REMARK    6  A    between atoms: N_15  and  C_14 
REMARK    7  A    between atoms: N_20  and  C_19 
REMARK       I    between atoms: C_22  and  N_20 
ROOT
ATOM      1  C   LIG d   1       3.495  83.776 111.793  0.00  0.00     0.161 C 
ATOM      2  C   LIG d   1       3.765  85.095 112.193  0.00  0.00     0.016 C 
ATOM      3  C   LIG d   1       3.058  86.217 111.704  0.00  0.00     0.038 C 
ATOM      4  C   LIG d   1       1.924  86.081 110.889  0.00  0.00     0.028 C 
ATOM      5  C   LIG d   1       1.925  84.803 110.057  0.00  0.00    -0.047 C 
ATOM      6  C   LIG d   1       2.189  83.598 110.989  0.00  0.00     0.091 C 
ENDROOT
BRANCH   1   7
ATOM      7  O   LIG d   1       3.498  82.906 112.942  0.00  0.00    -0.368 OA
BRANCH   7   8
ATOM      8  C   LIG d   1       2.215  82.687 113.579  0.00  0.00     0.119 C 
BRANCH   8   9
ATOM      9  C   LIG d   1       2.271  83.349 114.970  0.00  0.00     0.028 C 
ATOM     10  C   LIG d   1       1.540  84.702 115.006  0.00  0.00     0.006 C 
ENDBRANCH   8   9
BRANCH   8  11
ATOM     11  C   LIG d   1       1.973  81.199 113.848  0.00  0.00     0.028 C 
ATOM     12  C   LIG d   1       2.303  80.793 115.293  0.00  0.00     0.006 C 
ENDBRANCH   8  11
ENDBRANCH   7   8
ENDBRANCH   1   7
BRANCH   6  13
ATOM     13  N   LIG d   1       2.290  82.316 110.244  0.00  0.00    -0.311 N 
ATOM     14  C   LIG d   1       1.275  81.465 110.109  0.00  0.00     0.210 C 
ATOM     15  C   LIG d   1       1.598  80.193 109.320  0.00  0.00     0.109 C 
ATOM     16  O   LIG d   1       0.128  81.658 110.540  0.00  0.00    -0.276 OA
ATOM     17  H   LIG d   1       3.177  82.095 109.836  0.00  0.00     0.149 HD
ENDBRANCH   6  13
BRANCH   5  18
ATOM     18  N   LIG d   1       0.627  84.722 109.362  0.00  0.00     0.381 N 
ATOM     19  H   LIG d   1       0.225  83.816 109.498  0.00  0.00    -0.090 HD
ATOM     20  H   LIG d   1       0.777  84.856 108.377  0.00  0.00    -0.090 HD
ATOM     21  H   LIG d   1       0.010  85.423 109.709  0.00  0.00    -0.090 HD
ENDBRANCH   5  18
BRANCH   3  22
ATOM     22  C   LIG d   1       3.508  87.495 111.997  0.00  0.00     0.382 C 
ATOM     23  O   LIG d   1       4.718  87.686 112.268  0.00  0.00    -0.241 OA
ATOM     24  O   LIG d   1       2.712  88.452 112.038  0.00  0.00    -0.241 OA
ENDBRANCH   3  22
TORSDOF 7
ENDMDL
MODEL 7
REMARK VINA RESULT:      -5.5     11.181     12.335
REMARK  7 active torsions:
REMARK  status: ('A' for Active; 'I' for Inactive)
REMARK    1  A    between atoms: C_2  and  C_3 
REMARK    2  A    between atoms: C_3  and  O_6 
REMARK    3  A    between atoms: C_3  and  C_4 
REMARK    4  A    between atoms: C_7  and  O_6 
REMARK    5  A    between atoms: C_9  and  C_10 
REMARK    6  A    between atoms: N_15  and  C_14 
REMARK    7  A    between atoms: N_20  and  C_19 
REMARK       I    between atoms: C_22  and  N_20 
ROOT
ATOM      1  C   LIG d   1       0.795  82.915 112.542  0.00  0.00     0.161 C 
ATOM      2  C   LIG d   1       0.258  83.749 111.547  0.00  0.00     0.016 C 
ATOM      3  C   LIG d   1       0.310  85.160 111.602  0.00  0.00     0.038 C 
ATOM      4  C   LIG d   1       1.041  85.837 112.590  0.00  0.00     0.028 C 
ATOM      5  C   LIG d   1       1.171  85.053 113.891  0.00  0.00    -0.047 C 
ATOM      6  C   LIG d   1       1.693  83.633 113.572  0.00  0.00     0.091 C 
ENDROOT
BRANCH   1   7
ATOM      7  O   LIG d   1       1.507  81.821 111.932  0.00  0.00    -0.368 OA
BRANCH   7   8
ATOM      8  C   LIG d   1       2.065  82.077 110.620  0.00  0.00     0.119 C 
BRANCH   8   9
ATOM      9  C   LIG d   1       1.960  80.771 109.809  0.00  0.00     0.028 C 
ATOM     10  C   LIG d   1       0.516  80.248 109.725  0.00  0.00     0.006 C 
ENDBRANCH   8   9
BRANCH   8  11
ATOM     11  C   LIG d   1       3.564  82.384 110.701  0.00  0.00     0.028 C 
ATOM     12  C   LIG d   1       3.881  83.872 110.481  0.00  0.00     0.006 C 
ENDBRANCH   8  11
ENDBRANCH   7   8
ENDBRANCH   1   7
BRANCH   6  13
ATOM     13  N   LIG d   1       1.769  82.772 114.780  0.00  0.00    -0.311 N 
ATOM     14  C   LIG d   1       2.889  82.583 115.476  0.00  0.00     0.210 C 
ATOM     15  C   LIG d   1       2.753  81.641 116.677  0.00  0.00     0.109 C 
ATOM     16  O   LIG d   1       3.974  83.132 115.233  0.00  0.00    -0.276 OA
ATOM     17  H   LIG d   1       0.927  82.312 115.067  0.00  0.00     0.149 HD
ENDBRANCH   6  13
BRANCH   5  18
ATOM     18  N   LIG d   1       2.069  85.812 114.782  0.00  0.00     0.381 N 
ATOM     19  H   LIG d   1       1.536  86.455 115.333  0.00  0.00    -0.090 HD
ATOM     20  H   LIG d   1       2.715  86.338 114.220  0.00  0.00    -0.090 HD
ATOM     21  H   LIG d   1       2.568  85.187 115.377  0.00  0.00    -0.090 HD
ENDBRANCH   5  18
BRANCH   3  22
ATOM     22  C   LIG d   1      -0.408  85.911 110.684  0.00  0.00     0.382 C 
ATOM     23  O   LIG d   1      -0.231  85.734 109.454  0.00  0.00    -0.241 OA
ATOM     24  O   LIG d   1      -1.197  86.794 111.069  0.00  0.00    -0.241 OA
ENDBRANCH   3  22
TORSDOF 7
ENDMDL
MODEL 8
REMARK VINA RESULT:      -5.5     11.730     14.893
REMARK  7 active torsions:
REMARK  status: ('A' for Active; 'I' for Inactive)
REMARK    1  A    between atoms: C_2  and  C_3 
REMARK    2  A    between atoms: C_3  and  O_6 
REMARK    3  A    between atoms: C_3  and  C_4 
REMARK    4  A    between atoms: C_7  and  O_6 
REMARK    5  A    between atoms: C_9  and  C_10 
REMARK    6  A    between atoms: N_15  and  C_14 
REMARK    7  A    between atoms: N_20  and  C_19 
REMARK       I    between atoms: C_22  and  N_20 
ROOT
ATOM      1  C   LIG d   1       2.496  86.248 113.583  0.00  0.00     0.161 C 
ATOM      2  C   LIG d   1       2.990  87.472 113.103  0.00  0.00     0.016 C 
ATOM      3  C   LIG d   1       4.073  88.161 113.697  0.00  0.00     0.038 C 
ATOM      4  C   LIG d   1       4.837  87.593 114.727  0.00  0.00     0.028 C 
ATOM      5  C   LIG d   1       4.062  86.587 115.573  0.00  0.00    -0.047 C 
ATOM      6  C   LIG d   1       3.388  85.559 114.637  0.00  0.00     0.091 C 
ENDROOT
BRANCH   1   7
ATOM      7  O   LIG d   1       2.246  85.356 112.478  0.00  0.00    -0.368 OA
BRANCH   7   8
ATOM      8  C   LIG d   1       2.730  85.792 111.184  0.00  0.00     0.119 C 
BRANCH   8   9
ATOM      9  C   LIG d   1       1.503  85.979 110.270  0.00  0.00     0.028 C 
ATOM     10  C   LIG d   1       1.244  84.753 109.379  0.00  0.00     0.006 C 
ENDBRANCH   8   9
BRANCH   8  11
ATOM     11  C   LIG d   1       3.576  84.708 110.511  0.00  0.00     0.028 C 
ATOM     12  C   LIG d   1       4.285  83.793 111.522  0.00  0.00     0.006 C 
ENDBRANCH   8  11
ENDBRANCH   7   8
ENDBRANCH   1   7
BRANCH   6  13
ATOM     13  N   LIG d   1       2.540  84.588 115.378  0.00  0.00    -0.311 N 
ATOM     14  C   LIG d   1       2.976  83.398 115.787  0.00  0.00     0.210 C 
ATOM     15  C   LIG d   1       1.933  82.544 116.516  0.00  0.00     0.109 C 
ATOM     16  O   LIG d   1       4.135  82.981 115.643  0.00  0.00    -0.276 OA
ATOM     17  H   LIG d   1       1.595  84.858 115.565  0.00  0.00     0.149 HD
ENDBRANCH   6  13
BRANCH   5  18
ATOM     18  N   LIG d   1       5.014  85.973 116.518  0.00  0.00     0.381 N 
ATOM     19  H   LIG d   1       4.518  85.595 117.300  0.00  0.00    -0.090 HD
ATOM     20  H   LIG d   1       5.641  86.682 116.855  0.00  0.00    -0.090 HD
ATOM     21  H   LIG d   1       5.529  85.252 116.062  0.00  0.00    -0.090 HD
ENDBRANCH   5  18
BRANCH   3  22
ATOM     22  C   LIG d   1       4.376  89.450 113.287  0.00  0.00     0.382 C 
ATOM     23  O   LIG d   1       5.572  89.791 113.121  0.00  0.00    -0.241 OA
ATOM     24  O   LIG d   1       3.470  90.290 113.124  0.00  0.00    -0.241 OA
ENDBRANCH   3  22
TORSDOF 7
ENDMDL
MODEL 9
REMARK VINA RESULT:      -5.3     18.273     21.089
REMARK  7 active torsions:
REMARK  status: ('A' for Active; 'I' for Inactive)
REMARK    1  A    between atoms: C_2  and  C_3 
REMARK    2  A    between atoms: C_3  and  O_6 
REMARK    3  A    between atoms: C_3  and  C_4 
REMARK    4  A    between atoms: C_7  and  O_6 
REMARK    5  A    between atoms: C_9  and  C_10 
REMARK    6  A    between atoms: N_15  and  C_14 
REMARK    7  A    between atoms: N_20  and  C_19 
REMARK       I    between atoms: C_22  and  N_20 
ROOT
ATOM      1  C   LIG d   1     -25.712  85.834 113.067  0.00  0.00     0.161 C 
ATOM      2  C   LIG d   1     -24.641  86.717 113.280  0.00  0.00     0.016 C 
ATOM      3  C   LIG d   1     -23.302  86.292 113.441  0.00  0.00     0.038 C 
ATOM      4  C   LIG d   1     -22.920  84.956 113.249  0.00  0.00     0.028 C 
ATOM      5  C   LIG d   1     -24.039  83.959 113.532  0.00  0.00    -0.047 C 
ATOM      6  C   LIG d   1     -25.299  84.383 112.744  0.00  0.00     0.091 C 
ENDROOT
BRANCH   1   7
ATOM      7  O   LIG d   1     -26.575  86.352 112.035  0.00  0.00    -0.368 OA
BRANCH   7   8
ATOM      8  C   LIG d   1     -26.078  86.248 110.678  0.00  0.00     0.119 C 
BRANCH   8   9
ATOM      9  C   LIG d   1     -26.052  87.670 110.085  0.00  0.00     0.028 C 
ATOM     10  C   LIG d   1     -26.885  88.665 110.910  0.00  0.00     0.006 C 
ENDBRANCH   8   9
BRANCH   8  11
ATOM     11  C   LIG d   1     -27.042  85.455 109.791  0.00  0.00     0.028 C 
ATOM     12  C   LIG d   1     -28.439  85.306 110.414  0.00  0.00     0.006 C 
ENDBRANCH   8  11
ENDBRANCH   7   8
ENDBRANCH   1   7
BRANCH   6  13
ATOM     13  N   LIG d   1     -26.467  83.509 113.030  0.00  0.00    -0.311 N 
ATOM     14  C   LIG d   1     -26.840  82.502 112.241  0.00  0.00     0.210 C 
ATOM     15  C   LIG d   1     -28.083  81.740 112.710  0.00  0.00     0.109 C 
ATOM     16  O   LIG d   1     -26.240  82.148 111.215  0.00  0.00    -0.276 OA
ATOM     17  H   LIG d   1     -26.992  83.706 113.859  0.00  0.00     0.149 HD
ENDBRANCH   6  13
BRANCH   5  18
ATOM     18  N   LIG d   1     -23.547  82.619 113.160  0.00  0.00     0.381 N 
ATOM     19  H   LIG d   1     -23.892  82.372 112.254  0.00  0.00    -0.090 HD
ATOM     20  H   LIG d   1     -23.894  81.950 113.823  0.00  0.00    -0.090 HD
ATOM     21  H   LIG d   1     -22.551  82.610 113.157  0.00  0.00    -0.090 HD
ENDBRANCH   5  18
BRANCH   3  22
ATOM     22  C   LIG d   1     -22.335  87.203 113.839  0.00  0.00     0.382 C 
ATOM     23  O   LIG d   1     -21.143  87.049 113.478  0.00  0.00    -0.241 OA
ATOM     24  O   LIG d   1     -22.631  88.152 114.589  0.00  0.00    -0.241 OA
ENDBRANCH   3  22
TORSDOF 7
ENDMDL
