MODEL 1
REMARK VINA RESULT:      -6.0      0.000      0.000
REMARK  7 active torsions:
REMARK  status: ('A' for Active; 'I' for Inactive)
REMARK    1  A    between atoms: C_2  and  C_3 
REMARK    2  A    between atoms: C_3  and  O_6 
REMARK    3  A    between atoms: C_3  and  C_4 
REMARK    4  A    between atoms: C_7  and  O_6 
REMARK    5  A    between atoms: C_9  and  C_10 
REMARK    6  A    between atoms: N_15  and  C_14 
REMARK    7  A    between atoms: N_20  and  C_19 
REMARK       I    between atoms: C_22  and  N_20 
ROOT
ATOM      1  C   LIG d   1      -7.767  75.640 117.865  0.00  0.00     0.161 C 
ATOM      2  C   LIG d   1      -8.974  76.323 118.090  0.00  0.00     0.016 C 
ATOM      3  C   LIG d   1      -9.058  77.727 118.232  0.00  0.00     0.038 C 
ATOM      4  C   LIG d   1      -7.954  78.563 118.007  0.00  0.00     0.028 C 
ATOM      5  C   LIG d   1      -6.616  77.884 118.275  0.00  0.00    -0.047 C 
ATOM      6  C   LIG d   1      -6.570  76.544 117.505  0.00  0.00     0.091 C 
ENDROOT
BRANCH   1   7
ATOM      7  O   LIG d   1      -7.957  74.634 116.851  0.00  0.00    -0.368 OA
BRANCH   7   8
ATOM      8  C   LIG d   1      -7.921  73.258 117.303  0.00  0.00     0.119 C 
BRANCH   8   9
ATOM      9  C   LIG d   1      -7.029  72.471 116.323  0.00  0.00     0.028 C 
ATOM     10  C   LIG d   1      -6.388  73.377 115.258  0.00  0.00     0.006 C 
ENDBRANCH   8   9
BRANCH   8  11
ATOM     11  C   LIG d   1      -9.303  72.603 117.209  0.00  0.00     0.028 C 
ATOM     12  C   LIG d   1      -9.228  71.086 116.979  0.00  0.00     0.006 C 
ENDBRANCH   8  11
ENDBRANCH   7   8
ENDBRANCH   1   7
BRANCH   6  13
ATOM     13  N   LIG d   1      -5.327  75.775 117.780  0.00  0.00    -0.311 N 
ATOM     14  C   LIG d   1      -4.244  75.834 117.008  0.00  0.00     0.210 C 
ATOM     15  C   LIG d   1      -3.080  74.946 117.459  0.00  0.00     0.109 C 
ATOM     16  O   LIG d   1      -4.124  76.561 116.010  0.00  0.00    -0.276 OA
ATOM     17  H   LIG d   1      -5.326  75.184 118.587  0.00  0.00     0.149 HD
ENDBRANCH   6  13
BRANCH   5  18
ATOM     18  N   LIG d   1      -5.551  78.821 117.869  0.00  0.00     0.381 N 
ATOM     19  H   LIG d   1      -5.356  79.456 118.617  0.00  0.00    -0.090 HD
ATOM     20  H   LIG d   1      -5.871  79.353 117.079  0.00  0.00    -0.090 HD
ATOM     21  H   LIG d   1      -4.727  78.316 117.628  0.00  0.00    -0.090 HD
ENDBRANCH   5  18
BRANCH   3  22
ATOM     22  C   LIG d   1     -10.249  78.306 118.643  0.00  0.00     0.382 C 
ATOM     23  O   LIG d   1     -11.189  77.583 119.054  0.00  0.00    -0.241 OA
ATOM     24  O   LIG d   1     -10.413  79.539 118.566  0.00  0.00    -0.241 OA
ENDBRANCH   3  22
TORSDOF 7
ENDMDL
MODEL 2
REMARK VINA RESULT:      -5.5     14.508     16.000
REMARK  7 active torsions:
REMARK  status: ('A' for Active; 'I' for Inactive)
REMARK    1  A    between atoms: C_2  and  C_3 
REMARK    2  A    between atoms: C_3  and  O_6 
REMARK    3  A    between atoms: C_3  and  C_4 
REMARK    4  A    between atoms: C_7  and  O_6 
REMARK    5  A    between atoms: C_9  and  C_10 
REMARK    6  A    between atoms: N_15  and  C_14 
REMARK    7  A    between atoms: N_20  and  C_19 
REMARK       I    between atoms: C_22  and  N_20 
ROOT
ATOM      1  C   LIG d   1      -4.864  91.153 119.248  0.00  0.00     0.161 C 
ATOM      2  C   LIG d   1      -5.764  90.871 118.207  0.00  0.00     0.016 C 
ATOM      3  C   LIG d   1      -5.381  90.260 116.991  0.00  0.00     0.038 C 
ATOM      4  C   LIG d   1      -4.090  89.748 116.793  0.00  0.00     0.028 C 
ATOM      5  C   LIG d   1      -3.023  90.461 117.617  0.00  0.00    -0.047 C 
ATOM      6  C   LIG d   1      -3.474  90.501 119.095  0.00  0.00     0.091 C 
ENDROOT
BRANCH   1   7
ATOM      7  O   LIG d   1      -5.452  90.789 120.513  0.00  0.00    -0.368 OA
BRANCH   7   8
ATOM      8  C   LIG d   1      -6.467  91.686 121.026  0.00  0.00     0.119 C 
BRANCH   8   9
ATOM      9  C   LIG d   1      -5.870  93.107 121.032  0.00  0.00     0.028 C 
ATOM     10  C   LIG d   1      -6.901  94.179 120.641  0.00  0.00     0.006 C 
ENDBRANCH   8   9
BRANCH   8  11
ATOM     11  C   LIG d   1      -6.795  91.378 122.490  0.00  0.00     0.028 C 
ATOM     12  C   LIG d   1      -6.089  90.114 123.005  0.00  0.00     0.006 C 
ENDBRANCH   8  11
ENDBRANCH   7   8
ENDBRANCH   1   7
BRANCH   6  13
ATOM     13  N   LIG d   1      -2.527  91.255 119.956  0.00  0.00    -0.311 N 
ATOM     14  C   LIG d   1      -1.537  90.679 120.636  0.00  0.00     0.210 C 
ATOM     15  C   LIG d   1      -0.689  91.637 121.479  0.00  0.00     0.109 C 
ATOM     16  O   LIG d   1      -1.260  89.471 120.596  0.00  0.00    -0.276 OA
ATOM     17  H   LIG d   1      -2.659  92.245 120.022  0.00  0.00     0.149 HD
ENDBRANCH   6  13
BRANCH   5  18
ATOM     18  N   LIG d   1      -1.752  89.739 117.420  0.00  0.00     0.381 N 
ATOM     19  H   LIG d   1      -0.991  90.298 117.751  0.00  0.00    -0.090 HD
ATOM     20  H   LIG d   1      -1.620  89.576 116.437  0.00  0.00    -0.090 HD
ATOM     21  H   LIG d   1      -1.773  88.871 117.908  0.00  0.00    -0.090 HD
ENDBRANCH   5  18
BRANCH   3  22
ATOM     22  C   LIG d   1      -6.285  90.192 115.941  0.00  0.00     0.382 C 
ATOM     23  O   LIG d   1      -7.196  89.330 115.953  0.00  0.00    -0.241 OA
ATOM     24  O   LIG d   1      -6.173  90.954 114.961  0.00  0.00    -0.241 OA
ENDBRANCH   3  22
TORSDOF 7
ENDMDL
MODEL 3
REMARK VINA RESULT:      -5.4     17.585     19.034
REMARK  7 active torsions:
REMARK  status: ('A' for Active; 'I' for Inactive)
REMARK    1  A    between atoms: C_2  and  C_3 
REMARK    2  A    between atoms: C_3  and  O_6 
REMARK    3  A    between atoms: C_3  and  C_4 
REMARK    4  A    between atoms: C_7  and  O_6 
REMARK    5  A    between atoms: C_9  and  C_10 
REMARK    6  A    between atoms: N_15  and  C_14 
REMARK    7  A    between atoms: N_20  and  C_19 
REMARK       I    between atoms: C_22  and  N_20 
ROOT
ATOM      1  C   LIG d   1       0.568  58.396 119.040  0.00  0.00     0.161 C 
ATOM      2  C   LIG d   1       1.124  58.883 117.845  0.00  0.00     0.016 C 
ATOM      3  C   LIG d   1       0.367  59.532 116.842  0.00  0.00     0.038 C 
ATOM      4  C   LIG d   1      -0.979  59.874 117.034  0.00  0.00     0.028 C 
ATOM      5  C   LIG d   1      -1.704  58.956 118.013  0.00  0.00    -0.047 C 
ATOM      6  C   LIG d   1      -0.878  58.859 119.316  0.00  0.00     0.091 C 
ENDROOT
BRANCH   1   7
ATOM      7  O   LIG d   1       1.423  58.734 120.150  0.00  0.00    -0.368 OA
BRANCH   7   8
ATOM      8  C   LIG d   1       1.738  60.140 120.307  0.00  0.00     0.119 C 
BRANCH   8   9
ATOM      9  C   LIG d   1       3.238  60.244 120.642  0.00  0.00     0.028 C 
ATOM     10  C   LIG d   1       4.130  60.081 119.400  0.00  0.00     0.006 C 
ENDBRANCH   8   9
BRANCH   8  11
ATOM     11  C   LIG d   1       1.010  60.742 121.513  0.00  0.00     0.028 C 
ATOM     12  C   LIG d   1       1.931  61.595 122.399  0.00  0.00     0.006 C 
ENDBRANCH   8  11
ENDBRANCH   7   8
ENDBRANCH   1   7
BRANCH   6  13
ATOM     13  N   LIG d   1      -1.473  57.914 120.296  0.00  0.00    -0.311 N 
ATOM     14  C   LIG d   1      -2.213  58.302 121.333  0.00  0.00     0.210 C 
ATOM     15  C   LIG d   1      -2.713  57.167 122.232  0.00  0.00     0.109 C 
ATOM     16  O   LIG d   1      -2.531  59.476 121.575  0.00  0.00    -0.276 OA
ATOM     17  H   LIG d   1      -1.292  56.939 120.157  0.00  0.00     0.149 HD
ENDBRANCH   6  13
BRANCH   5  18
ATOM     18  N   LIG d   1      -3.055  59.507 118.225  0.00  0.00     0.381 N 
ATOM     19  H   LIG d   1      -3.137  60.391 117.762  0.00  0.00    -0.090 HD
ATOM     20  H   LIG d   1      -3.196  59.653 119.209  0.00  0.00    -0.090 HD
ATOM     21  H   LIG d   1      -3.741  58.876 117.874  0.00  0.00    -0.090 HD
ENDBRANCH   5  18
BRANCH   3  22
ATOM     22  C   LIG d   1       0.948  59.809 115.614  0.00  0.00     0.382 C 
ATOM     23  O   LIG d   1       0.304  59.610 114.556  0.00  0.00    -0.241 OA
ATOM     24  O   LIG d   1       2.125  60.213 115.549  0.00  0.00    -0.241 OA
ENDBRANCH   3  22
TORSDOF 7
ENDMDL
MODEL 4
REMARK VINA RESULT:      -5.3      1.947      5.099
REMARK  7 active torsions:
REMARK  status: ('A' for Active; 'I' for Inactive)
REMARK    1  A    between atoms: C_2  and  C_3 
REMARK    2  A    between atoms: C_3  and  O_6 
REMARK    3  A    between atoms: C_3  and  C_4 
REMARK    4  A    between atoms: C_7  and  O_6 
REMARK    5  A    between atoms: C_9  and  C_10 
REMARK    6  A    between atoms: N_15  and  C_14 
REMARK    7  A    between atoms: N_20  and  C_19 
REMARK       I    between atoms: C_22  and  N_20 
ROOT
ATOM      1  C   LIG d   1      -7.921  76.035 117.585  0.00  0.00     0.161 C 
ATOM      2  C   LIG d   1      -8.498  74.763 117.434  0.00  0.00     0.016 C 
ATOM      3  C   LIG d   1      -7.752  73.603 117.124  0.00  0.00     0.038 C 
ATOM      4  C   LIG d   1      -6.350  73.609 117.093  0.00  0.00     0.028 C 
ATOM      5  C   LIG d   1      -5.758  74.969 116.741  0.00  0.00    -0.047 C 
ATOM      6  C   LIG d   1      -6.380  76.041 117.665  0.00  0.00     0.091 C 
ENDROOT
BRANCH   1   7
ATOM      7  O   LIG d   1      -8.485  76.693 118.737  0.00  0.00    -0.368 OA
BRANCH   7   8
ATOM      8  C   LIG d   1      -9.477  77.714 118.466  0.00  0.00     0.119 C 
BRANCH   8   9
ATOM      9  C   LIG d   1      -9.037  78.994 119.203  0.00  0.00     0.028 C 
ATOM     10  C   LIG d   1      -8.676  80.133 118.235  0.00  0.00     0.006 C 
ENDBRANCH   8   9
BRANCH   8  11
ATOM     11  C   LIG d   1     -10.835  77.345 119.070  0.00  0.00     0.028 C 
ATOM     12  C   LIG d   1     -10.931  77.676 120.568  0.00  0.00     0.006 C 
ENDBRANCH   8  11
ENDBRANCH   7   8
ENDBRANCH   1   7
BRANCH   6  13
ATOM     13  N   LIG d   1      -5.918  77.414 117.332  0.00  0.00    -0.311 N 
ATOM     14  C   LIG d   1      -5.413  78.256 118.231  0.00  0.00     0.210 C 
ATOM     15  C   LIG d   1      -5.017  79.630 117.681  0.00  0.00     0.109 C 
ATOM     16  O   LIG d   1      -5.226  77.985 119.427  0.00  0.00    -0.276 OA
ATOM     17  H   LIG d   1      -6.005  77.706 116.378  0.00  0.00     0.149 HD
ENDBRANCH   6  13
BRANCH   5  18
ATOM     18  N   LIG d   1      -4.293  74.867 116.880  0.00  0.00     0.381 N 
ATOM     19  H   LIG d   1      -4.065  74.368 117.716  0.00  0.00    -0.090 HD
ATOM     20  H   LIG d   1      -3.907  75.793 116.950  0.00  0.00    -0.090 HD
ATOM     21  H   LIG d   1      -3.907  74.399 116.089  0.00  0.00    -0.090 HD
ENDBRANCH   5  18
BRANCH   3  22
ATOM     22  C   LIG d   1      -8.413  72.427 116.802  0.00  0.00     0.382 C 
ATOM     23  O   LIG d   1      -9.532  72.176 117.311  0.00  0.00    -0.241 OA
ATOM     24  O   LIG d   1      -7.884  71.593 116.042  0.00  0.00    -0.241 OA
ENDBRANCH   3  22
TORSDOF 7
ENDMDL
MODEL 5
REMARK VINA RESULT:      -5.2     17.089     19.418
REMARK  7 active torsions:
REMARK  status: ('A' for Active; 'I' for Inactive)
REMARK    1  A    between atoms: C_2  and  C_3 
REMARK    2  A    between atoms: C_3  and  O_6 
REMARK    3  A    between atoms: C_3  and  C_4 
REMARK    4  A    between atoms: C_7  and  O_6 
REMARK    5  A    between atoms: C_9  and  C_10 
REMARK    6  A    between atoms: N_15  and  C_14 
REMARK    7  A    between atoms: N_20  and  C_19 
REMARK       I    between atoms: C_22  and  N_20 
ROOT
ATOM      1  C   LIG d   1       1.658  59.576 119.548  0.00  0.00     0.161 C 
ATOM      2  C   LIG d   1       3.062  59.615 119.559  0.00  0.00     0.016 C 
ATOM      3  C   LIG d   1       3.848  59.682 118.385  0.00  0.00     0.038 C 
ATOM      4  C   LIG d   1       3.275  59.867 117.119  0.00  0.00     0.028 C 
ATOM      5  C   LIG d   1       1.853  59.326 117.012  0.00  0.00    -0.047 C 
ATOM      6  C   LIG d   1       1.013  59.889 118.181  0.00  0.00     0.091 C 
ENDROOT
BRANCH   1   7
ATOM      7  O   LIG d   1       1.137  60.458 120.562  0.00  0.00    -0.368 OA
BRANCH   7   8
ATOM      8  C   LIG d   1       0.562  59.819 121.728  0.00  0.00     0.119 C 
BRANCH   8   9
ATOM      9  C   LIG d   1       1.569  59.973 122.884  0.00  0.00     0.028 C 
ATOM     10  C   LIG d   1       2.285  61.334 122.861  0.00  0.00     0.006 C 
ENDBRANCH   8   9
BRANCH   8  11
ATOM     11  C   LIG d   1       0.413  58.309 121.519  0.00  0.00     0.028 C 
ATOM     12  C   LIG d   1      -1.055  57.855 121.476  0.00  0.00     0.006 C 
ENDBRANCH   8  11
ENDBRANCH   7   8
ENDBRANCH   1   7
BRANCH   6  13
ATOM     13  N   LIG d   1      -0.369  59.343 118.201  0.00  0.00    -0.311 N 
ATOM     14  C   LIG d   1      -1.453  60.084 117.973  0.00  0.00     0.210 C 
ATOM     15  C   LIG d   1      -2.782  59.328 118.061  0.00  0.00     0.109 C 
ATOM     16  O   LIG d   1      -1.437  61.287 117.675  0.00  0.00    -0.276 OA
ATOM     17  H   LIG d   1      -0.472  58.368 118.404  0.00  0.00     0.149 HD
ENDBRANCH   6  13
BRANCH   5  18
ATOM     18  N   LIG d   1       1.329  59.708 115.687  0.00  0.00     0.381 N 
ATOM     19  H   LIG d   1       1.975  59.432 114.975  0.00  0.00    -0.090 HD
ATOM     20  H   LIG d   1       1.229  60.707 115.653  0.00  0.00    -0.090 HD
ATOM     21  H   LIG d   1       0.446  59.272 115.531  0.00  0.00    -0.090 HD
ENDBRANCH   5  18
BRANCH   3  22
ATOM     22  C   LIG d   1       5.223  59.522 118.469  0.00  0.00     0.382 C 
ATOM     23  O   LIG d   1       5.986  60.368 117.943  0.00  0.00    -0.241 OA
ATOM     24  O   LIG d   1       5.710  58.520 119.027  0.00  0.00    -0.241 OA
ENDBRANCH   3  22
TORSDOF 7
ENDMDL
MODEL 6
REMARK VINA RESULT:      -5.0     14.618     16.038
REMARK  7 active torsions:
REMARK  status: ('A' for Active; 'I' for Inactive)
REMARK    1  A    between atoms: C_2  and  C_3 
REMARK    2  A    between atoms: C_3  and  O_6 
REMARK    3  A    between atoms: C_3  and  C_4 
REMARK    4  A    between atoms: C_7  and  O_6 
REMARK    5  A    between atoms: C_9  and  C_10 
REMARK    6  A    between atoms: N_15  and  C_14 
REMARK    7  A    between atoms: N_20  and  C_19 
REMARK       I    between atoms: C_22  and  N_20 
ROOT
ATOM      1  C   LIG d   1      -3.500  90.389 118.357  0.00  0.00     0.161 C 
ATOM      2  C   LIG d   1      -4.244  90.259 117.173  0.00  0.00     0.016 C 
ATOM      3  C   LIG d   1      -5.613  90.598 117.073  0.00  0.00     0.038 C 
ATOM      4  C   LIG d   1      -6.297  91.236 118.118  0.00  0.00     0.028 C 
ATOM      5  C   LIG d   1      -5.723  90.925 119.496  0.00  0.00    -0.047 C 
ATOM      6  C   LIG d   1      -4.200  91.187 119.477  0.00  0.00     0.091 C 
ENDROOT
BRANCH   1   7
ATOM      7  O   LIG d   1      -2.211  90.963 118.064  0.00  0.00    -0.368 OA
BRANCH   7   8
ATOM      8  C   LIG d   1      -1.114  90.027 117.923  0.00  0.00     0.119 C 
BRANCH   8   9
ATOM      9  C   LIG d   1      -1.282  88.949 119.011  0.00  0.00     0.028 C 
ATOM     10  C   LIG d   1      -0.165  89.001 120.066  0.00  0.00     0.006 C 
ENDBRANCH   8   9
BRANCH   8  11
ATOM     11  C   LIG d   1       0.232  90.697 118.220  0.00  0.00     0.028 C 
ATOM     12  C   LIG d   1       0.109  92.215 118.424  0.00  0.00     0.006 C 
ENDBRANCH   8  11
ENDBRANCH   7   8
ENDBRANCH   1   7
BRANCH   6  13
ATOM     13  N   LIG d   1      -3.546  90.828 120.762  0.00  0.00    -0.311 N 
ATOM     14  C   LIG d   1      -2.657  91.607 121.376  0.00  0.00     0.210 C 
ATOM     15  C   LIG d   1      -2.090  91.038 122.680  0.00  0.00     0.109 C 
ATOM     16  O   LIG d   1      -2.309  92.729 120.980  0.00  0.00    -0.276 OA
ATOM     17  H   LIG d   1      -3.795  89.947 121.169  0.00  0.00     0.149 HD
ENDBRANCH   6  13
BRANCH   5  18
ATOM     18  N   LIG d   1      -6.441  91.761 120.477  0.00  0.00     0.381 N 
ATOM     19  H   LIG d   1      -7.294  92.097 120.076  0.00  0.00    -0.090 HD
ATOM     20  H   LIG d   1      -5.869  92.553 120.710  0.00  0.00    -0.090 HD
ATOM     21  H   LIG d   1      -6.638  91.231 121.298  0.00  0.00    -0.090 HD
ENDBRANCH   5  18
BRANCH   3  22
ATOM     22  C   LIG d   1      -6.323  90.262 115.930  0.00  0.00     0.382 C 
ATOM     23  O   LIG d   1      -7.124  89.297 115.951  0.00  0.00    -0.241 OA
ATOM     24  O   LIG d   1      -6.139  90.883 114.866  0.00  0.00    -0.241 OA
ENDBRANCH   3  22
TORSDOF 7
ENDMDL
MODEL 7
REMARK VINA RESULT:      -4.8      2.622      3.837
REMARK  7 active torsions:
REMARK  status: ('A' for Active; 'I' for Inactive)
REMARK    1  A    between atoms: C_2  and  C_3 
REMARK    2  A    between atoms: C_3  and  O_6 
REMARK    3  A    between atoms: C_3  and  C_4 
REMARK    4  A    between atoms: C_7  and  O_6 
REMARK    5  A    between atoms: C_9  and  C_10 
REMARK    6  A    between atoms: N_15  and  C_14 
REMARK    7  A    between atoms: N_20  and  C_19 
REMARK       I    between atoms: C_22  and  N_20 
ROOT
ATOM      1  C   LIG d   1      -6.315  78.691 117.957  0.00  0.00     0.161 C 
ATOM      2  C   LIG d   1      -7.686  78.453 118.154  0.00  0.00     0.016 C 
ATOM      3  C   LIG d   1      -8.632  79.482 118.368  0.00  0.00     0.038 C 
ATOM      4  C   LIG d   1      -8.292  80.837 118.249  0.00  0.00     0.028 C 
ATOM      5  C   LIG d   1      -6.825  81.123 118.551  0.00  0.00    -0.047 C 
ATOM      6  C   LIG d   1      -5.944  80.169 117.713  0.00  0.00     0.091 C 
ENDROOT
BRANCH   1   7
ATOM      7  O   LIG d   1      -5.826  77.867 116.880  0.00  0.00    -0.368 OA
BRANCH   7   8
ATOM      8  C   LIG d   1      -5.893  76.435 117.092  0.00  0.00     0.119 C 
BRANCH   8   9
ATOM      9  C   LIG d   1      -4.487  75.862 116.830  0.00  0.00     0.028 C 
ATOM     10  C   LIG d   1      -3.404  76.953 116.801  0.00  0.00     0.006 C 
ENDBRANCH   8   9
BRANCH   8  11
ATOM     11  C   LIG d   1      -6.805  75.762 116.061  0.00  0.00     0.028 C 
ATOM     12  C   LIG d   1      -6.152  75.646 114.675  0.00  0.00     0.006 C 
ENDBRANCH   8  11
ENDBRANCH   7   8
ENDBRANCH   1   7
BRANCH   6  13
ATOM     13  N   LIG d   1      -4.497  80.324 118.011  0.00  0.00    -0.311 N 
ATOM     14  C   LIG d   1      -3.602  80.728 117.111  0.00  0.00     0.210 C 
ATOM     15  C   LIG d   1      -2.159  80.801 117.621  0.00  0.00     0.109 C 
ATOM     16  O   LIG d   1      -3.871  81.064 115.948  0.00  0.00    -0.276 OA
ATOM     17  H   LIG d   1      -4.196  80.103 118.940  0.00  0.00     0.149 HD
ENDBRANCH   6  13
BRANCH   5  18
ATOM     18  N   LIG d   1      -6.578  82.547 118.255  0.00  0.00     0.381 N 
ATOM     19  H   LIG d   1      -6.793  82.736 117.297  0.00  0.00    -0.090 HD
ATOM     20  H   LIG d   1      -5.605  82.746 118.405  0.00  0.00    -0.090 HD
ATOM     21  H   LIG d   1      -7.137  83.121 118.848  0.00  0.00    -0.090 HD
ENDBRANCH   5  18
BRANCH   3  22
ATOM     22  C   LIG d   1      -9.926  79.157 118.745  0.00  0.00     0.382 C 
ATOM     23  O   LIG d   1     -10.420  78.056 118.406  0.00  0.00    -0.241 OA
ATOM     24  O   LIG d   1     -10.621  79.971 119.382  0.00  0.00    -0.241 OA
ENDBRANCH   3  22
TORSDOF 7
ENDMDL
MODEL 8
REMARK VINA RESULT:      -4.8     17.496     19.044
REMARK  7 active torsions:
REMARK  status: ('A' for Active; 'I' for Inactive)
REMARK    1  A    between atoms: C_2  and  C_3 
REMARK    2  A    between atoms: C_3  and  O_6 
REMARK    3  A    between atoms: C_3  and  C_4 
REMARK    4  A    between atoms: C_7  and  O_6 
REMARK    5  A    between atoms: C_9  and  C_10 
REMARK    6  A    between atoms: N_15  and  C_14 
REMARK    7  A    between atoms: N_20  and  C_19 
REMARK       I    between atoms: C_22  and  N_20 
ROOT
ATOM      1  C   LIG d   1       0.281  59.583 119.480  0.00  0.00     0.161 C 
ATOM      2  C   LIG d   1       0.149  60.582 120.459  0.00  0.00     0.016 C 
ATOM      3  C   LIG d   1       1.031  60.717 121.556  0.00  0.00     0.038 C 
ATOM      4  C   LIG d   1       2.200  59.950 121.667  0.00  0.00     0.028 C 
ATOM      5  C   LIG d   1       2.103  58.594 120.974  0.00  0.00    -0.047 C 
ATOM      6  C   LIG d   1       1.613  58.806 119.523  0.00  0.00     0.091 C 
ENDROOT
BRANCH   1   7
ATOM      7  O   LIG d   1       0.074  60.150 118.172  0.00  0.00    -0.368 OA
BRANCH   7   8
ATOM      8  C   LIG d   1      -1.164  59.791 117.510  0.00  0.00     0.119 C 
BRANCH   8   9
ATOM      9  C   LIG d   1      -1.842  58.697 118.357  0.00  0.00     0.028 C 
ATOM     10  C   LIG d   1      -1.916  57.348 117.623  0.00  0.00     0.006 C 
ENDBRANCH   8   9
BRANCH   8  11
ATOM     11  C   LIG d   1      -0.900  59.143 116.147  0.00  0.00     0.028 C 
ATOM     12  C   LIG d   1       0.416  59.615 115.509  0.00  0.00     0.006 C 
ENDBRANCH   8  11
ENDBRANCH   7   8
ENDBRANCH   1   7
BRANCH   6  13
ATOM     13  N   LIG d   1       1.410  57.523 118.801  0.00  0.00    -0.311 N 
ATOM     14  C   LIG d   1       2.360  56.929 118.081  0.00  0.00     0.210 C 
ATOM     15  C   LIG d   1       1.934  55.624 117.401  0.00  0.00     0.109 C 
ATOM     16  O   LIG d   1       3.524  57.342 117.967  0.00  0.00    -0.276 OA
ATOM     17  H   LIG d   1       0.504  57.103 118.865  0.00  0.00     0.149 HD
ENDBRANCH   6  13
BRANCH   5  18
ATOM     18  N   LIG d   1       3.432  57.959 121.049  0.00  0.00     0.381 N 
ATOM     19  H   LIG d   1       4.142  58.663 121.081  0.00  0.00    -0.090 HD
ATOM     20  H   LIG d   1       3.574  57.405 120.223  0.00  0.00    -0.090 HD
ATOM     21  H   LIG d   1       3.489  57.382 121.859  0.00  0.00    -0.090 HD
ENDBRANCH   5  18
BRANCH   3  22
ATOM     22  C   LIG d   1       0.725  61.602 122.579  0.00  0.00     0.382 C 
ATOM     23  O   LIG d   1       1.191  61.417 123.729  0.00  0.00    -0.241 OA
ATOM     24  O   LIG d   1      -0.047  62.558 122.377  0.00  0.00    -0.241 OA
ENDBRANCH   3  22
TORSDOF 7
ENDMDL
MODEL 9
REMARK VINA RESULT:      -4.8      1.640      2.354
REMARK  7 active torsions:
REMARK  status: ('A' for Active; 'I' for Inactive)
REMARK    1  A    between atoms: C_2  and  C_3 
REMARK    2  A    between atoms: C_3  and  O_6 
REMARK    3  A    between atoms: C_3  and  C_4 
REMARK    4  A    between atoms: C_7  and  O_6 
REMARK    5  A    between atoms: C_9  and  C_10 
REMARK    6  A    between atoms: N_15  and  C_14 
REMARK    7  A    between atoms: N_20  and  C_19 
REMARK       I    between atoms: C_22  and  N_20 
ROOT
ATOM      1  C   LIG d   1      -6.741  76.463 118.861  0.00  0.00     0.161 C 
ATOM      2  C   LIG d   1      -8.122  76.434 119.115  0.00  0.00     0.016 C 
ATOM      3  C   LIG d   1      -8.959  77.567 118.993  0.00  0.00     0.038 C 
ATOM      4  C   LIG d   1      -8.494  78.778 118.459  0.00  0.00     0.028 C 
ATOM      5  C   LIG d   1      -6.999  78.997 118.666  0.00  0.00    -0.047 C 
ATOM      6  C   LIG d   1      -6.236  77.747 118.171  0.00  0.00     0.091 C 
ENDROOT
BRANCH   1   7
ATOM      7  O   LIG d   1      -6.360  75.301 118.098  0.00  0.00    -0.368 OA
BRANCH   7   8
ATOM      8  C   LIG d   1      -7.177  75.004 116.939  0.00  0.00     0.119 C 
BRANCH   8   9
ATOM      9  C   LIG d   1      -7.337  73.474 116.864  0.00  0.00     0.028 C 
ATOM     10  C   LIG d   1      -8.773  73.017 117.168  0.00  0.00     0.006 C 
ENDBRANCH   8   9
BRANCH   8  11
ATOM     11  C   LIG d   1      -6.469  75.403 115.641  0.00  0.00     0.028 C 
ATOM     12  C   LIG d   1      -6.015  74.190 114.813  0.00  0.00     0.006 C 
ENDBRANCH   8  11
ENDBRANCH   7   8
ENDBRANCH   1   7
BRANCH   6  13
ATOM     13  N   LIG d   1      -4.773  77.843 118.414  0.00  0.00    -0.311 N 
ATOM     14  C   LIG d   1      -3.904  78.269 117.499  0.00  0.00     0.210 C 
ATOM     15  C   LIG d   1      -2.440  78.272 117.949  0.00  0.00     0.109 C 
ATOM     16  O   LIG d   1      -4.210  78.677 116.369  0.00  0.00    -0.276 OA
ATOM     17  H   LIG d   1      -4.441  77.562 119.316  0.00  0.00     0.149 HD
ENDBRANCH   6  13
BRANCH   5  18
ATOM     18  N   LIG d   1      -6.624  80.227 117.942  0.00  0.00     0.381 N 
ATOM     19  H   LIG d   1      -5.657  80.430 118.097  0.00  0.00    -0.090 HD
ATOM     20  H   LIG d   1      -7.168  80.993 118.299  0.00  0.00    -0.090 HD
ATOM     21  H   LIG d   1      -6.795  80.114 116.967  0.00  0.00    -0.090 HD
ENDBRANCH   5  18
BRANCH   3  22
ATOM     22  C   LIG d   1     -10.268  77.507 119.445  0.00  0.00     0.382 C 
ATOM     23  O   LIG d   1     -10.503  77.289 120.658  0.00  0.00    -0.241 OA
ATOM     24  O   LIG d   1     -11.218  77.622 118.647  0.00  0.00    -0.241 OA
ENDBRANCH   3  22
TORSDOF 7
ENDMDL
