MODEL 1
REMARK VINA RESULT:      -5.6      0.000      0.000
REMARK  7 active torsions:
REMARK  status: ('A' for Active; 'I' for Inactive)
REMARK    1  A    between atoms: C_2  and  C_3 
REMARK    2  A    between atoms: C_3  and  O_6 
REMARK    3  A    between atoms: C_3  and  C_4 
REMARK    4  A    between atoms: C_7  and  O_6 
REMARK    5  A    between atoms: C_9  and  C_10 
REMARK    6  A    between atoms: N_15  and  C_14 
REMARK    7  A    between atoms: N_20  and  C_19 
REMARK       I    between atoms: C_22  and  N_20 
ROOT
ATOM      1  C   LIG d   1      -8.209  75.211 116.952  0.00  0.00     0.161 C 
ATOM      2  C   LIG d   1      -7.143  74.910 116.088  0.00  0.00     0.016 C 
ATOM      3  C   LIG d   1      -6.033  75.765 115.895  0.00  0.00     0.038 C 
ATOM      4  C   LIG d   1      -5.840  76.916 116.673  0.00  0.00     0.028 C 
ATOM      5  C   LIG d   1      -7.139  77.518 117.197  0.00  0.00    -0.047 C 
ATOM      6  C   LIG d   1      -7.962  76.409 117.892  0.00  0.00     0.091 C 
ENDROOT
BRANCH   1   7
ATOM      7  O   LIG d   1      -8.564  74.041 117.715  0.00  0.00    -0.368 OA
BRANCH   7   8
ATOM      8  C   LIG d   1      -9.573  73.181 117.130  0.00  0.00     0.119 C 
BRANCH   8   9
ATOM      9  C   LIG d   1     -10.886  73.416 117.902  0.00  0.00     0.028 C 
ATOM     10  C   LIG d   1     -11.779  74.473 117.231  0.00  0.00     0.006 C 
ENDBRANCH   8   9
BRANCH   8  11
ATOM     11  C   LIG d   1      -9.237  71.702 117.344  0.00  0.00     0.028 C 
ATOM     12  C   LIG d   1      -8.320  71.135 116.248  0.00  0.00     0.006 C 
ENDBRANCH   8  11
ENDBRANCH   7   8
ENDBRANCH   1   7
BRANCH   6  13
ATOM     13  N   LIG d   1      -9.286  76.895 118.359  0.00  0.00    -0.311 N 
ATOM     14  C   LIG d   1      -9.783  76.622 119.564  0.00  0.00     0.210 C 
ATOM     15  C   LIG d   1     -11.174  77.204 119.837  0.00  0.00     0.109 C 
ATOM     16  O   LIG d   1      -9.191  75.981 120.445  0.00  0.00    -0.276 OA
ATOM     17  H   LIG d   1      -9.821  77.448 117.719  0.00  0.00     0.149 HD
ENDBRANCH   6  13
BRANCH   5  18
ATOM     18  N   LIG d   1      -6.783  78.627 118.102  0.00  0.00     0.381 N 
ATOM     19  H   LIG d   1      -5.910  78.433 118.549  0.00  0.00    -0.090 HD
ATOM     20  H   LIG d   1      -7.490  78.707 118.812  0.00  0.00    -0.090 HD
ATOM     21  H   LIG d   1      -6.720  79.479 117.589  0.00  0.00    -0.090 HD
ENDBRANCH   5  18
BRANCH   3  22
ATOM     22  C   LIG d   1      -5.121  75.491 114.887  0.00  0.00     0.382 C 
ATOM     23  O   LIG d   1      -5.107  76.193 113.847  0.00  0.00    -0.241 OA
ATOM     24  O   LIG d   1      -4.344  74.523 114.984  0.00  0.00    -0.241 OA
ENDBRANCH   3  22
TORSDOF 7
ENDMDL
MODEL 2
REMARK VINA RESULT:      -5.6      0.629      1.734
REMARK  7 active torsions:
REMARK  status: ('A' for Active; 'I' for Inactive)
REMARK    1  A    between atoms: C_2  and  C_3 
REMARK    2  A    between atoms: C_3  and  O_6 
REMARK    3  A    between atoms: C_3  and  C_4 
REMARK    4  A    between atoms: C_7  and  O_6 
REMARK    5  A    between atoms: C_9  and  C_10 
REMARK    6  A    between atoms: N_15  and  C_14 
REMARK    7  A    between atoms: N_20  and  C_19 
REMARK       I    between atoms: C_22  and  N_20 
ROOT
ATOM      1  C   LIG d   1      -8.393  74.988 117.234  0.00  0.00     0.161 C 
ATOM      2  C   LIG d   1      -7.476  74.748 116.197  0.00  0.00     0.016 C 
ATOM      3  C   LIG d   1      -6.492  75.681 115.796  0.00  0.00     0.038 C 
ATOM      4  C   LIG d   1      -6.259  76.865 116.510  0.00  0.00     0.028 C 
ATOM      5  C   LIG d   1      -7.489  77.379 117.250  0.00  0.00    -0.047 C 
ATOM      6  C   LIG d   1      -8.081  76.229 118.097  0.00  0.00     0.091 C 
ENDROOT
BRANCH   1   7
ATOM      7  O   LIG d   1      -8.509  73.816 118.064  0.00  0.00    -0.368 OA
BRANCH   7   8
ATOM      8  C   LIG d   1      -9.823  73.208 118.127  0.00  0.00     0.119 C 
BRANCH   8   9
ATOM      9  C   LIG d   1      -9.649  71.703 117.845  0.00  0.00     0.028 C 
ATOM     10  C   LIG d   1      -9.047  71.431 116.456  0.00  0.00     0.006 C 
ENDBRANCH   8   9
BRANCH   8  11
ATOM     11  C   LIG d   1     -10.732  73.728 117.010  0.00  0.00     0.028 C 
ATOM     12  C   LIG d   1     -11.962  74.478 117.544  0.00  0.00     0.006 C 
ENDBRANCH   8  11
ENDBRANCH   7   8
ENDBRANCH   1   7
BRANCH   6  13
ATOM     13  N   LIG d   1      -9.337  76.622 118.788  0.00  0.00    -0.311 N 
ATOM     14  C   LIG d   1      -9.571  76.381 120.077  0.00  0.00     0.210 C 
ATOM     15  C   LIG d   1     -10.937  76.852 120.585  0.00  0.00     0.109 C 
ATOM     16  O   LIG d   1      -8.764  75.850 120.855  0.00  0.00    -0.276 OA
ATOM     17  H   LIG d   1     -10.034  77.086 118.239  0.00  0.00     0.149 HD
ENDBRANCH   6  13
BRANCH   5  18
ATOM     18  N   LIG d   1      -7.071  78.538 118.061  0.00  0.00     0.381 N 
ATOM     19  H   LIG d   1      -6.162  78.372 118.445  0.00  0.00    -0.090 HD
ATOM     20  H   LIG d   1      -7.718  78.654 118.821  0.00  0.00    -0.090 HD
ATOM     21  H   LIG d   1      -7.056  79.360 117.499  0.00  0.00    -0.090 HD
ENDBRANCH   5  18
BRANCH   3  22
ATOM     22  C   LIG d   1      -5.756  75.450 114.644  0.00  0.00     0.382 C 
ATOM     23  O   LIG d   1      -6.006  76.099 113.599  0.00  0.00    -0.241 OA
ATOM     24  O   LIG d   1      -4.874  74.571 114.623  0.00  0.00    -0.241 OA
ENDBRANCH   3  22
TORSDOF 7
ENDMDL
MODEL 3
REMARK VINA RESULT:      -5.4     16.189     18.540
REMARK  7 active torsions:
REMARK  status: ('A' for Active; 'I' for Inactive)
REMARK    1  A    between atoms: C_2  and  C_3 
REMARK    2  A    between atoms: C_3  and  O_6 
REMARK    3  A    between atoms: C_3  and  C_4 
REMARK    4  A    between atoms: C_7  and  O_6 
REMARK    5  A    between atoms: C_9  and  C_10 
REMARK    6  A    between atoms: N_15  and  C_14 
REMARK    7  A    between atoms: N_20  and  C_19 
REMARK       I    between atoms: C_22  and  N_20 
ROOT
ATOM      1  C   LIG d   1      -6.220  93.293 117.970  0.00  0.00     0.161 C 
ATOM      2  C   LIG d   1      -6.974  92.426 117.161  0.00  0.00     0.016 C 
ATOM      3  C   LIG d   1      -6.419  91.321 116.475  0.00  0.00     0.038 C 
ATOM      4  C   LIG d   1      -5.091  90.916 116.675  0.00  0.00     0.028 C 
ATOM      5  C   LIG d   1      -4.166  92.056 117.088  0.00  0.00    -0.047 C 
ATOM      6  C   LIG d   1      -4.793  92.802 118.288  0.00  0.00     0.091 C 
ENDROOT
BRANCH   1   7
ATOM      7  O   LIG d   1      -6.938  93.571 119.189  0.00  0.00    -0.368 OA
BRANCH   7   8
ATOM      8  C   LIG d   1      -7.468  94.913 119.324  0.00  0.00     0.119 C 
BRANCH   8   9
ATOM      9  C   LIG d   1      -8.990  94.834 119.095  0.00  0.00     0.028 C 
ATOM     10  C   LIG d   1      -9.772  94.657 120.408  0.00  0.00     0.006 C 
ENDBRANCH   8   9
BRANCH   8  11
ATOM     11  C   LIG d   1      -6.940  95.835 118.221  0.00  0.00     0.028 C 
ATOM     12  C   LIG d   1      -7.931  96.950 117.851  0.00  0.00     0.006 C 
ENDBRANCH   8  11
ENDBRANCH   7   8
ENDBRANCH   1   7
BRANCH   6  13
ATOM     13  N   LIG d   1      -3.992  93.984 118.702  0.00  0.00    -0.311 N 
ATOM     14  C   LIG d   1      -3.070  93.945 119.662  0.00  0.00     0.210 C 
ATOM     15  C   LIG d   1      -2.375  95.280 119.945  0.00  0.00     0.109 C 
ATOM     16  O   LIG d   1      -2.740  92.924 120.285  0.00  0.00    -0.276 OA
ATOM     17  H   LIG d   1      -4.174  94.846 118.227  0.00  0.00     0.149 HD
ENDBRANCH   6  13
BRANCH   5  18
ATOM     18  N   LIG d   1      -2.847  91.470 117.395  0.00  0.00     0.381 N 
ATOM     19  H   LIG d   1      -2.892  90.474 117.314  0.00  0.00    -0.090 HD
ATOM     20  H   LIG d   1      -2.603  91.699 118.343  0.00  0.00    -0.090 HD
ATOM     21  H   LIG d   1      -2.160  91.832 116.772  0.00  0.00    -0.090 HD
ENDBRANCH   5  18
BRANCH   3  22
ATOM     22  C   LIG d   1      -7.186  90.632 115.548  0.00  0.00     0.382 C 
ATOM     23  O   LIG d   1      -7.276  89.383 115.613  0.00  0.00    -0.241 OA
ATOM     24  O   LIG d   1      -7.752  91.240 114.620  0.00  0.00    -0.241 OA
ENDBRANCH   3  22
TORSDOF 7
ENDMDL
MODEL 4
REMARK VINA RESULT:      -5.3      2.445      5.140
REMARK  7 active torsions:
REMARK  status: ('A' for Active; 'I' for Inactive)
REMARK    1  A    between atoms: C_2  and  C_3 
REMARK    2  A    between atoms: C_3  and  O_6 
REMARK    3  A    between atoms: C_3  and  C_4 
REMARK    4  A    between atoms: C_7  and  O_6 
REMARK    5  A    between atoms: C_9  and  C_10 
REMARK    6  A    between atoms: N_15  and  C_14 
REMARK    7  A    between atoms: N_20  and  C_19 
REMARK       I    between atoms: C_22  and  N_20 
ROOT
ATOM      1  C   LIG d   1      -9.065  76.054 119.181  0.00  0.00     0.161 C 
ATOM      2  C   LIG d   1      -8.897  74.798 118.574  0.00  0.00     0.016 C 
ATOM      3  C   LIG d   1      -9.921  74.135 117.860  0.00  0.00     0.038 C 
ATOM      4  C   LIG d   1     -11.146  74.756 117.574  0.00  0.00     0.028 C 
ATOM      5  C   LIG d   1     -11.541  75.817 118.596  0.00  0.00    -0.047 C 
ATOM      6  C   LIG d   1     -10.359  76.795 118.785  0.00  0.00     0.091 C 
ENDROOT
BRANCH   1   7
ATOM      7  O   LIG d   1      -7.914  76.881 118.920  0.00  0.00    -0.368 OA
BRANCH   7   8
ATOM      8  C   LIG d   1      -7.840  77.471 117.599  0.00  0.00     0.119 C 
BRANCH   8   9
ATOM      9  C   LIG d   1      -6.653  76.816 116.866  0.00  0.00     0.028 C 
ATOM     10  C   LIG d   1      -7.100  75.988 115.649  0.00  0.00     0.006 C 
ENDBRANCH   8   9
BRANCH   8  11
ATOM     11  C   LIG d   1      -7.497  78.962 117.674  0.00  0.00     0.028 C 
ATOM     12  C   LIG d   1      -7.172  79.428 119.102  0.00  0.00     0.006 C 
ENDBRANCH   8  11
ENDBRANCH   7   8
ENDBRANCH   1   7
BRANCH   6  13
ATOM     13  N   LIG d   1     -10.630  77.816 119.831  0.00  0.00    -0.311 N 
ATOM     14  C   LIG d   1     -10.809  79.109 119.564  0.00  0.00     0.210 C 
ATOM     15  C   LIG d   1     -11.056  79.994 120.790  0.00  0.00     0.109 C 
ATOM     16  O   LIG d   1     -10.818  79.601 118.426  0.00  0.00    -0.276 OA
ATOM     17  H   LIG d   1     -10.671  77.498 120.779  0.00  0.00     0.149 HD
ENDBRANCH   6  13
BRANCH   5  18
ATOM     18  N   LIG d   1     -12.764  76.477 118.103  0.00  0.00     0.381 N 
ATOM     19  H   LIG d   1     -13.119  77.099 118.802  0.00  0.00    -0.090 HD
ATOM     20  H   LIG d   1     -13.461  75.777 117.920  0.00  0.00    -0.090 HD
ATOM     21  H   LIG d   1     -12.566  76.984 117.268  0.00  0.00    -0.090 HD
ENDBRANCH   5  18
BRANCH   3  22
ATOM     22  C   LIG d   1      -9.739  72.821 117.458  0.00  0.00     0.382 C 
ATOM     23  O   LIG d   1      -8.945  72.555 116.524  0.00  0.00    -0.241 OA
ATOM     24  O   LIG d   1     -10.392  71.902 117.988  0.00  0.00    -0.241 OA
ENDBRANCH   3  22
TORSDOF 7
ENDMDL
MODEL 5
REMARK VINA RESULT:      -5.3     15.710     18.079
REMARK  7 active torsions:
REMARK  status: ('A' for Active; 'I' for Inactive)
REMARK    1  A    between atoms: C_2  and  C_3 
REMARK    2  A    between atoms: C_3  and  O_6 
REMARK    3  A    between atoms: C_3  and  C_4 
REMARK    4  A    between atoms: C_7  and  O_6 
REMARK    5  A    between atoms: C_9  and  C_10 
REMARK    6  A    between atoms: N_15  and  C_14 
REMARK    7  A    between atoms: N_20  and  C_19 
REMARK       I    between atoms: C_22  and  N_20 
ROOT
ATOM      1  C   LIG d   1      -4.584  92.044 117.807  0.00  0.00     0.161 C 
ATOM      2  C   LIG d   1      -4.695  91.161 116.720  0.00  0.00     0.016 C 
ATOM      3  C   LIG d   1      -5.859  91.046 115.927  0.00  0.00     0.038 C 
ATOM      4  C   LIG d   1      -6.947  91.919 116.075  0.00  0.00     0.028 C 
ATOM      5  C   LIG d   1      -7.080  92.488 117.484  0.00  0.00    -0.047 C 
ATOM      6  C   LIG d   1      -5.720  93.083 117.915  0.00  0.00     0.091 C 
ENDROOT
BRANCH   1   7
ATOM      7  O   LIG d   1      -3.303  92.704 117.773  0.00  0.00    -0.368 OA
BRANCH   7   8
ATOM      8  C   LIG d   1      -2.349  92.297 118.784  0.00  0.00     0.119 C 
BRANCH   8   9
ATOM      9  C   LIG d   1      -1.638  93.568 119.288  0.00  0.00     0.028 C 
ATOM     10  C   LIG d   1      -2.326  94.855 118.805  0.00  0.00     0.006 C 
ENDBRANCH   8   9
BRANCH   8  11
ATOM     11  C   LIG d   1      -1.242  91.423 118.187  0.00  0.00     0.028 C 
ATOM     12  C   LIG d   1       0.131  92.114 118.193  0.00  0.00     0.006 C 
ENDBRANCH   8  11
ENDBRANCH   7   8
ENDBRANCH   1   7
BRANCH   6  13
ATOM     13  N   LIG d   1      -5.739  93.586 119.313  0.00  0.00    -0.311 N 
ATOM     14  C   LIG d   1      -5.969  94.858 119.632  0.00  0.00     0.210 C 
ATOM     15  C   LIG d   1      -5.924  95.167 121.131  0.00  0.00     0.109 C 
ATOM     16  O   LIG d   1      -6.239  95.753 118.817  0.00  0.00    -0.276 OA
ATOM     17  H   LIG d   1      -5.560  92.920 120.039  0.00  0.00     0.149 HD
ENDBRANCH   6  13
BRANCH   5  18
ATOM     18  N   LIG d   1      -8.166  93.485 117.461  0.00  0.00     0.381 N 
ATOM     19  H   LIG d   1      -8.688  93.436 118.314  0.00  0.00    -0.090 HD
ATOM     20  H   LIG d   1      -8.786  93.273 116.700  0.00  0.00    -0.090 HD
ATOM     21  H   LIG d   1      -7.788  94.399 117.347  0.00  0.00    -0.090 HD
ENDBRANCH   5  18
BRANCH   3  22
ATOM     22  C   LIG d   1      -5.960  90.021 114.998  0.00  0.00     0.382 C 
ATOM     23  O   LIG d   1      -6.992  89.912 114.293  0.00  0.00    -0.241 OA
ATOM     24  O   LIG d   1      -5.050  89.177 114.888  0.00  0.00    -0.241 OA
ENDBRANCH   3  22
TORSDOF 7
ENDMDL
MODEL 6
REMARK VINA RESULT:      -5.3      1.670      2.267
REMARK  7 active torsions:
REMARK  status: ('A' for Active; 'I' for Inactive)
REMARK    1  A    between atoms: C_2  and  C_3 
REMARK    2  A    between atoms: C_3  and  O_6 
REMARK    3  A    between atoms: C_3  and  C_4 
REMARK    4  A    between atoms: C_7  and  O_6 
REMARK    5  A    between atoms: C_9  and  C_10 
REMARK    6  A    between atoms: N_15  and  C_14 
REMARK    7  A    between atoms: N_20  and  C_19 
REMARK       I    between atoms: C_22  and  N_20 
ROOT
ATOM      1  C   LIG d   1      -8.311  76.235 116.987  0.00  0.00     0.161 C 
ATOM      2  C   LIG d   1      -7.355  75.329 116.500  0.00  0.00     0.016 C 
ATOM      3  C   LIG d   1      -5.967  75.600 116.473  0.00  0.00     0.038 C 
ATOM      4  C   LIG d   1      -5.424  76.745 117.075  0.00  0.00     0.028 C 
ATOM      5  C   LIG d   1      -6.395  77.920 117.128  0.00  0.00    -0.047 C 
ATOM      6  C   LIG d   1      -7.727  77.443 117.750  0.00  0.00     0.091 C 
ENDROOT
BRANCH   1   7
ATOM      7  O   LIG d   1      -9.269  75.540 117.809  0.00  0.00    -0.368 OA
BRANCH   7   8
ATOM      8  C   LIG d   1     -10.628  75.499 117.307  0.00  0.00     0.119 C 
BRANCH   8   9
ATOM      9  C   LIG d   1     -11.491  76.374 118.237  0.00  0.00     0.028 C 
ATOM     10  C   LIG d   1     -10.963  76.394 119.681  0.00  0.00     0.006 C 
ENDBRANCH   8   9
BRANCH   8  11
ATOM     11  C   LIG d   1     -11.219  74.090 117.412  0.00  0.00     0.028 C 
ATOM     12  C   LIG d   1     -10.145  73.006 117.597  0.00  0.00     0.006 C 
ENDBRANCH   8  11
ENDBRANCH   7   8
ENDBRANCH   1   7
BRANCH   6  13
ATOM     13  N   LIG d   1      -8.761  78.510 117.762  0.00  0.00    -0.311 N 
ATOM     14  C   LIG d   1      -8.977  79.310 118.805  0.00  0.00     0.210 C 
ATOM     15  C   LIG d   1     -10.105  80.330 118.615  0.00  0.00     0.109 C 
ATOM     16  O   LIG d   1      -8.321  79.294 119.857  0.00  0.00    -0.276 OA
ATOM     17  H   LIG d   1      -9.319  78.614 116.937  0.00  0.00     0.149 HD
ENDBRANCH   6  13
BRANCH   5  18
ATOM     18  N   LIG d   1      -5.748  78.997 117.901  0.00  0.00     0.381 N 
ATOM     19  H   LIG d   1      -5.154  79.534 117.302  0.00  0.00    -0.090 HD
ATOM     20  H   LIG d   1      -5.182  78.586 118.621  0.00  0.00    -0.090 HD
ATOM     21  H   LIG d   1      -6.440  79.587 118.309  0.00  0.00    -0.090 HD
ENDBRANCH   5  18
BRANCH   3  22
ATOM     22  C   LIG d   1      -5.111  74.739 115.803  0.00  0.00     0.382 C 
ATOM     23  O   LIG d   1      -4.242  74.097 116.440  0.00  0.00    -0.241 OA
ATOM     24  O   LIG d   1      -5.168  74.631 114.563  0.00  0.00    -0.241 OA
ENDBRANCH   3  22
TORSDOF 7
ENDMDL
MODEL 7
REMARK VINA RESULT:      -5.3     11.425     13.685
REMARK  7 active torsions:
REMARK  status: ('A' for Active; 'I' for Inactive)
REMARK    1  A    between atoms: C_2  and  C_3 
REMARK    2  A    between atoms: C_3  and  O_6 
REMARK    3  A    between atoms: C_3  and  C_4 
REMARK    4  A    between atoms: C_7  and  O_6 
REMARK    5  A    between atoms: C_9  and  C_10 
REMARK    6  A    between atoms: N_15  and  C_14 
REMARK    7  A    between atoms: N_20  and  C_19 
REMARK       I    between atoms: C_22  and  N_20 
ROOT
ATOM      1  C   LIG d   1     -16.727  65.288 114.418  0.00  0.00     0.161 C 
ATOM      2  C   LIG d   1     -16.343  66.259 113.478  0.00  0.00     0.016 C 
ATOM      3  C   LIG d   1     -15.635  67.434 113.819  0.00  0.00     0.038 C 
ATOM      4  C   LIG d   1     -15.129  67.648 115.110  0.00  0.00     0.028 C 
ATOM      5  C   LIG d   1     -15.928  66.938 116.198  0.00  0.00    -0.047 C 
ATOM      6  C   LIG d   1     -16.088  65.450 115.813  0.00  0.00     0.091 C 
ENDROOT
BRANCH   1   7
ATOM      7  O   LIG d   1     -16.465  63.971 113.896  0.00  0.00    -0.368 OA
BRANCH   7   8
ATOM      8  C   LIG d   1     -17.627  63.155 113.609  0.00  0.00     0.119 C 
BRANCH   8   9
ATOM      9  C   LIG d   1     -18.876  64.006 113.914  0.00  0.00     0.028 C 
ATOM     10  C   LIG d   1     -19.864  64.040 112.736  0.00  0.00     0.006 C 
ENDBRANCH   8   9
BRANCH   8  11
ATOM     11  C   LIG d   1     -17.713  61.955 114.557  0.00  0.00     0.028 C 
ATOM     12  C   LIG d   1     -18.116  60.657 113.839  0.00  0.00     0.006 C 
ENDBRANCH   8  11
ENDBRANCH   7   8
ENDBRANCH   1   7
BRANCH   6  13
ATOM     13  N   LIG d   1     -16.929  64.701 116.783  0.00  0.00    -0.311 N 
ATOM     14  C   LIG d   1     -16.520  63.600 117.411  0.00  0.00     0.210 C 
ATOM     15  C   LIG d   1     -17.551  62.972 118.354  0.00  0.00     0.109 C 
ATOM     16  O   LIG d   1     -15.390  63.101 117.300  0.00  0.00    -0.276 OA
ATOM     17  H   LIG d   1     -17.850  65.054 116.956  0.00  0.00     0.149 HD
ENDBRANCH   6  13
BRANCH   5  18
ATOM     18  N   LIG d   1     -15.213  67.132 117.473  0.00  0.00     0.381 N 
ATOM     19  H   LIG d   1     -14.449  66.489 117.535  0.00  0.00    -0.090 HD
ATOM     20  H   LIG d   1     -15.844  66.945 118.232  0.00  0.00    -0.090 HD
ATOM     21  H   LIG d   1     -14.875  68.068 117.536  0.00  0.00    -0.090 HD
ENDBRANCH   5  18
BRANCH   3  22
ATOM     22  C   LIG d   1     -15.462  68.431 112.870  0.00  0.00     0.382 C 
ATOM     23  O   LIG d   1     -16.284  68.552 111.930  0.00  0.00    -0.241 OA
ATOM     24  O   LIG d   1     -14.470  69.183 112.918  0.00  0.00    -0.241 OA
ENDBRANCH   3  22
TORSDOF 7
ENDMDL
MODEL 8
REMARK VINA RESULT:      -5.2      1.997      4.689
REMARK  7 active torsions:
REMARK  status: ('A' for Active; 'I' for Inactive)
REMARK    1  A    between atoms: C_2  and  C_3 
REMARK    2  A    between atoms: C_3  and  O_6 
REMARK    3  A    between atoms: C_3  and  C_4 
REMARK    4  A    between atoms: C_7  and  O_6 
REMARK    5  A    between atoms: C_9  and  C_10 
REMARK    6  A    between atoms: N_15  and  C_14 
REMARK    7  A    between atoms: N_20  and  C_19 
REMARK       I    between atoms: C_22  and  N_20 
ROOT
ATOM      1  C   LIG d   1      -8.940  75.655 117.587  0.00  0.00     0.161 C 
ATOM      2  C   LIG d   1      -8.687  74.286 117.396  0.00  0.00     0.016 C 
ATOM      3  C   LIG d   1      -9.706  73.309 117.324  0.00  0.00     0.038 C 
ATOM      4  C   LIG d   1     -11.065  73.656 117.285  0.00  0.00     0.028 C 
ATOM      5  C   LIG d   1     -11.372  74.977 117.981  0.00  0.00    -0.047 C 
ATOM      6  C   LIG d   1     -10.420  76.066 117.435  0.00  0.00     0.091 C 
ENDROOT
BRANCH   1   7
ATOM      7  O   LIG d   1      -8.111  76.433 116.701  0.00  0.00    -0.368 OA
BRANCH   7   8
ATOM      8  C   LIG d   1      -6.687  76.182 116.777  0.00  0.00     0.119 C 
BRANCH   8   9
ATOM      9  C   LIG d   1      -6.006  77.497 117.203  0.00  0.00     0.028 C 
ATOM     10  C   LIG d   1      -7.022  78.611 117.510  0.00  0.00     0.006 C 
ENDBRANCH   8   9
BRANCH   8  11
ATOM     11  C   LIG d   1      -6.105  75.853 115.398  0.00  0.00     0.028 C 
ATOM     12  C   LIG d   1      -5.620  74.399 115.288  0.00  0.00     0.006 C 
ENDBRANCH   8  11
ENDBRANCH   7   8
ENDBRANCH   1   7
BRANCH   6  13
ATOM     13  N   LIG d   1     -10.597  77.371 118.124  0.00  0.00    -0.311 N 
ATOM     14  C   LIG d   1     -10.486  77.526 119.442  0.00  0.00     0.210 C 
ATOM     15  C   LIG d   1     -10.726  78.951 119.948  0.00  0.00     0.109 C 
ATOM     16  O   LIG d   1     -10.179  76.624 120.236  0.00  0.00    -0.276 OA
ATOM     17  H   LIG d   1     -10.817  78.162 117.551  0.00  0.00     0.149 HD
ENDBRANCH   6  13
BRANCH   5  18
ATOM     18  N   LIG d   1     -12.796  75.284 117.746  0.00  0.00     0.381 N 
ATOM     19  H   LIG d   1     -13.241  74.506 117.303  0.00  0.00    -0.090 HD
ATOM     20  H   LIG d   1     -12.861  76.076 117.132  0.00  0.00    -0.090 HD
ATOM     21  H   LIG d   1     -13.248  75.487 118.611  0.00  0.00    -0.090 HD
ENDBRANCH   5  18
BRANCH   3  22
ATOM     22  C   LIG d   1      -9.370  71.964 117.329  0.00  0.00     0.382 C 
ATOM     23  O   LIG d   1      -9.191  71.366 118.418  0.00  0.00    -0.241 OA
ATOM     24  O   LIG d   1      -9.199  71.351 116.258  0.00  0.00    -0.241 OA
ENDBRANCH   3  22
TORSDOF 7
ENDMDL
MODEL 9
REMARK VINA RESULT:      -5.1      5.435      7.748
REMARK  7 active torsions:
REMARK  status: ('A' for Active; 'I' for Inactive)
REMARK    1  A    between atoms: C_2  and  C_3 
REMARK    2  A    between atoms: C_3  and  O_6 
REMARK    3  A    between atoms: C_3  and  C_4 
REMARK    4  A    between atoms: C_7  and  O_6 
REMARK    5  A    between atoms: C_9  and  C_10 
REMARK    6  A    between atoms: N_15  and  C_14 
REMARK    7  A    between atoms: N_20  and  C_19 
REMARK       I    between atoms: C_22  and  N_20 
ROOT
ATOM      1  C   LIG d   1      -2.883  78.347 115.257  0.00  0.00     0.161 C 
ATOM      2  C   LIG d   1      -3.012  79.565 114.569  0.00  0.00     0.016 C 
ATOM      3  C   LIG d   1      -2.630  79.740 113.219  0.00  0.00     0.038 C 
ATOM      4  C   LIG d   1      -2.232  78.662 112.415  0.00  0.00     0.028 C 
ATOM      5  C   LIG d   1      -1.608  77.516 113.205  0.00  0.00    -0.047 C 
ATOM      6  C   LIG d   1      -2.555  77.132 114.365  0.00  0.00     0.091 C 
ENDROOT
BRANCH   1   7
ATOM      7  O   LIG d   1      -4.074  78.094 116.029  0.00  0.00    -0.368 OA
BRANCH   7   8
ATOM      8  C   LIG d   1      -4.337  79.017 117.115  0.00  0.00     0.119 C 
BRANCH   8   9
ATOM      9  C   LIG d   1      -3.418  78.624 118.289  0.00  0.00     0.028 C 
ATOM     10  C   LIG d   1      -2.859  79.849 119.031  0.00  0.00     0.006 C 
ENDBRANCH   8   9
BRANCH   8  11
ATOM     11  C   LIG d   1      -5.764  78.859 117.647  0.00  0.00     0.028 C 
ATOM     12  C   LIG d   1      -6.517  80.195 117.740  0.00  0.00     0.006 C 
ENDBRANCH   8  11
ENDBRANCH   7   8
ENDBRANCH   1   7
BRANCH   6  13
ATOM     13  N   LIG d   1      -1.982  76.075 115.238  0.00  0.00    -0.311 N 
ATOM     14  C   LIG d   1      -2.618  74.942 115.532  0.00  0.00     0.210 C 
ATOM     15  C   LIG d   1      -1.857  73.996 116.466  0.00  0.00     0.109 C 
ATOM     16  O   LIG d   1      -3.727  74.616 115.082  0.00  0.00    -0.276 OA
ATOM     17  H   LIG d   1      -1.072  76.243 115.621  0.00  0.00     0.149 HD
ENDBRANCH   6  13
BRANCH   5  18
ATOM     18  N   LIG d   1      -1.367  76.406 112.263  0.00  0.00     0.381 N 
ATOM     19  H   LIG d   1      -2.218  76.169 111.794  0.00  0.00    -0.090 HD
ATOM     20  H   LIG d   1      -1.058  75.602 112.781  0.00  0.00    -0.090 HD
ATOM     21  H   LIG d   1      -0.674  76.668 111.598  0.00  0.00    -0.090 HD
ENDBRANCH   5  18
BRANCH   3  22
ATOM     22  C   LIG d   1      -2.607  81.014 112.671  0.00  0.00     0.382 C 
ATOM     23  O   LIG d   1      -1.528  81.496 112.251  0.00  0.00    -0.241 OA
ATOM     24  O   LIG d   1      -3.644  81.704 112.633  0.00  0.00    -0.241 OA
ENDBRANCH   3  22
TORSDOF 7
ENDMDL
