MODEL 1
REMARK VINA RESULT:      -5.5      0.000      0.000
REMARK  7 active torsions:
REMARK  status: ('A' for Active; 'I' for Inactive)
REMARK    1  A    between atoms: C_2  and  C_3 
REMARK    2  A    between atoms: C_3  and  O_6 
REMARK    3  A    between atoms: C_3  and  C_4 
REMARK    4  A    between atoms: C_7  and  O_6 
REMARK    5  A    between atoms: C_9  and  C_10 
REMARK    6  A    between atoms: N_15  and  C_14 
REMARK    7  A    between atoms: N_20  and  C_19 
REMARK       I    between atoms: C_22  and  N_20 
ROOT
ATOM      1  C   LIG d   1      -2.495  79.561 114.531  0.00  0.00     0.161 C 
ATOM      2  C   LIG d   1      -1.947  80.760 114.046  0.00  0.00     0.016 C 
ATOM      3  C   LIG d   1      -1.351  80.883 112.770  0.00  0.00     0.038 C 
ATOM      4  C   LIG d   1      -1.398  79.846 111.826  0.00  0.00     0.028 C 
ATOM      5  C   LIG d   1      -1.492  78.460 112.454  0.00  0.00    -0.047 C 
ATOM      6  C   LIG d   1      -2.655  78.449 113.473  0.00  0.00     0.091 C 
ENDROOT
BRANCH   1   7
ATOM      7  O   LIG d   1      -3.757  79.825 115.174  0.00  0.00    -0.368 OA
BRANCH   7   8
ATOM      8  C   LIG d   1      -3.819  79.547 116.595  0.00  0.00     0.119 C 
BRANCH   8   9
ATOM      9  C   LIG d   1      -5.112  78.750 116.855  0.00  0.00     0.028 C 
ATOM     10  C   LIG d   1      -4.872  77.517 117.742  0.00  0.00     0.006 C 
ENDBRANCH   8   9
BRANCH   8  11
ATOM     11  C   LIG d   1      -3.967  80.836 117.409  0.00  0.00     0.028 C 
ATOM     12  C   LIG d   1      -5.424  81.317 117.505  0.00  0.00     0.006 C 
ENDBRANCH   8  11
ENDBRANCH   7   8
ENDBRANCH   1   7
BRANCH   6  13
ATOM     13  N   LIG d   1      -2.764  77.154 114.195  0.00  0.00    -0.311 N 
ATOM     14  C   LIG d   1      -3.887  76.441 114.257  0.00  0.00     0.210 C 
ATOM     15  C   LIG d   1      -3.788  75.146 115.069  0.00  0.00     0.109 C 
ATOM     16  O   LIG d   1      -4.948  76.743 113.690  0.00  0.00    -0.276 OA
ATOM     17  H   LIG d   1      -1.941  76.819 114.658  0.00  0.00     0.149 HD
ENDBRANCH   6  13
BRANCH   5  18
ATOM     18  N   LIG d   1      -1.673  77.486 111.361  0.00  0.00     0.381 N 
ATOM     19  H   LIG d   1      -0.933  76.813 111.381  0.00  0.00    -0.090 HD
ATOM     20  H   LIG d   1      -1.633  77.973 110.483  0.00  0.00    -0.090 HD
ATOM     21  H   LIG d   1      -2.552  77.027 111.455  0.00  0.00    -0.090 HD
ENDBRANCH   5  18
BRANCH   3  22
ATOM     22  C   LIG d   1      -0.663  82.042 112.441  0.00  0.00     0.382 C 
ATOM     23  O   LIG d   1       0.398  82.333 113.044  0.00  0.00    -0.241 OA
ATOM     24  O   LIG d   1      -1.114  82.822 111.581  0.00  0.00    -0.241 OA
ENDBRANCH   3  22
TORSDOF 7
ENDMDL
MODEL 2
REMARK VINA RESULT:      -5.5      7.518     10.248
REMARK  7 active torsions:
REMARK  status: ('A' for Active; 'I' for Inactive)
REMARK    1  A    between atoms: C_2  and  C_3 
REMARK    2  A    between atoms: C_3  and  O_6 
REMARK    3  A    between atoms: C_3  and  C_4 
REMARK    4  A    between atoms: C_7  and  O_6 
REMARK    5  A    between atoms: C_9  and  C_10 
REMARK    6  A    between atoms: N_15  and  C_14 
REMARK    7  A    between atoms: N_20  and  C_19 
REMARK       I    between atoms: C_22  and  N_20 
ROOT
ATOM      1  C   LIG d   1       2.923  86.113 114.307  0.00  0.00     0.161 C 
ATOM      2  C   LIG d   1       3.501  87.177 113.596  0.00  0.00     0.016 C 
ATOM      3  C   LIG d   1       4.474  88.043 114.146  0.00  0.00     0.038 C 
ATOM      4  C   LIG d   1       5.050  87.807 115.404  0.00  0.00     0.028 C 
ATOM      5  C   LIG d   1       4.135  87.043 116.355  0.00  0.00    -0.047 C 
ATOM      6  C   LIG d   1       3.619  85.772 115.641  0.00  0.00     0.091 C 
ENDROOT
BRANCH   1   7
ATOM      7  O   LIG d   1       2.853  84.944 113.466  0.00  0.00    -0.368 OA
BRANCH   7   8
ATOM      8  C   LIG d   1       3.157  85.149 112.064  0.00  0.00     0.119 C 
BRANCH   8   9
ATOM      9  C   LIG d   1       1.840  84.996 111.278  0.00  0.00     0.028 C 
ATOM     10  C   LIG d   1       1.452  86.280 110.525  0.00  0.00     0.006 C 
ENDBRANCH   8   9
BRANCH   8  11
ATOM     11  C   LIG d   1       4.079  84.051 111.527  0.00  0.00     0.028 C 
ATOM     12  C   LIG d   1       3.358  83.074 110.585  0.00  0.00     0.006 C 
ENDBRANCH   8  11
ENDBRANCH   7   8
ENDBRANCH   1   7
BRANCH   6  13
ATOM     13  N   LIG d   1       2.650  85.010 116.472  0.00  0.00    -0.311 N 
ATOM     14  C   LIG d   1       2.742  83.698 116.686  0.00  0.00     0.210 C 
ATOM     15  C   LIG d   1       1.628  83.106 117.556  0.00  0.00     0.109 C 
ATOM     16  O   LIG d   1       3.657  82.975 116.265  0.00  0.00    -0.276 OA
ATOM     17  H   LIG d   1       1.894  85.524 116.878  0.00  0.00     0.149 HD
ENDBRANCH   6  13
BRANCH   5  18
ATOM     18  N   LIG d   1       4.909  86.746 117.575  0.00  0.00     0.381 N 
ATOM     19  H   LIG d   1       5.867  86.999 117.438  0.00  0.00    -0.090 HD
ATOM     20  H   LIG d   1       4.866  85.759 117.755  0.00  0.00    -0.090 HD
ATOM     21  H   LIG d   1       4.532  87.249 118.348  0.00  0.00    -0.090 HD
ENDBRANCH   5  18
BRANCH   3  22
ATOM     22  C   LIG d   1       4.853  89.182 113.451  0.00  0.00     0.382 C 
ATOM     23  O   LIG d   1       3.981  89.989 113.050  0.00  0.00    -0.241 OA
ATOM     24  O   LIG d   1       6.051  89.389 113.183  0.00  0.00    -0.241 OA
ENDBRANCH   3  22
TORSDOF 7
ENDMDL
MODEL 3
REMARK VINA RESULT:      -5.4      3.371      5.871
REMARK  7 active torsions:
REMARK  status: ('A' for Active; 'I' for Inactive)
REMARK    1  A    between atoms: C_2  and  C_3 
REMARK    2  A    between atoms: C_3  and  O_6 
REMARK    3  A    between atoms: C_3  and  C_4 
REMARK    4  A    between atoms: C_7  and  O_6 
REMARK    5  A    between atoms: C_9  and  C_10 
REMARK    6  A    between atoms: N_15  and  C_14 
REMARK    7  A    between atoms: N_20  and  C_19 
REMARK       I    between atoms: C_22  and  N_20 
ROOT
ATOM      1  C   LIG d   1      -1.810  75.764 114.838  0.00  0.00     0.161 C 
ATOM      2  C   LIG d   1      -1.621  74.892 115.922  0.00  0.00     0.016 C 
ATOM      3  C   LIG d   1      -0.828  75.211 117.049  0.00  0.00     0.038 C 
ATOM      4  C   LIG d   1      -0.291  76.493 117.237  0.00  0.00     0.028 C 
ATOM      5  C   LIG d   1      -0.036  77.241 115.933  0.00  0.00    -0.047 C 
ATOM      6  C   LIG d   1      -1.323  77.208 115.076  0.00  0.00     0.091 C 
ENDROOT
BRANCH   1   7
ATOM      7  O   LIG d   1      -3.198  75.762 114.446  0.00  0.00    -0.368 OA
BRANCH   7   8
ATOM      8  C   LIG d   1      -4.160  75.554 115.509  0.00  0.00     0.119 C 
BRANCH   8   9
ATOM      9  C   LIG d   1      -5.308  74.702 114.934  0.00  0.00     0.028 C 
ATOM     10  C   LIG d   1      -5.750  73.588 115.896  0.00  0.00     0.006 C 
ENDBRANCH   8   9
BRANCH   8  11
ATOM     11  C   LIG d   1      -4.809  76.873 115.938  0.00  0.00     0.028 C 
ATOM     12  C   LIG d   1      -4.502  77.241 117.398  0.00  0.00     0.006 C 
ENDBRANCH   8  11
ENDBRANCH   7   8
ENDBRANCH   1   7
BRANCH   6  13
ATOM     13  N   LIG d   1      -1.135  77.845 113.747  0.00  0.00    -0.311 N 
ATOM     14  C   LIG d   1      -1.992  78.722 113.226  0.00  0.00     0.210 C 
ATOM     15  C   LIG d   1      -1.619  79.242 111.834  0.00  0.00     0.109 C 
ATOM     16  O   LIG d   1      -3.009  79.142 113.798  0.00  0.00    -0.276 OA
ATOM     17  H   LIG d   1      -0.319  77.585 113.227  0.00  0.00     0.149 HD
ENDBRANCH   6  13
BRANCH   5  18
ATOM     18  N   LIG d   1       0.393  78.609 116.280  0.00  0.00     0.381 N 
ATOM     19  H   LIG d   1       1.377  78.705 116.128  0.00  0.00    -0.090 HD
ATOM     20  H   LIG d   1       0.207  78.771 117.254  0.00  0.00    -0.090 HD
ATOM     21  H   LIG d   1      -0.102  79.273 115.725  0.00  0.00    -0.090 HD
ENDBRANCH   5  18
BRANCH   3  22
ATOM     22  C   LIG d   1      -0.534  74.230 117.983  0.00  0.00     0.382 C 
ATOM     23  O   LIG d   1      -0.630  73.018 117.670  0.00  0.00    -0.241 OA
ATOM     24  O   LIG d   1      -0.216  74.540 119.146  0.00  0.00    -0.241 OA
ENDBRANCH   3  22
TORSDOF 7
ENDMDL
MODEL 4
REMARK VINA RESULT:      -5.4      2.952      4.327
REMARK  7 active torsions:
REMARK  status: ('A' for Active; 'I' for Inactive)
REMARK    1  A    between atoms: C_2  and  C_3 
REMARK    2  A    between atoms: C_3  and  O_6 
REMARK    3  A    between atoms: C_3  and  C_4 
REMARK    4  A    between atoms: C_7  and  O_6 
REMARK    5  A    between atoms: C_9  and  C_10 
REMARK    6  A    between atoms: N_15  and  C_14 
REMARK    7  A    between atoms: N_20  and  C_19 
REMARK       I    between atoms: C_22  and  N_20 
ROOT
ATOM      1  C   LIG d   1       0.811  81.096 112.920  0.00  0.00     0.161 C 
ATOM      2  C   LIG d   1       1.814  82.012 112.561  0.00  0.00     0.016 C 
ATOM      3  C   LIG d   1       2.052  82.423 111.230  0.00  0.00     0.038 C 
ATOM      4  C   LIG d   1       1.200  82.058 110.177  0.00  0.00     0.028 C 
ATOM      5  C   LIG d   1       0.480  80.735 110.412  0.00  0.00    -0.047 C 
ATOM      6  C   LIG d   1      -0.200  80.773 111.800  0.00  0.00     0.091 C 
ENDROOT
BRANCH   1   7
ATOM      7  O   LIG d   1       0.122  81.562 114.098  0.00  0.00    -0.368 OA
BRANCH   7   8
ATOM      8  C   LIG d   1       0.382  80.829 115.320  0.00  0.00     0.119 C 
BRANCH   8   9
ATOM      9  C   LIG d   1      -0.981  80.488 115.954  0.00  0.00     0.028 C 
ATOM     10  C   LIG d   1      -1.247  78.973 115.994  0.00  0.00     0.006 C 
ENDBRANCH   8   9
BRANCH   8  11
ATOM     11  C   LIG d   1       1.101  81.703 116.351  0.00  0.00     0.028 C 
ATOM     12  C   LIG d   1       0.337  81.807 117.681  0.00  0.00     0.006 C 
ENDBRANCH   8  11
ENDBRANCH   7   8
ENDBRANCH   1   7
BRANCH   6  13
ATOM     13  N   LIG d   1      -0.857  79.485 112.145  0.00  0.00    -0.311 N 
ATOM     14  C   LIG d   1      -2.156  79.376 112.420  0.00  0.00     0.210 C 
ATOM     15  C   LIG d   1      -2.625  77.960 112.771  0.00  0.00     0.109 C 
ATOM     16  O   LIG d   1      -2.970  80.310 112.376  0.00  0.00    -0.276 OA
ATOM     17  H   LIG d   1      -0.277  78.670 112.174  0.00  0.00     0.149 HD
ENDBRANCH   6  13
BRANCH   5  18
ATOM     18  N   LIG d   1      -0.476  80.545 109.305  0.00  0.00     0.381 N 
ATOM     19  H   LIG d   1      -0.881  81.424 109.052  0.00  0.00    -0.090 HD
ATOM     20  H   LIG d   1      -1.214  79.935 109.613  0.00  0.00    -0.090 HD
ATOM     21  H   LIG d   1      -0.013  80.146 108.519  0.00  0.00    -0.090 HD
ENDBRANCH   5  18
BRANCH   3  22
ATOM     22  C   LIG d   1       3.178  83.176 110.934  0.00  0.00     0.382 C 
ATOM     23  O   LIG d   1       3.057  84.294 110.378  0.00  0.00    -0.241 OA
ATOM     24  O   LIG d   1       4.317  82.733 111.177  0.00  0.00    -0.241 OA
ENDBRANCH   3  22
TORSDOF 7
ENDMDL
MODEL 5
REMARK VINA RESULT:      -5.3      2.998      5.713
REMARK  7 active torsions:
REMARK  status: ('A' for Active; 'I' for Inactive)
REMARK    1  A    between atoms: C_2  and  C_3 
REMARK    2  A    between atoms: C_3  and  O_6 
REMARK    3  A    between atoms: C_3  and  C_4 
REMARK    4  A    between atoms: C_7  and  O_6 
REMARK    5  A    between atoms: C_9  and  C_10 
REMARK    6  A    between atoms: N_15  and  C_14 
REMARK    7  A    between atoms: N_20  and  C_19 
REMARK       I    between atoms: C_22  and  N_20 
ROOT
ATOM      1  C   LIG d   1      -1.521  77.223 114.847  0.00  0.00     0.161 C 
ATOM      2  C   LIG d   1      -2.843  76.938 114.465  0.00  0.00     0.016 C 
ATOM      3  C   LIG d   1      -3.586  75.852 114.984  0.00  0.00     0.038 C 
ATOM      4  C   LIG d   1      -3.106  75.062 116.039  0.00  0.00     0.028 C 
ATOM      5  C   LIG d   1      -1.584  75.000 116.106  0.00  0.00    -0.047 C 
ATOM      6  C   LIG d   1      -1.021  76.439 116.079  0.00  0.00     0.091 C 
ENDROOT
BRANCH   1   7
ATOM      7  O   LIG d   1      -1.369  78.640 115.060  0.00  0.00    -0.368 OA
BRANCH   7   8
ATOM      8  C   LIG d   1      -2.493  79.467 114.670  0.00  0.00     0.119 C 
BRANCH   8   9
ATOM      9  C   LIG d   1      -1.974  80.505 113.655  0.00  0.00     0.028 C 
ATOM     10  C   LIG d   1      -1.953  79.960 112.217  0.00  0.00     0.006 C 
ENDBRANCH   8   9
BRANCH   8  11
ATOM     11  C   LIG d   1      -3.020  80.285 115.852  0.00  0.00     0.028 C 
ATOM     12  C   LIG d   1      -4.188  79.599 116.578  0.00  0.00     0.006 C 
ENDBRANCH   8  11
ENDBRANCH   7   8
ENDBRANCH   1   7
BRANCH   6  13
ATOM     13  N   LIG d   1       0.465  76.466 116.055  0.00  0.00    -0.311 N 
ATOM     14  C   LIG d   1       1.206  76.909 117.070  0.00  0.00     0.210 C 
ATOM     15  C   LIG d   1       2.719  76.868 116.831  0.00  0.00     0.109 C 
ATOM     16  O   LIG d   1       0.756  77.301 118.156  0.00  0.00    -0.276 OA
ATOM     17  H   LIG d   1       0.914  76.136 115.224  0.00  0.00     0.149 HD
ENDBRANCH   6  13
BRANCH   5  18
ATOM     18  N   LIG d   1      -1.221  74.260 117.329  0.00  0.00     0.381 N 
ATOM     19  H   LIG d   1      -1.492  74.786 118.136  0.00  0.00    -0.090 HD
ATOM     20  H   LIG d   1      -0.224  74.138 117.352  0.00  0.00    -0.090 HD
ATOM     21  H   LIG d   1      -1.671  73.371 117.336  0.00  0.00    -0.090 HD
ENDBRANCH   5  18
BRANCH   3  22
ATOM     22  C   LIG d   1      -4.808  75.523 114.418  0.00  0.00     0.382 C 
ATOM     23  O   LIG d   1      -5.722  75.046 115.133  0.00  0.00    -0.241 OA
ATOM     24  O   LIG d   1      -4.993  75.656 113.193  0.00  0.00    -0.241 OA
ENDBRANCH   3  22
TORSDOF 7
ENDMDL
MODEL 6
REMARK VINA RESULT:      -5.3      9.071     11.577
REMARK  7 active torsions:
REMARK  status: ('A' for Active; 'I' for Inactive)
REMARK    1  A    between atoms: C_2  and  C_3 
REMARK    2  A    between atoms: C_3  and  O_6 
REMARK    3  A    between atoms: C_3  and  C_4 
REMARK    4  A    between atoms: C_7  and  O_6 
REMARK    5  A    between atoms: C_9  and  C_10 
REMARK    6  A    between atoms: N_15  and  C_14 
REMARK    7  A    between atoms: N_20  and  C_19 
REMARK       I    between atoms: C_22  and  N_20 
ROOT
ATOM      1  C   LIG d   1       3.377  88.251 115.609  0.00  0.00     0.161 C 
ATOM      2  C   LIG d   1       2.597  87.643 114.611  0.00  0.00     0.016 C 
ATOM      3  C   LIG d   1       3.000  87.545 113.260  0.00  0.00     0.038 C 
ATOM      4  C   LIG d   1       4.287  87.915 112.842  0.00  0.00     0.028 C 
ATOM      5  C   LIG d   1       4.920  88.995 113.713  0.00  0.00    -0.047 C 
ATOM      6  C   LIG d   1       4.831  88.561 115.194  0.00  0.00     0.091 C 
ENDROOT
BRANCH   1   7
ATOM      7  O   LIG d   1       3.359  87.443 116.803  0.00  0.00    -0.368 OA
BRANCH   7   8
ATOM      8  C   LIG d   1       2.098  86.802 117.119  0.00  0.00     0.119 C 
BRANCH   8   9
ATOM      9  C   LIG d   1       1.470  87.572 118.297  0.00  0.00     0.028 C 
ATOM     10  C   LIG d   1       0.434  88.610 117.834  0.00  0.00     0.006 C 
ENDBRANCH   8   9
BRANCH   8  11
ATOM     11  C   LIG d   1       2.313  85.376 117.635  0.00  0.00     0.028 C 
ATOM     12  C   LIG d   1       1.073  84.805 118.342  0.00  0.00     0.006 C 
ENDBRANCH   8  11
ENDBRANCH   7   8
ENDBRANCH   1   7
BRANCH   6  13
ATOM     13  N   LIG d   1       5.352  89.599 116.121  0.00  0.00    -0.311 N 
ATOM     14  C   LIG d   1       6.328  89.375 116.999  0.00  0.00     0.210 C 
ATOM     15  C   LIG d   1       6.700  90.576 117.873  0.00  0.00     0.109 C 
ATOM     16  O   LIG d   1       6.944  88.304 117.113  0.00  0.00    -0.276 OA
ATOM     17  H   LIG d   1       4.930  90.506 116.074  0.00  0.00     0.149 HD
ENDBRANCH   6  13
BRANCH   5  18
ATOM     18  N   LIG d   1       6.307  89.185 113.249  0.00  0.00     0.381 N 
ATOM     19  H   LIG d   1       6.535  88.489 112.568  0.00  0.00    -0.090 HD
ATOM     20  H   LIG d   1       6.929  89.077 114.031  0.00  0.00    -0.090 HD
ATOM     21  H   LIG d   1       6.413  90.094 112.855  0.00  0.00    -0.090 HD
ENDBRANCH   5  18
BRANCH   3  22
ATOM     22  C   LIG d   1       2.097  87.107 112.303  0.00  0.00     0.382 C 
ATOM     23  O   LIG d   1       2.414  87.120 111.089  0.00  0.00    -0.241 OA
ATOM     24  O   LIG d   1       0.954  86.742 112.634  0.00  0.00    -0.241 OA
ENDBRANCH   3  22
TORSDOF 7
ENDMDL
MODEL 7
REMARK VINA RESULT:      -5.2      3.911      6.624
REMARK  7 active torsions:
REMARK  status: ('A' for Active; 'I' for Inactive)
REMARK    1  A    between atoms: C_2  and  C_3 
REMARK    2  A    between atoms: C_3  and  O_6 
REMARK    3  A    between atoms: C_3  and  C_4 
REMARK    4  A    between atoms: C_7  and  O_6 
REMARK    5  A    between atoms: C_9  and  C_10 
REMARK    6  A    between atoms: N_15  and  C_14 
REMARK    7  A    between atoms: N_20  and  C_19 
REMARK       I    between atoms: C_22  and  N_20 
ROOT
ATOM      1  C   LIG d   1       1.021  81.772 113.028  0.00  0.00     0.161 C 
ATOM      2  C   LIG d   1      -0.273  81.367 113.398  0.00  0.00     0.016 C 
ATOM      3  C   LIG d   1      -1.190  80.774 112.499  0.00  0.00     0.038 C 
ATOM      4  C   LIG d   1      -0.819  80.405 111.198  0.00  0.00     0.028 C 
ATOM      5  C   LIG d   1       0.314  81.252 110.628  0.00  0.00    -0.047 C 
ATOM      6  C   LIG d   1       1.481  81.276 111.641  0.00  0.00     0.091 C 
ENDROOT
BRANCH   1   7
ATOM      7  O   LIG d   1       1.965  81.375 114.041  0.00  0.00    -0.368 OA
BRANCH   7   8
ATOM      8  C   LIG d   1       1.544  81.562 115.414  0.00  0.00     0.119 C 
BRANCH   8   9
ATOM      9  C   LIG d   1       2.545  82.528 116.078  0.00  0.00     0.028 C 
ATOM     10  C   LIG d   1       1.956  83.224 117.317  0.00  0.00     0.006 C 
ENDBRANCH   8   9
BRANCH   8  11
ATOM     11  C   LIG d   1       1.647  80.259 116.212  0.00  0.00     0.028 C 
ATOM     12  C   LIG d   1       3.100  79.858 116.512  0.00  0.00     0.006 C 
ENDBRANCH   8  11
ENDBRANCH   7   8
ENDBRANCH   1   7
BRANCH   6  13
ATOM     13  N   LIG d   1       2.598  82.151 111.199  0.00  0.00    -0.311 N 
ATOM     14  C   LIG d   1       3.549  81.756 110.353  0.00  0.00     0.210 C 
ATOM     15  C   LIG d   1       4.618  82.809 110.045  0.00  0.00     0.109 C 
ATOM     16  O   LIG d   1       3.590  80.645 109.805  0.00  0.00    -0.276 OA
ATOM     17  H   LIG d   1       2.624  83.080 111.571  0.00  0.00     0.149 HD
ENDBRANCH   6  13
BRANCH   5  18
ATOM     18  N   LIG d   1       0.692  80.672 109.325  0.00  0.00     0.381 N 
ATOM     19  H   LIG d   1       0.710  81.390 108.627  0.00  0.00    -0.090 HD
ATOM     20  H   LIG d   1       0.001  79.992 109.059  0.00  0.00    -0.090 HD
ATOM     21  H   LIG d   1       1.587  80.240 109.390  0.00  0.00    -0.090 HD
ENDBRANCH   5  18
BRANCH   3  22
ATOM     22  C   LIG d   1      -2.506  80.581 112.889  0.00  0.00     0.382 C 
ATOM     23  O   LIG d   1      -3.397  81.377 112.505  0.00  0.00    -0.241 OA
ATOM     24  O   LIG d   1      -2.808  79.647 113.656  0.00  0.00    -0.241 OA
ENDBRANCH   3  22
TORSDOF 7
ENDMDL
MODEL 8
REMARK VINA RESULT:      -5.1     10.071     12.167
REMARK  7 active torsions:
REMARK  status: ('A' for Active; 'I' for Inactive)
REMARK    1  A    between atoms: C_2  and  C_3 
REMARK    2  A    between atoms: C_3  and  O_6 
REMARK    3  A    between atoms: C_3  and  C_4 
REMARK    4  A    between atoms: C_7  and  O_6 
REMARK    5  A    between atoms: C_9  and  C_10 
REMARK    6  A    between atoms: N_15  and  C_14 
REMARK    7  A    between atoms: N_20  and  C_19 
REMARK       I    between atoms: C_22  and  N_20 
ROOT
ATOM      1  C   LIG d   1       3.775  88.308 115.894  0.00  0.00     0.161 C 
ATOM      2  C   LIG d   1       2.897  87.706 114.978  0.00  0.00     0.016 C 
ATOM      3  C   LIG d   1       3.150  87.633 113.589  0.00  0.00     0.038 C 
ATOM      4  C   LIG d   1       4.379  88.026 113.038  0.00  0.00     0.028 C 
ATOM      5  C   LIG d   1       5.092  89.100 113.852  0.00  0.00    -0.047 C 
ATOM      6  C   LIG d   1       5.171  88.643 115.327  0.00  0.00     0.091 C 
ENDROOT
BRANCH   1   7
ATOM      7  O   LIG d   1       3.897  87.483 117.070  0.00  0.00    -0.368 OA
BRANCH   7   8
ATOM      8  C   LIG d   1       3.293  88.004 118.279  0.00  0.00     0.119 C 
BRANCH   8   9
ATOM      9  C   LIG d   1       2.003  87.202 118.535  0.00  0.00     0.028 C 
ATOM     10  C   LIG d   1       0.737  87.995 118.169  0.00  0.00     0.006 C 
ENDBRANCH   8   9
BRANCH   8  11
ATOM     11  C   LIG d   1       2.839  89.455 118.096  0.00  0.00     0.028 C 
ATOM     12  C   LIG d   1       3.549  90.427 119.051  0.00  0.00     0.006 C 
ENDBRANCH   8  11
ENDBRANCH   7   8
ENDBRANCH   1   7
BRANCH   6  13
ATOM     13  N   LIG d   1       5.779  89.674 116.208  0.00  0.00    -0.311 N 
ATOM     14  C   LIG d   1       6.695  89.398 117.135  0.00  0.00     0.210 C 
ATOM     15  C   LIG d   1       7.176  90.604 117.948  0.00  0.00     0.109 C 
ATOM     16  O   LIG d   1       7.178  88.274 117.340  0.00  0.00    -0.276 OA
ATOM     17  H   LIG d   1       5.467  90.618 116.089  0.00  0.00     0.149 HD
ENDBRANCH   6  13
BRANCH   5  18
ATOM     18  N   LIG d   1       6.417  89.316 113.242  0.00  0.00     0.381 N 
ATOM     19  H   LIG d   1       6.506  88.755 112.418  0.00  0.00    -0.090 HD
ATOM     20  H   LIG d   1       7.126  89.031 113.895  0.00  0.00    -0.090 HD
ATOM     21  H   LIG d   1       6.534  90.278 113.012  0.00  0.00    -0.090 HD
ENDBRANCH   5  18
BRANCH   3  22
ATOM     22  C   LIG d   1       2.152  87.198 112.731  0.00  0.00     0.382 C 
ATOM     23  O   LIG d   1       1.871  85.977 112.662  0.00  0.00    -0.241 OA
ATOM     24  O   LIG d   1       1.559  88.006 111.991  0.00  0.00    -0.241 OA
ENDBRANCH   3  22
TORSDOF 7
ENDMDL
MODEL 9
REMARK VINA RESULT:      -5.0      9.345     11.558
REMARK  7 active torsions:
REMARK  status: ('A' for Active; 'I' for Inactive)
REMARK    1  A    between atoms: C_2  and  C_3 
REMARK    2  A    between atoms: C_3  and  O_6 
REMARK    3  A    between atoms: C_3  and  C_4 
REMARK    4  A    between atoms: C_7  and  O_6 
REMARK    5  A    between atoms: C_9  and  C_10 
REMARK    6  A    between atoms: N_15  and  C_14 
REMARK    7  A    between atoms: N_20  and  C_19 
REMARK       I    between atoms: C_22  and  N_20 
ROOT
ATOM      1  C   LIG d   1       3.495  87.795 115.692  0.00  0.00     0.161 C 
ATOM      2  C   LIG d   1       2.682  87.330 114.645  0.00  0.00     0.016 C 
ATOM      3  C   LIG d   1       3.001  87.498 113.278  0.00  0.00     0.038 C 
ATOM      4  C   LIG d   1       4.239  88.012 112.863  0.00  0.00     0.028 C 
ATOM      5  C   LIG d   1       4.874  88.954 113.880  0.00  0.00    -0.047 C 
ATOM      6  C   LIG d   1       4.902  88.259 115.260  0.00  0.00     0.091 C 
ENDROOT
BRANCH   1   7
ATOM      7  O   LIG d   1       3.593  86.788 116.718  0.00  0.00    -0.368 OA
BRANCH   7   8
ATOM      8  C   LIG d   1       3.228  85.441 116.327  0.00  0.00     0.119 C 
BRANCH   8   9
ATOM      9  C   LIG d   1       2.346  84.857 117.448  0.00  0.00     0.028 C 
ATOM     10  C   LIG d   1       2.152  85.839 118.615  0.00  0.00     0.006 C 
ENDBRANCH   8   9
BRANCH   8  11
ATOM     11  C   LIG d   1       4.456  84.528 116.260  0.00  0.00     0.028 C 
ATOM     12  C   LIG d   1       5.622  85.032 117.126  0.00  0.00     0.006 C 
ENDBRANCH   8  11
ENDBRANCH   7   8
ENDBRANCH   1   7
BRANCH   6  13
ATOM     13  N   LIG d   1       5.432  89.144 116.330  0.00  0.00    -0.311 N 
ATOM     14  C   LIG d   1       4.829  90.266 116.719  0.00  0.00     0.210 C 
ATOM     15  C   LIG d   1       5.554  91.040 117.824  0.00  0.00     0.109 C 
ATOM     16  O   LIG d   1       3.746  90.677 116.276  0.00  0.00    -0.276 OA
ATOM     17  H   LIG d   1       6.291  88.870 116.766  0.00  0.00     0.149 HD
ENDBRANCH   6  13
BRANCH   5  18
ATOM     18  N   LIG d   1       6.218  89.306 113.383  0.00  0.00     0.381 N 
ATOM     19  H   LIG d   1       6.913  88.983 114.026  0.00  0.00    -0.090 HD
ATOM     20  H   LIG d   1       6.289  90.307 113.318  0.00  0.00    -0.090 HD
ATOM     21  H   LIG d   1       6.368  88.897 112.487  0.00  0.00    -0.090 HD
ENDBRANCH   5  18
BRANCH   3  22
ATOM     22  C   LIG d   1       2.060  87.186 112.309  0.00  0.00     0.382 C 
ATOM     23  O   LIG d   1       2.306  87.413 111.100  0.00  0.00    -0.241 OA
ATOM     24  O   LIG d   1       0.950  86.721 112.633  0.00  0.00    -0.241 OA
ENDBRANCH   3  22
TORSDOF 7
ENDMDL
