MODEL 1
REMARK VINA RESULT:      -6.1      0.000      0.000
REMARK  7 active torsions:
REMARK  status: ('A' for Active; 'I' for Inactive)
REMARK    1  A    between atoms: C_2  and  C_3 
REMARK    2  A    between atoms: C_3  and  O_6 
REMARK    3  A    between atoms: C_3  and  C_4 
REMARK    4  A    between atoms: C_7  and  O_6 
REMARK    5  A    between atoms: C_9  and  C_10 
REMARK    6  A    between atoms: N_15  and  C_14 
REMARK    7  A    between atoms: N_20  and  C_19 
REMARK       I    between atoms: C_22  and  N_20 
ROOT
ATOM      1  C   LIG d   1      -7.334  76.817 117.623  0.00  0.00     0.161 C 
ATOM      2  C   LIG d   1      -8.682  77.052 117.941  0.00  0.00     0.016 C 
ATOM      3  C   LIG d   1      -9.165  78.294 118.415  0.00  0.00     0.038 C 
ATOM      4  C   LIG d   1      -8.353  79.437 118.460  0.00  0.00     0.028 C 
ATOM      5  C   LIG d   1      -6.871  79.120 118.629  0.00  0.00    -0.047 C 
ATOM      6  C   LIG d   1      -6.454  78.084 117.560  0.00  0.00     0.091 C 
ENDROOT
BRANCH   1   7
ATOM      7  O   LIG d   1      -7.244  76.083 116.386  0.00  0.00    -0.368 OA
BRANCH   7   8
ATOM      8  C   LIG d   1      -6.620  74.778 116.463  0.00  0.00     0.119 C 
BRANCH   8   9
ATOM      9  C   LIG d   1      -6.003  74.478 115.084  0.00  0.00     0.028 C 
ATOM     10  C   LIG d   1      -5.828  75.745 114.231  0.00  0.00     0.006 C 
ENDBRANCH   8   9
BRANCH   8  11
ATOM     11  C   LIG d   1      -7.660  73.676 116.691  0.00  0.00     0.028 C 
ATOM     12  C   LIG d   1      -7.289  72.355 115.998  0.00  0.00     0.006 C 
ENDBRANCH   8  11
ENDBRANCH   7   8
ENDBRANCH   1   7
BRANCH   6  13
ATOM     13  N   LIG d   1      -5.039  77.656 117.708  0.00  0.00    -0.311 N 
ATOM     14  C   LIG d   1      -4.106  77.877 116.783  0.00  0.00     0.210 C 
ATOM     15  C   LIG d   1      -2.715  77.336 117.126  0.00  0.00     0.109 C 
ATOM     16  O   LIG d   1      -4.291  78.499 115.727  0.00  0.00    -0.276 OA
ATOM     17  H   LIG d   1      -4.794  77.171 118.549  0.00  0.00     0.149 HD
ENDBRANCH   6  13
BRANCH   5  18
ATOM     18  N   LIG d   1      -6.129  80.391 118.521  0.00  0.00     0.381 N 
ATOM     19  H   LIG d   1      -5.987  80.620 117.558  0.00  0.00    -0.090 HD
ATOM     20  H   LIG d   1      -5.230  80.280 118.956  0.00  0.00    -0.090 HD
ATOM     21  H   LIG d   1      -6.636  81.121 118.972  0.00  0.00    -0.090 HD
ENDBRANCH   5  18
BRANCH   3  22
ATOM     22  C   LIG d   1     -10.465  78.390 118.887  0.00  0.00     0.382 C 
ATOM     23  O   LIG d   1     -11.320  77.536 118.550  0.00  0.00    -0.241 OA
ATOM     24  O   LIG d   1     -10.805  79.345 119.612  0.00  0.00    -0.241 OA
ENDBRANCH   3  22
TORSDOF 7
ENDMDL
MODEL 2
REMARK VINA RESULT:      -5.9      2.638      4.429
REMARK  7 active torsions:
REMARK  status: ('A' for Active; 'I' for Inactive)
REMARK    1  A    between atoms: C_2  and  C_3 
REMARK    2  A    between atoms: C_3  and  O_6 
REMARK    3  A    between atoms: C_3  and  C_4 
REMARK    4  A    between atoms: C_7  and  O_6 
REMARK    5  A    between atoms: C_9  and  C_10 
REMARK    6  A    between atoms: N_15  and  C_14 
REMARK    7  A    between atoms: N_20  and  C_19 
REMARK       I    between atoms: C_22  and  N_20 
ROOT
ATOM      1  C   LIG d   1      -5.680  75.442 117.439  0.00  0.00     0.161 C 
ATOM      2  C   LIG d   1      -6.115  74.186 116.984  0.00  0.00     0.016 C 
ATOM      3  C   LIG d   1      -7.471  73.877 116.732  0.00  0.00     0.038 C 
ATOM      4  C   LIG d   1      -8.475  74.856 116.775  0.00  0.00     0.028 C 
ATOM      5  C   LIG d   1      -8.156  76.011 117.717  0.00  0.00    -0.047 C 
ATOM      6  C   LIG d   1      -6.748  76.555 117.384  0.00  0.00     0.091 C 
ENDROOT
BRANCH   1   7
ATOM      7  O   LIG d   1      -4.501  75.843 116.714  0.00  0.00    -0.368 OA
BRANCH   7   8
ATOM      8  C   LIG d   1      -4.206  75.091 115.511  0.00  0.00     0.119 C 
BRANCH   8   9
ATOM      9  C   LIG d   1      -2.704  74.746 115.538  0.00  0.00     0.028 C 
ATOM     10  C   LIG d   1      -2.116  74.792 116.958  0.00  0.00     0.006 C 
ENDBRANCH   8   9
BRANCH   8  11
ATOM     11  C   LIG d   1      -4.403  75.947 114.256  0.00  0.00     0.028 C 
ATOM     12  C   LIG d   1      -5.819  75.829 113.671  0.00  0.00     0.006 C 
ENDBRANCH   8  11
ENDBRANCH   7   8
ENDBRANCH   1   7
BRANCH   6  13
ATOM     13  N   LIG d   1      -6.322  77.633 118.315  0.00  0.00    -0.311 N 
ATOM     14  C   LIG d   1      -5.870  78.818 117.907  0.00  0.00     0.210 C 
ATOM     15  C   LIG d   1      -5.466  79.778 119.030  0.00  0.00     0.109 C 
ATOM     16  O   LIG d   1      -5.797  79.177 116.722  0.00  0.00    -0.276 OA
ATOM     17  H   LIG d   1      -6.379  77.438 119.295  0.00  0.00     0.149 HD
ENDBRANCH   6  13
BRANCH   5  18
ATOM     18  N   LIG d   1      -9.218  77.022 117.559  0.00  0.00     0.381 N 
ATOM     19  H   LIG d   1      -9.621  76.950 116.646  0.00  0.00    -0.090 HD
ATOM     20  H   LIG d   1      -8.814  77.937 117.654  0.00  0.00    -0.090 HD
ATOM     21  H   LIG d   1      -9.922  76.888 118.252  0.00  0.00    -0.090 HD
ENDBRANCH   5  18
BRANCH   3  22
ATOM     22  C   LIG d   1      -7.840  72.566 116.473  0.00  0.00     0.382 C 
ATOM     23  O   LIG d   1      -6.973  71.659 116.471  0.00  0.00    -0.241 OA
ATOM     24  O   LIG d   1      -9.022  72.285 116.197  0.00  0.00    -0.241 OA
ENDBRANCH   3  22
TORSDOF 7
ENDMDL
MODEL 3
REMARK VINA RESULT:      -5.9      4.202      6.567
REMARK  7 active torsions:
REMARK  status: ('A' for Active; 'I' for Inactive)
REMARK    1  A    between atoms: C_2  and  C_3 
REMARK    2  A    between atoms: C_3  and  O_6 
REMARK    3  A    between atoms: C_3  and  C_4 
REMARK    4  A    between atoms: C_7  and  O_6 
REMARK    5  A    between atoms: C_9  and  C_10 
REMARK    6  A    between atoms: N_15  and  C_14 
REMARK    7  A    between atoms: N_20  and  C_19 
REMARK       I    between atoms: C_22  and  N_20 
ROOT
ATOM      1  C   LIG d   1      -3.002  75.214 115.686  0.00  0.00     0.161 C 
ATOM      2  C   LIG d   1      -2.544  74.489 116.799  0.00  0.00     0.016 C 
ATOM      3  C   LIG d   1      -1.245  74.631 117.340  0.00  0.00     0.038 C 
ATOM      4  C   LIG d   1      -0.361  75.624 116.893  0.00  0.00     0.028 C 
ATOM      5  C   LIG d   1      -0.595  76.036 115.444  0.00  0.00    -0.047 C 
ATOM      6  C   LIG d   1      -2.090  76.381 115.255  0.00  0.00     0.091 C 
ENDROOT
BRANCH   1   7
ATOM      7  O   LIG d   1      -4.341  75.687 115.929  0.00  0.00    -0.368 OA
BRANCH   7   8
ATOM      8  C   LIG d   1      -5.405  74.727 115.716  0.00  0.00     0.119 C 
BRANCH   8   9
ATOM      9  C   LIG d   1      -5.672  74.660 114.200  0.00  0.00     0.028 C 
ATOM     10  C   LIG d   1      -5.963  76.043 113.593  0.00  0.00     0.006 C 
ENDBRANCH   8   9
BRANCH   8  11
ATOM     11  C   LIG d   1      -6.721  75.206 116.338  0.00  0.00     0.028 C 
ATOM     12  C   LIG d   1      -7.656  74.048 116.718  0.00  0.00     0.006 C 
ENDBRANCH   8  11
ENDBRANCH   7   8
ENDBRANCH   1   7
BRANCH   6  13
ATOM     13  N   LIG d   1      -2.421  76.713 113.845  0.00  0.00    -0.311 N 
ATOM     14  C   LIG d   1      -2.649  77.954 113.418  0.00  0.00     0.210 C 
ATOM     15  C   LIG d   1      -2.993  78.073 111.930  0.00  0.00     0.109 C 
ATOM     16  O   LIG d   1      -2.566  78.971 114.123  0.00  0.00    -0.276 OA
ATOM     17  H   LIG d   1      -2.478  75.951 113.198  0.00  0.00     0.149 HD
ENDBRANCH   6  13
BRANCH   5  18
ATOM     18  N   LIG d   1       0.302  77.171 115.152  0.00  0.00     0.381 N 
ATOM     19  H   LIG d   1       0.915  77.326 115.928  0.00  0.00    -0.090 HD
ATOM     20  H   LIG d   1      -0.253  77.998 115.019  0.00  0.00    -0.090 HD
ATOM     21  H   LIG d   1       0.834  76.983 114.331  0.00  0.00    -0.090 HD
ENDBRANCH   5  18
BRANCH   3  22
ATOM     22  C   LIG d   1      -0.805  73.747 118.313  0.00  0.00     0.382 C 
ATOM     23  O   LIG d   1      -0.632  74.145 119.490  0.00  0.00    -0.241 OA
ATOM     24  O   LIG d   1      -0.537  72.566 118.019  0.00  0.00    -0.241 OA
ENDBRANCH   3  22
TORSDOF 7
ENDMDL
MODEL 4
REMARK VINA RESULT:      -5.9      2.428      5.540
REMARK  7 active torsions:
REMARK  status: ('A' for Active; 'I' for Inactive)
REMARK    1  A    between atoms: C_2  and  C_3 
REMARK    2  A    between atoms: C_3  and  O_6 
REMARK    3  A    between atoms: C_3  and  C_4 
REMARK    4  A    between atoms: C_7  and  O_6 
REMARK    5  A    between atoms: C_9  and  C_10 
REMARK    6  A    between atoms: N_15  and  C_14 
REMARK    7  A    between atoms: N_20  and  C_19 
REMARK       I    between atoms: C_22  and  N_20 
ROOT
ATOM      1  C   LIG d   1      -5.123  76.329 116.014  0.00  0.00     0.161 C 
ATOM      2  C   LIG d   1      -4.128  75.369 115.766  0.00  0.00     0.016 C 
ATOM      3  C   LIG d   1      -2.975  75.218 116.569  0.00  0.00     0.038 C 
ATOM      4  C   LIG d   1      -2.811  75.922 117.771  0.00  0.00     0.028 C 
ATOM      5  C   LIG d   1      -3.544  77.259 117.795  0.00  0.00    -0.047 C 
ATOM      6  C   LIG d   1      -5.017  77.031 117.385  0.00  0.00     0.091 C 
ENDROOT
BRANCH   1   7
ATOM      7  O   LIG d   1      -6.427  75.734 115.856  0.00  0.00    -0.368 OA
BRANCH   7   8
ATOM      8  C   LIG d   1      -7.050  75.234 117.065  0.00  0.00     0.119 C 
BRANCH   8   9
ATOM      9  C   LIG d   1      -6.664  73.749 117.204  0.00  0.00     0.028 C 
ATOM     10  C   LIG d   1      -7.212  72.890 116.051  0.00  0.00     0.006 C 
ENDBRANCH   8   9
BRANCH   8  11
ATOM     11  C   LIG d   1      -8.577  75.248 116.950  0.00  0.00     0.028 C 
ATOM     12  C   LIG d   1      -9.215  76.473 117.626  0.00  0.00     0.006 C 
ENDBRANCH   8  11
ENDBRANCH   7   8
ENDBRANCH   1   7
BRANCH   6  13
ATOM     13  N   LIG d   1      -5.785  78.300 117.301  0.00  0.00    -0.311 N 
ATOM     14  C   LIG d   1      -6.489  78.800 118.315  0.00  0.00     0.210 C 
ATOM     15  C   LIG d   1      -7.223  80.110 118.010  0.00  0.00     0.109 C 
ATOM     16  O   LIG d   1      -6.548  78.300 119.449  0.00  0.00    -0.276 OA
ATOM     17  H   LIG d   1      -5.766  78.788 116.426  0.00  0.00     0.149 HD
ENDBRANCH   6  13
BRANCH   5  18
ATOM     18  N   LIG d   1      -3.403  77.821 119.152  0.00  0.00     0.381 N 
ATOM     19  H   LIG d   1      -4.204  78.378 119.373  0.00  0.00    -0.090 HD
ATOM     20  H   LIG d   1      -2.591  78.412 119.175  0.00  0.00    -0.090 HD
ATOM     21  H   LIG d   1      -3.306  77.085 119.817  0.00  0.00    -0.090 HD
ENDBRANCH   5  18
BRANCH   3  22
ATOM     22  C   LIG d   1      -1.950  74.384 116.149  0.00  0.00     0.382 C 
ATOM     23  O   LIG d   1      -1.187  73.854 116.993  0.00  0.00    -0.241 OA
ATOM     24  O   LIG d   1      -1.751  74.189 114.935  0.00  0.00    -0.241 OA
ENDBRANCH   3  22
TORSDOF 7
ENDMDL
MODEL 5
REMARK VINA RESULT:      -5.8      2.598      3.817
REMARK  7 active torsions:
REMARK  status: ('A' for Active; 'I' for Inactive)
REMARK    1  A    between atoms: C_2  and  C_3 
REMARK    2  A    between atoms: C_3  and  O_6 
REMARK    3  A    between atoms: C_3  and  C_4 
REMARK    4  A    between atoms: C_7  and  O_6 
REMARK    5  A    between atoms: C_9  and  C_10 
REMARK    6  A    between atoms: N_15  and  C_14 
REMARK    7  A    between atoms: N_20  and  C_19 
REMARK       I    between atoms: C_22  and  N_20 
ROOT
ATOM      1  C   LIG d   1      -4.524  76.003 117.518  0.00  0.00     0.161 C 
ATOM      2  C   LIG d   1      -5.568  76.926 117.694  0.00  0.00     0.016 C 
ATOM      3  C   LIG d   1      -5.497  78.272 117.266  0.00  0.00     0.038 C 
ATOM      4  C   LIG d   1      -4.427  78.749 116.494  0.00  0.00     0.028 C 
ATOM      5  C   LIG d   1      -3.125  77.990 116.727  0.00  0.00    -0.047 C 
ATOM      6  C   LIG d   1      -3.394  76.475 116.579  0.00  0.00     0.091 C 
ENDROOT
BRANCH   1   7
ATOM      7  O   LIG d   1      -5.057  74.742 117.066  0.00  0.00    -0.368 OA
BRANCH   7   8
ATOM      8  C   LIG d   1      -6.238  74.813 116.229  0.00  0.00     0.119 C 
BRANCH   8   9
ATOM      9  C   LIG d   1      -7.231  73.751 116.739  0.00  0.00     0.028 C 
ATOM     10  C   LIG d   1      -7.157  72.443 115.934  0.00  0.00     0.006 C 
ENDBRANCH   8   9
BRANCH   8  11
ATOM     11  C   LIG d   1      -5.922  74.412 114.785  0.00  0.00     0.028 C 
ATOM     12  C   LIG d   1      -5.671  75.622 113.871  0.00  0.00     0.006 C 
ENDBRANCH   8  11
ENDBRANCH   7   8
ENDBRANCH   1   7
BRANCH   6  13
ATOM     13  N   LIG d   1      -2.191  75.654 116.875  0.00  0.00    -0.311 N 
ATOM     14  C   LIG d   1      -1.709  74.733 116.042  0.00  0.00     0.210 C 
ATOM     15  C   LIG d   1      -0.472  73.986 116.550  0.00  0.00     0.109 C 
ATOM     16  O   LIG d   1      -2.170  74.485 114.917  0.00  0.00    -0.276 OA
ATOM     17  H   LIG d   1      -1.736  75.811 117.752  0.00  0.00     0.149 HD
ENDBRANCH   6  13
BRANCH   5  18
ATOM     18  N   LIG d   1      -2.133  78.498 115.761  0.00  0.00     0.381 N 
ATOM     19  H   LIG d   1      -1.217  78.451 116.160  0.00  0.00    -0.090 HD
ATOM     20  H   LIG d   1      -2.340  79.461 115.559  0.00  0.00    -0.090 HD
ATOM     21  H   LIG d   1      -2.167  77.961 114.923  0.00  0.00    -0.090 HD
ENDBRANCH   5  18
BRANCH   3  22
ATOM     22  C   LIG d   1      -6.485  79.167 117.646  0.00  0.00     0.382 C 
ATOM     23  O   LIG d   1      -7.447  78.776 118.350  0.00  0.00    -0.241 OA
ATOM     24  O   LIG d   1      -6.450  80.349 117.257  0.00  0.00    -0.241 OA
ENDBRANCH   3  22
TORSDOF 7
ENDMDL
MODEL 6
REMARK VINA RESULT:      -5.8      2.780      6.111
REMARK  7 active torsions:
REMARK  status: ('A' for Active; 'I' for Inactive)
REMARK    1  A    between atoms: C_2  and  C_3 
REMARK    2  A    between atoms: C_3  and  O_6 
REMARK    3  A    between atoms: C_3  and  C_4 
REMARK    4  A    between atoms: C_7  and  O_6 
REMARK    5  A    between atoms: C_9  and  C_10 
REMARK    6  A    between atoms: N_15  and  C_14 
REMARK    7  A    between atoms: N_20  and  C_19 
REMARK       I    between atoms: C_22  and  N_20 
ROOT
ATOM      1  C   LIG d   1      -4.122  75.601 116.550  0.00  0.00     0.161 C 
ATOM      2  C   LIG d   1      -3.100  74.837 115.962  0.00  0.00     0.016 C 
ATOM      3  C   LIG d   1      -1.724  75.095 116.160  0.00  0.00     0.038 C 
ATOM      4  C   LIG d   1      -1.274  76.048 117.087  0.00  0.00     0.028 C 
ATOM      5  C   LIG d   1      -2.268  77.180 117.322  0.00  0.00    -0.047 C 
ATOM      6  C   LIG d   1      -3.651  76.574 117.651  0.00  0.00     0.091 C 
ENDROOT
BRANCH   1   7
ATOM      7  O   LIG d   1      -5.153  74.731 117.058  0.00  0.00    -0.368 OA
BRANCH   7   8
ATOM      8  C   LIG d   1      -6.265  74.473 116.166  0.00  0.00     0.119 C 
BRANCH   8   9
ATOM      9  C   LIG d   1      -7.075  75.778 116.046  0.00  0.00     0.028 C 
ATOM     10  C   LIG d   1      -8.238  75.842 117.051  0.00  0.00     0.006 C 
ENDBRANCH   8   9
BRANCH   8  11
ATOM     11  C   LIG d   1      -7.234  73.449 116.766  0.00  0.00     0.028 C 
ATOM     12  C   LIG d   1      -7.305  72.147 115.952  0.00  0.00     0.006 C 
ENDBRANCH   8  11
ENDBRANCH   7   8
ENDBRANCH   1   7
BRANCH   6  13
ATOM     13  N   LIG d   1      -4.701  77.614 117.812  0.00  0.00    -0.311 N 
ATOM     14  C   LIG d   1      -5.518  77.674 118.863  0.00  0.00     0.210 C 
ATOM     15  C   LIG d   1      -6.542  78.813 118.822  0.00  0.00     0.109 C 
ATOM     16  O   LIG d   1      -5.470  76.912 119.840  0.00  0.00    -0.276 OA
ATOM     17  H   LIG d   1      -4.789  78.291 117.080  0.00  0.00     0.149 HD
ENDBRANCH   6  13
BRANCH   5  18
ATOM     18  N   LIG d   1      -1.733  78.024 118.407  0.00  0.00     0.381 N 
ATOM     19  H   LIG d   1      -0.867  78.436 118.122  0.00  0.00    -0.090 HD
ATOM     20  H   LIG d   1      -1.558  77.447 119.211  0.00  0.00    -0.090 HD
ATOM     21  H   LIG d   1      -2.388  78.738 118.639  0.00  0.00    -0.090 HD
ENDBRANCH   5  18
BRANCH   3  22
ATOM     22  C   LIG d   1      -0.782  74.422 115.397  0.00  0.00     0.382 C 
ATOM     23  O   LIG d   1      -0.437  74.880 114.281  0.00  0.00    -0.241 OA
ATOM     24  O   LIG d   1      -0.306  73.341 115.791  0.00  0.00    -0.241 OA
ENDBRANCH   3  22
TORSDOF 7
ENDMDL
MODEL 7
REMARK VINA RESULT:      -5.7      4.280      6.560
REMARK  7 active torsions:
REMARK  status: ('A' for Active; 'I' for Inactive)
REMARK    1  A    between atoms: C_2  and  C_3 
REMARK    2  A    between atoms: C_3  and  O_6 
REMARK    3  A    between atoms: C_3  and  C_4 
REMARK    4  A    between atoms: C_7  and  O_6 
REMARK    5  A    between atoms: C_9  and  C_10 
REMARK    6  A    between atoms: N_15  and  C_14 
REMARK    7  A    between atoms: N_20  and  C_19 
REMARK       I    between atoms: C_22  and  N_20 
ROOT
ATOM      1  C   LIG d   1      -2.885  77.543 115.712  0.00  0.00     0.161 C 
ATOM      2  C   LIG d   1      -3.098  78.506 114.712  0.00  0.00     0.016 C 
ATOM      3  C   LIG d   1      -2.310  78.600 113.541  0.00  0.00     0.038 C 
ATOM      4  C   LIG d   1      -1.344  77.635 113.219  0.00  0.00     0.028 C 
ATOM      5  C   LIG d   1      -0.753  76.938 114.440  0.00  0.00    -0.047 C 
ATOM      6  C   LIG d   1      -1.906  76.414 115.326  0.00  0.00     0.091 C 
ENDROOT
BRANCH   1   7
ATOM      7  O   LIG d   1      -4.147  76.990 116.135  0.00  0.00    -0.368 OA
BRANCH   7   8
ATOM      8  C   LIG d   1      -4.579  75.790 115.447  0.00  0.00     0.119 C 
BRANCH   8   9
ATOM      9  C   LIG d   1      -5.880  76.132 114.695  0.00  0.00     0.028 C 
ATOM     10  C   LIG d   1      -5.749  75.936 113.175  0.00  0.00     0.006 C 
ENDBRANCH   8   9
BRANCH   8  11
ATOM     11  C   LIG d   1      -4.961  74.687 116.437  0.00  0.00     0.028 C 
ATOM     12  C   LIG d   1      -6.474  74.417 116.475  0.00  0.00     0.006 C 
ENDBRANCH   8  11
ENDBRANCH   7   8
ENDBRANCH   1   7
BRANCH   6  13
ATOM     13  N   LIG d   1      -1.418  75.792 116.584  0.00  0.00    -0.311 N 
ATOM     14  C   LIG d   1      -1.107  74.501 116.691  0.00  0.00     0.210 C 
ATOM     15  C   LIG d   1      -0.642  74.062 118.083  0.00  0.00     0.109 C 
ATOM     16  O   LIG d   1      -1.143  73.686 115.757  0.00  0.00    -0.276 OA
ATOM     17  H   LIG d   1      -1.329  76.389 117.383  0.00  0.00     0.149 HD
ENDBRANCH   6  13
BRANCH   5  18
ATOM     18  N   LIG d   1       0.136  75.866 113.954  0.00  0.00     0.381 N 
ATOM     19  H   LIG d   1       1.055  75.993 114.328  0.00  0.00    -0.090 HD
ATOM     20  H   LIG d   1       0.193  75.920 112.952  0.00  0.00    -0.090 HD
ATOM     21  H   LIG d   1      -0.222  74.977 114.227  0.00  0.00    -0.090 HD
ENDBRANCH   5  18
BRANCH   3  22
ATOM     22  C   LIG d   1      -2.459  79.691 112.699  0.00  0.00     0.382 C 
ATOM     23  O   LIG d   1      -1.524  80.021 111.930  0.00  0.00    -0.241 OA
ATOM     24  O   LIG d   1      -3.499  80.375 112.729  0.00  0.00    -0.241 OA
ENDBRANCH   3  22
TORSDOF 7
ENDMDL
MODEL 8
REMARK VINA RESULT:      -5.4     14.362     17.180
REMARK  7 active torsions:
REMARK  status: ('A' for Active; 'I' for Inactive)
REMARK    1  A    between atoms: C_2  and  C_3 
REMARK    2  A    between atoms: C_3  and  O_6 
REMARK    3  A    between atoms: C_3  and  C_4 
REMARK    4  A    between atoms: C_7  and  O_6 
REMARK    5  A    between atoms: C_9  and  C_10 
REMARK    6  A    between atoms: N_15  and  C_14 
REMARK    7  A    between atoms: N_20  and  C_19 
REMARK       I    between atoms: C_22  and  N_20 
ROOT
ATOM      1  C   LIG d   1      -5.917  93.066 118.389  0.00  0.00     0.161 C 
ATOM      2  C   LIG d   1      -4.850  93.874 118.817  0.00  0.00     0.016 C 
ATOM      3  C   LIG d   1      -3.502  93.632 118.465  0.00  0.00     0.038 C 
ATOM      4  C   LIG d   1      -3.144  92.648 117.532  0.00  0.00     0.028 C 
ATOM      5  C   LIG d   1      -4.132  91.488 117.467  0.00  0.00    -0.047 C 
ATOM      6  C   LIG d   1      -5.559  92.054 117.282  0.00  0.00     0.091 C 
ENDROOT
BRANCH   1   7
ATOM      7  O   LIG d   1      -7.021  93.895 117.973  0.00  0.00    -0.368 OA
BRANCH   7   8
ATOM      8  C   LIG d   1      -7.331  95.021 118.830  0.00  0.00     0.119 C 
BRANCH   8   9
ATOM      9  C   LIG d   1      -8.236  94.504 119.965  0.00  0.00     0.028 C 
ATOM     10  C   LIG d   1      -7.567  94.614 121.345  0.00  0.00     0.006 C 
ENDBRANCH   8   9
BRANCH   8  11
ATOM     11  C   LIG d   1      -8.166  96.070 118.090  0.00  0.00     0.028 C 
ATOM     12  C   LIG d   1      -8.232  97.413 118.836  0.00  0.00     0.006 C 
ENDBRANCH   8  11
ENDBRANCH   7   8
ENDBRANCH   1   7
BRANCH   6  13
ATOM     13  N   LIG d   1      -6.596  90.990 117.292  0.00  0.00    -0.311 N 
ATOM     14  C   LIG d   1      -7.005  90.354 116.195  0.00  0.00     0.210 C 
ATOM     15  C   LIG d   1      -8.098  89.306 116.425  0.00  0.00     0.109 C 
ATOM     16  O   LIG d   1      -6.543  90.535 115.059  0.00  0.00    -0.276 OA
ATOM     17  H   LIG d   1      -7.002  90.757 118.177  0.00  0.00     0.149 HD
ENDBRANCH   6  13
BRANCH   5  18
ATOM     18  N   LIG d   1      -3.712  90.606 116.361  0.00  0.00     0.381 N 
ATOM     19  H   LIG d   1      -3.922  89.655 116.588  0.00  0.00    -0.090 HD
ATOM     20  H   LIG d   1      -2.718  90.690 116.239  0.00  0.00    -0.090 HD
ATOM     21  H   LIG d   1      -4.180  90.866 115.521  0.00  0.00    -0.090 HD
ENDBRANCH   5  18
BRANCH   3  22
ATOM     22  C   LIG d   1      -2.491  94.355 119.080  0.00  0.00     0.382 C 
ATOM     23  O   LIG d   1      -1.677  93.775 119.838  0.00  0.00    -0.241 OA
ATOM     24  O   LIG d   1      -2.410  95.588 118.922  0.00  0.00    -0.241 OA
ENDBRANCH   3  22
TORSDOF 7
ENDMDL
MODEL 9
REMARK VINA RESULT:      -5.4     13.694     16.309
REMARK  7 active torsions:
REMARK  status: ('A' for Active; 'I' for Inactive)
REMARK    1  A    between atoms: C_2  and  C_3 
REMARK    2  A    between atoms: C_3  and  O_6 
REMARK    3  A    between atoms: C_3  and  C_4 
REMARK    4  A    between atoms: C_7  and  O_6 
REMARK    5  A    between atoms: C_9  and  C_10 
REMARK    6  A    between atoms: N_15  and  C_14 
REMARK    7  A    between atoms: N_20  and  C_19 
REMARK       I    between atoms: C_22  and  N_20 
ROOT
ATOM      1  C   LIG d   1      -5.768  92.805 117.159  0.00  0.00     0.161 C 
ATOM      2  C   LIG d   1      -6.468  92.242 116.079  0.00  0.00     0.016 C 
ATOM      3  C   LIG d   1      -6.125  91.002 115.491  0.00  0.00     0.038 C 
ATOM      4  C   LIG d   1      -5.147  90.164 116.046  0.00  0.00     0.028 C 
ATOM      5  C   LIG d   1      -4.077  90.918 116.830  0.00  0.00    -0.047 C 
ATOM      6  C   LIG d   1      -4.768  91.854 117.848  0.00  0.00     0.091 C 
ENDROOT
BRANCH   1   7
ATOM      7  O   LIG d   1      -6.700  93.335 118.122  0.00  0.00    -0.368 OA
BRANCH   7   8
ATOM      8  C   LIG d   1      -6.693  94.773 118.292  0.00  0.00     0.119 C 
BRANCH   8   9
ATOM      9  C   LIG d   1      -6.162  95.070 119.708  0.00  0.00     0.028 C 
ATOM     10  C   LIG d   1      -6.540  93.973 120.718  0.00  0.00     0.006 C 
ENDBRANCH   8   9
BRANCH   8  11
ATOM     11  C   LIG d   1      -8.114  95.345 118.264  0.00  0.00     0.028 C 
ATOM     12  C   LIG d   1      -8.138  96.882 118.267  0.00  0.00     0.006 C 
ENDBRANCH   8  11
ENDBRANCH   7   8
ENDBRANCH   1   7
BRANCH   6  13
ATOM     13  N   LIG d   1      -3.795  92.690 118.599  0.00  0.00    -0.311 N 
ATOM     14  C   LIG d   1      -3.306  92.354 119.791  0.00  0.00     0.210 C 
ATOM     15  C   LIG d   1      -2.332  93.368 120.400  0.00  0.00     0.109 C 
ATOM     16  O   LIG d   1      -3.562  91.298 120.388  0.00  0.00    -0.276 OA
ATOM     17  H   LIG d   1      -3.509  93.550 118.173  0.00  0.00     0.149 HD
ENDBRANCH   6  13
BRANCH   5  18
ATOM     18  N   LIG d   1      -3.202  89.915 117.466  0.00  0.00     0.381 N 
ATOM     19  H   LIG d   1      -2.848  89.286 116.774  0.00  0.00    -0.090 HD
ATOM     20  H   LIG d   1      -3.742  89.385 118.127  0.00  0.00    -0.090 HD
ATOM     21  H   LIG d   1      -2.446  90.369 117.931  0.00  0.00    -0.090 HD
ENDBRANCH   5  18
BRANCH   3  22
ATOM     22  C   LIG d   1      -6.739  90.608 114.312  0.00  0.00     0.382 C 
ATOM     23  O   LIG d   1      -6.446  89.505 113.791  0.00  0.00    -0.241 OA
ATOM     24  O   LIG d   1      -7.549  91.361 113.739  0.00  0.00    -0.241 OA
ENDBRANCH   3  22
TORSDOF 7
ENDMDL
