MODEL 1
REMARK VINA RESULT:      -5.7      0.000      0.000
REMARK  7 active torsions:
REMARK  status: ('A' for Active; 'I' for Inactive)
REMARK    1  A    between atoms: C_2  and  C_3 
REMARK    2  A    between atoms: C_3  and  O_6 
REMARK    3  A    between atoms: C_3  and  C_4 
REMARK    4  A    between atoms: C_7  and  O_6 
REMARK    5  A    between atoms: C_9  and  C_10 
REMARK    6  A    between atoms: N_15  and  C_14 
REMARK    7  A    between atoms: N_20  and  C_19 
REMARK       I    between atoms: C_22  and  N_20 
ROOT
ATOM      1  C   LIG d   1      -7.515  75.222 117.488  0.00  0.00     0.161 C 
ATOM      2  C   LIG d   1      -8.764  75.857 117.588  0.00  0.00     0.016 C 
ATOM      3  C   LIG d   1      -8.916  77.253 117.752  0.00  0.00     0.038 C 
ATOM      4  C   LIG d   1      -7.825  78.132 117.675  0.00  0.00     0.028 C 
ATOM      5  C   LIG d   1      -6.501  77.491 118.081  0.00  0.00    -0.047 C 
ATOM      6  C   LIG d   1      -6.318  76.175 117.290  0.00  0.00     0.091 C 
ENDROOT
BRANCH   1   7
ATOM      7  O   LIG d   1      -7.551  74.238 116.435  0.00  0.00    -0.368 OA
BRANCH   7   8
ATOM      8  C   LIG d   1      -7.702  72.860 116.855  0.00  0.00     0.119 C 
BRANCH   8   9
ATOM      9  C   LIG d   1      -6.541  72.057 116.236  0.00  0.00     0.028 C 
ATOM     10  C   LIG d   1      -5.983  72.719 114.964  0.00  0.00     0.006 C 
ENDBRANCH   8   9
BRANCH   8  11
ATOM     11  C   LIG d   1      -8.977  72.238 116.280  0.00  0.00     0.028 C 
ATOM     12  C   LIG d   1      -9.426  70.982 117.045  0.00  0.00     0.006 C 
ENDBRANCH   8  11
ENDBRANCH   7   8
ENDBRANCH   1   7
BRANCH   6  13
ATOM     13  N   LIG d   1      -5.089  75.442 117.688  0.00  0.00    -0.311 N 
ATOM     14  C   LIG d   1      -4.069  75.218 116.861  0.00  0.00     0.210 C 
ATOM     15  C   LIG d   1      -2.907  74.425 117.467  0.00  0.00     0.109 C 
ATOM     16  O   LIG d   1      -4.002  75.629 115.693  0.00  0.00    -0.276 OA
ATOM     17  H   LIG d   1      -5.045  75.100 118.628  0.00  0.00     0.149 HD
ENDBRANCH   6  13
BRANCH   5  18
ATOM     18  N   LIG d   1      -5.433  78.474 117.822  0.00  0.00     0.381 N 
ATOM     19  H   LIG d   1      -5.613  79.313 118.336  0.00  0.00    -0.090 HD
ATOM     20  H   LIG d   1      -5.428  78.699 116.843  0.00  0.00    -0.090 HD
ATOM     21  H   LIG d   1      -4.550  78.096 118.088  0.00  0.00    -0.090 HD
ENDBRANCH   5  18
BRANCH   3  22
ATOM     22  C   LIG d   1     -10.167  77.780 118.036  0.00  0.00     0.382 C 
ATOM     23  O   LIG d   1     -10.340  79.023 118.031  0.00  0.00    -0.241 OA
ATOM     24  O   LIG d   1     -11.113  77.030 118.341  0.00  0.00    -0.241 OA
ENDBRANCH   3  22
TORSDOF 7
ENDMDL
MODEL 2
REMARK VINA RESULT:      -5.4     17.569     19.182
REMARK  7 active torsions:
REMARK  status: ('A' for Active; 'I' for Inactive)
REMARK    1  A    between atoms: C_2  and  C_3 
REMARK    2  A    between atoms: C_3  and  O_6 
REMARK    3  A    between atoms: C_3  and  C_4 
REMARK    4  A    between atoms: C_7  and  O_6 
REMARK    5  A    between atoms: C_9  and  C_10 
REMARK    6  A    between atoms: N_15  and  C_14 
REMARK    7  A    between atoms: N_20  and  C_19 
REMARK       I    between atoms: C_22  and  N_20 
ROOT
ATOM      1  C   LIG d   1       0.046  57.218 119.242  0.00  0.00     0.161 C 
ATOM      2  C   LIG d   1      -1.189  56.883 118.662  0.00  0.00     0.016 C 
ATOM      3  C   LIG d   1      -2.348  57.683 118.783  0.00  0.00     0.038 C 
ATOM      4  C   LIG d   1      -2.312  58.957 119.369  0.00  0.00     0.028 C 
ATOM      5  C   LIG d   1      -1.208  59.114 120.409  0.00  0.00    -0.047 C 
ATOM      6  C   LIG d   1       0.133  58.657 119.791  0.00  0.00     0.091 C 
ENDROOT
BRANCH   1   7
ATOM      7  O   LIG d   1       1.110  56.975 118.300  0.00  0.00    -0.368 OA
BRANCH   7   8
ATOM      8  C   LIG d   1       0.716  56.852 116.912  0.00  0.00     0.119 C 
BRANCH   8   9
ATOM      9  C   LIG d   1       1.515  55.682 116.306  0.00  0.00     0.028 C 
ATOM     10  C   LIG d   1       2.486  55.048 117.317  0.00  0.00     0.006 C 
ENDBRANCH   8   9
BRANCH   8  11
ATOM     11  C   LIG d   1       1.129  58.086 116.104  0.00  0.00     0.028 C 
ATOM     12  C   LIG d   1      -0.046  59.037 115.827  0.00  0.00     0.006 C 
ENDBRANCH   8  11
ENDBRANCH   7   8
ENDBRANCH   1   7
BRANCH   6  13
ATOM     13  N   LIG d   1       1.252  58.699 120.769  0.00  0.00    -0.311 N 
ATOM     14  C   LIG d   1       2.462  59.174 120.479  0.00  0.00     0.210 C 
ATOM     15  C   LIG d   1       3.475  59.106 121.625  0.00  0.00     0.109 C 
ATOM     16  O   LIG d   1       2.783  59.675 119.390  0.00  0.00    -0.276 OA
ATOM     17  H   LIG d   1       1.069  58.341 121.686  0.00  0.00     0.149 HD
ENDBRANCH   6  13
BRANCH   5  18
ATOM     18  N   LIG d   1      -1.196  60.525 120.838  0.00  0.00     0.381 N 
ATOM     19  H   LIG d   1      -0.784  61.092 120.124  0.00  0.00    -0.090 HD
ATOM     20  H   LIG d   1      -0.638  60.608 121.669  0.00  0.00    -0.090 HD
ATOM     21  H   LIG d   1      -2.126  60.833 121.021  0.00  0.00    -0.090 HD
ENDBRANCH   5  18
BRANCH   3  22
ATOM     22  C   LIG d   1      -3.570  57.192 118.349  0.00  0.00     0.382 C 
ATOM     23  O   LIG d   1      -4.489  57.987 118.036  0.00  0.00    -0.241 OA
ATOM     24  O   LIG d   1      -3.780  55.965 118.308  0.00  0.00    -0.241 OA
ENDBRANCH   3  22
TORSDOF 7
ENDMDL
MODEL 3
REMARK VINA RESULT:      -5.4     15.350     17.824
REMARK  7 active torsions:
REMARK  status: ('A' for Active; 'I' for Inactive)
REMARK    1  A    between atoms: C_2  and  C_3 
REMARK    2  A    between atoms: C_3  and  O_6 
REMARK    3  A    between atoms: C_3  and  C_4 
REMARK    4  A    between atoms: C_7  and  O_6 
REMARK    5  A    between atoms: C_9  and  C_10 
REMARK    6  A    between atoms: N_15  and  C_14 
REMARK    7  A    between atoms: N_20  and  C_19 
REMARK       I    between atoms: C_22  and  N_20 
ROOT
ATOM      1  C   LIG d   1      -6.586  92.142 119.282  0.00  0.00     0.161 C 
ATOM      2  C   LIG d   1      -6.401  91.380 118.116  0.00  0.00     0.016 C 
ATOM      3  C   LIG d   1      -6.794  91.818 116.830  0.00  0.00     0.038 C 
ATOM      4  C   LIG d   1      -7.264  93.119 116.602  0.00  0.00     0.028 C 
ATOM      5  C   LIG d   1      -7.938  93.742 117.820  0.00  0.00    -0.047 C 
ATOM      6  C   LIG d   1      -6.996  93.609 119.038  0.00  0.00     0.091 C 
ENDROOT
BRANCH   1   7
ATOM      7  O   LIG d   1      -5.399  92.082 120.098  0.00  0.00    -0.368 OA
BRANCH   7   8
ATOM      8  C   LIG d   1      -4.201  91.594 119.446  0.00  0.00     0.119 C 
BRANCH   8   9
ATOM      9  C   LIG d   1      -3.579  90.522 120.362  0.00  0.00     0.028 C 
ATOM     10  C   LIG d   1      -3.227  89.232 119.602  0.00  0.00     0.006 C 
ENDBRANCH   8   9
BRANCH   8  11
ATOM     11  C   LIG d   1      -3.141  92.693 119.330  0.00  0.00     0.028 C 
ATOM     12  C   LIG d   1      -2.371  92.641 118.001  0.00  0.00     0.006 C 
ENDBRANCH   8  11
ENDBRANCH   7   8
ENDBRANCH   1   7
BRANCH   6  13
ATOM     13  N   LIG d   1      -7.613  94.118 120.290  0.00  0.00    -0.311 N 
ATOM     14  C   LIG d   1      -8.922  94.076 120.532  0.00  0.00     0.210 C 
ATOM     15  C   LIG d   1      -9.351  94.672 121.876  0.00  0.00     0.109 C 
ATOM     16  O   LIG d   1      -9.766  93.572 119.775  0.00  0.00    -0.276 OA
ATOM     17  H   LIG d   1      -6.998  94.515 120.973  0.00  0.00     0.149 HD
ENDBRANCH   6  13
BRANCH   5  18
ATOM     18  N   LIG d   1      -8.257  95.143 117.485  0.00  0.00     0.381 N 
ATOM     19  H   LIG d   1      -8.061  95.314 116.519  0.00  0.00    -0.090 HD
ATOM     20  H   LIG d   1      -7.675  95.749 118.037  0.00  0.00    -0.090 HD
ATOM     21  H   LIG d   1      -9.217  95.329 117.675  0.00  0.00    -0.090 HD
ENDBRANCH   5  18
BRANCH   3  22
ATOM     22  C   LIG d   1      -6.754  90.935 115.762  0.00  0.00     0.382 C 
ATOM     23  O   LIG d   1      -7.091  89.737 115.926  0.00  0.00    -0.241 OA
ATOM     24  O   LIG d   1      -6.344  91.310 114.647  0.00  0.00    -0.241 OA
ENDBRANCH   3  22
TORSDOF 7
ENDMDL
MODEL 4
REMARK VINA RESULT:      -5.4     15.249     17.313
REMARK  7 active torsions:
REMARK  status: ('A' for Active; 'I' for Inactive)
REMARK    1  A    between atoms: C_2  and  C_3 
REMARK    2  A    between atoms: C_3  and  O_6 
REMARK    3  A    between atoms: C_3  and  C_4 
REMARK    4  A    between atoms: C_7  and  O_6 
REMARK    5  A    between atoms: C_9  and  C_10 
REMARK    6  A    between atoms: N_15  and  C_14 
REMARK    7  A    between atoms: N_20  and  C_19 
REMARK       I    between atoms: C_22  and  N_20 
ROOT
ATOM      1  C   LIG d   1      -5.620  91.670 119.184  0.00  0.00     0.161 C 
ATOM      2  C   LIG d   1      -6.856  92.200 118.778  0.00  0.00     0.016 C 
ATOM      3  C   LIG d   1      -7.118  93.587 118.695  0.00  0.00     0.038 C 
ATOM      4  C   LIG d   1      -6.107  94.544 118.869  0.00  0.00     0.028 C 
ATOM      5  C   LIG d   1      -4.973  94.071 119.772  0.00  0.00    -0.047 C 
ATOM      6  C   LIG d   1      -4.472  92.697 119.270  0.00  0.00     0.091 C 
ENDROOT
BRANCH   1   7
ATOM      7  O   LIG d   1      -5.250  90.577 118.321  0.00  0.00    -0.368 OA
BRANCH   7   8
ATOM      8  C   LIG d   1      -4.633  90.940 117.061  0.00  0.00     0.119 C 
BRANCH   8   9
ATOM      9  C   LIG d   1      -5.577  90.479 115.933  0.00  0.00     0.028 C 
ATOM     10  C   LIG d   1      -6.174  91.659 115.149  0.00  0.00     0.006 C 
ENDBRANCH   8   9
BRANCH   8  11
ATOM     11  C   LIG d   1      -3.328  90.171 116.838  0.00  0.00     0.028 C 
ATOM     12  C   LIG d   1      -2.985  89.227 118.002  0.00  0.00     0.006 C 
ENDBRANCH   8  11
ENDBRANCH   7   8
ENDBRANCH   1   7
BRANCH   6  13
ATOM     13  N   LIG d   1      -3.419  92.123 120.148  0.00  0.00    -0.311 N 
ATOM     14  C   LIG d   1      -2.115  92.263 119.917  0.00  0.00     0.210 C 
ATOM     15  C   LIG d   1      -1.200  91.575 120.934  0.00  0.00     0.109 C 
ATOM     16  O   LIG d   1      -1.629  92.919 118.983  0.00  0.00    -0.276 OA
ATOM     17  H   LIG d   1      -3.725  91.601 120.946  0.00  0.00     0.149 HD
ENDBRANCH   6  13
BRANCH   5  18
ATOM     18  N   LIG d   1      -3.926  95.110 119.755  0.00  0.00     0.381 N 
ATOM     19  H   LIG d   1      -3.365  95.012 118.932  0.00  0.00    -0.090 HD
ATOM     20  H   LIG d   1      -3.333  94.987 120.557  0.00  0.00    -0.090 HD
ATOM     21  H   LIG d   1      -4.343  96.014 119.776  0.00  0.00    -0.090 HD
ENDBRANCH   5  18
BRANCH   3  22
ATOM     22  C   LIG d   1      -8.413  94.030 118.475  0.00  0.00     0.382 C 
ATOM     23  O   LIG d   1      -8.682  94.694 117.445  0.00  0.00    -0.241 OA
ATOM     24  O   LIG d   1      -9.307  93.812 119.314  0.00  0.00    -0.241 OA
ENDBRANCH   3  22
TORSDOF 7
ENDMDL
MODEL 5
REMARK VINA RESULT:      -5.3     14.815     17.469
REMARK  7 active torsions:
REMARK  status: ('A' for Active; 'I' for Inactive)
REMARK    1  A    between atoms: C_2  and  C_3 
REMARK    2  A    between atoms: C_3  and  O_6 
REMARK    3  A    between atoms: C_3  and  C_4 
REMARK    4  A    between atoms: C_7  and  O_6 
REMARK    5  A    between atoms: C_9  and  C_10 
REMARK    6  A    between atoms: N_15  and  C_14 
REMARK    7  A    between atoms: N_20  and  C_19 
REMARK       I    between atoms: C_22  and  N_20 
ROOT
ATOM      1  C   LIG d   1      -5.647  92.635 118.816  0.00  0.00     0.161 C 
ATOM      2  C   LIG d   1      -6.105  93.714 119.591  0.00  0.00     0.016 C 
ATOM      3  C   LIG d   1      -7.201  94.528 119.222  0.00  0.00     0.038 C 
ATOM      4  C   LIG d   1      -8.013  94.223 118.119  0.00  0.00     0.028 C 
ATOM      5  C   LIG d   1      -7.286  93.443 117.029  0.00  0.00    -0.047 C 
ATOM      6  C   LIG d   1      -6.590  92.219 117.667  0.00  0.00     0.091 C 
ENDROOT
BRANCH   1   7
ATOM      7  O   LIG d   1      -5.366  91.507 119.667  0.00  0.00    -0.368 OA
BRANCH   7   8
ATOM      8  C   LIG d   1      -3.967  91.247 119.938  0.00  0.00     0.119 C 
BRANCH   8   9
ATOM      9  C   LIG d   1      -3.540  90.050 119.066  0.00  0.00     0.028 C 
ATOM     10  C   LIG d   1      -3.140  88.825 119.904  0.00  0.00     0.006 C 
ENDBRANCH   8   9
BRANCH   8  11
ATOM     11  C   LIG d   1      -3.756  90.789 121.385  0.00  0.00     0.028 C 
ATOM     12  C   LIG d   1      -4.385  91.745 122.410  0.00  0.00     0.006 C 
ENDBRANCH   8  11
ENDBRANCH   7   8
ENDBRANCH   1   7
BRANCH   6  13
ATOM     13  N   LIG d   1      -5.786  91.448 116.683  0.00  0.00    -0.311 N 
ATOM     14  C   LIG d   1      -6.209  90.322 116.112  0.00  0.00     0.210 C 
ATOM     15  C   LIG d   1      -5.216  89.675 115.141  0.00  0.00     0.109 C 
ATOM     16  O   LIG d   1      -7.326  89.814 116.292  0.00  0.00    -0.276 OA
ATOM     17  H   LIG d   1      -4.879  91.805 116.455  0.00  0.00     0.149 HD
ENDBRANCH   6  13
BRANCH   5  18
ATOM     18  N   LIG d   1      -8.283  93.073 116.006  0.00  0.00     0.381 N 
ATOM     19  H   LIG d   1      -7.911  92.356 115.415  0.00  0.00    -0.090 HD
ATOM     20  H   LIG d   1      -8.481  93.878 115.439  0.00  0.00    -0.090 HD
ATOM     21  H   LIG d   1      -9.118  92.753 116.444  0.00  0.00    -0.090 HD
ENDBRANCH   5  18
BRANCH   3  22
ATOM     22  C   LIG d   1      -7.469  95.685 119.937  0.00  0.00     0.382 C 
ATOM     23  O   LIG d   1      -7.195  95.743 121.160  0.00  0.00    -0.241 OA
ATOM     24  O   LIG d   1      -8.021  96.655 119.385  0.00  0.00    -0.241 OA
ENDBRANCH   3  22
TORSDOF 7
ENDMDL
MODEL 6
REMARK VINA RESULT:      -5.3      2.549      5.538
REMARK  7 active torsions:
REMARK  status: ('A' for Active; 'I' for Inactive)
REMARK    1  A    between atoms: C_2  and  C_3 
REMARK    2  A    between atoms: C_3  and  O_6 
REMARK    3  A    between atoms: C_3  and  C_4 
REMARK    4  A    between atoms: C_7  and  O_6 
REMARK    5  A    between atoms: C_9  and  C_10 
REMARK    6  A    between atoms: N_15  and  C_14 
REMARK    7  A    between atoms: N_20  and  C_19 
REMARK       I    between atoms: C_22  and  N_20 
ROOT
ATOM      1  C   LIG d   1      -6.770  74.365 117.812  0.00  0.00     0.161 C 
ATOM      2  C   LIG d   1      -5.833  75.332 117.414  0.00  0.00     0.016 C 
ATOM      3  C   LIG d   1      -5.092  75.250 116.212  0.00  0.00     0.038 C 
ATOM      4  C   LIG d   1      -5.352  74.265 115.247  0.00  0.00     0.028 C 
ATOM      5  C   LIG d   1      -5.933  72.983 115.833  0.00  0.00    -0.047 C 
ATOM      6  C   LIG d   1      -7.147  73.342 116.720  0.00  0.00     0.091 C 
ENDROOT
BRANCH   1   7
ATOM      7  O   LIG d   1      -7.953  75.012 118.321  0.00  0.00    -0.368 OA
BRANCH   7   8
ATOM      8  C   LIG d   1      -8.120  76.407 117.966  0.00  0.00     0.119 C 
BRANCH   8   9
ATOM      9  C   LIG d   1      -8.157  77.217 119.276  0.00  0.00     0.028 C 
ATOM     10  C   LIG d   1      -7.084  78.318 119.315  0.00  0.00     0.006 C 
ENDBRANCH   8   9
BRANCH   8  11
ATOM     11  C   LIG d   1      -9.477  76.653 117.299  0.00  0.00     0.028 C 
ATOM     12  C   LIG d   1     -10.198  75.351 116.916  0.00  0.00     0.006 C 
ENDBRANCH   8  11
ENDBRANCH   7   8
ENDBRANCH   1   7
BRANCH   6  13
ATOM     13  N   LIG d   1      -7.724  72.152 117.399  0.00  0.00    -0.311 N 
ATOM     14  C   LIG d   1      -8.825  71.531 116.979  0.00  0.00     0.210 C 
ATOM     15  C   LIG d   1      -9.261  70.338 117.835  0.00  0.00     0.109 C 
ATOM     16  O   LIG d   1      -9.465  71.836 115.961  0.00  0.00    -0.276 OA
ATOM     17  H   LIG d   1      -7.251  71.819 118.216  0.00  0.00     0.149 HD
ENDBRANCH   6  13
BRANCH   5  18
ATOM     18  N   LIG d   1      -6.283  72.097 114.706  0.00  0.00     0.381 N 
ATOM     19  H   LIG d   1      -5.647  72.246 113.948  0.00  0.00    -0.090 HD
ATOM     20  H   LIG d   1      -7.209  72.324 114.390  0.00  0.00    -0.090 HD
ATOM     21  H   LIG d   1      -6.247  71.145 114.997  0.00  0.00    -0.090 HD
ENDBRANCH   5  18
BRANCH   3  22
ATOM     22  C   LIG d   1      -4.052  76.138 115.984  0.00  0.00     0.382 C 
ATOM     23  O   LIG d   1      -4.181  77.049 115.131  0.00  0.00    -0.241 OA
ATOM     24  O   LIG d   1      -2.970  76.012 116.587  0.00  0.00    -0.241 OA
ENDBRANCH   3  22
TORSDOF 7
ENDMDL
MODEL 7
REMARK VINA RESULT:      -5.3     15.076     17.206
REMARK  7 active torsions:
REMARK  status: ('A' for Active; 'I' for Inactive)
REMARK    1  A    between atoms: C_2  and  C_3 
REMARK    2  A    between atoms: C_3  and  O_6 
REMARK    3  A    between atoms: C_3  and  C_4 
REMARK    4  A    between atoms: C_7  and  O_6 
REMARK    5  A    between atoms: C_9  and  C_10 
REMARK    6  A    between atoms: N_15  and  C_14 
REMARK    7  A    between atoms: N_20  and  C_19 
REMARK       I    between atoms: C_22  and  N_20 
ROOT
ATOM      1  C   LIG d   1      -4.733  92.115 118.129  0.00  0.00     0.161 C 
ATOM      2  C   LIG d   1      -5.880  92.927 118.145  0.00  0.00     0.016 C 
ATOM      3  C   LIG d   1      -6.902  92.849 117.171  0.00  0.00     0.038 C 
ATOM      4  C   LIG d   1      -6.920  91.843 116.194  0.00  0.00     0.028 C 
ATOM      5  C   LIG d   1      -5.532  91.322 115.835  0.00  0.00    -0.047 C 
ATOM      6  C   LIG d   1      -4.789  90.937 117.135  0.00  0.00     0.091 C 
ENDROOT
BRANCH   1   7
ATOM      7  O   LIG d   1      -4.456  91.635 119.460  0.00  0.00    -0.368 OA
BRANCH   7   8
ATOM      8  C   LIG d   1      -3.291  92.200 120.111  0.00  0.00     0.119 C 
BRANCH   8   9
ATOM      9  C   LIG d   1      -3.793  93.105 121.253  0.00  0.00     0.028 C 
ATOM     10  C   LIG d   1      -5.125  92.616 121.847  0.00  0.00     0.006 C 
ENDBRANCH   8   9
BRANCH   8  11
ATOM     11  C   LIG d   1      -2.520  93.127 119.167  0.00  0.00     0.028 C 
ATOM     12  C   LIG d   1      -1.096  92.629 118.874  0.00  0.00     0.006 C 
ENDBRANCH   8  11
ENDBRANCH   7   8
ENDBRANCH   1   7
BRANCH   6  13
ATOM     13  N   LIG d   1      -3.393  90.497 116.880  0.00  0.00    -0.311 N 
ATOM     14  C   LIG d   1      -2.793  89.525 117.566  0.00  0.00     0.210 C 
ATOM     15  C   LIG d   1      -1.345  89.243 117.156  0.00  0.00     0.109 C 
ATOM     16  O   LIG d   1      -3.334  88.849 118.454  0.00  0.00    -0.276 OA
ATOM     17  H   LIG d   1      -2.890  90.971 116.155  0.00  0.00     0.149 HD
ENDBRANCH   6  13
BRANCH   5  18
ATOM     18  N   LIG d   1      -5.708  90.186 114.911  0.00  0.00     0.381 N 
ATOM     19  H   LIG d   1      -6.440  90.389 114.260  0.00  0.00    -0.090 HD
ATOM     20  H   LIG d   1      -5.973  89.374 115.440  0.00  0.00    -0.090 HD
ATOM     21  H   LIG d   1      -4.858  90.010 114.422  0.00  0.00    -0.090 HD
ENDBRANCH   5  18
BRANCH   3  22
ATOM     22  C   LIG d   1      -7.901  93.810 117.146  0.00  0.00     0.382 C 
ATOM     23  O   LIG d   1      -8.841  93.716 116.319  0.00  0.00    -0.241 OA
ATOM     24  O   LIG d   1      -7.852  94.794 117.908  0.00  0.00    -0.241 OA
ENDBRANCH   3  22
TORSDOF 7
ENDMDL
MODEL 8
REMARK VINA RESULT:      -5.1      1.676      4.909
REMARK  7 active torsions:
REMARK  status: ('A' for Active; 'I' for Inactive)
REMARK    1  A    between atoms: C_2  and  C_3 
REMARK    2  A    between atoms: C_3  and  O_6 
REMARK    3  A    between atoms: C_3  and  C_4 
REMARK    4  A    between atoms: C_7  and  O_6 
REMARK    5  A    between atoms: C_9  and  C_10 
REMARK    6  A    between atoms: N_15  and  C_14 
REMARK    7  A    between atoms: N_20  and  C_19 
REMARK       I    between atoms: C_22  and  N_20 
ROOT
ATOM      1  C   LIG d   1      -5.863  75.589 116.398  0.00  0.00     0.161 C 
ATOM      2  C   LIG d   1      -4.571  75.040 116.328  0.00  0.00     0.016 C 
ATOM      3  C   LIG d   1      -3.593  75.222 117.333  0.00  0.00     0.038 C 
ATOM      4  C   LIG d   1      -3.892  75.843 118.554  0.00  0.00     0.028 C 
ATOM      5  C   LIG d   1      -5.033  76.851 118.459  0.00  0.00    -0.047 C 
ATOM      6  C   LIG d   1      -6.243  76.176 117.773  0.00  0.00     0.091 C 
ENDROOT
BRANCH   1   7
ATOM      7  O   LIG d   1      -6.834  74.606 115.987  0.00  0.00    -0.368 OA
BRANCH   7   8
ATOM      8  C   LIG d   1      -7.340  73.736 117.029  0.00  0.00     0.119 C 
BRANCH   8   9
ATOM      9  C   LIG d   1      -6.932  72.295 116.667  0.00  0.00     0.028 C 
ATOM     10  C   LIG d   1      -6.374  72.184 115.239  0.00  0.00     0.006 C 
ENDBRANCH   8   9
BRANCH   8  11
ATOM     11  C   LIG d   1      -8.872  73.730 117.054  0.00  0.00     0.028 C 
ATOM     12  C   LIG d   1      -9.461  72.312 117.121  0.00  0.00     0.006 C 
ENDBRANCH   8  11
ENDBRANCH   7   8
ENDBRANCH   1   7
BRANCH   6  13
ATOM     13  N   LIG d   1      -7.374  77.117 117.564  0.00  0.00    -0.311 N 
ATOM     14  C   LIG d   1      -8.385  77.249 118.420  0.00  0.00     0.210 C 
ATOM     15  C   LIG d   1      -9.457  78.261 118.003  0.00  0.00     0.109 C 
ATOM     16  O   LIG d   1      -8.480  76.648 119.501  0.00  0.00    -0.276 OA
ATOM     17  H   LIG d   1      -7.361  77.666 116.727  0.00  0.00     0.149 HD
ENDBRANCH   6  13
BRANCH   5  18
ATOM     18  N   LIG d   1      -5.330  77.319 119.826  0.00  0.00     0.381 N 
ATOM     19  H   LIG d   1      -5.153  76.584 120.481  0.00  0.00    -0.090 HD
ATOM     20  H   LIG d   1      -6.303  77.564 119.881  0.00  0.00    -0.090 HD
ATOM     21  H   LIG d   1      -4.767  78.112 120.044  0.00  0.00    -0.090 HD
ENDBRANCH   5  18
BRANCH   3  22
ATOM     22  C   LIG d   1      -2.288  74.815 117.103  0.00  0.00     0.382 C 
ATOM     23  O   LIG d   1      -1.598  75.387 116.225  0.00  0.00    -0.241 OA
ATOM     24  O   LIG d   1      -1.806  73.854 117.731  0.00  0.00    -0.241 OA
ENDBRANCH   3  22
TORSDOF 7
ENDMDL
MODEL 9
REMARK VINA RESULT:      -5.1      2.017      5.260
REMARK  7 active torsions:
REMARK  status: ('A' for Active; 'I' for Inactive)
REMARK    1  A    between atoms: C_2  and  C_3 
REMARK    2  A    between atoms: C_3  and  O_6 
REMARK    3  A    between atoms: C_3  and  C_4 
REMARK    4  A    between atoms: C_7  and  O_6 
REMARK    5  A    between atoms: C_9  and  C_10 
REMARK    6  A    between atoms: N_15  and  C_14 
REMARK    7  A    between atoms: N_20  and  C_19 
REMARK       I    between atoms: C_22  and  N_20 
ROOT
ATOM      1  C   LIG d   1      -8.258  76.144 117.266  0.00  0.00     0.161 C 
ATOM      2  C   LIG d   1      -8.755  74.839 117.106  0.00  0.00     0.016 C 
ATOM      3  C   LIG d   1      -7.940  73.730 116.782  0.00  0.00     0.038 C 
ATOM      4  C   LIG d   1      -6.541  73.824 116.746  0.00  0.00     0.028 C 
ATOM      5  C   LIG d   1      -6.036  75.222 116.404  0.00  0.00    -0.047 C 
ATOM      6  C   LIG d   1      -6.720  76.245 117.339  0.00  0.00     0.091 C 
ENDROOT
BRANCH   1   7
ATOM      7  O   LIG d   1      -8.857  76.755 118.426  0.00  0.00    -0.368 OA
BRANCH   7   8
ATOM      8  C   LIG d   1      -9.878  77.750 118.167  0.00  0.00     0.119 C 
BRANCH   8   9
ATOM      9  C   LIG d   1      -9.330  79.110 118.640  0.00  0.00     0.028 C 
ATOM     10  C   LIG d   1      -9.866  80.282 117.801  0.00  0.00     0.006 C 
ENDBRANCH   8   9
BRANCH   8  11
ATOM     11  C   LIG d   1     -11.128  77.498 119.015  0.00  0.00     0.028 C 
ATOM     12  C   LIG d   1     -10.981  78.006 120.458  0.00  0.00     0.006 C 
ENDBRANCH   8  11
ENDBRANCH   7   8
ENDBRANCH   1   7
BRANCH   6  13
ATOM     13  N   LIG d   1      -6.346  77.647 117.017  0.00  0.00    -0.311 N 
ATOM     14  C   LIG d   1      -5.807  78.484 117.901  0.00  0.00     0.210 C 
ATOM     15  C   LIG d   1      -5.516  79.890 117.367  0.00  0.00     0.109 C 
ATOM     16  O   LIG d   1      -5.512  78.186 119.068  0.00  0.00    -0.276 OA
ATOM     17  H   LIG d   1      -6.522  77.963 116.083  0.00  0.00     0.149 HD
ENDBRANCH   6  13
BRANCH   5  18
ATOM     18  N   LIG d   1      -4.567  75.211 116.536  0.00  0.00     0.381 N 
ATOM     19  H   LIG d   1      -4.167  74.641 115.817  0.00  0.00    -0.090 HD
ATOM     20  H   LIG d   1      -4.324  74.812 117.426  0.00  0.00    -0.090 HD
ATOM     21  H   LIG d   1      -4.211  76.139 116.470  0.00  0.00    -0.090 HD
ENDBRANCH   5  18
BRANCH   3  22
ATOM     22  C   LIG d   1      -8.528  72.519 116.452  0.00  0.00     0.382 C 
ATOM     23  O   LIG d   1      -9.689  72.256 116.848  0.00  0.00    -0.241 OA
ATOM     24  O   LIG d   1      -7.895  71.667 115.800  0.00  0.00    -0.241 OA
ENDBRANCH   3  22
TORSDOF 7
ENDMDL
