MODEL 1
REMARK VINA RESULT:      -6.0      0.000      0.000
REMARK  7 active torsions:
REMARK  status: ('A' for Active; 'I' for Inactive)
REMARK    1  A    between atoms: C_2  and  C_3 
REMARK    2  A    between atoms: C_3  and  O_6 
REMARK    3  A    between atoms: C_3  and  C_4 
REMARK    4  A    between atoms: C_7  and  O_6 
REMARK    5  A    between atoms: C_9  and  C_10 
REMARK    6  A    between atoms: N_15  and  C_14 
REMARK    7  A    between atoms: N_20  and  C_19 
REMARK       I    between atoms: C_22  and  N_20 
ROOT
ATOM      1  C   LIG d   1      -7.608  76.737 117.765  0.00  0.00     0.161 C 
ATOM      2  C   LIG d   1      -8.919  77.086 118.131  0.00  0.00     0.016 C 
ATOM      3  C   LIG d   1      -9.309  78.405 118.461  0.00  0.00     0.038 C 
ATOM      4  C   LIG d   1      -8.443  79.497 118.300  0.00  0.00     0.028 C 
ATOM      5  C   LIG d   1      -6.969  79.123 118.417  0.00  0.00    -0.047 C 
ATOM      6  C   LIG d   1      -6.677  77.932 117.476  0.00  0.00     0.091 C 
ENDROOT
BRANCH   1   7
ATOM      7  O   LIG d   1      -7.639  75.841 116.636  0.00  0.00    -0.368 OA
BRANCH   7   8
ATOM      8  C   LIG d   1      -7.262  74.468 116.901  0.00  0.00     0.119 C 
BRANCH   8   9
ATOM      9  C   LIG d   1      -6.109  74.110 115.944  0.00  0.00     0.028 C 
ATOM     10  C   LIG d   1      -5.969  75.120 114.792  0.00  0.00     0.006 C 
ENDBRANCH   8   9
BRANCH   8  11
ATOM     11  C   LIG d   1      -8.396  73.501 116.549  0.00  0.00     0.028 C 
ATOM     12  C   LIG d   1      -7.887  72.115 116.123  0.00  0.00     0.006 C 
ENDBRANCH   8  11
ENDBRANCH   7   8
ENDBRANCH   1   7
BRANCH   6  13
ATOM     13  N   LIG d   1      -5.276  77.449 117.592  0.00  0.00    -0.311 N 
ATOM     14  C   LIG d   1      -4.305  77.807 116.753  0.00  0.00     0.210 C 
ATOM     15  C   LIG d   1      -2.938  77.178 117.040  0.00  0.00     0.109 C 
ATOM     16  O   LIG d   1      -4.439  78.610 115.818  0.00  0.00    -0.276 OA
ATOM     17  H   LIG d   1      -5.072  76.817 118.341  0.00  0.00     0.149 HD
ENDBRANCH   6  13
BRANCH   5  18
ATOM     18  N   LIG d   1      -6.177  80.325 118.092  0.00  0.00     0.381 N 
ATOM     19  H   LIG d   1      -6.545  80.760 117.270  0.00  0.00    -0.090 HD
ATOM     20  H   LIG d   1      -5.229  80.049 117.906  0.00  0.00    -0.090 HD
ATOM     21  H   LIG d   1      -6.201  80.965 118.855  0.00  0.00    -0.090 HD
ENDBRANCH   5  18
BRANCH   3  22
ATOM     22  C   LIG d   1     -10.567  78.636 118.996  0.00  0.00     0.382 C 
ATOM     23  O   LIG d   1     -10.810  79.718 119.582  0.00  0.00    -0.241 OA
ATOM     24  O   LIG d   1     -11.448  77.757 118.939  0.00  0.00    -0.241 OA
ENDBRANCH   3  22
TORSDOF 7
ENDMDL
MODEL 2
REMARK VINA RESULT:      -5.9      2.449      5.496
REMARK  7 active torsions:
REMARK  status: ('A' for Active; 'I' for Inactive)
REMARK    1  A    between atoms: C_2  and  C_3 
REMARK    2  A    between atoms: C_3  and  O_6 
REMARK    3  A    between atoms: C_3  and  C_4 
REMARK    4  A    between atoms: C_7  and  O_6 
REMARK    5  A    between atoms: C_9  and  C_10 
REMARK    6  A    between atoms: N_15  and  C_14 
REMARK    7  A    between atoms: N_20  and  C_19 
REMARK       I    between atoms: C_22  and  N_20 
ROOT
ATOM      1  C   LIG d   1      -5.433  75.711 116.900  0.00  0.00     0.161 C 
ATOM      2  C   LIG d   1      -4.334  74.906 116.555  0.00  0.00     0.016 C 
ATOM      3  C   LIG d   1      -2.993  75.260 116.832  0.00  0.00     0.038 C 
ATOM      4  C   LIG d   1      -2.668  76.379 117.613  0.00  0.00     0.028 C 
ATOM      5  C   LIG d   1      -3.713  77.487 117.549  0.00  0.00    -0.047 C 
ATOM      6  C   LIG d   1      -5.104  76.882 117.850  0.00  0.00     0.091 C 
ENDROOT
BRANCH   1   7
ATOM      7  O   LIG d   1      -6.482  74.894 117.456  0.00  0.00    -0.368 OA
BRANCH   7   8
ATOM      8  C   LIG d   1      -7.324  74.202 116.502  0.00  0.00     0.119 C 
BRANCH   8   9
ATOM      9  C   LIG d   1      -8.788  74.450 116.911  0.00  0.00     0.028 C 
ATOM     10  C   LIG d   1      -9.068  75.929 117.223  0.00  0.00     0.006 C 
ENDBRANCH   8   9
BRANCH   8  11
ATOM     11  C   LIG d   1      -7.130  72.685 116.587  0.00  0.00     0.028 C 
ATOM     12  C   LIG d   1      -8.393  71.900 116.196  0.00  0.00     0.006 C 
ENDBRANCH   8  11
ENDBRANCH   7   8
ENDBRANCH   1   7
BRANCH   6  13
ATOM     13  N   LIG d   1      -6.196  77.882 117.726  0.00  0.00    -0.311 N 
ATOM     14  C   LIG d   1      -6.680  78.571 118.758  0.00  0.00     0.210 C 
ATOM     15  C   LIG d   1      -7.818  79.537 118.413  0.00  0.00     0.109 C 
ATOM     16  O   LIG d   1      -6.253  78.498 119.920  0.00  0.00    -0.276 OA
ATOM     17  H   LIG d   1      -6.580  78.028 116.812  0.00  0.00     0.149 HD
ENDBRANCH   6  13
BRANCH   5  18
ATOM     18  N   LIG d   1      -3.316  78.530 118.513  0.00  0.00     0.381 N 
ATOM     19  H   LIG d   1      -4.131  78.960 118.902  0.00  0.00    -0.090 HD
ATOM     20  H   LIG d   1      -2.789  79.236 118.029  0.00  0.00    -0.090 HD
ATOM     21  H   LIG d   1      -2.763  78.131 119.239  0.00  0.00    -0.090 HD
ENDBRANCH   5  18
BRANCH   3  22
ATOM     22  C   LIG d   1      -1.960  74.510 116.292  0.00  0.00     0.382 C 
ATOM     23  O   LIG d   1      -1.758  74.521 115.054  0.00  0.00    -0.241 OA
ATOM     24  O   LIG d   1      -1.254  73.788 117.022  0.00  0.00    -0.241 OA
ENDBRANCH   3  22
TORSDOF 7
ENDMDL
MODEL 3
REMARK VINA RESULT:      -5.4      2.135      5.015
REMARK  7 active torsions:
REMARK  status: ('A' for Active; 'I' for Inactive)
REMARK    1  A    between atoms: C_2  and  C_3 
REMARK    2  A    between atoms: C_3  and  O_6 
REMARK    3  A    between atoms: C_3  and  C_4 
REMARK    4  A    between atoms: C_7  and  O_6 
REMARK    5  A    between atoms: C_9  and  C_10 
REMARK    6  A    between atoms: N_15  and  C_14 
REMARK    7  A    between atoms: N_20  and  C_19 
REMARK       I    between atoms: C_22  and  N_20 
ROOT
ATOM      1  C   LIG d   1      -6.829  76.285 117.275  0.00  0.00     0.161 C 
ATOM      2  C   LIG d   1      -7.697  75.202 117.060  0.00  0.00     0.016 C 
ATOM      3  C   LIG d   1      -7.252  73.905 116.713  0.00  0.00     0.038 C 
ATOM      4  C   LIG d   1      -5.891  73.566 116.706  0.00  0.00     0.028 C 
ATOM      5  C   LIG d   1      -4.972  74.750 116.423  0.00  0.00    -0.047 C 
ATOM      6  C   LIG d   1      -5.337  75.907 117.381  0.00  0.00     0.091 C 
ENDROOT
BRANCH   1   7
ATOM      7  O   LIG d   1      -7.244  77.019 118.444  0.00  0.00    -0.368 OA
BRANCH   7   8
ATOM      8  C   LIG d   1      -7.841  78.317 118.204  0.00  0.00     0.119 C 
BRANCH   8   9
ATOM      9  C   LIG d   1      -6.912  79.376 118.828  0.00  0.00     0.028 C 
ATOM     10  C   LIG d   1      -6.234  80.260 117.767  0.00  0.00     0.006 C 
ENDBRANCH   8   9
BRANCH   8  11
ATOM     11  C   LIG d   1      -9.175  78.462 118.942  0.00  0.00     0.028 C 
ATOM     12  C   LIG d   1     -10.249  77.489 118.429  0.00  0.00     0.006 C 
ENDBRANCH   8  11
ENDBRANCH   7   8
ENDBRANCH   1   7
BRANCH   6  13
ATOM     13  N   LIG d   1      -4.542  77.135 117.115  0.00  0.00    -0.311 N 
ATOM     14  C   LIG d   1      -3.404  77.422 117.744  0.00  0.00     0.210 C 
ATOM     15  C   LIG d   1      -2.755  78.748 117.334  0.00  0.00     0.109 C 
ATOM     16  O   LIG d   1      -2.854  76.690 118.580  0.00  0.00    -0.276 OA
ATOM     17  H   LIG d   1      -4.900  77.770 116.428  0.00  0.00     0.149 HD
ENDBRANCH   6  13
BRANCH   5  18
ATOM     18  N   LIG d   1      -3.582  74.284 116.582  0.00  0.00     0.381 N 
ATOM     19  H   LIG d   1      -3.385  73.570 115.909  0.00  0.00    -0.090 HD
ATOM     20  H   LIG d   1      -3.474  73.890 117.500  0.00  0.00    -0.090 HD
ATOM     21  H   LIG d   1      -2.951  75.046 116.463  0.00  0.00    -0.090 HD
ENDBRANCH   5  18
BRANCH   3  22
ATOM     22  C   LIG d   1      -8.173  72.942 116.329  0.00  0.00     0.382 C 
ATOM     23  O   LIG d   1      -7.791  71.924 115.704  0.00  0.00    -0.241 OA
ATOM     24  O   LIG d   1      -9.386  73.100 116.562  0.00  0.00    -0.241 OA
ENDBRANCH   3  22
TORSDOF 7
ENDMDL
MODEL 4
REMARK VINA RESULT:      -5.3     14.283     17.239
REMARK  7 active torsions:
REMARK  status: ('A' for Active; 'I' for Inactive)
REMARK    1  A    between atoms: C_2  and  C_3 
REMARK    2  A    between atoms: C_3  and  O_6 
REMARK    3  A    between atoms: C_3  and  C_4 
REMARK    4  A    between atoms: C_7  and  O_6 
REMARK    5  A    between atoms: C_9  and  C_10 
REMARK    6  A    between atoms: N_15  and  C_14 
REMARK    7  A    between atoms: N_20  and  C_19 
REMARK       I    between atoms: C_22  and  N_20 
ROOT
ATOM      1  C   LIG d   1      -5.894  93.040 118.437  0.00  0.00     0.161 C 
ATOM      2  C   LIG d   1      -4.818  93.828 118.879  0.00  0.00     0.016 C 
ATOM      3  C   LIG d   1      -3.473  93.581 118.519  0.00  0.00     0.038 C 
ATOM      4  C   LIG d   1      -3.127  92.613 117.565  0.00  0.00     0.028 C 
ATOM      5  C   LIG d   1      -4.126  91.464 117.477  0.00  0.00    -0.047 C 
ATOM      6  C   LIG d   1      -5.547  92.048 117.307  0.00  0.00     0.091 C 
ENDROOT
BRANCH   1   7
ATOM      7  O   LIG d   1      -6.990  93.887 118.040  0.00  0.00    -0.368 OA
BRANCH   7   8
ATOM      8  C   LIG d   1      -7.264  95.020 118.901  0.00  0.00     0.119 C 
BRANCH   8   9
ATOM      9  C   LIG d   1      -8.664  94.812 119.509  0.00  0.00     0.028 C 
ATOM     10  C   LIG d   1      -8.609  94.167 120.904  0.00  0.00     0.006 C 
ENDBRANCH   8   9
BRANCH   8  11
ATOM     11  C   LIG d   1      -7.359  96.320 118.098  0.00  0.00     0.028 C 
ATOM     12  C   LIG d   1      -8.337  97.333 118.716  0.00  0.00     0.006 C 
ENDBRANCH   8  11
ENDBRANCH   7   8
ENDBRANCH   1   7
BRANCH   6  13
ATOM     13  N   LIG d   1      -6.595  90.994 117.297  0.00  0.00    -0.311 N 
ATOM     14  C   LIG d   1      -6.992  90.365 116.192  0.00  0.00     0.210 C 
ATOM     15  C   LIG d   1      -8.098  89.326 116.400  0.00  0.00     0.109 C 
ATOM     16  O   LIG d   1      -6.510  90.546 115.063  0.00  0.00    -0.276 OA
ATOM     17  H   LIG d   1      -7.018  90.762 118.174  0.00  0.00     0.149 HD
ENDBRANCH   6  13
BRANCH   5  18
ATOM     18  N   LIG d   1      -3.716  90.603 116.352  0.00  0.00     0.381 N 
ATOM     19  H   LIG d   1      -3.241  91.150 115.662  0.00  0.00    -0.090 HD
ATOM     20  H   LIG d   1      -4.538  90.207 115.929  0.00  0.00    -0.090 HD
ATOM     21  H   LIG d   1      -3.119  89.875 116.679  0.00  0.00    -0.090 HD
ENDBRANCH   5  18
BRANCH   3  22
ATOM     22  C   LIG d   1      -2.455  94.281 119.147  0.00  0.00     0.382 C 
ATOM     23  O   LIG d   1      -1.259  94.056 118.842  0.00  0.00    -0.241 OA
ATOM     24  O   LIG d   1      -2.714  95.103 120.047  0.00  0.00    -0.241 OA
ENDBRANCH   3  22
TORSDOF 7
ENDMDL
MODEL 5
REMARK VINA RESULT:      -5.3     13.899     16.566
REMARK  7 active torsions:
REMARK  status: ('A' for Active; 'I' for Inactive)
REMARK    1  A    between atoms: C_2  and  C_3 
REMARK    2  A    between atoms: C_3  and  O_6 
REMARK    3  A    between atoms: C_3  and  C_4 
REMARK    4  A    between atoms: C_7  and  O_6 
REMARK    5  A    between atoms: C_9  and  C_10 
REMARK    6  A    between atoms: N_15  and  C_14 
REMARK    7  A    between atoms: N_20  and  C_19 
REMARK       I    between atoms: C_22  and  N_20 
ROOT
ATOM      1  C   LIG d   1      -5.619  92.882 117.304  0.00  0.00     0.161 C 
ATOM      2  C   LIG d   1      -6.561  91.917 116.911  0.00  0.00     0.016 C 
ATOM      3  C   LIG d   1      -6.214  90.602 116.524  0.00  0.00     0.038 C 
ATOM      4  C   LIG d   1      -4.905  90.114 116.652  0.00  0.00     0.028 C 
ATOM      5  C   LIG d   1      -3.841  91.202 116.565  0.00  0.00    -0.047 C 
ATOM      6  C   LIG d   1      -4.198  92.334 117.556  0.00  0.00     0.091 C 
ENDROOT
BRANCH   1   7
ATOM      7  O   LIG d   1      -6.097  93.586 118.467  0.00  0.00    -0.368 OA
BRANCH   7   8
ATOM      8  C   LIG d   1      -6.431  94.983 118.274  0.00  0.00     0.119 C 
BRANCH   8   9
ATOM      9  C   LIG d   1      -5.689  95.790 119.357  0.00  0.00     0.028 C 
ATOM     10  C   LIG d   1      -5.019  94.887 120.406  0.00  0.00     0.006 C 
ENDBRANCH   8   9
BRANCH   8  11
ATOM     11  C   LIG d   1      -7.920  95.239 118.526  0.00  0.00     0.028 C 
ATOM     12  C   LIG d   1      -8.330  96.693 118.243  0.00  0.00     0.006 C 
ENDBRANCH   8  11
ENDBRANCH   7   8
ENDBRANCH   1   7
BRANCH   6  13
ATOM     13  N   LIG d   1      -3.254  93.478 117.475  0.00  0.00    -0.311 N 
ATOM     14  C   LIG d   1      -2.193  93.611 118.270  0.00  0.00     0.210 C 
ATOM     15  C   LIG d   1      -1.361  94.875 118.032  0.00  0.00     0.109 C 
ATOM     16  O   LIG d   1      -1.845  92.786 119.127  0.00  0.00    -0.276 OA
ATOM     17  H   LIG d   1      -3.444  94.179 116.785  0.00  0.00     0.149 HD
ENDBRANCH   6  13
BRANCH   5  18
ATOM     18  N   LIG d   1      -2.537  90.575 116.851  0.00  0.00     0.381 N 
ATOM     19  H   LIG d   1      -1.951  90.628 116.042  0.00  0.00    -0.090 HD
ATOM     20  H   LIG d   1      -2.684  89.605 117.070  0.00  0.00    -0.090 HD
ATOM     21  H   LIG d   1      -2.098  91.034 117.619  0.00  0.00    -0.090 HD
ENDBRANCH   5  18
BRANCH   3  22
ATOM     22  C   LIG d   1      -7.175  89.773 115.967  0.00  0.00     0.382 C 
ATOM     23  O   LIG d   1      -7.320  89.731 114.721  0.00  0.00    -0.241 OA
ATOM     24  O   LIG d   1      -7.928  89.100 116.695  0.00  0.00    -0.241 OA
ENDBRANCH   3  22
TORSDOF 7
ENDMDL
MODEL 6
REMARK VINA RESULT:      -5.2      2.726      3.962
REMARK  7 active torsions:
REMARK  status: ('A' for Active; 'I' for Inactive)
REMARK    1  A    between atoms: C_2  and  C_3 
REMARK    2  A    between atoms: C_3  and  O_6 
REMARK    3  A    between atoms: C_3  and  C_4 
REMARK    4  A    between atoms: C_7  and  O_6 
REMARK    5  A    between atoms: C_9  and  C_10 
REMARK    6  A    between atoms: N_15  and  C_14 
REMARK    7  A    between atoms: N_20  and  C_19 
REMARK       I    between atoms: C_22  and  N_20 
ROOT
ATOM      1  C   LIG d   1      -4.349  75.942 117.670  0.00  0.00     0.161 C 
ATOM      2  C   LIG d   1      -5.415  76.842 117.835  0.00  0.00     0.016 C 
ATOM      3  C   LIG d   1      -5.396  78.168 117.346  0.00  0.00     0.038 C 
ATOM      4  C   LIG d   1      -4.364  78.641 116.523  0.00  0.00     0.028 C 
ATOM      5  C   LIG d   1      -3.034  77.931 116.752  0.00  0.00    -0.047 C 
ATOM      6  C   LIG d   1      -3.261  76.403 116.679  0.00  0.00     0.091 C 
ENDROOT
BRANCH   1   7
ATOM      7  O   LIG d   1      -4.857  74.647 117.290  0.00  0.00    -0.368 OA
BRANCH   7   8
ATOM      8  C   LIG d   1      -6.195  74.625 116.736  0.00  0.00     0.119 C 
BRANCH   8   9
ATOM      9  C   LIG d   1      -6.859  73.308 117.181  0.00  0.00     0.028 C 
ATOM     10  C   LIG d   1      -7.255  72.418 115.991  0.00  0.00     0.006 C 
ENDBRANCH   8   9
BRANCH   8  11
ATOM     11  C   LIG d   1      -6.164  74.566 115.206  0.00  0.00     0.028 C 
ATOM     12  C   LIG d   1      -6.192  75.958 114.555  0.00  0.00     0.006 C 
ENDBRANCH   8  11
ENDBRANCH   7   8
ENDBRANCH   1   7
BRANCH   6  13
ATOM     13  N   LIG d   1      -2.026  75.632 116.976  0.00  0.00    -0.311 N 
ATOM     14  C   LIG d   1      -1.492  74.749 116.133  0.00  0.00     0.210 C 
ATOM     15  C   LIG d   1      -0.229  74.049 116.644  0.00  0.00     0.109 C 
ATOM     16  O   LIG d   1      -1.927  74.503 114.998  0.00  0.00    -0.276 OA
ATOM     17  H   LIG d   1      -1.590  75.792 117.863  0.00  0.00     0.149 HD
ENDBRANCH   6  13
BRANCH   5  18
ATOM     18  N   LIG d   1      -2.084  78.424 115.737  0.00  0.00     0.381 N 
ATOM     19  H   LIG d   1      -2.519  78.418 114.836  0.00  0.00    -0.090 HD
ATOM     20  H   LIG d   1      -1.291  77.808 115.708  0.00  0.00    -0.090 HD
ATOM     21  H   LIG d   1      -1.789  79.347 115.965  0.00  0.00    -0.090 HD
ENDBRANCH   5  18
BRANCH   3  22
ATOM     22  C   LIG d   1      -6.401  79.051 117.715  0.00  0.00     0.382 C 
ATOM     23  O   LIG d   1      -7.338  78.662 118.453  0.00  0.00    -0.241 OA
ATOM     24  O   LIG d   1      -6.405  80.219 117.282  0.00  0.00    -0.241 OA
ENDBRANCH   3  22
TORSDOF 7
ENDMDL
MODEL 7
REMARK VINA RESULT:      -5.2     13.692     16.311
REMARK  7 active torsions:
REMARK  status: ('A' for Active; 'I' for Inactive)
REMARK    1  A    between atoms: C_2  and  C_3 
REMARK    2  A    between atoms: C_3  and  O_6 
REMARK    3  A    between atoms: C_3  and  C_4 
REMARK    4  A    between atoms: C_7  and  O_6 
REMARK    5  A    between atoms: C_9  and  C_10 
REMARK    6  A    between atoms: N_15  and  C_14 
REMARK    7  A    between atoms: N_20  and  C_19 
REMARK       I    between atoms: C_22  and  N_20 
ROOT
ATOM      1  C   LIG d   1      -5.278  92.945 117.326  0.00  0.00     0.161 C 
ATOM      2  C   LIG d   1      -6.358  92.101 117.022  0.00  0.00     0.016 C 
ATOM      3  C   LIG d   1      -6.204  90.755 116.619  0.00  0.00     0.038 C 
ATOM      4  C   LIG d   1      -4.957  90.113 116.638  0.00  0.00     0.028 C 
ATOM      5  C   LIG d   1      -3.782  91.067 116.451  0.00  0.00    -0.047 C 
ATOM      6  C   LIG d   1      -3.916  92.231 117.460  0.00  0.00     0.091 C 
ENDROOT
BRANCH   1   7
ATOM      7  O   LIG d   1      -5.567  93.699 118.520  0.00  0.00    -0.368 OA
BRANCH   7   8
ATOM      8  C   LIG d   1      -6.914  94.221 118.633  0.00  0.00     0.119 C 
BRANCH   8   9
ATOM      9  C   LIG d   1      -6.880  95.692 118.174  0.00  0.00     0.028 C 
ATOM     10  C   LIG d   1      -8.271  96.348 118.203  0.00  0.00     0.006 C 
ENDBRANCH   8   9
BRANCH   8  11
ATOM     11  C   LIG d   1      -7.374  94.263 120.094  0.00  0.00     0.028 C 
ATOM     12  C   LIG d   1      -6.390  93.570 121.049  0.00  0.00     0.006 C 
ENDBRANCH   8  11
ENDBRANCH   7   8
ENDBRANCH   1   7
BRANCH   6  13
ATOM     13  N   LIG d   1      -2.853  93.255 117.289  0.00  0.00    -0.311 N 
ATOM     14  C   LIG d   1      -1.720  93.259 117.990  0.00  0.00     0.210 C 
ATOM     15  C   LIG d   1      -0.767  94.416 117.671  0.00  0.00     0.109 C 
ATOM     16  O   LIG d   1      -1.400  92.398 118.822  0.00  0.00    -0.276 OA
ATOM     17  H   LIG d   1      -3.016  93.974 116.611  0.00  0.00     0.149 HD
ENDBRANCH   6  13
BRANCH   5  18
ATOM     18  N   LIG d   1      -2.542  90.288 116.629  0.00  0.00     0.381 N 
ATOM     19  H   LIG d   1      -2.208  89.976 115.740  0.00  0.00    -0.090 HD
ATOM     20  H   LIG d   1      -2.744  89.480 117.191  0.00  0.00    -0.090 HD
ATOM     21  H   LIG d   1      -1.849  90.847 117.076  0.00  0.00    -0.090 HD
ENDBRANCH   5  18
BRANCH   3  22
ATOM     22  C   LIG d   1      -7.302  90.047 116.152  0.00  0.00     0.382 C 
ATOM     23  O   LIG d   1      -7.801  90.329 115.036  0.00  0.00    -0.241 OA
ATOM     24  O   LIG d   1      -7.827  89.161 116.853  0.00  0.00    -0.241 OA
ENDBRANCH   3  22
TORSDOF 7
ENDMDL
MODEL 8
REMARK VINA RESULT:      -5.0     13.444     15.690
REMARK  7 active torsions:
REMARK  status: ('A' for Active; 'I' for Inactive)
REMARK    1  A    between atoms: C_2  and  C_3 
REMARK    2  A    between atoms: C_3  and  O_6 
REMARK    3  A    between atoms: C_3  and  C_4 
REMARK    4  A    between atoms: C_7  and  O_6 
REMARK    5  A    between atoms: C_9  and  C_10 
REMARK    6  A    between atoms: N_15  and  C_14 
REMARK    7  A    between atoms: N_20  and  C_19 
REMARK       I    between atoms: C_22  and  N_20 
ROOT
ATOM      1  C   LIG d   1      -3.768  91.467 117.754  0.00  0.00     0.161 C 
ATOM      2  C   LIG d   1      -4.200  90.640 116.704  0.00  0.00     0.016 C 
ATOM      3  C   LIG d   1      -5.368  90.890 115.947  0.00  0.00     0.038 C 
ATOM      4  C   LIG d   1      -6.105  92.075 116.091  0.00  0.00     0.028 C 
ATOM      5  C   LIG d   1      -5.993  92.693 117.480  0.00  0.00    -0.047 C 
ATOM      6  C   LIG d   1      -4.499  92.823 117.853  0.00  0.00     0.091 C 
ENDROOT
BRANCH   1   7
ATOM      7  O   LIG d   1      -2.344  91.671 117.662  0.00  0.00    -0.368 OA
BRANCH   7   8
ATOM      8  C   LIG d   1      -1.548  90.490 117.393  0.00  0.00     0.119 C 
BRANCH   8   9
ATOM      9  C   LIG d   1      -1.216  89.838 118.749  0.00  0.00     0.028 C 
ATOM     10  C   LIG d   1      -1.938  88.494 118.946  0.00  0.00     0.006 C 
ENDBRANCH   8   9
BRANCH   8  11
ATOM     11  C   LIG d   1      -0.194  90.859 116.779  0.00  0.00     0.028 C 
ATOM     12  C   LIG d   1       0.281  92.263 117.185  0.00  0.00     0.006 C 
ENDBRANCH   8  11
ENDBRANCH   7   8
ENDBRANCH   1   7
BRANCH   6  13
ATOM     13  N   LIG d   1      -4.301  93.341 119.231  0.00  0.00    -0.311 N 
ATOM     14  C   LIG d   1      -3.469  94.339 119.527  0.00  0.00     0.210 C 
ATOM     15  C   LIG d   1      -3.401  94.704 121.013  0.00  0.00     0.109 C 
ATOM     16  O   LIG d   1      -2.806  94.977 118.696  0.00  0.00    -0.276 OA
ATOM     17  H   LIG d   1      -4.824  92.902 119.963  0.00  0.00     0.149 HD
ENDBRANCH   6  13
BRANCH   5  18
ATOM     18  N   LIG d   1      -6.696  93.990 117.449  0.00  0.00     0.381 N 
ATOM     19  H   LIG d   1      -6.037  94.729 117.303  0.00  0.00    -0.090 HD
ATOM     20  H   LIG d   1      -7.145  94.138 118.335  0.00  0.00    -0.090 HD
ATOM     21  H   LIG d   1      -7.375  93.992 116.720  0.00  0.00    -0.090 HD
ENDBRANCH   5  18
BRANCH   3  22
ATOM     22  C   LIG d   1      -5.831  89.930 115.061  0.00  0.00     0.382 C 
ATOM     23  O   LIG d   1      -7.055  89.858 114.797  0.00  0.00    -0.241 OA
ATOM     24  O   LIG d   1      -5.045  89.105 114.556  0.00  0.00    -0.241 OA
ENDBRANCH   3  22
TORSDOF 7
ENDMDL
MODEL 9
REMARK VINA RESULT:      -4.6     11.809     14.097
REMARK  7 active torsions:
REMARK  status: ('A' for Active; 'I' for Inactive)
REMARK    1  A    between atoms: C_2  and  C_3 
REMARK    2  A    between atoms: C_3  and  O_6 
REMARK    3  A    between atoms: C_3  and  C_4 
REMARK    4  A    between atoms: C_7  and  O_6 
REMARK    5  A    between atoms: C_9  and  C_10 
REMARK    6  A    between atoms: N_15  and  C_14 
REMARK    7  A    between atoms: N_20  and  C_19 
REMARK       I    between atoms: C_22  and  N_20 
ROOT
ATOM      1  C   LIG d   1     -14.215  67.009 118.546  0.00  0.00     0.161 C 
ATOM      2  C   LIG d   1     -15.044  67.059 117.413  0.00  0.00     0.016 C 
ATOM      3  C   LIG d   1     -15.755  65.942 116.918  0.00  0.00     0.038 C 
ATOM      4  C   LIG d   1     -15.803  64.726 117.616  0.00  0.00     0.028 C 
ATOM      5  C   LIG d   1     -14.579  64.480 118.491  0.00  0.00    -0.047 C 
ATOM      6  C   LIG d   1     -14.344  65.720 119.384  0.00  0.00     0.091 C 
ENDROOT
BRANCH   1   7
ATOM      7  O   LIG d   1     -14.445  68.168 119.371  0.00  0.00    -0.368 OA
BRANCH   7   8
ATOM      8  C   LIG d   1     -15.373  67.995 120.470  0.00  0.00     0.119 C 
BRANCH   8   9
ATOM      9  C   LIG d   1     -16.592  68.896 120.193  0.00  0.00     0.028 C 
ATOM     10  C   LIG d   1     -16.186  70.321 119.780  0.00  0.00     0.006 C 
ENDBRANCH   8   9
BRANCH   8  11
ATOM     11  C   LIG d   1     -14.781  68.506 121.786  0.00  0.00     0.028 C 
ATOM     12  C   LIG d   1     -13.309  68.928 121.653  0.00  0.00     0.006 C 
ENDBRANCH   8  11
ENDBRANCH   7   8
ENDBRANCH   1   7
BRANCH   6  13
ATOM     13  N   LIG d   1     -13.115  65.598 120.212  0.00  0.00    -0.311 N 
ATOM     14  C   LIG d   1     -13.119  65.154 121.467  0.00  0.00     0.210 C 
ATOM     15  C   LIG d   1     -11.746  65.126 122.147  0.00  0.00     0.109 C 
ATOM     16  O   LIG d   1     -14.124  64.750 122.072  0.00  0.00    -0.276 OA
ATOM     17  H   LIG d   1     -12.251  65.874 119.789  0.00  0.00     0.149 HD
ENDBRANCH   6  13
BRANCH   5  18
ATOM     18  N   LIG d   1     -14.823  63.248 119.264  0.00  0.00     0.381 N 
ATOM     19  H   LIG d   1     -14.116  62.572 119.057  0.00  0.00    -0.090 HD
ATOM     20  H   LIG d   1     -15.713  62.867 118.995  0.00  0.00    -0.090 HD
ATOM     21  H   LIG d   1     -14.822  63.452 120.239  0.00  0.00    -0.090 HD
ENDBRANCH   5  18
BRANCH   3  22
ATOM     22  C   LIG d   1     -16.394  66.022 115.690  0.00  0.00     0.382 C 
ATOM     23  O   LIG d   1     -17.631  66.230 115.640  0.00  0.00    -0.241 OA
ATOM     24  O   LIG d   1     -15.758  65.846 114.634  0.00  0.00    -0.241 OA
ENDBRANCH   3  22
TORSDOF 7
ENDMDL
