MODEL 1
REMARK VINA RESULT:      -5.9      0.000      0.000
REMARK  7 active torsions:
REMARK  status: ('A' for Active; 'I' for Inactive)
REMARK    1  A    between atoms: C_2  and  C_3 
REMARK    2  A    between atoms: C_3  and  O_6 
REMARK    3  A    between atoms: C_3  and  C_4 
REMARK    4  A    between atoms: C_7  and  O_6 
REMARK    5  A    between atoms: C_9  and  C_10 
REMARK    6  A    between atoms: N_15  and  C_14 
REMARK    7  A    between atoms: N_20  and  C_19 
REMARK       I    between atoms: C_22  and  N_20 
ROOT
ATOM      1  C   LIG d   1      -6.657  76.488 116.945  0.00  0.00     0.161 C 
ATOM      2  C   LIG d   1      -7.986  76.750 117.318  0.00  0.00     0.016 C 
ATOM      3  C   LIG d   1      -8.437  78.018 117.751  0.00  0.00     0.038 C 
ATOM      4  C   LIG d   1      -7.617  79.156 117.695  0.00  0.00     0.028 C 
ATOM      5  C   LIG d   1      -6.130  78.837 117.804  0.00  0.00    -0.047 C 
ATOM      6  C   LIG d   1      -5.775  77.742 116.771  0.00  0.00     0.091 C 
ENDROOT
BRANCH   1   7
ATOM      7  O   LIG d   1      -6.635  75.690 115.745  0.00  0.00    -0.368 OA
BRANCH   7   8
ATOM      8  C   LIG d   1      -5.703  74.580 115.735  0.00  0.00     0.119 C 
BRANCH   8   9
ATOM      9  C   LIG d   1      -4.808  74.739 114.491  0.00  0.00     0.028 C 
ATOM     10  C   LIG d   1      -5.381  75.746 113.480  0.00  0.00     0.006 C 
ENDBRANCH   8   9
BRANCH   8  11
ATOM     11  C   LIG d   1      -6.429  73.245 115.545  0.00  0.00     0.028 C 
ATOM     12  C   LIG d   1      -7.261  72.839 116.772  0.00  0.00     0.006 C 
ENDBRANCH   8  11
ENDBRANCH   7   8
ENDBRANCH   1   7
BRANCH   6  13
ATOM     13  N   LIG d   1      -4.356  77.311 116.868  0.00  0.00    -0.311 N 
ATOM     14  C   LIG d   1      -3.385  77.806 116.103  0.00  0.00     0.210 C 
ATOM     15  C   LIG d   1      -1.997  77.209 116.352  0.00  0.00     0.109 C 
ATOM     16  O   LIG d   1      -3.536  78.707 115.263  0.00  0.00    -0.276 OA
ATOM     17  H   LIG d   1      -4.139  76.606 117.545  0.00  0.00     0.149 HD
ENDBRANCH   6  13
BRANCH   5  18
ATOM     18  N   LIG d   1      -5.388  80.094 117.592  0.00  0.00     0.381 N 
ATOM     19  H   LIG d   1      -5.201  80.529 118.473  0.00  0.00    -0.090 HD
ATOM     20  H   LIG d   1      -5.955  80.718 117.046  0.00  0.00    -0.090 HD
ATOM     21  H   LIG d   1      -4.532  79.909 117.117  0.00  0.00    -0.090 HD
ENDBRANCH   5  18
BRANCH   3  22
ATOM     22  C   LIG d   1      -9.710  78.150 118.284  0.00  0.00     0.382 C 
ATOM     23  O   LIG d   1     -10.649  77.443 117.845  0.00  0.00    -0.241 OA
ATOM     24  O   LIG d   1      -9.941  78.997 119.167  0.00  0.00    -0.241 OA
ENDBRANCH   3  22
TORSDOF 7
ENDMDL
MODEL 2
REMARK VINA RESULT:      -5.7      3.175      5.859
REMARK  7 active torsions:
REMARK  status: ('A' for Active; 'I' for Inactive)
REMARK    1  A    between atoms: C_2  and  C_3 
REMARK    2  A    between atoms: C_3  and  O_6 
REMARK    3  A    between atoms: C_3  and  C_4 
REMARK    4  A    between atoms: C_7  and  O_6 
REMARK    5  A    between atoms: C_9  and  C_10 
REMARK    6  A    between atoms: N_15  and  C_14 
REMARK    7  A    between atoms: N_20  and  C_19 
REMARK       I    between atoms: C_22  and  N_20 
ROOT
ATOM      1  C   LIG d   1      -2.816  77.584 116.524  0.00  0.00     0.161 C 
ATOM      2  C   LIG d   1      -3.116  78.412 115.429  0.00  0.00     0.016 C 
ATOM      3  C   LIG d   1      -2.319  78.479 114.263  0.00  0.00     0.038 C 
ATOM      4  C   LIG d   1      -1.243  77.604 114.049  0.00  0.00     0.028 C 
ATOM      5  C   LIG d   1      -0.604  77.104 115.340  0.00  0.00    -0.047 C 
ATOM      6  C   LIG d   1      -1.709  76.542 116.263  0.00  0.00     0.091 C 
ENDROOT
BRANCH   1   7
ATOM      7  O   LIG d   1      -4.016  76.935 116.988  0.00  0.00    -0.368 OA
BRANCH   7   8
ATOM      8  C   LIG d   1      -5.097  76.831 116.029  0.00  0.00     0.119 C 
BRANCH   8   9
ATOM      9  C   LIG d   1      -6.413  77.108 116.782  0.00  0.00     0.028 C 
ATOM     10  C   LIG d   1      -7.372  75.907 116.748  0.00  0.00     0.006 C 
ENDBRANCH   8   9
BRANCH   8  11
ATOM     11  C   LIG d   1      -5.230  75.402 115.493  0.00  0.00     0.028 C 
ATOM     12  C   LIG d   1      -4.881  75.291 114.000  0.00  0.00     0.006 C 
ENDBRANCH   8  11
ENDBRANCH   7   8
ENDBRANCH   1   7
BRANCH   6  13
ATOM     13  N   LIG d   1      -1.180  76.108 117.582  0.00  0.00    -0.311 N 
ATOM     14  C   LIG d   1      -0.845  74.849 117.860  0.00  0.00     0.210 C 
ATOM     15  C   LIG d   1      -0.340  74.614 119.286  0.00  0.00     0.109 C 
ATOM     16  O   LIG d   1      -0.890  73.911 117.050  0.00  0.00    -0.276 OA
ATOM     17  H   LIG d   1      -1.082  76.811 118.288  0.00  0.00     0.149 HD
ENDBRANCH   6  13
BRANCH   5  18
ATOM     18  N   LIG d   1       0.411  76.098 114.974  0.00  0.00     0.381 N 
ATOM     19  H   LIG d   1       0.837  76.347 114.103  0.00  0.00    -0.090 HD
ATOM     20  H   LIG d   1      -0.041  75.207 114.859  0.00  0.00    -0.090 HD
ATOM     21  H   LIG d   1       1.104  76.037 115.686  0.00  0.00    -0.090 HD
ENDBRANCH   5  18
BRANCH   3  22
ATOM     22  C   LIG d   1      -2.572  79.456 113.313  0.00  0.00     0.382 C 
ATOM     23  O   LIG d   1      -3.108  80.538 113.654  0.00  0.00    -0.241 OA
ATOM     24  O   LIG d   1      -2.312  79.252 112.112  0.00  0.00    -0.241 OA
ENDBRANCH   3  22
TORSDOF 7
ENDMDL
MODEL 3
REMARK VINA RESULT:      -5.7      2.306      5.322
REMARK  7 active torsions:
REMARK  status: ('A' for Active; 'I' for Inactive)
REMARK    1  A    between atoms: C_2  and  C_3 
REMARK    2  A    between atoms: C_3  and  O_6 
REMARK    3  A    between atoms: C_3  and  C_4 
REMARK    4  A    between atoms: C_7  and  O_6 
REMARK    5  A    between atoms: C_9  and  C_10 
REMARK    6  A    between atoms: N_15  and  C_14 
REMARK    7  A    between atoms: N_20  and  C_19 
REMARK       I    between atoms: C_22  and  N_20 
ROOT
ATOM      1  C   LIG d   1      -5.676  77.984 117.209  0.00  0.00     0.161 C 
ATOM      2  C   LIG d   1      -5.603  76.698 116.649  0.00  0.00     0.016 C 
ATOM      3  C   LIG d   1      -6.717  75.836 116.530  0.00  0.00     0.038 C 
ATOM      4  C   LIG d   1      -8.020  76.263 116.827  0.00  0.00     0.028 C 
ATOM      5  C   LIG d   1      -8.069  77.377 117.868  0.00  0.00    -0.047 C 
ATOM      6  C   LIG d   1      -7.109  78.509 117.437  0.00  0.00     0.091 C 
ENDROOT
BRANCH   1   7
ATOM      7  O   LIG d   1      -4.925  78.913 116.402  0.00  0.00    -0.368 OA
BRANCH   7   8
ATOM      8  C   LIG d   1      -3.520  79.048 116.728  0.00  0.00     0.119 C 
BRANCH   8   9
ATOM      9  C   LIG d   1      -3.350  80.367 117.506  0.00  0.00     0.028 C 
ATOM     10  C   LIG d   1      -3.458  80.169 119.027  0.00  0.00     0.006 C 
ENDBRANCH   8   9
BRANCH   8  11
ATOM     11  C   LIG d   1      -2.668  79.210 115.465  0.00  0.00     0.028 C 
ATOM     12  C   LIG d   1      -2.577  80.669 114.991  0.00  0.00     0.006 C 
ENDBRANCH   8  11
ENDBRANCH   7   8
ENDBRANCH   1   7
BRANCH   6  13
ATOM     13  N   LIG d   1      -7.034  79.601 118.442  0.00  0.00    -0.311 N 
ATOM     14  C   LIG d   1      -7.165  80.891 118.136  0.00  0.00     0.210 C 
ATOM     15  C   LIG d   1      -7.034  81.854 119.320  0.00  0.00     0.109 C 
ATOM     16  O   LIG d   1      -7.410  81.326 117.001  0.00  0.00    -0.276 OA
ATOM     17  H   LIG d   1      -6.868  79.335 119.393  0.00  0.00     0.149 HD
ENDBRANCH   6  13
BRANCH   5  18
ATOM     18  N   LIG d   1      -9.472  77.820 117.980  0.00  0.00     0.381 N 
ATOM     19  H   LIG d   1      -9.545  78.782 117.719  0.00  0.00    -0.090 HD
ATOM     20  H   LIG d   1      -9.765  77.729 118.937  0.00  0.00    -0.090 HD
ATOM     21  H   LIG d   1     -10.053  77.263 117.393  0.00  0.00    -0.090 HD
ENDBRANCH   5  18
BRANCH   3  22
ATOM     22  C   LIG d   1      -6.528  74.518 116.146  0.00  0.00     0.382 C 
ATOM     23  O   LIG d   1      -5.798  74.250 115.161  0.00  0.00    -0.241 OA
ATOM     24  O   LIG d   1      -7.113  73.595 116.744  0.00  0.00    -0.241 OA
ENDBRANCH   3  22
TORSDOF 7
ENDMDL
MODEL 4
REMARK VINA RESULT:      -5.6      1.661      2.365
REMARK  7 active torsions:
REMARK  status: ('A' for Active; 'I' for Inactive)
REMARK    1  A    between atoms: C_2  and  C_3 
REMARK    2  A    between atoms: C_3  and  O_6 
REMARK    3  A    between atoms: C_3  and  C_4 
REMARK    4  A    between atoms: C_7  and  O_6 
REMARK    5  A    between atoms: C_9  and  C_10 
REMARK    6  A    between atoms: N_15  and  C_14 
REMARK    7  A    between atoms: N_20  and  C_19 
REMARK       I    between atoms: C_22  and  N_20 
ROOT
ATOM      1  C   LIG d   1      -6.391  78.201 117.549  0.00  0.00     0.161 C 
ATOM      2  C   LIG d   1      -7.766  77.972 117.724  0.00  0.00     0.016 C 
ATOM      3  C   LIG d   1      -8.633  78.889 118.361  0.00  0.00     0.038 C 
ATOM      4  C   LIG d   1      -8.209  80.173 118.734  0.00  0.00     0.028 C 
ATOM      5  C   LIG d   1      -6.716  80.255 119.034  0.00  0.00    -0.047 C 
ATOM      6  C   LIG d   1      -5.932  79.643 117.850  0.00  0.00     0.091 C 
ENDROOT
BRANCH   1   7
ATOM      7  O   LIG d   1      -5.997  77.818 116.217  0.00  0.00    -0.368 OA
BRANCH   7   8
ATOM      8  C   LIG d   1      -5.442  76.487 116.074  0.00  0.00     0.119 C 
BRANCH   8   9
ATOM      9  C   LIG d   1      -3.934  76.642 115.794  0.00  0.00     0.028 C 
ATOM     10  C   LIG d   1      -3.070  76.273 117.011  0.00  0.00     0.006 C 
ENDBRANCH   8   9
BRANCH   8  11
ATOM     11  C   LIG d   1      -6.012  75.775 114.844  0.00  0.00     0.028 C 
ATOM     12  C   LIG d   1      -4.922  75.317 113.862  0.00  0.00     0.006 C 
ENDBRANCH   8  11
ENDBRANCH   7   8
ENDBRANCH   1   7
BRANCH   6  13
ATOM     13  N   LIG d   1      -4.468  79.607 118.099  0.00  0.00    -0.311 N 
ATOM     14  C   LIG d   1      -3.566  80.070 117.236  0.00  0.00     0.210 C 
ATOM     15  C   LIG d   1      -2.107  79.917 117.680  0.00  0.00     0.109 C 
ATOM     16  O   LIG d   1      -3.836  80.622 116.159  0.00  0.00    -0.276 OA
ATOM     17  H   LIG d   1      -4.161  79.204 118.963  0.00  0.00     0.149 HD
ENDBRANCH   6  13
BRANCH   5  18
ATOM     18  N   LIG d   1      -6.387  81.673 119.274  0.00  0.00     0.381 N 
ATOM     19  H   LIG d   1      -5.454  81.861 118.966  0.00  0.00    -0.090 HD
ATOM     20  H   LIG d   1      -6.436  81.855 120.261  0.00  0.00    -0.090 HD
ATOM     21  H   LIG d   1      -7.030  82.259 118.789  0.00  0.00    -0.090 HD
ENDBRANCH   5  18
BRANCH   3  22
ATOM     22  C   LIG d   1      -9.931  78.509 118.666  0.00  0.00     0.382 C 
ATOM     23  O   LIG d   1     -10.554  77.735 117.900  0.00  0.00    -0.241 OA
ATOM     24  O   LIG d   1     -10.502  78.966 119.674  0.00  0.00    -0.241 OA
ENDBRANCH   3  22
TORSDOF 7
ENDMDL
MODEL 5
REMARK VINA RESULT:      -5.6      2.045      4.639
REMARK  7 active torsions:
REMARK  status: ('A' for Active; 'I' for Inactive)
REMARK    1  A    between atoms: C_2  and  C_3 
REMARK    2  A    between atoms: C_3  and  O_6 
REMARK    3  A    between atoms: C_3  and  C_4 
REMARK    4  A    between atoms: C_7  and  O_6 
REMARK    5  A    between atoms: C_9  and  C_10 
REMARK    6  A    between atoms: N_15  and  C_14 
REMARK    7  A    between atoms: N_20  and  C_19 
REMARK       I    between atoms: C_22  and  N_20 
ROOT
ATOM      1  C   LIG d   1      -4.983  76.708 116.368  0.00  0.00     0.161 C 
ATOM      2  C   LIG d   1      -5.279  75.383 116.007  0.00  0.00     0.016 C 
ATOM      3  C   LIG d   1      -6.514  74.756 116.293  0.00  0.00     0.038 C 
ATOM      4  C   LIG d   1      -7.599  75.465 116.828  0.00  0.00     0.028 C 
ATOM      5  C   LIG d   1      -7.182  76.667 117.670  0.00  0.00    -0.047 C 
ATOM      6  C   LIG d   1      -6.194  77.532 116.854  0.00  0.00     0.091 C 
ENDROOT
BRANCH   1   7
ATOM      7  O   LIG d   1      -4.328  77.378 115.273  0.00  0.00    -0.368 OA
BRANCH   7   8
ATOM      8  C   LIG d   1      -2.903  77.596 115.420  0.00  0.00     0.119 C 
BRANCH   8   9
ATOM      9  C   LIG d   1      -2.590  78.999 114.866  0.00  0.00     0.028 C 
ATOM     10  C   LIG d   1      -2.886  80.112 115.885  0.00  0.00     0.006 C 
ENDBRANCH   8   9
BRANCH   8  11
ATOM     11  C   LIG d   1      -2.099  76.627 114.548  0.00  0.00     0.028 C 
ATOM     12  C   LIG d   1      -1.404  75.527 115.365  0.00  0.00     0.006 C 
ENDBRANCH   8  11
ENDBRANCH   7   8
ENDBRANCH   1   7
BRANCH   6  13
ATOM     13  N   LIG d   1      -5.671  78.683 117.634  0.00  0.00    -0.311 N 
ATOM     14  C   LIG d   1      -6.276  79.868 117.689  0.00  0.00     0.210 C 
ATOM     15  C   LIG d   1      -5.558  80.924 118.535  0.00  0.00     0.109 C 
ATOM     16  O   LIG d   1      -7.357  80.135 117.143  0.00  0.00    -0.276 OA
ATOM     17  H   LIG d   1      -4.814  78.544 118.134  0.00  0.00     0.149 HD
ENDBRANCH   6  13
BRANCH   5  18
ATOM     18  N   LIG d   1      -8.408  77.392 118.050  0.00  0.00     0.381 N 
ATOM     19  H   LIG d   1      -9.153  77.149 117.428  0.00  0.00    -0.090 HD
ATOM     20  H   LIG d   1      -8.240  78.380 117.969  0.00  0.00    -0.090 HD
ATOM     21  H   LIG d   1      -8.661  77.167 118.987  0.00  0.00    -0.090 HD
ENDBRANCH   5  18
BRANCH   3  22
ATOM     22  C   LIG d   1      -6.659  73.394 116.078  0.00  0.00     0.382 C 
ATOM     23  O   LIG d   1      -6.139  72.859 115.069  0.00  0.00    -0.241 OA
ATOM     24  O   LIG d   1      -7.340  72.701 116.857  0.00  0.00    -0.241 OA
ENDBRANCH   3  22
TORSDOF 7
ENDMDL
MODEL 6
REMARK VINA RESULT:      -5.5      3.353      5.576
REMARK  7 active torsions:
REMARK  status: ('A' for Active; 'I' for Inactive)
REMARK    1  A    between atoms: C_2  and  C_3 
REMARK    2  A    between atoms: C_3  and  O_6 
REMARK    3  A    between atoms: C_3  and  C_4 
REMARK    4  A    between atoms: C_7  and  O_6 
REMARK    5  A    between atoms: C_9  and  C_10 
REMARK    6  A    between atoms: N_15  and  C_14 
REMARK    7  A    between atoms: N_20  and  C_19 
REMARK       I    between atoms: C_22  and  N_20 
ROOT
ATOM      1  C   LIG d   1      -2.575  76.216 115.627  0.00  0.00     0.161 C 
ATOM      2  C   LIG d   1      -2.485  75.383 116.754  0.00  0.00     0.016 C 
ATOM      3  C   LIG d   1      -1.454  75.484 117.716  0.00  0.00     0.038 C 
ATOM      4  C   LIG d   1      -0.521  76.531 117.696  0.00  0.00     0.028 C 
ATOM      5  C   LIG d   1      -0.271  77.093 116.300  0.00  0.00    -0.047 C 
ATOM      6  C   LIG d   1      -1.630  77.436 115.647  0.00  0.00     0.091 C 
ENDROOT
BRANCH   1   7
ATOM      7  O   LIG d   1      -3.939  76.643 115.442  0.00  0.00    -0.368 OA
BRANCH   7   8
ATOM      8  C   LIG d   1      -4.960  75.758 115.965  0.00  0.00     0.119 C 
BRANCH   8   9
ATOM      9  C   LIG d   1      -5.452  74.879 114.799  0.00  0.00     0.028 C 
ATOM     10  C   LIG d   1      -5.346  75.592 113.440  0.00  0.00     0.006 C 
ENDBRANCH   8   9
BRANCH   8  11
ATOM     11  C   LIG d   1      -6.192  76.541 116.430  0.00  0.00     0.028 C 
ATOM     12  C   LIG d   1      -7.372  75.629 116.801  0.00  0.00     0.006 C 
ENDBRANCH   8  11
ENDBRANCH   7   8
ENDBRANCH   1   7
BRANCH   6  13
ATOM     13  N   LIG d   1      -1.481  77.913 114.247  0.00  0.00    -0.311 N 
ATOM     14  C   LIG d   1      -2.189  78.919 113.737  0.00  0.00     0.210 C 
ATOM     15  C   LIG d   1      -1.895  79.237 112.267  0.00  0.00     0.109 C 
ATOM     16  O   LIG d   1      -3.011  79.599 114.370  0.00  0.00    -0.276 OA
ATOM     17  H   LIG d   1      -0.814  77.438 113.672  0.00  0.00     0.149 HD
ENDBRANCH   6  13
BRANCH   5  18
ATOM     18  N   LIG d   1       0.614  78.265 116.443  0.00  0.00     0.381 N 
ATOM     19  H   LIG d   1       1.004  78.505 115.554  0.00  0.00    -0.090 HD
ATOM     20  H   LIG d   1       1.367  78.029 117.065  0.00  0.00    -0.090 HD
ATOM     21  H   LIG d   1       0.101  79.037 116.808  0.00  0.00    -0.090 HD
ENDBRANCH   5  18
BRANCH   3  22
ATOM     22  C   LIG d   1      -1.325  74.506 118.691  0.00  0.00     0.382 C 
ATOM     23  O   LIG d   1      -0.888  73.370 118.385  0.00  0.00    -0.241 OA
ATOM     24  O   LIG d   1      -1.683  74.731 119.862  0.00  0.00    -0.241 OA
ENDBRANCH   3  22
TORSDOF 7
ENDMDL
MODEL 7
REMARK VINA RESULT:      -5.5      2.499      6.201
REMARK  7 active torsions:
REMARK  status: ('A' for Active; 'I' for Inactive)
REMARK    1  A    between atoms: C_2  and  C_3 
REMARK    2  A    between atoms: C_3  and  O_6 
REMARK    3  A    between atoms: C_3  and  C_4 
REMARK    4  A    between atoms: C_7  and  O_6 
REMARK    5  A    between atoms: C_9  and  C_10 
REMARK    6  A    between atoms: N_15  and  C_14 
REMARK    7  A    between atoms: N_20  and  C_19 
REMARK       I    between atoms: C_22  and  N_20 
ROOT
ATOM      1  C   LIG d   1      -6.760  77.974 117.465  0.00  0.00     0.161 C 
ATOM      2  C   LIG d   1      -5.906  77.151 116.712  0.00  0.00     0.016 C 
ATOM      3  C   LIG d   1      -6.318  75.932 116.127  0.00  0.00     0.038 C 
ATOM      4  C   LIG d   1      -7.660  75.524 116.128  0.00  0.00     0.028 C 
ATOM      5  C   LIG d   1      -8.458  76.071 117.307  0.00  0.00    -0.047 C 
ATOM      6  C   LIG d   1      -8.255  77.601 117.384  0.00  0.00     0.091 C 
ENDROOT
BRANCH   1   7
ATOM      7  O   LIG d   1      -6.566  79.352 117.091  0.00  0.00    -0.368 OA
BRANCH   7   8
ATOM      8  C   LIG d   1      -6.026  80.222 118.116  0.00  0.00     0.119 C 
BRANCH   8   9
ATOM      9  C   LIG d   1      -6.909  81.483 118.166  0.00  0.00     0.028 C 
ATOM     10  C   LIG d   1      -7.188  81.948 119.605  0.00  0.00     0.006 C 
ENDBRANCH   8   9
BRANCH   8  11
ATOM     11  C   LIG d   1      -4.627  80.721 117.744  0.00  0.00     0.028 C 
ATOM     12  C   LIG d   1      -3.513  80.018 118.537  0.00  0.00     0.006 C 
ENDBRANCH   8  11
ENDBRANCH   7   8
ENDBRANCH   1   7
BRANCH   6  13
ATOM     13  N   LIG d   1      -8.934  78.205 118.560  0.00  0.00    -0.311 N 
ATOM     14  C   LIG d   1      -9.727  79.272 118.482  0.00  0.00     0.210 C 
ATOM     15  C   LIG d   1     -10.310  79.744 119.817  0.00  0.00     0.109 C 
ATOM     16  O   LIG d   1     -10.029  79.852 117.428  0.00  0.00    -0.276 OA
ATOM     17  H   LIG d   1      -8.769  77.777 119.451  0.00  0.00     0.149 HD
ENDBRANCH   6  13
BRANCH   5  18
ATOM     18  N   LIG d   1      -9.867  75.683 117.110  0.00  0.00     0.381 N 
ATOM     19  H   LIG d   1     -10.420  76.016 117.875  0.00  0.00    -0.090 HD
ATOM     20  H   LIG d   1      -9.929  74.680 117.089  0.00  0.00    -0.090 HD
ATOM     21  H   LIG d   1     -10.208  76.062 116.254  0.00  0.00    -0.090 HD
ENDBRANCH   5  18
BRANCH   3  22
ATOM     22  C   LIG d   1      -5.373  75.086 115.566  0.00  0.00     0.382 C 
ATOM     23  O   LIG d   1      -5.739  74.034 114.987  0.00  0.00    -0.241 OA
ATOM     24  O   LIG d   1      -4.158  75.338 115.669  0.00  0.00    -0.241 OA
ENDBRANCH   3  22
TORSDOF 7
ENDMDL
MODEL 8
REMARK VINA RESULT:      -5.3     12.880     14.946
REMARK  7 active torsions:
REMARK  status: ('A' for Active; 'I' for Inactive)
REMARK    1  A    between atoms: C_2  and  C_3 
REMARK    2  A    between atoms: C_3  and  O_6 
REMARK    3  A    between atoms: C_3  and  C_4 
REMARK    4  A    between atoms: C_7  and  O_6 
REMARK    5  A    between atoms: C_9  and  C_10 
REMARK    6  A    between atoms: N_15  and  C_14 
REMARK    7  A    between atoms: N_20  and  C_19 
REMARK       I    between atoms: C_22  and  N_20 
ROOT
ATOM      1  C   LIG d   1      -2.956  90.692 117.802  0.00  0.00     0.161 C 
ATOM      2  C   LIG d   1      -3.765  89.913 116.959  0.00  0.00     0.016 C 
ATOM      3  C   LIG d   1      -5.011  90.350 116.454  0.00  0.00     0.038 C 
ATOM      4  C   LIG d   1      -5.464  91.665 116.636  0.00  0.00     0.028 C 
ATOM      5  C   LIG d   1      -4.919  92.324 117.899  0.00  0.00    -0.047 C 
ATOM      6  C   LIG d   1      -3.382  92.170 117.922  0.00  0.00     0.091 C 
ENDROOT
BRANCH   1   7
ATOM      7  O   LIG d   1      -1.580  90.599 117.381  0.00  0.00    -0.368 OA
BRANCH   7   8
ATOM      8  C   LIG d   1      -0.716  89.777 118.203  0.00  0.00     0.119 C 
BRANCH   8   9
ATOM      9  C   LIG d   1       0.573  90.578 118.466  0.00  0.00     0.028 C 
ATOM     10  C   LIG d   1       0.790  91.697 117.432  0.00  0.00     0.006 C 
ENDBRANCH   8   9
BRANCH   8  11
ATOM     11  C   LIG d   1      -0.267  88.519 117.454  0.00  0.00     0.028 C 
ATOM     12  C   LIG d   1      -1.177  87.310 117.720  0.00  0.00     0.006 C 
ENDBRANCH   8  11
ENDBRANCH   7   8
ENDBRANCH   1   7
BRANCH   6  13
ATOM     13  N   LIG d   1      -2.776  92.714 119.165  0.00  0.00    -0.311 N 
ATOM     14  C   LIG d   1      -1.896  93.714 119.176  0.00  0.00     0.210 C 
ATOM     15  C   LIG d   1      -1.381  94.106 120.564  0.00  0.00     0.109 C 
ATOM     16  O   LIG d   1      -1.519  94.334 118.171  0.00  0.00    -0.276 OA
ATOM     17  H   LIG d   1      -3.050  92.289 120.029  0.00  0.00     0.149 HD
ENDBRANCH   6  13
BRANCH   5  18
ATOM     18  N   LIG d   1      -5.360  93.732 117.893  0.00  0.00     0.381 N 
ATOM     19  H   LIG d   1      -4.682  94.297 117.421  0.00  0.00    -0.090 HD
ATOM     20  H   LIG d   1      -5.433  94.054 118.842  0.00  0.00    -0.090 HD
ATOM     21  H   LIG d   1      -6.243  93.811 117.439  0.00  0.00    -0.090 HD
ENDBRANCH   5  18
BRANCH   3  22
ATOM     22  C   LIG d   1      -5.836  89.455 115.790  0.00  0.00     0.382 C 
ATOM     23  O   LIG d   1      -5.572  89.114 114.612  0.00  0.00    -0.241 OA
ATOM     24  O   LIG d   1      -6.866  89.020 116.338  0.00  0.00    -0.241 OA
ENDBRANCH   3  22
TORSDOF 7
ENDMDL
MODEL 9
REMARK VINA RESULT:      -5.3      2.155      4.343
REMARK  7 active torsions:
REMARK  status: ('A' for Active; 'I' for Inactive)
REMARK    1  A    between atoms: C_2  and  C_3 
REMARK    2  A    between atoms: C_3  and  O_6 
REMARK    3  A    between atoms: C_3  and  C_4 
REMARK    4  A    between atoms: C_7  and  O_6 
REMARK    5  A    between atoms: C_9  and  C_10 
REMARK    6  A    between atoms: N_15  and  C_14 
REMARK    7  A    between atoms: N_20  and  C_19 
REMARK       I    between atoms: C_22  and  N_20 
ROOT
ATOM      1  C   LIG d   1      -5.396  77.659 116.780  0.00  0.00     0.161 C 
ATOM      2  C   LIG d   1      -6.717  77.835 117.227  0.00  0.00     0.016 C 
ATOM      3  C   LIG d   1      -7.689  76.808 117.205  0.00  0.00     0.038 C 
ATOM      4  C   LIG d   1      -7.362  75.485 116.874  0.00  0.00     0.028 C 
ATOM      5  C   LIG d   1      -6.165  75.373 115.936  0.00  0.00    -0.047 C 
ATOM      6  C   LIG d   1      -4.992  76.193 116.519  0.00  0.00     0.091 C 
ENDROOT
BRANCH   1   7
ATOM      7  O   LIG d   1      -4.481  78.274 117.708  0.00  0.00    -0.368 OA
BRANCH   7   8
ATOM      8  C   LIG d   1      -4.080  79.632 117.402  0.00  0.00     0.119 C 
BRANCH   8   9
ATOM      9  C   LIG d   1      -2.694  79.567 116.732  0.00  0.00     0.028 C 
ATOM     10  C   LIG d   1      -2.756  79.875 115.226  0.00  0.00     0.006 C 
ENDBRANCH   8   9
BRANCH   8  11
ATOM     11  C   LIG d   1      -3.874  80.453 118.679  0.00  0.00     0.028 C 
ATOM     12  C   LIG d   1      -5.197  80.829 119.366  0.00  0.00     0.006 C 
ENDBRANCH   8  11
ENDBRANCH   7   8
ENDBRANCH   1   7
BRANCH   6  13
ATOM     13  N   LIG d   1      -3.807  76.206 115.622  0.00  0.00    -0.311 N 
ATOM     14  C   LIG d   1      -2.639  75.653 115.941  0.00  0.00     0.210 C 
ATOM     15  C   LIG d   1      -1.543  75.797 114.880  0.00  0.00     0.109 C 
ATOM     16  O   LIG d   1      -2.415  75.029 116.989  0.00  0.00    -0.276 OA
ATOM     17  H   LIG d   1      -3.910  76.664 114.737  0.00  0.00     0.149 HD
ENDBRANCH   6  13
BRANCH   5  18
ATOM     18  N   LIG d   1      -5.850  73.940 115.784  0.00  0.00     0.381 N 
ATOM     19  H   LIG d   1      -6.553  73.495 115.229  0.00  0.00    -0.090 HD
ATOM     20  H   LIG d   1      -5.846  73.510 116.692  0.00  0.00    -0.090 HD
ATOM     21  H   LIG d   1      -4.958  73.830 115.354  0.00  0.00    -0.090 HD
ENDBRANCH   5  18
BRANCH   3  22
ATOM     22  C   LIG d   1      -9.014  77.111 117.480  0.00  0.00     0.382 C 
ATOM     23  O   LIG d   1      -9.317  78.237 117.943  0.00  0.00    -0.241 OA
ATOM     24  O   LIG d   1      -9.904  76.256 117.312  0.00  0.00    -0.241 OA
ENDBRANCH   3  22
TORSDOF 7
ENDMDL
