MODEL 1
REMARK VINA RESULT:      -5.3      0.000      0.000
REMARK  7 active torsions:
REMARK  status: ('A' for Active; 'I' for Inactive)
REMARK    1  A    between atoms: C_2  and  C_3 
REMARK    2  A    between atoms: C_3  and  O_6 
REMARK    3  A    between atoms: C_3  and  C_4 
REMARK    4  A    between atoms: C_7  and  O_6 
REMARK    5  A    between atoms: C_9  and  C_10 
REMARK    6  A    between atoms: N_15  and  C_14 
REMARK    7  A    between atoms: N_20  and  C_19 
REMARK       I    between atoms: C_22  and  N_20 
ROOT
ATOM      1  C   LIG d   1      -8.211  75.427 118.713  0.00  0.00     0.161 C 
ATOM      2  C   LIG d   1      -7.931  74.234 118.027  0.00  0.00     0.016 C 
ATOM      3  C   LIG d   1      -8.908  73.495 117.320  0.00  0.00     0.038 C 
ATOM      4  C   LIG d   1     -10.209  73.983 117.124  0.00  0.00     0.028 C 
ATOM      5  C   LIG d   1     -10.670  74.935 118.223  0.00  0.00    -0.047 C 
ATOM      6  C   LIG d   1      -9.600  76.033 118.417  0.00  0.00     0.091 C 
ENDROOT
BRANCH   1   7
ATOM      7  O   LIG d   1      -7.176  76.396 118.451  0.00  0.00    -0.368 OA
BRANCH   7   8
ATOM      8  C   LIG d   1      -7.314  77.161 117.228  0.00  0.00     0.119 C 
BRANCH   8   9
ATOM      9  C   LIG d   1      -6.175  76.732 116.283  0.00  0.00     0.028 C 
ATOM     10  C   LIG d   1      -6.692  75.977 115.046  0.00  0.00     0.006 C 
ENDBRANCH   8   9
BRANCH   8  11
ATOM     11  C   LIG d   1      -7.092  78.655 117.478  0.00  0.00     0.028 C 
ATOM     12  C   LIG d   1      -6.680  78.963 118.926  0.00  0.00     0.006 C 
ENDBRANCH   8  11
ENDBRANCH   7   8
ENDBRANCH   1   7
BRANCH   6  13
ATOM     13  N   LIG d   1      -9.933  76.958 119.532  0.00  0.00    -0.311 N 
ATOM     14  C   LIG d   1     -10.298  78.226 119.347  0.00  0.00     0.210 C 
ATOM     15  C   LIG d   1     -10.578  79.011 120.632  0.00  0.00     0.109 C 
ATOM     16  O   LIG d   1     -10.447  78.765 118.241  0.00  0.00    -0.276 OA
ATOM     17  H   LIG d   1      -9.868  76.594 120.462  0.00  0.00     0.149 HD
ENDBRANCH   6  13
BRANCH   5  18
ATOM     18  N   LIG d   1     -11.984  75.473 117.823  0.00  0.00     0.381 N 
ATOM     19  H   LIG d   1     -12.705  75.050 118.373  0.00  0.00    -0.090 HD
ATOM     20  H   LIG d   1     -12.149  75.245 116.858  0.00  0.00    -0.090 HD
ATOM     21  H   LIG d   1     -11.999  76.462 117.945  0.00  0.00    -0.090 HD
ENDBRANCH   5  18
BRANCH   3  22
ATOM     22  C   LIG d   1      -8.598  72.234 116.835  0.00  0.00     0.382 C 
ATOM     23  O   LIG d   1      -9.508  71.389 116.656  0.00  0.00    -0.241 OA
ATOM     24  O   LIG d   1      -7.414  71.915 116.615  0.00  0.00    -0.241 OA
ENDBRANCH   3  22
TORSDOF 7
ENDMDL
MODEL 2
REMARK VINA RESULT:      -5.2      1.983      2.825
REMARK  7 active torsions:
REMARK  status: ('A' for Active; 'I' for Inactive)
REMARK    1  A    between atoms: C_2  and  C_3 
REMARK    2  A    between atoms: C_3  and  O_6 
REMARK    3  A    between atoms: C_3  and  C_4 
REMARK    4  A    between atoms: C_7  and  O_6 
REMARK    5  A    between atoms: C_9  and  C_10 
REMARK    6  A    between atoms: N_15  and  C_14 
REMARK    7  A    between atoms: N_20  and  C_19 
REMARK       I    between atoms: C_22  and  N_20 
ROOT
ATOM      1  C   LIG d   1      -8.158  76.284 117.255  0.00  0.00     0.161 C 
ATOM      2  C   LIG d   1      -9.023  75.229 116.917  0.00  0.00     0.016 C 
ATOM      3  C   LIG d   1     -10.346  75.121 117.404  0.00  0.00     0.038 C 
ATOM      4  C   LIG d   1     -10.948  76.146 118.148  0.00  0.00     0.028 C 
ATOM      5  C   LIG d   1      -9.951  76.991 118.933  0.00  0.00    -0.047 C 
ATOM      6  C   LIG d   1      -8.835  77.468 117.976  0.00  0.00     0.091 C 
ENDROOT
BRANCH   1   7
ATOM      7  O   LIG d   1      -7.465  76.744 116.078  0.00  0.00    -0.368 OA
BRANCH   7   8
ATOM      8  C   LIG d   1      -6.029  76.546 116.067  0.00  0.00     0.119 C 
BRANCH   8   9
ATOM      9  C   LIG d   1      -5.713  75.511 114.969  0.00  0.00     0.028 C 
ATOM     10  C   LIG d   1      -5.647  74.076 115.517  0.00  0.00     0.006 C 
ENDBRANCH   8   9
BRANCH   8  11
ATOM     11  C   LIG d   1      -5.543  75.912 117.373  0.00  0.00     0.028 C 
ATOM     12  C   LIG d   1      -4.464  76.750 118.077  0.00  0.00     0.006 C 
ENDBRANCH   8  11
ENDBRANCH   7   8
ENDBRANCH   1   7
BRANCH   6  13
ATOM     13  N   LIG d   1      -7.772  78.232 118.681  0.00  0.00    -0.311 N 
ATOM     14  C   LIG d   1      -7.340  79.427 118.281  0.00  0.00     0.210 C 
ATOM     15  C   LIG d   1      -6.224  80.031 119.139  0.00  0.00     0.109 C 
ATOM     16  O   LIG d   1      -7.798  80.058 117.317  0.00  0.00    -0.276 OA
ATOM     17  H   LIG d   1      -7.367  77.807 119.492  0.00  0.00     0.149 HD
ENDBRANCH   6  13
BRANCH   5  18
ATOM     18  N   LIG d   1     -10.698  78.103 119.551  0.00  0.00     0.381 N 
ATOM     19  H   LIG d   1     -10.555  78.941 119.023  0.00  0.00    -0.090 HD
ATOM     20  H   LIG d   1     -10.348  78.252 120.481  0.00  0.00    -0.090 HD
ATOM     21  H   LIG d   1     -11.669  77.884 119.584  0.00  0.00    -0.090 HD
ENDBRANCH   5  18
BRANCH   3  22
ATOM     22  C   LIG d   1     -11.067  73.958 117.181  0.00  0.00     0.382 C 
ATOM     23  O   LIG d   1     -12.288  73.914 117.463  0.00  0.00    -0.241 OA
ATOM     24  O   LIG d   1     -10.502  72.938 116.742  0.00  0.00    -0.241 OA
ENDBRANCH   3  22
TORSDOF 7
ENDMDL
MODEL 3
REMARK VINA RESULT:      -5.2      2.350      5.352
REMARK  7 active torsions:
REMARK  status: ('A' for Active; 'I' for Inactive)
REMARK    1  A    between atoms: C_2  and  C_3 
REMARK    2  A    between atoms: C_3  and  O_6 
REMARK    3  A    between atoms: C_3  and  C_4 
REMARK    4  A    between atoms: C_7  and  O_6 
REMARK    5  A    between atoms: C_9  and  C_10 
REMARK    6  A    between atoms: N_15  and  C_14 
REMARK    7  A    between atoms: N_20  and  C_19 
REMARK       I    between atoms: C_22  and  N_20 
ROOT
ATOM      1  C   LIG d   1      -8.848  77.803 117.868  0.00  0.00     0.161 C 
ATOM      2  C   LIG d   1      -7.844  78.732 117.550  0.00  0.00     0.016 C 
ATOM      3  C   LIG d   1      -7.804  80.045 118.074  0.00  0.00     0.038 C 
ATOM      4  C   LIG d   1      -8.689  80.470 119.076  0.00  0.00     0.028 C 
ATOM      5  C   LIG d   1     -10.025  79.734 119.057  0.00  0.00    -0.047 C 
ATOM      6  C   LIG d   1      -9.758  78.212 119.045  0.00  0.00     0.091 C 
ENDROOT
BRANCH   1   7
ATOM      7  O   LIG d   1      -8.257  76.512 118.117  0.00  0.00    -0.368 OA
BRANCH   7   8
ATOM      8  C   LIG d   1      -8.361  75.545 117.043  0.00  0.00     0.119 C 
BRANCH   8   9
ATOM      9  C   LIG d   1      -8.959  74.255 117.637  0.00  0.00     0.028 C 
ATOM     10  C   LIG d   1     -10.349  73.935 117.064  0.00  0.00     0.006 C 
ENDBRANCH   8   9
BRANCH   8  11
ATOM     11  C   LIG d   1      -6.979  75.147 116.516  0.00  0.00     0.028 C 
ATOM     12  C   LIG d   1      -6.589  75.903 115.235  0.00  0.00     0.006 C 
ENDBRANCH   8  11
ENDBRANCH   7   8
ENDBRANCH   1   7
BRANCH   6  13
ATOM     13  N   LIG d   1     -11.011  77.418 118.941  0.00  0.00    -0.311 N 
ATOM     14  C   LIG d   1     -11.283  76.374 119.722  0.00  0.00     0.210 C 
ATOM     15  C   LIG d   1     -12.621  75.684 119.435  0.00  0.00     0.109 C 
ATOM     16  O   LIG d   1     -10.560  75.974 120.646  0.00  0.00    -0.276 OA
ATOM     17  H   LIG d   1     -11.668  77.693 118.238  0.00  0.00     0.149 HD
ENDBRANCH   6  13
BRANCH   5  18
ATOM     18  N   LIG d   1     -10.795  80.177 120.235  0.00  0.00     0.381 N 
ATOM     19  H   LIG d   1     -11.395  80.937 119.981  0.00  0.00    -0.090 HD
ATOM     20  H   LIG d   1     -10.155  80.502 120.938  0.00  0.00    -0.090 HD
ATOM     21  H   LIG d   1     -11.337  79.421 120.592  0.00  0.00    -0.090 HD
ENDBRANCH   5  18
BRANCH   3  22
ATOM     22  C   LIG d   1      -6.896  80.961 117.565  0.00  0.00     0.382 C 
ATOM     23  O   LIG d   1      -7.285  81.861 116.782  0.00  0.00    -0.241 OA
ATOM     24  O   LIG d   1      -5.686  80.872 117.844  0.00  0.00    -0.241 OA
ENDBRANCH   3  22
TORSDOF 7
ENDMDL
MODEL 4
REMARK VINA RESULT:      -5.2     15.481     18.094
REMARK  7 active torsions:
REMARK  status: ('A' for Active; 'I' for Inactive)
REMARK    1  A    between atoms: C_2  and  C_3 
REMARK    2  A    between atoms: C_3  and  O_6 
REMARK    3  A    between atoms: C_3  and  C_4 
REMARK    4  A    between atoms: C_7  and  O_6 
REMARK    5  A    between atoms: C_9  and  C_10 
REMARK    6  A    between atoms: N_15  and  C_14 
REMARK    7  A    between atoms: N_20  and  C_19 
REMARK       I    between atoms: C_22  and  N_20 
ROOT
ATOM      1  C   LIG d   1      -4.939  92.980 117.647  0.00  0.00     0.161 C 
ATOM      2  C   LIG d   1      -5.032  91.846 116.823  0.00  0.00     0.016 C 
ATOM      3  C   LIG d   1      -6.156  91.561 116.014  0.00  0.00     0.038 C 
ATOM      4  C   LIG d   1      -7.208  92.476 115.858  0.00  0.00     0.028 C 
ATOM      5  C   LIG d   1      -7.390  93.399 117.058  0.00  0.00    -0.047 C 
ATOM      6  C   LIG d   1      -6.029  94.045 117.406  0.00  0.00     0.091 C 
ENDROOT
BRANCH   1   7
ATOM      7  O   LIG d   1      -3.629  93.567 117.524  0.00  0.00    -0.368 OA
BRANCH   7   8
ATOM      8  C   LIG d   1      -2.619  93.067 118.435  0.00  0.00     0.119 C 
BRANCH   8   9
ATOM      9  C   LIG d   1      -3.210  93.122 119.857  0.00  0.00     0.028 C 
ATOM     10  C   LIG d   1      -3.006  94.493 120.525  0.00  0.00     0.006 C 
ENDBRANCH   8   9
BRANCH   8  11
ATOM     11  C   LIG d   1      -1.395  93.987 118.469  0.00  0.00     0.028 C 
ATOM     12  C   LIG d   1      -0.717  94.128 117.096  0.00  0.00     0.006 C 
ENDBRANCH   8  11
ENDBRANCH   7   8
ENDBRANCH   1   7
BRANCH   6  13
ATOM     13  N   LIG d   1      -6.100  94.898 118.620  0.00  0.00    -0.311 N 
ATOM     14  C   LIG d   1      -6.429  96.189 118.591  0.00  0.00     0.210 C 
ATOM     15  C   LIG d   1      -6.423  96.888 119.954  0.00  0.00     0.109 C 
ATOM     16  O   LIG d   1      -6.757  96.812 117.571  0.00  0.00    -0.276 OA
ATOM     17  H   LIG d   1      -5.880  94.465 119.496  0.00  0.00     0.149 HD
ENDBRANCH   6  13
BRANCH   5  18
ATOM     18  N   LIG d   1      -8.426  94.389 116.706  0.00  0.00     0.381 N 
ATOM     19  H   LIG d   1      -8.680  94.917 117.517  0.00  0.00    -0.090 HD
ATOM     20  H   LIG d   1      -9.242  93.902 116.378  0.00  0.00    -0.090 HD
ATOM     21  H   LIG d   1      -8.087  94.999 115.996  0.00  0.00    -0.090 HD
ENDBRANCH   5  18
BRANCH   3  22
ATOM     22  C   LIG d   1      -6.253  90.331 115.381  0.00  0.00     0.382 C 
ATOM     23  O   LIG d   1      -7.361  89.746 115.314  0.00  0.00    -0.241 OA
ATOM     24  O   LIG d   1      -5.239  89.779 114.914  0.00  0.00    -0.241 OA
ENDBRANCH   3  22
TORSDOF 7
ENDMDL
MODEL 5
REMARK VINA RESULT:      -5.1     15.477     17.509
REMARK  7 active torsions:
REMARK  status: ('A' for Active; 'I' for Inactive)
REMARK    1  A    between atoms: C_2  and  C_3 
REMARK    2  A    between atoms: C_3  and  O_6 
REMARK    3  A    between atoms: C_3  and  C_4 
REMARK    4  A    between atoms: C_7  and  O_6 
REMARK    5  A    between atoms: C_9  and  C_10 
REMARK    6  A    between atoms: N_15  and  C_14 
REMARK    7  A    between atoms: N_20  and  C_19 
REMARK       I    between atoms: C_22  and  N_20 
ROOT
ATOM      1  C   LIG d   1      -4.835  92.038 117.915  0.00  0.00     0.161 C 
ATOM      2  C   LIG d   1      -5.444  91.279 116.902  0.00  0.00     0.016 C 
ATOM      3  C   LIG d   1      -6.416  91.800 116.017  0.00  0.00     0.038 C 
ATOM      4  C   LIG d   1      -6.736  93.165 115.988  0.00  0.00     0.028 C 
ATOM      5  C   LIG d   1      -6.518  93.867 117.324  0.00  0.00    -0.047 C 
ATOM      6  C   LIG d   1      -5.089  93.557 117.826  0.00  0.00     0.091 C 
ENDROOT
BRANCH   1   7
ATOM      7  O   LIG d   1      -3.419  91.768 117.943  0.00  0.00    -0.368 OA
BRANCH   7   8
ATOM      8  C   LIG d   1      -2.913  91.141 119.147  0.00  0.00     0.119 C 
BRANCH   8   9
ATOM      9  C   LIG d   1      -1.484  91.668 119.378  0.00  0.00     0.028 C 
ATOM     10  C   LIG d   1      -1.081  92.741 118.352  0.00  0.00     0.006 C 
ENDBRANCH   8   9
BRANCH   8  11
ATOM     11  C   LIG d   1      -2.763  89.628 118.967  0.00  0.00     0.028 C 
ATOM     12  C   LIG d   1      -2.381  89.233 117.532  0.00  0.00     0.006 C 
ENDBRANCH   8  11
ENDBRANCH   7   8
ENDBRANCH   1   7
BRANCH   6  13
ATOM     13  N   LIG d   1      -4.822  94.137 119.168  0.00  0.00    -0.311 N 
ATOM     14  C   LIG d   1      -3.893  95.064 119.395  0.00  0.00     0.210 C 
ATOM     15  C   LIG d   1      -3.767  95.511 120.855  0.00  0.00     0.109 C 
ATOM     16  O   LIG d   1      -3.182  95.581 118.520  0.00  0.00    -0.276 OA
ATOM     17  H   LIG d   1      -5.375  93.796 119.931  0.00  0.00     0.149 HD
ENDBRANCH   6  13
BRANCH   5  18
ATOM     18  N   LIG d   1      -6.757  95.308 117.115  0.00  0.00     0.381 N 
ATOM     19  H   LIG d   1      -7.508  95.436 116.466  0.00  0.00    -0.090 HD
ATOM     20  H   LIG d   1      -5.929  95.722 116.725  0.00  0.00    -0.090 HD
ATOM     21  H   LIG d   1      -6.980  95.746 117.982  0.00  0.00    -0.090 HD
ENDBRANCH   5  18
BRANCH   3  22
ATOM     22  C   LIG d   1      -7.109  90.943 115.175  0.00  0.00     0.382 C 
ATOM     23  O   LIG d   1      -8.157  91.334 114.607  0.00  0.00    -0.241 OA
ATOM     24  O   LIG d   1      -6.723  89.770 115.012  0.00  0.00    -0.241 OA
ENDBRANCH   3  22
TORSDOF 7
ENDMDL
MODEL 6
REMARK VINA RESULT:      -5.1      1.987      4.180
REMARK  7 active torsions:
REMARK  status: ('A' for Active; 'I' for Inactive)
REMARK    1  A    between atoms: C_2  and  C_3 
REMARK    2  A    between atoms: C_3  and  O_6 
REMARK    3  A    between atoms: C_3  and  C_4 
REMARK    4  A    between atoms: C_7  and  O_6 
REMARK    5  A    between atoms: C_9  and  C_10 
REMARK    6  A    between atoms: N_15  and  C_14 
REMARK    7  A    between atoms: N_20  and  C_19 
REMARK       I    between atoms: C_22  and  N_20 
ROOT
ATOM      1  C   LIG d   1      -8.789  75.345 117.642  0.00  0.00     0.161 C 
ATOM      2  C   LIG d   1      -8.837  73.959 117.421  0.00  0.00     0.016 C 
ATOM      3  C   LIG d   1      -7.733  73.206 116.958  0.00  0.00     0.038 C 
ATOM      4  C   LIG d   1      -6.454  73.768 116.829  0.00  0.00     0.028 C 
ATOM      5  C   LIG d   1      -6.477  75.269 116.557  0.00  0.00    -0.047 C 
ATOM      6  C   LIG d   1      -7.372  75.956 117.613  0.00  0.00     0.091 C 
ENDROOT
BRANCH   1   7
ATOM      7  O   LIG d   1      -9.447  75.665 118.884  0.00  0.00    -0.368 OA
BRANCH   7   8
ATOM      8  C   LIG d   1     -10.611  76.521 118.787  0.00  0.00     0.119 C 
BRANCH   8   9
ATOM      9  C   LIG d   1     -10.418  77.680 119.784  0.00  0.00     0.028 C 
ATOM     10  C   LIG d   1     -10.314  79.045 119.083  0.00  0.00     0.006 C 
ENDBRANCH   8   9
BRANCH   8  11
ATOM     11  C   LIG d   1     -11.877  75.794 119.250  0.00  0.00     0.028 C 
ATOM     12  C   LIG d   1     -12.452  74.856 118.178  0.00  0.00     0.006 C 
ENDBRANCH   8  11
ENDBRANCH   7   8
ENDBRANCH   1   7
BRANCH   6  13
ATOM     13  N   LIG d   1      -7.517  77.415 117.370  0.00  0.00    -0.311 N 
ATOM     14  C   LIG d   1      -6.724  78.333 117.922  0.00  0.00     0.210 C 
ATOM     15  C   LIG d   1      -7.059  79.782 117.554  0.00  0.00     0.109 C 
ATOM     16  O   LIG d   1      -5.756  78.082 118.655  0.00  0.00    -0.276 OA
ATOM     17  H   LIG d   1      -8.258  77.705 116.762  0.00  0.00     0.149 HD
ENDBRANCH   6  13
BRANCH   5  18
ATOM     18  N   LIG d   1      -5.082  75.747 116.582  0.00  0.00     0.381 N 
ATOM     19  H   LIG d   1      -4.491  75.047 116.984  0.00  0.00    -0.090 HD
ATOM     20  H   LIG d   1      -5.031  76.571 117.156  0.00  0.00    -0.090 HD
ATOM     21  H   LIG d   1      -4.777  75.959 115.658  0.00  0.00    -0.090 HD
ENDBRANCH   5  18
BRANCH   3  22
ATOM     22  C   LIG d   1      -7.912  71.884 116.581  0.00  0.00     0.382 C 
ATOM     23  O   LIG d   1      -6.981  71.261 116.017  0.00  0.00    -0.241 OA
ATOM     24  O   LIG d   1      -9.008  71.319 116.759  0.00  0.00    -0.241 OA
ENDBRANCH   3  22
TORSDOF 7
ENDMDL
MODEL 7
REMARK VINA RESULT:      -5.0      2.832      6.421
REMARK  7 active torsions:
REMARK  status: ('A' for Active; 'I' for Inactive)
REMARK    1  A    between atoms: C_2  and  C_3 
REMARK    2  A    between atoms: C_3  and  O_6 
REMARK    3  A    between atoms: C_3  and  C_4 
REMARK    4  A    between atoms: C_7  and  O_6 
REMARK    5  A    between atoms: C_9  and  C_10 
REMARK    6  A    between atoms: N_15  and  C_14 
REMARK    7  A    between atoms: N_20  and  C_19 
REMARK       I    between atoms: C_22  and  N_20 
ROOT
ATOM      1  C   LIG d   1      -8.087  77.718 117.898  0.00  0.00     0.161 C 
ATOM      2  C   LIG d   1      -8.947  78.786 118.201  0.00  0.00     0.016 C 
ATOM      3  C   LIG d   1      -8.567  80.144 118.097  0.00  0.00     0.038 C 
ATOM      4  C   LIG d   1      -7.342  80.530 117.534  0.00  0.00     0.028 C 
ATOM      5  C   LIG d   1      -6.248  79.479 117.684  0.00  0.00    -0.047 C 
ATOM      6  C   LIG d   1      -6.784  78.121 117.177  0.00  0.00     0.091 C 
ENDROOT
BRANCH   1   7
ATOM      7  O   LIG d   1      -8.795  76.722 117.134  0.00  0.00    -0.368 OA
BRANCH   7   8
ATOM      8  C   LIG d   1      -9.482  75.701 117.899  0.00  0.00     0.119 C 
BRANCH   8   9
ATOM      9  C   LIG d   1      -8.416  74.716 118.417  0.00  0.00     0.028 C 
ATOM     10  C   LIG d   1      -7.740  73.932 117.280  0.00  0.00     0.006 C 
ENDBRANCH   8   9
BRANCH   8  11
ATOM     11  C   LIG d   1     -10.408  74.866 117.009  0.00  0.00     0.028 C 
ATOM     12  C   LIG d   1     -11.727  74.495 117.705  0.00  0.00     0.006 C 
ENDBRANCH   8  11
ENDBRANCH   7   8
ENDBRANCH   1   7
BRANCH   6  13
ATOM     13  N   LIG d   1      -5.805  77.019 117.366  0.00  0.00    -0.311 N 
ATOM     14  C   LIG d   1      -4.971  76.607 116.413  0.00  0.00     0.210 C 
ATOM     15  C   LIG d   1      -4.058  75.443 116.811  0.00  0.00     0.109 C 
ATOM     16  O   LIG d   1      -4.878  77.116 115.286  0.00  0.00    -0.276 OA
ATOM     17  H   LIG d   1      -5.791  76.570 118.261  0.00  0.00     0.149 HD
ENDBRANCH   6  13
BRANCH   5  18
ATOM     18  N   LIG d   1      -5.069  79.952 116.934  0.00  0.00     0.381 N 
ATOM     19  H   LIG d   1      -4.651  79.188 116.443  0.00  0.00    -0.090 HD
ATOM     20  H   LIG d   1      -4.395  80.315 117.585  0.00  0.00    -0.090 HD
ATOM     21  H   LIG d   1      -5.337  80.664 116.291  0.00  0.00    -0.090 HD
ENDBRANCH   5  18
BRANCH   3  22
ATOM     22  C   LIG d   1      -9.403  81.132 118.596  0.00  0.00     0.382 C 
ATOM     23  O   LIG d   1      -9.989  80.962 119.692  0.00  0.00    -0.241 OA
ATOM     24  O   LIG d   1      -9.613  82.171 117.943  0.00  0.00    -0.241 OA
ENDBRANCH   3  22
TORSDOF 7
ENDMDL
MODEL 8
REMARK VINA RESULT:      -5.0      2.146      5.167
REMARK  7 active torsions:
REMARK  status: ('A' for Active; 'I' for Inactive)
REMARK    1  A    between atoms: C_2  and  C_3 
REMARK    2  A    between atoms: C_3  and  O_6 
REMARK    3  A    between atoms: C_3  and  C_4 
REMARK    4  A    between atoms: C_7  and  O_6 
REMARK    5  A    between atoms: C_9  and  C_10 
REMARK    6  A    between atoms: N_15  and  C_14 
REMARK    7  A    between atoms: N_20  and  C_19 
REMARK       I    between atoms: C_22  and  N_20 
ROOT
ATOM      1  C   LIG d   1      -7.652  76.733 117.275  0.00  0.00     0.161 C 
ATOM      2  C   LIG d   1      -6.754  77.811 117.343  0.00  0.00     0.016 C 
ATOM      3  C   LIG d   1      -7.063  79.044 117.961  0.00  0.00     0.038 C 
ATOM      4  C   LIG d   1      -8.247  79.232 118.690  0.00  0.00     0.028 C 
ATOM      5  C   LIG d   1      -9.395  78.346 118.220  0.00  0.00    -0.047 C 
ATOM      6  C   LIG d   1      -8.906  76.880 118.162  0.00  0.00     0.091 C 
ENDROOT
BRANCH   1   7
ATOM      7  O   LIG d   1      -6.964  75.504 117.580  0.00  0.00    -0.368 OA
BRANCH   7   8
ATOM      8  C   LIG d   1      -7.128  74.428 116.624  0.00  0.00     0.119 C 
BRANCH   8   9
ATOM      9  C   LIG d   1      -7.674  73.207 117.389  0.00  0.00     0.028 C 
ATOM     10  C   LIG d   1      -7.582  71.910 116.567  0.00  0.00     0.006 C 
ENDBRANCH   8   9
BRANCH   8  11
ATOM     11  C   LIG d   1      -5.779  73.979 116.054  0.00  0.00     0.028 C 
ATOM     12  C   LIG d   1      -5.394  74.731 114.770  0.00  0.00     0.006 C 
ENDBRANCH   8  11
ENDBRANCH   7   8
ENDBRANCH   1   7
BRANCH   6  13
ATOM     13  N   LIG d   1      -9.943  75.958 117.631  0.00  0.00    -0.311 N 
ATOM     14  C   LIG d   1     -10.783  75.274 118.406  0.00  0.00     0.210 C 
ATOM     15  C   LIG d   1     -11.761  74.364 117.656  0.00  0.00     0.109 C 
ATOM     16  O   LIG d   1     -10.833  75.359 119.643  0.00  0.00    -0.276 OA
ATOM     17  H   LIG d   1      -9.994  75.852 116.636  0.00  0.00     0.149 HD
ENDBRANCH   6  13
BRANCH   5  18
ATOM     18  N   LIG d   1     -10.521  78.543 119.152  0.00  0.00     0.381 N 
ATOM     19  H   LIG d   1     -10.836  77.658 119.495  0.00  0.00    -0.090 HD
ATOM     20  H   LIG d   1     -11.280  78.978 118.657  0.00  0.00    -0.090 HD
ATOM     21  H   LIG d   1     -10.237  79.121 119.912  0.00  0.00    -0.090 HD
ENDBRANCH   5  18
BRANCH   3  22
ATOM     22  C   LIG d   1      -6.200  80.120 117.818  0.00  0.00     0.382 C 
ATOM     23  O   LIG d   1      -5.706  80.667 118.833  0.00  0.00    -0.241 OA
ATOM     24  O   LIG d   1      -5.944  80.579 116.689  0.00  0.00    -0.241 OA
ENDBRANCH   3  22
TORSDOF 7
ENDMDL
MODEL 9
REMARK VINA RESULT:      -5.0      2.761      4.393
REMARK  7 active torsions:
REMARK  status: ('A' for Active; 'I' for Inactive)
REMARK    1  A    between atoms: C_2  and  C_3 
REMARK    2  A    between atoms: C_3  and  O_6 
REMARK    3  A    between atoms: C_3  and  C_4 
REMARK    4  A    between atoms: C_7  and  O_6 
REMARK    5  A    between atoms: C_9  and  C_10 
REMARK    6  A    between atoms: N_15  and  C_14 
REMARK    7  A    between atoms: N_20  and  C_19 
REMARK       I    between atoms: C_22  and  N_20 
ROOT
ATOM      1  C   LIG d   1      -7.685  76.889 117.231  0.00  0.00     0.161 C 
ATOM      2  C   LIG d   1      -9.046  76.707 117.526  0.00  0.00     0.016 C 
ATOM      3  C   LIG d   1      -9.652  75.436 117.653  0.00  0.00     0.038 C 
ATOM      4  C   LIG d   1      -8.900  74.252 117.643  0.00  0.00     0.028 C 
ATOM      5  C   LIG d   1      -7.604  74.364 116.847  0.00  0.00    -0.047 C 
ATOM      6  C   LIG d   1      -6.826  75.610 117.327  0.00  0.00     0.091 C 
ENDROOT
BRANCH   1   7
ATOM      7  O   LIG d   1      -7.137  77.924 118.071  0.00  0.00    -0.368 OA
BRANCH   7   8
ATOM      8  C   LIG d   1      -6.797  79.168 117.410  0.00  0.00     0.119 C 
BRANCH   8   9
ATOM      9  C   LIG d   1      -5.379  79.561 117.865  0.00  0.00     0.028 C 
ATOM     10  C   LIG d   1      -4.340  79.415 116.740  0.00  0.00     0.006 C 
ENDBRANCH   8   9
BRANCH   8  11
ATOM     11  C   LIG d   1      -7.704  80.312 117.875  0.00  0.00     0.028 C 
ATOM     12  C   LIG d   1      -7.184  81.694 117.450  0.00  0.00     0.006 C 
ENDBRANCH   8  11
ENDBRANCH   7   8
ENDBRANCH   1   7
BRANCH   6  13
ATOM     13  N   LIG d   1      -5.586  75.841 116.542  0.00  0.00    -0.311 N 
ATOM     14  C   LIG d   1      -5.585  76.140 115.244  0.00  0.00     0.210 C 
ATOM     15  C   LIG d   1      -4.196  76.319 114.623  0.00  0.00     0.109 C 
ATOM     16  O   LIG d   1      -6.603  76.305 114.556  0.00  0.00    -0.276 OA
ATOM     17  H   LIG d   1      -4.715  75.758 117.029  0.00  0.00     0.149 HD
ENDBRANCH   6  13
BRANCH   5  18
ATOM     18  N   LIG d   1      -6.855  73.107 117.035  0.00  0.00     0.381 N 
ATOM     19  H   LIG d   1      -7.211  72.617 117.831  0.00  0.00    -0.090 HD
ATOM     20  H   LIG d   1      -5.890  73.326 117.205  0.00  0.00    -0.090 HD
ATOM     21  H   LIG d   1      -6.936  72.537 116.222  0.00  0.00    -0.090 HD
ENDBRANCH   5  18
BRANCH   3  22
ATOM     22  C   LIG d   1     -11.032  75.339 117.752  0.00  0.00     0.382 C 
ATOM     23  O   LIG d   1     -11.708  76.340 118.091  0.00  0.00    -0.241 OA
ATOM     24  O   LIG d   1     -11.605  74.251 117.551  0.00  0.00    -0.241 OA
ENDBRANCH   3  22
TORSDOF 7
ENDMDL
