MODEL 1
REMARK VINA RESULT:      -5.6      0.000      0.000
REMARK  7 active torsions:
REMARK  status: ('A' for Active; 'I' for Inactive)
REMARK    1  A    between atoms: C_2  and  C_3 
REMARK    2  A    between atoms: C_3  and  O_6 
REMARK    3  A    between atoms: C_3  and  C_4 
REMARK    4  A    between atoms: C_7  and  O_6 
REMARK    5  A    between atoms: C_9  and  C_10 
REMARK    6  A    between atoms: N_15  and  C_14 
REMARK    7  A    between atoms: N_20  and  C_19 
REMARK       I    between atoms: C_22  and  N_20 
ROOT
ATOM      1  C   LIG d   1      -5.444  73.422 116.442  0.00  0.00     0.161 C 
ATOM      2  C   LIG d   1      -5.175  74.304 115.382  0.00  0.00     0.016 C 
ATOM      3  C   LIG d   1      -6.042  75.355 115.006  0.00  0.00     0.038 C 
ATOM      4  C   LIG d   1      -7.173  75.692 115.766  0.00  0.00     0.028 C 
ATOM      5  C   LIG d   1      -7.751  74.516 116.545  0.00  0.00    -0.047 C 
ATOM      6  C   LIG d   1      -6.617  73.842 117.352  0.00  0.00     0.091 C 
ENDROOT
BRANCH   1   7
ATOM      7  O   LIG d   1      -4.250  73.221 117.225  0.00  0.00    -0.368 OA
BRANCH   7   8
ATOM      8  C   LIG d   1      -3.286  74.302 117.206  0.00  0.00     0.119 C 
BRANCH   8   9
ATOM      9  C   LIG d   1      -1.881  73.669 117.190  0.00  0.00     0.028 C 
ATOM     10  C   LIG d   1      -1.120  73.962 115.885  0.00  0.00     0.006 C 
ENDBRANCH   8   9
BRANCH   8  11
ATOM     11  C   LIG d   1      -3.345  75.124 118.497  0.00  0.00     0.028 C 
ATOM     12  C   LIG d   1      -4.092  76.455 118.321  0.00  0.00     0.006 C 
ENDBRANCH   8  11
ENDBRANCH   7   8
ENDBRANCH   1   7
BRANCH   6  13
ATOM     13  N   LIG d   1      -7.080  72.631 118.078  0.00  0.00    -0.311 N 
ATOM     14  C   LIG d   1      -7.454  71.508 117.467  0.00  0.00     0.210 C 
ATOM     15  C   LIG d   1      -7.916  70.386 118.402  0.00  0.00     0.109 C 
ATOM     16  O   LIG d   1      -7.417  71.324 116.241  0.00  0.00    -0.276 OA
ATOM     17  H   LIG d   1      -7.112  72.682 119.077  0.00  0.00     0.149 HD
ENDBRANCH   6  13
BRANCH   5  18
ATOM     18  N   LIG d   1      -8.836  75.036 117.398  0.00  0.00     0.381 N 
ATOM     19  H   LIG d   1      -9.200  74.301 117.970  0.00  0.00    -0.090 HD
ATOM     20  H   LIG d   1      -9.577  75.375 116.809  0.00  0.00    -0.090 HD
ATOM     21  H   LIG d   1      -8.494  75.775 117.972  0.00  0.00    -0.090 HD
ENDBRANCH   5  18
BRANCH   3  22
ATOM     22  C   LIG d   1      -5.803  76.057 113.834  0.00  0.00     0.382 C 
ATOM     23  O   LIG d   1      -4.630  76.373 113.521  0.00  0.00    -0.241 OA
ATOM     24  O   LIG d   1      -6.750  76.418 113.109  0.00  0.00    -0.241 OA
ENDBRANCH   3  22
TORSDOF 7
ENDMDL
MODEL 2
REMARK VINA RESULT:      -5.4      2.212      4.715
REMARK  7 active torsions:
REMARK  status: ('A' for Active; 'I' for Inactive)
REMARK    1  A    between atoms: C_2  and  C_3 
REMARK    2  A    between atoms: C_3  and  O_6 
REMARK    3  A    between atoms: C_3  and  C_4 
REMARK    4  A    between atoms: C_7  and  O_6 
REMARK    5  A    between atoms: C_9  and  C_10 
REMARK    6  A    between atoms: N_15  and  C_14 
REMARK    7  A    between atoms: N_20  and  C_19 
REMARK       I    between atoms: C_22  and  N_20 
ROOT
ATOM      1  C   LIG d   1      -6.702  74.714 117.574  0.00  0.00     0.161 C 
ATOM      2  C   LIG d   1      -6.677  73.321 117.753  0.00  0.00     0.016 C 
ATOM      3  C   LIG d   1      -7.809  72.493 117.572  0.00  0.00     0.038 C 
ATOM      4  C   LIG d   1      -9.013  72.987 117.049  0.00  0.00     0.028 C 
ATOM      5  C   LIG d   1      -9.234  74.469 117.333  0.00  0.00    -0.047 C 
ATOM      6  C   LIG d   1      -7.977  75.256 116.896  0.00  0.00     0.091 C 
ENDROOT
BRANCH   1   7
ATOM      7  O   LIG d   1      -5.530  75.134 116.846  0.00  0.00    -0.368 OA
BRANCH   7   8
ATOM      8  C   LIG d   1      -4.802  74.090 116.154  0.00  0.00     0.119 C 
BRANCH   8   9
ATOM      9  C   LIG d   1      -3.299  74.367 116.349  0.00  0.00     0.028 C 
ATOM     10  C   LIG d   1      -2.713  73.609 117.551  0.00  0.00     0.006 C 
ENDBRANCH   8   9
BRANCH   8  11
ATOM     11  C   LIG d   1      -5.034  74.157 114.642  0.00  0.00     0.028 C 
ATOM     12  C   LIG d   1      -5.515  75.539 114.173  0.00  0.00     0.006 C 
ENDBRANCH   8  11
ENDBRANCH   7   8
ENDBRANCH   1   7
BRANCH   6  13
ATOM     13  N   LIG d   1      -8.076  76.704 117.216  0.00  0.00    -0.311 N 
ATOM     14  C   LIG d   1      -8.258  77.172 118.449  0.00  0.00     0.210 C 
ATOM     15  C   LIG d   1      -8.352  78.697 118.556  0.00  0.00     0.109 C 
ATOM     16  O   LIG d   1      -8.317  76.470 119.470  0.00  0.00    -0.276 OA
ATOM     17  H   LIG d   1      -8.007  77.346 116.450  0.00  0.00     0.149 HD
ENDBRANCH   6  13
BRANCH   5  18
ATOM     18  N   LIG d   1     -10.454  74.883 116.615  0.00  0.00     0.381 N 
ATOM     19  H   LIG d   1     -10.244  75.035 115.649  0.00  0.00    -0.090 HD
ATOM     20  H   LIG d   1     -10.784  75.748 117.007  0.00  0.00    -0.090 HD
ATOM     21  H   LIG d   1     -11.156  74.181 116.703  0.00  0.00    -0.090 HD
ENDBRANCH   5  18
BRANCH   3  22
ATOM     22  C   LIG d   1      -7.754  71.161 117.954  0.00  0.00     0.382 C 
ATOM     23  O   LIG d   1      -8.324  70.286 117.260  0.00  0.00    -0.241 OA
ATOM     24  O   LIG d   1      -7.179  70.829 119.008  0.00  0.00    -0.241 OA
ENDBRANCH   3  22
TORSDOF 7
ENDMDL
MODEL 3
REMARK VINA RESULT:      -5.3      2.604      5.748
REMARK  7 active torsions:
REMARK  status: ('A' for Active; 'I' for Inactive)
REMARK    1  A    between atoms: C_2  and  C_3 
REMARK    2  A    between atoms: C_3  and  O_6 
REMARK    3  A    between atoms: C_3  and  C_4 
REMARK    4  A    between atoms: C_7  and  O_6 
REMARK    5  A    between atoms: C_9  and  C_10 
REMARK    6  A    between atoms: N_15  and  C_14 
REMARK    7  A    between atoms: N_20  and  C_19 
REMARK       I    between atoms: C_22  and  N_20 
ROOT
ATOM      1  C   LIG d   1      -4.236  73.895 116.878  0.00  0.00     0.161 C 
ATOM      2  C   LIG d   1      -3.283  73.372 117.769  0.00  0.00     0.016 C 
ATOM      3  C   LIG d   1      -1.906  73.683 117.706  0.00  0.00     0.038 C 
ATOM      4  C   LIG d   1      -1.406  74.663 116.836  0.00  0.00     0.028 C 
ATOM      5  C   LIG d   1      -2.251  74.847 115.580  0.00  0.00    -0.047 C 
ATOM      6  C   LIG d   1      -3.726  75.052 115.994  0.00  0.00     0.091 C 
ENDROOT
BRANCH   1   7
ATOM      7  O   LIG d   1      -5.413  74.301 117.605  0.00  0.00    -0.368 OA
BRANCH   7   8
ATOM      8  C   LIG d   1      -6.583  73.462 117.442  0.00  0.00     0.119 C 
BRANCH   8   9
ATOM      9  C   LIG d   1      -6.257  72.420 116.354  0.00  0.00     0.028 C 
ATOM     10  C   LIG d   1      -6.814  71.026 116.691  0.00  0.00     0.006 C 
ENDBRANCH   8   9
BRANCH   8  11
ATOM     11  C   LIG d   1      -7.770  74.261 116.896  0.00  0.00     0.028 C 
ATOM     12  C   LIG d   1      -9.126  73.685 117.332  0.00  0.00     0.006 C 
ENDBRANCH   8  11
ENDBRANCH   7   8
ENDBRANCH   1   7
BRANCH   6  13
ATOM     13  N   LIG d   1      -4.634  75.156 114.822  0.00  0.00    -0.311 N 
ATOM     14  C   LIG d   1      -5.537  76.124 114.677  0.00  0.00     0.210 C 
ATOM     15  C   LIG d   1      -6.385  76.032 113.404  0.00  0.00     0.109 C 
ATOM     16  O   LIG d   1      -5.695  77.068 115.466  0.00  0.00    -0.276 OA
ATOM     17  H   LIG d   1      -4.553  74.448 114.118  0.00  0.00     0.149 HD
ENDBRANCH   6  13
BRANCH   5  18
ATOM     18  N   LIG d   1      -1.695  75.990 114.832  0.00  0.00     0.381 N 
ATOM     19  H   LIG d   1      -0.747  76.147 115.108  0.00  0.00    -0.090 HD
ATOM     20  H   LIG d   1      -2.228  76.813 115.054  0.00  0.00    -0.090 HD
ATOM     21  H   LIG d   1      -1.739  75.811 113.853  0.00  0.00    -0.090 HD
ENDBRANCH   5  18
BRANCH   3  22
ATOM     22  C   LIG d   1      -1.006  72.980 118.493  0.00  0.00     0.382 C 
ATOM     23  O   LIG d   1      -0.216  72.161 117.963  0.00  0.00    -0.241 OA
ATOM     24  O   LIG d   1      -1.004  73.121 119.730  0.00  0.00    -0.241 OA
ENDBRANCH   3  22
TORSDOF 7
ENDMDL
MODEL 4
REMARK VINA RESULT:      -5.2      2.283      4.253
REMARK  7 active torsions:
REMARK  status: ('A' for Active; 'I' for Inactive)
REMARK    1  A    between atoms: C_2  and  C_3 
REMARK    2  A    between atoms: C_3  and  O_6 
REMARK    3  A    between atoms: C_3  and  C_4 
REMARK    4  A    between atoms: C_7  and  O_6 
REMARK    5  A    between atoms: C_9  and  C_10 
REMARK    6  A    between atoms: N_15  and  C_14 
REMARK    7  A    between atoms: N_20  and  C_19 
REMARK       I    between atoms: C_22  and  N_20 
ROOT
ATOM      1  C   LIG d   1      -6.683  74.223 118.022  0.00  0.00     0.161 C 
ATOM      2  C   LIG d   1      -5.828  75.166 117.428  0.00  0.00     0.016 C 
ATOM      3  C   LIG d   1      -5.057  74.898 116.274  0.00  0.00     0.038 C 
ATOM      4  C   LIG d   1      -5.204  73.710 115.543  0.00  0.00     0.028 C 
ATOM      5  C   LIG d   1      -5.680  72.534 116.389  0.00  0.00    -0.047 C 
ATOM      6  C   LIG d   1      -6.941  72.960 117.175  0.00  0.00     0.091 C 
ENDROOT
BRANCH   1   7
ATOM      7  O   LIG d   1      -7.931  74.851 118.378  0.00  0.00    -0.368 OA
BRANCH   7   8
ATOM      8  C   LIG d   1      -8.484  75.768 117.402  0.00  0.00     0.119 C 
BRANCH   8   9
ATOM      9  C   LIG d   1      -9.034  76.986 118.169  0.00  0.00     0.028 C 
ATOM     10  C   LIG d   1      -8.012  78.132 118.260  0.00  0.00     0.006 C 
ENDBRANCH   8   9
BRANCH   8  11
ATOM     11  C   LIG d   1      -9.695  75.158 116.689  0.00  0.00     0.028 C 
ATOM     12  C   LIG d   1     -10.697  74.514 117.660  0.00  0.00     0.006 C 
ENDBRANCH   8  11
ENDBRANCH   7   8
ENDBRANCH   1   7
BRANCH   6  13
ATOM     13  N   LIG d   1      -7.423  71.894 118.092  0.00  0.00    -0.311 N 
ATOM     14  C   LIG d   1      -8.207  70.891 117.702  0.00  0.00     0.210 C 
ATOM     15  C   LIG d   1      -8.606  69.912 118.811  0.00  0.00     0.109 C 
ATOM     16  O   LIG d   1      -8.584  70.700 116.536  0.00  0.00    -0.276 OA
ATOM     17  H   LIG d   1      -7.140  71.954 119.051  0.00  0.00     0.149 HD
ENDBRANCH   6  13
BRANCH   5  18
ATOM     18  N   LIG d   1      -5.923  71.399 115.478  0.00  0.00     0.381 N 
ATOM     19  H   LIG d   1      -6.809  71.510 115.028  0.00  0.00    -0.090 HD
ATOM     20  H   LIG d   1      -5.945  70.550 116.015  0.00  0.00    -0.090 HD
ATOM     21  H   LIG d   1      -5.199  71.350 114.795  0.00  0.00    -0.090 HD
ENDBRANCH   5  18
BRANCH   3  22
ATOM     22  C   LIG d   1      -4.096  75.810 115.863  0.00  0.00     0.382 C 
ATOM     23  O   LIG d   1      -3.698  76.700 116.652  0.00  0.00    -0.241 OA
ATOM     24  O   LIG d   1      -3.655  75.781 114.698  0.00  0.00    -0.241 OA
ENDBRANCH   3  22
TORSDOF 7
ENDMDL
MODEL 5
REMARK VINA RESULT:      -5.2     15.067     17.306
REMARK  7 active torsions:
REMARK  status: ('A' for Active; 'I' for Inactive)
REMARK    1  A    between atoms: C_2  and  C_3 
REMARK    2  A    between atoms: C_3  and  O_6 
REMARK    3  A    between atoms: C_3  and  C_4 
REMARK    4  A    between atoms: C_7  and  O_6 
REMARK    5  A    between atoms: C_9  and  C_10 
REMARK    6  A    between atoms: N_15  and  C_14 
REMARK    7  A    between atoms: N_20  and  C_19 
REMARK       I    between atoms: C_22  and  N_20 
ROOT
ATOM      1  C   LIG d   1       1.019  88.804 116.792  0.00  0.00     0.161 C 
ATOM      2  C   LIG d   1      -0.376  88.652 116.852  0.00  0.00     0.016 C 
ATOM      3  C   LIG d   1      -1.243  89.636 117.381  0.00  0.00     0.038 C 
ATOM      4  C   LIG d   1      -0.783  90.909 117.750  0.00  0.00     0.028 C 
ATOM      5  C   LIG d   1       0.680  90.924 118.178  0.00  0.00    -0.047 C 
ATOM      6  C   LIG d   1       1.529  90.230 117.087  0.00  0.00     0.091 C 
ENDROOT
BRANCH   1   7
ATOM      7  O   LIG d   1       1.505  88.353 115.512  0.00  0.00    -0.368 OA
BRANCH   7   8
ATOM      8  C   LIG d   1       2.384  87.201 115.533  0.00  0.00     0.119 C 
BRANCH   8   9
ATOM      9  C   LIG d   1       3.737  87.641 114.942  0.00  0.00     0.028 C 
ATOM     10  C   LIG d   1       3.612  88.892 114.056  0.00  0.00     0.006 C 
ENDBRANCH   8   9
BRANCH   8  11
ATOM     11  C   LIG d   1       1.875  86.096 114.603  0.00  0.00     0.028 C 
ATOM     12  C   LIG d   1       2.974  85.097 114.208  0.00  0.00     0.006 C 
ENDBRANCH   8  11
ENDBRANCH   7   8
ENDBRANCH   1   7
BRANCH   6  13
ATOM     13  N   LIG d   1       2.962  90.126 117.465  0.00  0.00    -0.311 N 
ATOM     14  C   LIG d   1       3.861  91.073 117.199  0.00  0.00     0.210 C 
ATOM     15  C   LIG d   1       5.288  90.757 117.658  0.00  0.00     0.109 C 
ATOM     16  O   LIG d   1       3.605  92.158 116.656  0.00  0.00    -0.276 OA
ATOM     17  H   LIG d   1       3.251  89.292 117.938  0.00  0.00     0.149 HD
ENDBRANCH   6  13
BRANCH   5  18
ATOM     18  N   LIG d   1       1.065  92.330 118.402  0.00  0.00     0.381 N 
ATOM     19  H   LIG d   1       0.319  92.817 118.858  0.00  0.00    -0.090 HD
ATOM     20  H   LIG d   1       1.230  92.768 117.512  0.00  0.00    -0.090 HD
ATOM     21  H   LIG d   1       1.889  92.373 118.960  0.00  0.00    -0.090 HD
ENDBRANCH   5  18
BRANCH   3  22
ATOM     22  C   LIG d   1      -2.582  89.335 117.583  0.00  0.00     0.382 C 
ATOM     23  O   LIG d   1      -2.946  88.777 118.646  0.00  0.00    -0.241 OA
ATOM     24  O   LIG d   1      -3.423  89.575 116.696  0.00  0.00    -0.241 OA
ENDBRANCH   3  22
TORSDOF 7
ENDMDL
MODEL 6
REMARK VINA RESULT:      -5.2      2.713      4.463
REMARK  7 active torsions:
REMARK  status: ('A' for Active; 'I' for Inactive)
REMARK    1  A    between atoms: C_2  and  C_3 
REMARK    2  A    between atoms: C_3  and  O_6 
REMARK    3  A    between atoms: C_3  and  C_4 
REMARK    4  A    between atoms: C_7  and  O_6 
REMARK    5  A    between atoms: C_9  and  C_10 
REMARK    6  A    between atoms: N_15  and  C_14 
REMARK    7  A    between atoms: N_20  and  C_19 
REMARK       I    between atoms: C_22  and  N_20 
ROOT
ATOM      1  C   LIG d   1      -6.891  75.968 115.772  0.00  0.00     0.161 C 
ATOM      2  C   LIG d   1      -5.671  75.929 115.077  0.00  0.00     0.016 C 
ATOM      3  C   LIG d   1      -4.538  76.688 115.450  0.00  0.00     0.038 C 
ATOM      4  C   LIG d   1      -4.501  77.428 116.641  0.00  0.00     0.028 C 
ATOM      5  C   LIG d   1      -5.876  77.896 117.106  0.00  0.00    -0.047 C 
ATOM      6  C   LIG d   1      -6.834  76.684 117.137  0.00  0.00     0.091 C 
ENDROOT
BRANCH   1   7
ATOM      7  O   LIG d   1      -7.407  74.631 115.928  0.00  0.00    -0.368 OA
BRANCH   7   8
ATOM      8  C   LIG d   1      -6.916  73.887 117.070  0.00  0.00     0.119 C 
BRANCH   8   9
ATOM      9  C   LIG d   1      -5.995  72.773 116.537  0.00  0.00     0.028 C 
ATOM     10  C   LIG d   1      -6.691  71.403 116.501  0.00  0.00     0.006 C 
ENDBRANCH   8   9
BRANCH   8  11
ATOM     11  C   LIG d   1      -8.054  73.161 117.793  0.00  0.00     0.028 C 
ATOM     12  C   LIG d   1      -9.445  73.630 117.337  0.00  0.00     0.006 C 
ENDBRANCH   8  11
ENDBRANCH   7   8
ENDBRANCH   1   7
BRANCH   6  13
ATOM     13  N   LIG d   1      -8.223  77.068 117.501  0.00  0.00    -0.311 N 
ATOM     14  C   LIG d   1      -8.698  77.010 118.744  0.00  0.00     0.210 C 
ATOM     15  C   LIG d   1     -10.163  77.433 118.897  0.00  0.00     0.109 C 
ATOM     16  O   LIG d   1      -8.037  76.679 119.739  0.00  0.00    -0.276 OA
ATOM     17  H   LIG d   1      -8.820  77.379 116.759  0.00  0.00     0.149 HD
ENDBRANCH   6  13
BRANCH   5  18
ATOM     18  N   LIG d   1      -5.707  78.533 118.426  0.00  0.00     0.381 N 
ATOM     19  H   LIG d   1      -6.576  78.520 118.922  0.00  0.00    -0.090 HD
ATOM     20  H   LIG d   1      -5.435  79.491 118.292  0.00  0.00    -0.090 HD
ATOM     21  H   LIG d   1      -5.009  78.053 118.950  0.00  0.00    -0.090 HD
ENDBRANCH   5  18
BRANCH   3  22
ATOM     22  C   LIG d   1      -3.439  76.744 114.606  0.00  0.00     0.382 C 
ATOM     23  O   LIG d   1      -2.543  75.869 114.686  0.00  0.00    -0.241 OA
ATOM     24  O   LIG d   1      -3.310  77.682 113.797  0.00  0.00    -0.241 OA
ENDBRANCH   3  22
TORSDOF 7
ENDMDL
MODEL 7
REMARK VINA RESULT:      -5.1      3.146      3.886
REMARK  7 active torsions:
REMARK  status: ('A' for Active; 'I' for Inactive)
REMARK    1  A    between atoms: C_2  and  C_3 
REMARK    2  A    between atoms: C_3  and  O_6 
REMARK    3  A    between atoms: C_3  and  C_4 
REMARK    4  A    between atoms: C_7  and  O_6 
REMARK    5  A    between atoms: C_9  and  C_10 
REMARK    6  A    between atoms: N_15  and  C_14 
REMARK    7  A    between atoms: N_20  and  C_19 
REMARK       I    between atoms: C_22  and  N_20 
ROOT
ATOM      1  C   LIG d   1      -7.560  75.760 117.599  0.00  0.00     0.161 C 
ATOM      2  C   LIG d   1      -7.702  77.121 117.915  0.00  0.00     0.016 C 
ATOM      3  C   LIG d   1      -8.945  77.725 118.214  0.00  0.00     0.038 C 
ATOM      4  C   LIG d   1     -10.118  76.971 118.365  0.00  0.00     0.028 C 
ATOM      5  C   LIG d   1     -10.113  75.675 117.561  0.00  0.00    -0.047 C 
ATOM      6  C   LIG d   1      -8.812  74.899 117.868  0.00  0.00     0.091 C 
ENDROOT
BRANCH   1   7
ATOM      7  O   LIG d   1      -6.419  75.214 118.290  0.00  0.00    -0.368 OA
BRANCH   7   8
ATOM      8  C   LIG d   1      -5.163  75.241 117.568  0.00  0.00     0.119 C 
BRANCH   8   9
ATOM      9  C   LIG d   1      -4.934  73.834 116.984  0.00  0.00     0.028 C 
ATOM     10  C   LIG d   1      -5.194  73.778 115.469  0.00  0.00     0.006 C 
ENDBRANCH   8   9
BRANCH   8  11
ATOM     11  C   LIG d   1      -3.983  75.485 118.513  0.00  0.00     0.028 C 
ATOM     12  C   LIG d   1      -4.408  75.578 119.987  0.00  0.00     0.006 C 
ENDBRANCH   8  11
ENDBRANCH   7   8
ENDBRANCH   1   7
BRANCH   6  13
ATOM     13  N   LIG d   1      -8.688  73.659 117.058  0.00  0.00    -0.311 N 
ATOM     14  C   LIG d   1      -8.275  72.496 117.558  0.00  0.00     0.210 C 
ATOM     15  C   LIG d   1      -8.200  71.348 116.547  0.00  0.00     0.109 C 
ATOM     16  O   LIG d   1      -7.996  72.297 118.750  0.00  0.00    -0.276 OA
ATOM     17  H   LIG d   1      -8.925  73.722 116.087  0.00  0.00     0.149 HD
ENDBRANCH   6  13
BRANCH   5  18
ATOM     18  N   LIG d   1     -11.332  74.925 117.918  0.00  0.00     0.381 N 
ATOM     19  H   LIG d   1     -11.090  74.133 118.480  0.00  0.00    -0.090 HD
ATOM     20  H   LIG d   1     -11.767  74.592 117.076  0.00  0.00    -0.090 HD
ATOM     21  H   LIG d   1     -11.962  75.515 118.416  0.00  0.00    -0.090 HD
ENDBRANCH   5  18
BRANCH   3  22
ATOM     22  C   LIG d   1      -9.029  79.105 118.326  0.00  0.00     0.382 C 
ATOM     23  O   LIG d   1     -10.131  79.646 118.588  0.00  0.00    -0.241 OA
ATOM     24  O   LIG d   1      -8.028  79.817 118.124  0.00  0.00    -0.241 OA
ENDBRANCH   3  22
TORSDOF 7
ENDMDL
MODEL 8
REMARK VINA RESULT:      -5.1     14.675     17.708
REMARK  7 active torsions:
REMARK  status: ('A' for Active; 'I' for Inactive)
REMARK    1  A    between atoms: C_2  and  C_3 
REMARK    2  A    between atoms: C_3  and  O_6 
REMARK    3  A    between atoms: C_3  and  C_4 
REMARK    4  A    between atoms: C_7  and  O_6 
REMARK    5  A    between atoms: C_9  and  C_10 
REMARK    6  A    between atoms: N_15  and  C_14 
REMARK    7  A    between atoms: N_20  and  C_19 
REMARK       I    between atoms: C_22  and  N_20 
ROOT
ATOM      1  C   LIG d   1      11.017  75.846 114.828  0.00  0.00     0.161 C 
ATOM      2  C   LIG d   1       9.653  76.144 114.977  0.00  0.00     0.016 C 
ATOM      3  C   LIG d   1       9.124  77.451 114.865  0.00  0.00     0.038 C 
ATOM      4  C   LIG d   1       9.910  78.534 114.443  0.00  0.00     0.028 C 
ATOM      5  C   LIG d   1      11.390  78.373 114.773  0.00  0.00    -0.047 C 
ATOM      6  C   LIG d   1      11.872  76.998 114.258  0.00  0.00     0.091 C 
ENDROOT
BRANCH   1   7
ATOM      7  O   LIG d   1      11.174  74.661 114.023  0.00  0.00    -0.368 OA
BRANCH   7   8
ATOM      8  C   LIG d   1      11.693  73.492 114.703  0.00  0.00     0.119 C 
BRANCH   8   9
ATOM      9  C   LIG d   1      12.557  72.713 113.692  0.00  0.00     0.028 C 
ATOM     10  C   LIG d   1      14.051  73.058 113.809  0.00  0.00     0.006 C 
ENDBRANCH   8   9
BRANCH   8  11
ATOM     11  C   LIG d   1      10.568  72.532 115.100  0.00  0.00     0.028 C 
ATOM     12  C   LIG d   1      10.602  72.157 116.590  0.00  0.00     0.006 C 
ENDBRANCH   8  11
ENDBRANCH   7   8
ENDBRANCH   1   7
BRANCH   6  13
ATOM     13  N   LIG d   1      13.289  76.725 114.614  0.00  0.00    -0.311 N 
ATOM     14  C   LIG d   1      14.312  76.987 113.802  0.00  0.00     0.210 C 
ATOM     15  C   LIG d   1      15.690  76.610 114.356  0.00  0.00     0.109 C 
ATOM     16  O   LIG d   1      14.212  77.526 112.690  0.00  0.00    -0.276 OA
ATOM     17  H   LIG d   1      13.464  76.316 115.511  0.00  0.00     0.149 HD
ENDBRANCH   6  13
BRANCH   5  18
ATOM     18  N   LIG d   1      12.109  79.505 114.157  0.00  0.00     0.381 N 
ATOM     19  H   LIG d   1      11.892  79.554 113.182  0.00  0.00    -0.090 HD
ATOM     20  H   LIG d   1      13.097  79.353 114.253  0.00  0.00    -0.090 HD
ATOM     21  H   LIG d   1      11.851  80.357 114.605  0.00  0.00    -0.090 HD
ENDBRANCH   5  18
BRANCH   3  22
ATOM     22  C   LIG d   1       7.804  77.691 115.215  0.00  0.00     0.382 C 
ATOM     23  O   LIG d   1       7.535  78.526 116.111  0.00  0.00    -0.241 OA
ATOM     24  O   LIG d   1       6.882  77.050 114.677  0.00  0.00    -0.241 OA
ENDBRANCH   3  22
TORSDOF 7
ENDMDL
MODEL 9
REMARK VINA RESULT:      -4.8     14.440     17.528
REMARK  7 active torsions:
REMARK  status: ('A' for Active; 'I' for Inactive)
REMARK    1  A    between atoms: C_2  and  C_3 
REMARK    2  A    between atoms: C_3  and  O_6 
REMARK    3  A    between atoms: C_3  and  C_4 
REMARK    4  A    between atoms: C_7  and  O_6 
REMARK    5  A    between atoms: C_9  and  C_10 
REMARK    6  A    between atoms: N_15  and  C_14 
REMARK    7  A    between atoms: N_20  and  C_19 
REMARK       I    between atoms: C_22  and  N_20 
ROOT
ATOM      1  C   LIG d   1      10.158  76.302 114.178  0.00  0.00     0.161 C 
ATOM      2  C   LIG d   1       9.865  75.047 114.736  0.00  0.00     0.016 C 
ATOM      3  C   LIG d   1      10.856  74.142 115.181  0.00  0.00     0.038 C 
ATOM      4  C   LIG d   1      12.212  74.497 115.237  0.00  0.00     0.028 C 
ATOM      5  C   LIG d   1      12.603  75.559 114.215  0.00  0.00    -0.047 C 
ATOM      6  C   LIG d   1      11.626  76.752 114.333  0.00  0.00     0.091 C 
ENDROOT
BRANCH   1   7
ATOM      7  O   LIG d   1       9.269  77.298 114.720  0.00  0.00    -0.368 OA
BRANCH   7   8
ATOM      8  C   LIG d   1       9.142  77.321 116.163  0.00  0.00     0.119 C 
BRANCH   8   9
ATOM      9  C   LIG d   1       7.657  77.567 116.493  0.00  0.00     0.028 C 
ATOM     10  C   LIG d   1       6.782  77.651 115.231  0.00  0.00     0.006 C 
ENDBRANCH   8   9
BRANCH   8  11
ATOM     11  C   LIG d   1       9.895  78.509 116.770  0.00  0.00     0.028 C 
ATOM     12  C   LIG d   1       9.679  79.814 115.987  0.00  0.00     0.006 C 
ENDBRANCH   8  11
ENDBRANCH   7   8
ENDBRANCH   1   7
BRANCH   6  13
ATOM     13  N   LIG d   1      11.886  77.800 113.311  0.00  0.00    -0.311 N 
ATOM     14  C   LIG d   1      12.449  78.973 113.592  0.00  0.00     0.210 C 
ATOM     15  C   LIG d   1      12.608  79.917 112.396  0.00  0.00     0.109 C 
ATOM     16  O   LIG d   1      12.862  79.310 114.713  0.00  0.00    -0.276 OA
ATOM     17  H   LIG d   1      11.611  77.597 112.370  0.00  0.00     0.149 HD
ENDBRANCH   6  13
BRANCH   5  18
ATOM     18  N   LIG d   1      14.006  75.933 114.476  0.00  0.00     0.381 N 
ATOM     19  H   LIG d   1      14.455  75.215 115.008  0.00  0.00    -0.090 HD
ATOM     20  H   LIG d   1      14.022  76.781 115.014  0.00  0.00    -0.090 HD
ATOM     21  H   LIG d   1      14.488  76.069 113.615  0.00  0.00    -0.090 HD
ENDBRANCH   5  18
BRANCH   3  22
ATOM     22  C   LIG d   1      10.498  72.852 115.540  0.00  0.00     0.382 C 
ATOM     23  O   LIG d   1      10.095  72.047 114.665  0.00  0.00    -0.241 OA
ATOM     24  O   LIG d   1      10.529  72.495 116.733  0.00  0.00    -0.241 OA
ENDBRANCH   3  22
TORSDOF 7
ENDMDL
