MODEL 1
REMARK VINA RESULT:      -5.3      0.000      0.000
REMARK  7 active torsions:
REMARK  status: ('A' for Active; 'I' for Inactive)
REMARK    1  A    between atoms: C_2  and  C_3 
REMARK    2  A    between atoms: C_3  and  O_6 
REMARK    3  A    between atoms: C_3  and  C_4 
REMARK    4  A    between atoms: C_7  and  O_6 
REMARK    5  A    between atoms: C_9  and  C_10 
REMARK    6  A    between atoms: N_15  and  C_14 
REMARK    7  A    between atoms: N_20  and  C_19 
REMARK       I    between atoms: C_22  and  N_20 
ROOT
ATOM      1  C   LIG d   1      -6.843  74.999 119.117  0.00  0.00     0.161 C 
ATOM      2  C   LIG d   1      -8.150  75.441 118.851  0.00  0.00     0.016 C 
ATOM      3  C   LIG d   1      -8.443  76.692 118.261  0.00  0.00     0.038 C 
ATOM      4  C   LIG d   1      -7.436  77.529 117.757  0.00  0.00     0.028 C 
ATOM      5  C   LIG d   1      -6.094  77.352 118.459  0.00  0.00    -0.047 C 
ATOM      6  C   LIG d   1      -5.729  75.850 118.473  0.00  0.00     0.091 C 
ENDROOT
BRANCH   1   7
ATOM      7  O   LIG d   1      -6.706  73.617 118.731  0.00  0.00    -0.368 OA
BRANCH   7   8
ATOM      8  C   LIG d   1      -7.382  73.227 117.510  0.00  0.00     0.119 C 
BRANCH   8   9
ATOM      9  C   LIG d   1      -8.190  71.951 117.815  0.00  0.00     0.028 C 
ATOM     10  C   LIG d   1      -8.901  71.395 116.570  0.00  0.00     0.006 C 
ENDBRANCH   8   9
BRANCH   8  11
ATOM     11  C   LIG d   1      -6.380  72.823 116.424  0.00  0.00     0.028 C 
ATOM     12  C   LIG d   1      -5.946  74.006 115.543  0.00  0.00     0.006 C 
ENDBRANCH   8  11
ENDBRANCH   7   8
ENDBRANCH   1   7
BRANCH   6  13
ATOM     13  N   LIG d   1      -4.470  75.579 119.216  0.00  0.00    -0.311 N 
ATOM     14  C   LIG d   1      -3.275  75.509 118.632  0.00  0.00     0.210 C 
ATOM     15  C   LIG d   1      -2.111  75.200 119.578  0.00  0.00     0.109 C 
ATOM     16  O   LIG d   1      -3.065  75.705 117.426  0.00  0.00    -0.276 OA
ATOM     17  H   LIG d   1      -4.545  75.438 120.204  0.00  0.00     0.149 HD
ENDBRANCH   6  13
BRANCH   5  18
ATOM     18  N   LIG d   1      -5.104  78.181 117.745  0.00  0.00     0.381 N 
ATOM     19  H   LIG d   1      -4.723  77.666 116.977  0.00  0.00    -0.090 HD
ATOM     20  H   LIG d   1      -4.355  78.408 118.375  0.00  0.00    -0.090 HD
ATOM     21  H   LIG d   1      -5.535  79.016 117.414  0.00  0.00    -0.090 HD
ENDBRANCH   5  18
BRANCH   3  22
ATOM     22  C   LIG d   1      -9.756  77.136 118.208  0.00  0.00     0.382 C 
ATOM     23  O   LIG d   1     -10.006  78.364 118.280  0.00  0.00    -0.241 OA
ATOM     24  O   LIG d   1     -10.695  76.322 118.134  0.00  0.00    -0.241 OA
ENDBRANCH   3  22
TORSDOF 7
ENDMDL
MODEL 2
REMARK VINA RESULT:      -5.3      2.372      4.748
REMARK  7 active torsions:
REMARK  status: ('A' for Active; 'I' for Inactive)
REMARK    1  A    between atoms: C_2  and  C_3 
REMARK    2  A    between atoms: C_3  and  O_6 
REMARK    3  A    between atoms: C_3  and  C_4 
REMARK    4  A    between atoms: C_7  and  O_6 
REMARK    5  A    between atoms: C_9  and  C_10 
REMARK    6  A    between atoms: N_15  and  C_14 
REMARK    7  A    between atoms: N_20  and  C_19 
REMARK       I    between atoms: C_22  and  N_20 
ROOT
ATOM      1  C   LIG d   1      -6.299  74.578 118.458  0.00  0.00     0.161 C 
ATOM      2  C   LIG d   1      -6.499  73.336 117.833  0.00  0.00     0.016 C 
ATOM      3  C   LIG d   1      -7.720  72.957 117.229  0.00  0.00     0.038 C 
ATOM      4  C   LIG d   1      -8.783  73.860 117.075  0.00  0.00     0.028 C 
ATOM      5  C   LIG d   1      -8.805  74.955 118.136  0.00  0.00    -0.047 C 
ATOM      6  C   LIG d   1      -7.410  75.618 118.203  0.00  0.00     0.091 C 
ENDROOT
BRANCH   1   7
ATOM      7  O   LIG d   1      -5.015  75.115 118.080  0.00  0.00    -0.368 OA
BRANCH   7   8
ATOM      8  C   LIG d   1      -4.318  74.412 117.022  0.00  0.00     0.119 C 
BRANCH   8   9
ATOM      9  C   LIG d   1      -2.842  74.284 117.446  0.00  0.00     0.028 C 
ATOM     10  C   LIG d   1      -1.875  74.795 116.365  0.00  0.00     0.006 C 
ENDBRANCH   8   9
BRANCH   8  11
ATOM     11  C   LIG d   1      -4.299  75.231 115.728  0.00  0.00     0.028 C 
ATOM     12  C   LIG d   1      -5.287  74.704 114.675  0.00  0.00     0.006 C 
ENDBRANCH   8  11
ENDBRANCH   7   8
ENDBRANCH   1   7
BRANCH   6  13
ATOM     13  N   LIG d   1      -7.321  76.644 119.274  0.00  0.00    -0.311 N 
ATOM     14  C   LIG d   1      -7.549  77.940 119.069  0.00  0.00     0.210 C 
ATOM     15  C   LIG d   1      -7.383  78.830 120.305  0.00  0.00     0.109 C 
ATOM     16  O   LIG d   1      -7.904  78.433 117.987  0.00  0.00    -0.276 OA
ATOM     17  H   LIG d   1      -7.069  76.327 120.190  0.00  0.00     0.149 HD
ENDBRANCH   6  13
BRANCH   5  18
ATOM     18  N   LIG d   1      -9.878  75.901 117.777  0.00  0.00     0.381 N 
ATOM     19  H   LIG d   1     -10.610  75.417 117.295  0.00  0.00    -0.090 HD
ATOM     20  H   LIG d   1      -9.503  76.600 117.160  0.00  0.00    -0.090 HD
ATOM     21  H   LIG d   1     -10.241  76.333 118.598  0.00  0.00    -0.090 HD
ENDBRANCH   5  18
BRANCH   3  22
ATOM     22  C   LIG d   1      -7.900  71.649 116.806  0.00  0.00     0.382 C 
ATOM     23  O   LIG d   1      -9.037  71.257 116.449  0.00  0.00    -0.241 OA
ATOM     24  O   LIG d   1      -6.949  70.844 116.818  0.00  0.00    -0.241 OA
ENDBRANCH   3  22
TORSDOF 7
ENDMDL
MODEL 3
REMARK VINA RESULT:      -4.9      2.537      4.330
REMARK  7 active torsions:
REMARK  status: ('A' for Active; 'I' for Inactive)
REMARK    1  A    between atoms: C_2  and  C_3 
REMARK    2  A    between atoms: C_3  and  O_6 
REMARK    3  A    between atoms: C_3  and  C_4 
REMARK    4  A    between atoms: C_7  and  O_6 
REMARK    5  A    between atoms: C_9  and  C_10 
REMARK    6  A    between atoms: N_15  and  C_14 
REMARK    7  A    between atoms: N_20  and  C_19 
REMARK       I    between atoms: C_22  and  N_20 
ROOT
ATOM      1  C   LIG d   1      -7.087  76.343 117.109  0.00  0.00     0.161 C 
ATOM      2  C   LIG d   1      -6.869  77.705 117.375  0.00  0.00     0.016 C 
ATOM      3  C   LIG d   1      -7.774  78.510 118.104  0.00  0.00     0.038 C 
ATOM      4  C   LIG d   1      -8.895  77.966 118.750  0.00  0.00     0.028 C 
ATOM      5  C   LIG d   1      -9.421  76.698 118.086  0.00  0.00    -0.047 C 
ATOM      6  C   LIG d   1      -8.249  75.707 117.900  0.00  0.00     0.091 C 
ENDROOT
BRANCH   1   7
ATOM      7  O   LIG d   1      -5.870  75.602 117.325  0.00  0.00    -0.368 OA
BRANCH   7   8
ATOM      8  C   LIG d   1      -4.949  75.549 116.207  0.00  0.00     0.119 C 
BRANCH   8   9
ATOM      9  C   LIG d   1      -5.610  74.703 115.102  0.00  0.00     0.028 C 
ATOM     10  C   LIG d   1      -5.693  75.451 113.761  0.00  0.00     0.006 C 
ENDBRANCH   8   9
BRANCH   8  11
ATOM     11  C   LIG d   1      -3.666  74.800 116.578  0.00  0.00     0.028 C 
ATOM     12  C   LIG d   1      -2.408  75.428 115.955  0.00  0.00     0.006 C 
ENDBRANCH   8  11
ENDBRANCH   7   8
ENDBRANCH   1   7
BRANCH   6  13
ATOM     13  N   LIG d   1      -8.660  74.473 117.181  0.00  0.00    -0.311 N 
ATOM     14  C   LIG d   1      -8.247  73.254 117.522  0.00  0.00     0.210 C 
ATOM     15  C   LIG d   1      -8.774  72.120 116.636  0.00  0.00     0.109 C 
ATOM     16  O   LIG d   1      -7.519  73.000 118.494  0.00  0.00    -0.276 OA
ATOM     17  H   LIG d   1      -9.275  74.584 116.398  0.00  0.00     0.149 HD
ENDBRANCH   6  13
BRANCH   5  18
ATOM     18  N   LIG d   1     -10.500  76.164 118.938  0.00  0.00     0.381 N 
ATOM     19  H   LIG d   1     -11.117  75.600 118.389  0.00  0.00    -0.090 HD
ATOM     20  H   LIG d   1     -11.027  76.932 119.316  0.00  0.00    -0.090 HD
ATOM     21  H   LIG d   1     -10.113  75.621 119.679  0.00  0.00    -0.090 HD
ENDBRANCH   5  18
BRANCH   3  22
ATOM     22  C   LIG d   1      -7.583  79.882 118.159  0.00  0.00     0.382 C 
ATOM     23  O   LIG d   1      -7.321  80.521 117.112  0.00  0.00    -0.241 OA
ATOM     24  O   LIG d   1      -7.626  80.483 119.250  0.00  0.00    -0.241 OA
ENDBRANCH   3  22
TORSDOF 7
ENDMDL
MODEL 4
REMARK VINA RESULT:      -4.9      2.252      4.157
REMARK  7 active torsions:
REMARK  status: ('A' for Active; 'I' for Inactive)
REMARK    1  A    between atoms: C_2  and  C_3 
REMARK    2  A    between atoms: C_3  and  O_6 
REMARK    3  A    between atoms: C_3  and  C_4 
REMARK    4  A    between atoms: C_7  and  O_6 
REMARK    5  A    between atoms: C_9  and  C_10 
REMARK    6  A    between atoms: N_15  and  C_14 
REMARK    7  A    between atoms: N_20  and  C_19 
REMARK       I    between atoms: C_22  and  N_20 
ROOT
ATOM      1  C   LIG d   1      -7.820  75.575 116.868  0.00  0.00     0.161 C 
ATOM      2  C   LIG d   1      -7.199  75.432 115.616  0.00  0.00     0.016 C 
ATOM      3  C   LIG d   1      -5.883  75.873 115.346  0.00  0.00     0.038 C 
ATOM      4  C   LIG d   1      -5.039  76.353 116.358  0.00  0.00     0.028 C 
ATOM      5  C   LIG d   1      -5.791  76.982 117.526  0.00  0.00    -0.047 C 
ATOM      6  C   LIG d   1      -6.876  75.995 118.014  0.00  0.00     0.091 C 
ENDROOT
BRANCH   1   7
ATOM      7  O   LIG d   1      -8.513  74.359 117.211  0.00  0.00    -0.368 OA
BRANCH   7   8
ATOM      8  C   LIG d   1      -7.915  73.128 116.736  0.00  0.00     0.119 C 
BRANCH   8   9
ATOM      9  C   LIG d   1      -9.052  72.109 116.532  0.00  0.00     0.028 C 
ATOM     10  C   LIG d   1      -8.812  70.800 117.303  0.00  0.00     0.006 C 
ENDBRANCH   8   9
BRANCH   8  11
ATOM     11  C   LIG d   1      -7.000  72.508 117.796  0.00  0.00     0.028 C 
ATOM     12  C   LIG d   1      -5.509  72.634 117.443  0.00  0.00     0.006 C 
ENDBRANCH   8  11
ENDBRANCH   7   8
ENDBRANCH   1   7
BRANCH   6  13
ATOM     13  N   LIG d   1      -7.714  76.567 119.100  0.00  0.00    -0.311 N 
ATOM     14  C   LIG d   1      -8.351  77.731 118.999  0.00  0.00     0.210 C 
ATOM     15  C   LIG d   1      -9.144  78.145 120.243  0.00  0.00     0.109 C 
ATOM     16  O   LIG d   1      -8.362  78.446 117.986  0.00  0.00    -0.276 OA
ATOM     17  H   LIG d   1      -7.786  76.037 119.947  0.00  0.00     0.149 HD
ENDBRANCH   6  13
BRANCH   5  18
ATOM     18  N   LIG d   1      -4.800  77.314 118.567  0.00  0.00     0.381 N 
ATOM     19  H   LIG d   1      -4.307  76.487 118.841  0.00  0.00    -0.090 HD
ATOM     20  H   LIG d   1      -5.282  77.675 119.371  0.00  0.00    -0.090 HD
ATOM     21  H   LIG d   1      -4.158  77.993 118.223  0.00  0.00    -0.090 HD
ENDBRANCH   5  18
BRANCH   3  22
ATOM     22  C   LIG d   1      -5.412  75.872 114.041  0.00  0.00     0.382 C 
ATOM     23  O   LIG d   1      -4.177  75.884 113.820  0.00  0.00    -0.241 OA
ATOM     24  O   LIG d   1      -6.207  75.904 113.083  0.00  0.00    -0.241 OA
ENDBRANCH   3  22
TORSDOF 7
ENDMDL
MODEL 5
REMARK VINA RESULT:      -4.9      3.011      4.077
REMARK  7 active torsions:
REMARK  status: ('A' for Active; 'I' for Inactive)
REMARK    1  A    between atoms: C_2  and  C_3 
REMARK    2  A    between atoms: C_3  and  O_6 
REMARK    3  A    between atoms: C_3  and  C_4 
REMARK    4  A    between atoms: C_7  and  O_6 
REMARK    5  A    between atoms: C_9  and  C_10 
REMARK    6  A    between atoms: N_15  and  C_14 
REMARK    7  A    between atoms: N_20  and  C_19 
REMARK       I    between atoms: C_22  and  N_20 
ROOT
ATOM      1  C   LIG d   1      -6.138  78.396 117.298  0.00  0.00     0.161 C 
ATOM      2  C   LIG d   1      -7.479  78.357 117.714  0.00  0.00     0.016 C 
ATOM      3  C   LIG d   1      -8.234  79.514 118.017  0.00  0.00     0.038 C 
ATOM      4  C   LIG d   1      -7.740  80.805 117.777  0.00  0.00     0.028 C 
ATOM      5  C   LIG d   1      -6.219  80.892 117.837  0.00  0.00    -0.047 C 
ATOM      6  C   LIG d   1      -5.617  79.799 116.924  0.00  0.00     0.091 C 
ENDROOT
BRANCH   1   7
ATOM      7  O   LIG d   1      -5.939  77.479 116.204  0.00  0.00    -0.368 OA
BRANCH   7   8
ATOM      8  C   LIG d   1      -6.193  76.081 116.488  0.00  0.00     0.119 C 
BRANCH   8   9
ATOM      9  C   LIG d   1      -4.971  75.280 116.000  0.00  0.00     0.028 C 
ATOM     10  C   LIG d   1      -5.214  74.613 114.635  0.00  0.00     0.006 C 
ENDBRANCH   8   9
BRANCH   8  11
ATOM     11  C   LIG d   1      -7.377  75.553 115.673  0.00  0.00     0.028 C 
ATOM     12  C   LIG d   1      -8.535  75.061 116.555  0.00  0.00     0.006 C 
ENDBRANCH   8  11
ENDBRANCH   7   8
ENDBRANCH   1   7
BRANCH   6  13
ATOM     13  N   LIG d   1      -4.133  79.760 116.990  0.00  0.00    -0.311 N 
ATOM     14  C   LIG d   1      -3.345  80.067 115.960  0.00  0.00     0.210 C 
ATOM     15  C   LIG d   1      -1.843  79.942 116.235  0.00  0.00     0.109 C 
ATOM     16  O   LIG d   1      -3.747  80.463 114.856  0.00  0.00    -0.276 OA
ATOM     17  H   LIG d   1      -3.722  79.480 117.858  0.00  0.00     0.149 HD
ENDBRANCH   6  13
BRANCH   5  18
ATOM     18  N   LIG d   1      -5.835  82.258 117.433  0.00  0.00     0.381 N 
ATOM     19  H   LIG d   1      -6.298  82.502 116.581  0.00  0.00    -0.090 HD
ATOM     20  H   LIG d   1      -4.843  82.283 117.272  0.00  0.00    -0.090 HD
ATOM     21  H   LIG d   1      -6.078  82.906 118.150  0.00  0.00    -0.090 HD
ENDBRANCH   5  18
BRANCH   3  22
ATOM     22  C   LIG d   1      -9.484  79.385 118.603  0.00  0.00     0.382 C 
ATOM     23  O   LIG d   1     -10.185  78.371 118.369  0.00  0.00    -0.241 OA
ATOM     24  O   LIG d   1      -9.937  80.290 119.329  0.00  0.00    -0.241 OA
ENDBRANCH   3  22
TORSDOF 7
ENDMDL
MODEL 6
REMARK VINA RESULT:      -4.8      2.107      2.835
REMARK  7 active torsions:
REMARK  status: ('A' for Active; 'I' for Inactive)
REMARK    1  A    between atoms: C_2  and  C_3 
REMARK    2  A    between atoms: C_3  and  O_6 
REMARK    3  A    between atoms: C_3  and  C_4 
REMARK    4  A    between atoms: C_7  and  O_6 
REMARK    5  A    between atoms: C_9  and  C_10 
REMARK    6  A    between atoms: N_15  and  C_14 
REMARK    7  A    between atoms: N_20  and  C_19 
REMARK       I    between atoms: C_22  and  N_20 
ROOT
ATOM      1  C   LIG d   1      -6.938  76.908 117.547  0.00  0.00     0.161 C 
ATOM      2  C   LIG d   1      -8.131  77.492 118.004  0.00  0.00     0.016 C 
ATOM      3  C   LIG d   1      -8.317  78.889 118.123  0.00  0.00     0.038 C 
ATOM      4  C   LIG d   1      -7.370  79.806 117.645  0.00  0.00     0.028 C 
ATOM      5  C   LIG d   1      -5.946  79.261 117.641  0.00  0.00    -0.047 C 
ATOM      6  C   LIG d   1      -5.934  77.895 116.916  0.00  0.00     0.091 C 
ENDROOT
BRANCH   1   7
ATOM      7  O   LIG d   1      -7.239  75.842 116.624  0.00  0.00    -0.368 OA
BRANCH   7   8
ATOM      8  C   LIG d   1      -7.297  74.508 117.187  0.00  0.00     0.119 C 
BRANCH   8   9
ATOM      9  C   LIG d   1      -6.299  73.632 116.407  0.00  0.00     0.028 C 
ATOM     10  C   LIG d   1      -5.740  74.344 115.163  0.00  0.00     0.006 C 
ENDBRANCH   8   9
BRANCH   8  11
ATOM     11  C   LIG d   1      -8.668  73.866 116.956  0.00  0.00     0.028 C 
ATOM     12  C   LIG d   1      -8.635  72.334 117.073  0.00  0.00     0.006 C 
ENDBRANCH   8  11
ENDBRANCH   7   8
ENDBRANCH   1   7
BRANCH   6  13
ATOM     13  N   LIG d   1      -4.594  77.252 116.941  0.00  0.00    -0.311 N 
ATOM     14  C   LIG d   1      -3.704  77.375 115.959  0.00  0.00     0.210 C 
ATOM     15  C   LIG d   1      -2.392  76.614 116.176  0.00  0.00     0.109 C 
ATOM     16  O   LIG d   1      -3.863  78.068 114.942  0.00  0.00    -0.276 OA
ATOM     17  H   LIG d   1      -4.370  76.697 117.744  0.00  0.00     0.149 HD
ENDBRANCH   6  13
BRANCH   5  18
ATOM     18  N   LIG d   1      -5.085  80.267 116.993  0.00  0.00     0.381 N 
ATOM     19  H   LIG d   1      -4.882  79.986 116.054  0.00  0.00    -0.090 HD
ATOM     20  H   LIG d   1      -4.218  80.327 117.498  0.00  0.00    -0.090 HD
ATOM     21  H   LIG d   1      -5.538  81.154 116.991  0.00  0.00    -0.090 HD
ENDBRANCH   5  18
BRANCH   3  22
ATOM     22  C   LIG d   1      -9.446  79.379 118.761  0.00  0.00     0.382 C 
ATOM     23  O   LIG d   1     -10.041  80.383 118.300  0.00  0.00    -0.241 OA
ATOM     24  O   LIG d   1      -9.851  78.858 119.818  0.00  0.00    -0.241 OA
ENDBRANCH   3  22
TORSDOF 7
ENDMDL
MODEL 7
REMARK VINA RESULT:      -4.8      1.944      5.070
REMARK  7 active torsions:
REMARK  status: ('A' for Active; 'I' for Inactive)
REMARK    1  A    between atoms: C_2  and  C_3 
REMARK    2  A    between atoms: C_3  and  O_6 
REMARK    3  A    between atoms: C_3  and  C_4 
REMARK    4  A    between atoms: C_7  and  O_6 
REMARK    5  A    between atoms: C_9  and  C_10 
REMARK    6  A    between atoms: N_15  and  C_14 
REMARK    7  A    between atoms: N_20  and  C_19 
REMARK       I    between atoms: C_22  and  N_20 
ROOT
ATOM      1  C   LIG d   1      -5.317  74.852 117.382  0.00  0.00     0.161 C 
ATOM      2  C   LIG d   1      -4.110  74.138 117.305  0.00  0.00     0.016 C 
ATOM      3  C   LIG d   1      -2.885  74.623 117.820  0.00  0.00     0.038 C 
ATOM      4  C   LIG d   1      -2.815  75.797 118.584  0.00  0.00     0.028 C 
ATOM      5  C   LIG d   1      -3.915  76.801 118.255  0.00  0.00    -0.047 C 
ATOM      6  C   LIG d   1      -5.283  76.083 118.310  0.00  0.00     0.091 C 
ENDROOT
BRANCH   1   7
ATOM      7  O   LIG d   1      -6.386  73.964 117.766  0.00  0.00    -0.368 OA
BRANCH   7   8
ATOM      8  C   LIG d   1      -7.241  73.494 116.695  0.00  0.00     0.119 C 
BRANCH   8   9
ATOM      9  C   LIG d   1      -8.678  73.950 117.016  0.00  0.00     0.028 C 
ATOM     10  C   LIG d   1      -8.826  74.448 118.463  0.00  0.00     0.006 C 
ENDBRANCH   8   9
BRANCH   8  11
ATOM     11  C   LIG d   1      -7.299  71.964 116.659  0.00  0.00     0.028 C 
ATOM     12  C   LIG d   1      -8.732  71.426 116.522  0.00  0.00     0.006 C 
ENDBRANCH   8  11
ENDBRANCH   7   8
ENDBRANCH   1   7
BRANCH   6  13
ATOM     13  N   LIG d   1      -6.406  76.974 117.918  0.00  0.00    -0.311 N 
ATOM     14  C   LIG d   1      -7.125  77.675 118.793  0.00  0.00     0.210 C 
ATOM     15  C   LIG d   1      -8.250  78.515 118.179  0.00  0.00     0.109 C 
ATOM     16  O   LIG d   1      -6.918  77.706 120.015  0.00  0.00    -0.276 OA
ATOM     17  H   LIG d   1      -6.623  77.032 116.943  0.00  0.00     0.149 HD
ENDBRANCH   6  13
BRANCH   5  18
ATOM     18  N   LIG d   1      -3.805  77.913 119.218  0.00  0.00     0.381 N 
ATOM     19  H   LIG d   1      -3.391  77.586 120.068  0.00  0.00    -0.090 HD
ATOM     20  H   LIG d   1      -4.727  78.254 119.426  0.00  0.00    -0.090 HD
ATOM     21  H   LIG d   1      -3.252  78.646 118.831  0.00  0.00    -0.090 HD
ENDBRANCH   5  18
BRANCH   3  22
ATOM     22  C   LIG d   1      -1.706  73.951 117.535  0.00  0.00     0.382 C 
ATOM     23  O   LIG d   1      -1.153  73.255 118.420  0.00  0.00    -0.241 OA
ATOM     24  O   LIG d   1      -1.166  74.067 116.419  0.00  0.00    -0.241 OA
ENDBRANCH   3  22
TORSDOF 7
ENDMDL
MODEL 8
REMARK VINA RESULT:      -4.7      4.866      6.672
REMARK  7 active torsions:
REMARK  status: ('A' for Active; 'I' for Inactive)
REMARK    1  A    between atoms: C_2  and  C_3 
REMARK    2  A    between atoms: C_3  and  O_6 
REMARK    3  A    between atoms: C_3  and  C_4 
REMARK    4  A    between atoms: C_7  and  O_6 
REMARK    5  A    between atoms: C_9  and  C_10 
REMARK    6  A    between atoms: N_15  and  C_14 
REMARK    7  A    between atoms: N_20  and  C_19 
REMARK       I    between atoms: C_22  and  N_20 
ROOT
ATOM      1  C   LIG d   1      -2.406  78.812 116.075  0.00  0.00     0.161 C 
ATOM      2  C   LIG d   1      -2.818  80.086 115.650  0.00  0.00     0.016 C 
ATOM      3  C   LIG d   1      -2.892  80.467 114.291  0.00  0.00     0.038 C 
ATOM      4  C   LIG d   1      -2.702  79.545 113.251  0.00  0.00     0.028 C 
ATOM      5  C   LIG d   1      -1.793  78.381 113.632  0.00  0.00    -0.047 C 
ATOM      6  C   LIG d   1      -2.302  77.759 114.953  0.00  0.00     0.091 C 
ENDROOT
BRANCH   1   7
ATOM      7  O   LIG d   1      -3.276  78.342 117.124  0.00  0.00    -0.368 OA
BRANCH   7   8
ATOM      8  C   LIG d   1      -4.678  78.217 116.782  0.00  0.00     0.119 C 
BRANCH   8   9
ATOM      9  C   LIG d   1      -5.484  79.003 117.834  0.00  0.00     0.028 C 
ATOM     10  C   LIG d   1      -6.253  80.185 117.221  0.00  0.00     0.006 C 
ENDBRANCH   8   9
BRANCH   8  11
ATOM     11  C   LIG d   1      -5.154  76.766 116.906  0.00  0.00     0.028 C 
ATOM     12  C   LIG d   1      -6.098  76.349 115.767  0.00  0.00     0.006 C 
ENDBRANCH   8  11
ENDBRANCH   7   8
ENDBRANCH   1   7
BRANCH   6  13
ATOM     13  N   LIG d   1      -1.420  76.667 115.441  0.00  0.00    -0.311 N 
ATOM     14  C   LIG d   1      -1.792  75.388 115.485  0.00  0.00     0.210 C 
ATOM     15  C   LIG d   1      -0.737  74.427 116.042  0.00  0.00     0.109 C 
ATOM     16  O   LIG d   1      -2.883  74.955 115.086  0.00  0.00    -0.276 OA
ATOM     17  H   LIG d   1      -0.505  76.925 115.756  0.00  0.00     0.149 HD
ENDBRANCH   6  13
BRANCH   5  18
ATOM     18  N   LIG d   1      -1.793  77.428 112.506  0.00  0.00     0.381 N 
ATOM     19  H   LIG d   1      -2.078  77.894 111.668  0.00  0.00    -0.090 HD
ATOM     20  H   LIG d   1      -2.453  76.696 112.700  0.00  0.00    -0.090 HD
ATOM     21  H   LIG d   1      -0.882  77.042 112.387  0.00  0.00    -0.090 HD
ENDBRANCH   5  18
BRANCH   3  22
ATOM     22  C   LIG d   1      -3.120  81.794 113.960  0.00  0.00     0.382 C 
ATOM     23  O   LIG d   1      -3.134  82.670 114.858  0.00  0.00    -0.241 OA
ATOM     24  O   LIG d   1      -3.355  82.120 112.781  0.00  0.00    -0.241 OA
ENDBRANCH   3  22
TORSDOF 7
ENDMDL
MODEL 9
REMARK VINA RESULT:      -4.5     12.704     15.787
REMARK  7 active torsions:
REMARK  status: ('A' for Active; 'I' for Inactive)
REMARK    1  A    between atoms: C_2  and  C_3 
REMARK    2  A    between atoms: C_3  and  O_6 
REMARK    3  A    between atoms: C_3  and  C_4 
REMARK    4  A    between atoms: C_7  and  O_6 
REMARK    5  A    between atoms: C_9  and  C_10 
REMARK    6  A    between atoms: N_15  and  C_14 
REMARK    7  A    between atoms: N_20  and  C_19 
REMARK       I    between atoms: C_22  and  N_20 
ROOT
ATOM      1  C   LIG d   1     -16.083  63.278 116.767  0.00  0.00     0.161 C 
ATOM      2  C   LIG d   1     -16.258  61.947 116.351  0.00  0.00     0.016 C 
ATOM      3  C   LIG d   1     -16.852  61.589 115.119  0.00  0.00     0.038 C 
ATOM      4  C   LIG d   1     -17.175  62.546 114.145  0.00  0.00     0.028 C 
ATOM      5  C   LIG d   1     -17.480  63.922 114.727  0.00  0.00    -0.047 C 
ATOM      6  C   LIG d   1     -16.327  64.336 115.670  0.00  0.00     0.091 C 
ENDROOT
BRANCH   1   7
ATOM      7  O   LIG d   1     -14.769  63.442 117.337  0.00  0.00    -0.368 OA
BRANCH   7   8
ATOM      8  C   LIG d   1     -14.669  63.254 118.770  0.00  0.00     0.119 C 
BRANCH   8   9
ATOM      9  C   LIG d   1     -14.573  64.651 119.415  0.00  0.00     0.028 C 
ATOM     10  C   LIG d   1     -15.903  65.100 120.043  0.00  0.00     0.006 C 
ENDBRANCH   8   9
BRANCH   8  11
ATOM     11  C   LIG d   1     -13.367  62.543 119.149  0.00  0.00     0.028 C 
ATOM     12  C   LIG d   1     -12.611  63.249 120.286  0.00  0.00     0.006 C 
ENDBRANCH   8  11
ENDBRANCH   7   8
ENDBRANCH   1   7
BRANCH   6  13
ATOM     13  N   LIG d   1     -16.586  65.633 116.347  0.00  0.00    -0.311 N 
ATOM     14  C   LIG d   1     -15.645  66.554 116.551  0.00  0.00     0.210 C 
ATOM     15  C   LIG d   1     -16.120  67.812 117.285  0.00  0.00     0.109 C 
ATOM     16  O   LIG d   1     -14.470  66.462 116.166  0.00  0.00    -0.276 OA
ATOM     17  H   LIG d   1     -17.520  65.804 116.664  0.00  0.00     0.149 HD
ENDBRANCH   6  13
BRANCH   5  18
ATOM     18  N   LIG d   1     -17.664  64.853 113.597  0.00  0.00     0.381 N 
ATOM     19  H   LIG d   1     -17.914  64.341 112.774  0.00  0.00    -0.090 HD
ATOM     20  H   LIG d   1     -16.796  65.327 113.422  0.00  0.00    -0.090 HD
ATOM     21  H   LIG d   1     -18.375  65.516 113.814  0.00  0.00    -0.090 HD
ENDBRANCH   5  18
BRANCH   3  22
ATOM     22  C   LIG d   1     -17.164  60.262 114.867  0.00  0.00     0.382 C 
ATOM     23  O   LIG d   1     -16.951  59.772 113.732  0.00  0.00    -0.241 OA
ATOM     24  O   LIG d   1     -17.699  59.561 115.747  0.00  0.00    -0.241 OA
ENDBRANCH   3  22
TORSDOF 7
ENDMDL
