MODEL 1
REMARK VINA RESULT:      -5.6      0.000      0.000
REMARK  7 active torsions:
REMARK  status: ('A' for Active; 'I' for Inactive)
REMARK    1  A    between atoms: C_2  and  C_3 
REMARK    2  A    between atoms: C_3  and  O_6 
REMARK    3  A    between atoms: C_3  and  C_4 
REMARK    4  A    between atoms: C_7  and  O_6 
REMARK    5  A    between atoms: C_9  and  C_10 
REMARK    6  A    between atoms: N_15  and  C_14 
REMARK    7  A    between atoms: N_20  and  C_19 
REMARK       I    between atoms: C_22  and  N_20 
ROOT
ATOM      1  C   LIG d   1      -6.446  77.624 117.078  0.00  0.00     0.161 C 
ATOM      2  C   LIG d   1      -7.793  77.562 117.474  0.00  0.00     0.016 C 
ATOM      3  C   LIG d   1      -8.485  78.650 118.051  0.00  0.00     0.038 C 
ATOM      4  C   LIG d   1      -7.917  79.930 118.135  0.00  0.00     0.028 C 
ATOM      5  C   LIG d   1      -6.394  79.914 118.212  0.00  0.00    -0.047 C 
ATOM      6  C   LIG d   1      -5.843  79.044 117.059  0.00  0.00     0.091 C 
ENDROOT
BRANCH   1   7
ATOM      7  O   LIG d   1      -6.285  76.994 115.792  0.00  0.00    -0.368 OA
BRANCH   7   8
ATOM      8  C   LIG d   1      -5.550  75.745 115.782  0.00  0.00     0.119 C 
BRANCH   8   9
ATOM      9  C   LIG d   1      -4.332  75.932 114.857  0.00  0.00     0.028 C 
ATOM     10  C   LIG d   1      -3.011  75.534 115.537  0.00  0.00     0.006 C 
ENDBRANCH   8   9
BRANCH   8  11
ATOM     11  C   LIG d   1      -6.372  74.620 115.148  0.00  0.00     0.028 C 
ATOM     12  C   LIG d   1      -5.985  73.229 115.675  0.00  0.00     0.006 C 
ENDBRANCH   8  11
ENDBRANCH   7   8
ENDBRANCH   1   7
BRANCH   6  13
ATOM     13  N   LIG d   1      -4.364  78.906 117.111  0.00  0.00    -0.311 N 
ATOM     14  C   LIG d   1      -3.553  79.341 116.148  0.00  0.00     0.210 C 
ATOM     15  C   LIG d   1      -2.063  79.080 116.391  0.00  0.00     0.109 C 
ATOM     16  O   LIG d   1      -3.923  79.947 115.132  0.00  0.00    -0.276 OA
ATOM     17  H   LIG d   1      -3.976  78.454 117.916  0.00  0.00     0.149 HD
ENDBRANCH   6  13
BRANCH   5  18
ATOM     18  N   LIG d   1      -5.930  81.312 118.155  0.00  0.00     0.381 N 
ATOM     19  H   LIG d   1      -4.942  81.348 118.309  0.00  0.00    -0.090 HD
ATOM     20  H   LIG d   1      -6.381  81.835 118.885  0.00  0.00    -0.090 HD
ATOM     21  H   LIG d   1      -6.150  81.709 117.268  0.00  0.00    -0.090 HD
ENDBRANCH   5  18
BRANCH   3  22
ATOM     22  C   LIG d   1      -9.748  78.454 118.590  0.00  0.00     0.382 C 
ATOM     23  O   LIG d   1     -10.537  77.638 118.056  0.00  0.00    -0.241 OA
ATOM     24  O   LIG d   1     -10.123  79.114 119.578  0.00  0.00    -0.241 OA
ENDBRANCH   3  22
TORSDOF 7
ENDMDL
MODEL 2
REMARK VINA RESULT:      -5.3      2.501      4.789
REMARK  7 active torsions:
REMARK  status: ('A' for Active; 'I' for Inactive)
REMARK    1  A    between atoms: C_2  and  C_3 
REMARK    2  A    between atoms: C_3  and  O_6 
REMARK    3  A    between atoms: C_3  and  C_4 
REMARK    4  A    between atoms: C_7  and  O_6 
REMARK    5  A    between atoms: C_9  and  C_10 
REMARK    6  A    between atoms: N_15  and  C_14 
REMARK    7  A    between atoms: N_20  and  C_19 
REMARK       I    between atoms: C_22  and  N_20 
ROOT
ATOM      1  C   LIG d   1      -4.277  77.117 115.698  0.00  0.00     0.161 C 
ATOM      2  C   LIG d   1      -4.548  75.854 115.146  0.00  0.00     0.016 C 
ATOM      3  C   LIG d   1      -5.744  75.140 115.388  0.00  0.00     0.038 C 
ATOM      4  C   LIG d   1      -6.822  75.712 116.081  0.00  0.00     0.028 C 
ATOM      5  C   LIG d   1      -6.399  76.782 117.081  0.00  0.00    -0.047 C 
ATOM      6  C   LIG d   1      -5.486  77.804 116.366  0.00  0.00     0.091 C 
ENDROOT
BRANCH   1   7
ATOM      7  O   LIG d   1      -3.704  77.977 114.693  0.00  0.00    -0.368 OA
BRANCH   7   8
ATOM      8  C   LIG d   1      -2.814  77.342 113.742  0.00  0.00     0.119 C 
BRANCH   8   9
ATOM      9  C   LIG d   1      -1.372  77.572 114.234  0.00  0.00     0.028 C 
ATOM     10  C   LIG d   1      -0.712  76.279 114.742  0.00  0.00     0.006 C 
ENDBRANCH   8   9
BRANCH   8  11
ATOM     11  C   LIG d   1      -2.888  78.020 112.371  0.00  0.00     0.028 C 
ATOM     12  C   LIG d   1      -1.642  78.862 112.055  0.00  0.00     0.006 C 
ENDBRANCH   8  11
ENDBRANCH   7   8
ENDBRANCH   1   7
BRANCH   6  13
ATOM     13  N   LIG d   1      -4.959  78.840 117.294  0.00  0.00    -0.311 N 
ATOM     14  C   LIG d   1      -5.547  80.019 117.485  0.00  0.00     0.210 C 
ATOM     15  C   LIG d   1      -4.828  80.948 118.469  0.00  0.00     0.109 C 
ATOM     16  O   LIG d   1      -6.613  80.373 116.958  0.00  0.00    -0.276 OA
ATOM     17  H   LIG d   1      -4.115  78.624 117.786  0.00  0.00     0.149 HD
ENDBRANCH   6  13
BRANCH   5  18
ATOM     18  N   LIG d   1      -7.626  77.388 117.631  0.00  0.00     0.381 N 
ATOM     19  H   LIG d   1      -8.214  77.699 116.883  0.00  0.00    -0.090 HD
ATOM     20  H   LIG d   1      -7.374  78.186 118.187  0.00  0.00    -0.090 HD
ATOM     21  H   LIG d   1      -8.113  76.724 118.191  0.00  0.00    -0.090 HD
ENDBRANCH   5  18
BRANCH   3  22
ATOM     22  C   LIG d   1      -5.856  73.824 114.967  0.00  0.00     0.382 C 
ATOM     23  O   LIG d   1      -6.003  72.906 115.810  0.00  0.00    -0.241 OA
ATOM     24  O   LIG d   1      -5.766  73.537 113.758  0.00  0.00    -0.241 OA
ENDBRANCH   3  22
TORSDOF 7
ENDMDL
MODEL 3
REMARK VINA RESULT:      -5.2      3.311      7.114
REMARK  7 active torsions:
REMARK  status: ('A' for Active; 'I' for Inactive)
REMARK    1  A    between atoms: C_2  and  C_3 
REMARK    2  A    between atoms: C_3  and  O_6 
REMARK    3  A    between atoms: C_3  and  C_4 
REMARK    4  A    between atoms: C_7  and  O_6 
REMARK    5  A    between atoms: C_9  and  C_10 
REMARK    6  A    between atoms: N_15  and  C_14 
REMARK    7  A    between atoms: N_20  and  C_19 
REMARK       I    between atoms: C_22  and  N_20 
ROOT
ATOM      1  C   LIG d   1      -2.916  79.543 115.057  0.00  0.00     0.161 C 
ATOM      2  C   LIG d   1      -2.415  80.768 114.586  0.00  0.00     0.016 C 
ATOM      3  C   LIG d   1      -1.706  80.903 113.371  0.00  0.00     0.038 C 
ATOM      4  C   LIG d   1      -1.580  79.840 112.463  0.00  0.00     0.028 C 
ATOM      5  C   LIG d   1      -1.632  78.468 113.127  0.00  0.00    -0.047 C 
ATOM      6  C   LIG d   1      -2.886  78.393 114.028  0.00  0.00     0.091 C 
ENDROOT
BRANCH   1   7
ATOM      7  O   LIG d   1      -4.253  79.724 115.565  0.00  0.00    -0.368 OA
BRANCH   7   8
ATOM      8  C   LIG d   1      -4.362  80.030 116.977  0.00  0.00     0.119 C 
BRANCH   8   9
ATOM      9  C   LIG d   1      -4.819  78.746 117.695  0.00  0.00     0.028 C 
ATOM     10  C   LIG d   1      -6.057  78.114 117.036  0.00  0.00     0.006 C 
ENDBRANCH   8   9
BRANCH   8  11
ATOM     11  C   LIG d   1      -5.466  81.058 117.241  0.00  0.00     0.028 C 
ATOM     12  C   LIG d   1      -5.611  81.407 118.731  0.00  0.00     0.006 C 
ENDBRANCH   8  11
ENDBRANCH   7   8
ENDBRANCH   1   7
BRANCH   6  13
ATOM     13  N   LIG d   1      -2.968  77.114 114.780  0.00  0.00    -0.311 N 
ATOM     14  C   LIG d   1      -3.928  76.211 114.588  0.00  0.00     0.210 C 
ATOM     15  C   LIG d   1      -3.837  74.971 115.483  0.00  0.00     0.109 C 
ATOM     16  O   LIG d   1      -4.828  76.305 113.740  0.00  0.00    -0.276 OA
ATOM     17  H   LIG d   1      -2.259  76.942 115.466  0.00  0.00     0.149 HD
ENDBRANCH   6  13
BRANCH   5  18
ATOM     18  N   LIG d   1      -1.628  77.455 112.055  0.00  0.00     0.381 N 
ATOM     19  H   LIG d   1      -2.526  77.425 111.614  0.00  0.00    -0.090 HD
ATOM     20  H   LIG d   1      -1.446  76.553 112.461  0.00  0.00    -0.090 HD
ATOM     21  H   LIG d   1      -0.927  77.672 111.382  0.00  0.00    -0.090 HD
ENDBRANCH   5  18
BRANCH   3  22
ATOM     22  C   LIG d   1      -1.079  82.103 113.071  0.00  0.00     0.382 C 
ATOM     23  O   LIG d   1      -1.568  82.866 112.203  0.00  0.00    -0.241 OA
ATOM     24  O   LIG d   1      -0.007  82.411 113.625  0.00  0.00    -0.241 OA
ENDBRANCH   3  22
TORSDOF 7
ENDMDL
MODEL 4
REMARK VINA RESULT:      -5.0     20.010     21.856
REMARK  7 active torsions:
REMARK  status: ('A' for Active; 'I' for Inactive)
REMARK    1  A    between atoms: C_2  and  C_3 
REMARK    2  A    between atoms: C_3  and  O_6 
REMARK    3  A    between atoms: C_3  and  C_4 
REMARK    4  A    between atoms: C_7  and  O_6 
REMARK    5  A    between atoms: C_9  and  C_10 
REMARK    6  A    between atoms: N_15  and  C_14 
REMARK    7  A    between atoms: N_20  and  C_19 
REMARK       I    between atoms: C_22  and  N_20 
ROOT
ATOM      1  C   LIG d   1       0.311  57.189 118.869  0.00  0.00     0.161 C 
ATOM      2  C   LIG d   1      -1.070  57.089 119.109  0.00  0.00     0.016 C 
ATOM      3  C   LIG d   1      -2.048  57.695 118.288  0.00  0.00     0.038 C 
ATOM      4  C   LIG d   1      -1.716  58.319 117.076  0.00  0.00     0.028 C 
ATOM      5  C   LIG d   1      -0.298  58.879 117.053  0.00  0.00    -0.047 C 
ATOM      6  C   LIG d   1       0.687  57.772 117.491  0.00  0.00     0.091 C 
ENDROOT
BRANCH   1   7
ATOM      7  O   LIG d   1       0.933  55.902 119.056  0.00  0.00    -0.368 OA
BRANCH   7   8
ATOM      8  C   LIG d   1       0.630  54.896 118.058  0.00  0.00     0.119 C 
BRANCH   8   9
ATOM      9  C   LIG d   1       0.174  53.627 118.803  0.00  0.00     0.028 C 
ATOM     10  C   LIG d   1       0.501  53.679 120.305  0.00  0.00     0.006 C 
ENDBRANCH   8   9
BRANCH   8  11
ATOM     11  C   LIG d   1       1.885  54.483 117.283  0.00  0.00     0.028 C 
ATOM     12  C   LIG d   1       1.568  53.947 115.878  0.00  0.00     0.006 C 
ENDBRANCH   8  11
ENDBRANCH   7   8
ENDBRANCH   1   7
BRANCH   6  13
ATOM     13  N   LIG d   1       2.088  58.260 117.576  0.00  0.00    -0.311 N 
ATOM     14  C   LIG d   1       2.475  59.237 118.394  0.00  0.00     0.210 C 
ATOM     15  C   LIG d   1       3.961  59.601 118.310  0.00  0.00     0.109 C 
ATOM     16  O   LIG d   1       1.736  59.816 119.204  0.00  0.00    -0.276 OA
ATOM     17  H   LIG d   1       2.760  57.824 116.976  0.00  0.00     0.149 HD
ENDBRANCH   6  13
BRANCH   5  18
ATOM     18  N   LIG d   1      -0.038  59.377 115.689  0.00  0.00     0.381 N 
ATOM     19  H   LIG d   1       0.026  60.376 115.699  0.00  0.00    -0.090 HD
ATOM     20  H   LIG d   1      -0.807  59.117 115.096  0.00  0.00    -0.090 HD
ATOM     21  H   LIG d   1       0.808  58.986 115.338  0.00  0.00    -0.090 HD
ENDBRANCH   5  18
BRANCH   3  22
ATOM     22  C   LIG d   1      -3.373  57.714 118.697  0.00  0.00     0.382 C 
ATOM     23  O   LIG d   1      -4.107  58.686 118.399  0.00  0.00    -0.241 OA
ATOM     24  O   LIG d   1      -3.831  56.791 119.398  0.00  0.00    -0.241 OA
ENDBRANCH   3  22
TORSDOF 7
ENDMDL
MODEL 5
REMARK VINA RESULT:      -5.0      2.588      5.571
REMARK  7 active torsions:
REMARK  status: ('A' for Active; 'I' for Inactive)
REMARK    1  A    between atoms: C_2  and  C_3 
REMARK    2  A    between atoms: C_3  and  O_6 
REMARK    3  A    between atoms: C_3  and  C_4 
REMARK    4  A    between atoms: C_7  and  O_6 
REMARK    5  A    between atoms: C_9  and  C_10 
REMARK    6  A    between atoms: N_15  and  C_14 
REMARK    7  A    between atoms: N_20  and  C_19 
REMARK       I    between atoms: C_22  and  N_20 
ROOT
ATOM      1  C   LIG d   1      -3.738  77.135 115.267  0.00  0.00     0.161 C 
ATOM      2  C   LIG d   1      -2.980  75.959 115.130  0.00  0.00     0.016 C 
ATOM      3  C   LIG d   1      -2.009  75.546 116.071  0.00  0.00     0.038 C 
ATOM      4  C   LIG d   1      -1.835  76.206 117.296  0.00  0.00     0.028 C 
ATOM      5  C   LIG d   1      -2.221  77.680 117.250  0.00  0.00    -0.047 C 
ATOM      6  C   LIG d   1      -3.641  77.809 116.651  0.00  0.00     0.091 C 
ENDROOT
BRANCH   1   7
ATOM      7  O   LIG d   1      -5.115  76.870 114.934  0.00  0.00    -0.368 OA
BRANCH   7   8
ATOM      8  C   LIG d   1      -5.780  75.859 115.731  0.00  0.00     0.119 C 
BRANCH   8   9
ATOM      9  C   LIG d   1      -6.147  74.695 114.790  0.00  0.00     0.028 C 
ATOM     10  C   LIG d   1      -6.113  73.332 115.502  0.00  0.00     0.006 C 
ENDBRANCH   8   9
BRANCH   8  11
ATOM     11  C   LIG d   1      -7.114  76.373 116.281  0.00  0.00     0.028 C 
ATOM     12  C   LIG d   1      -6.993  76.943 117.702  0.00  0.00     0.006 C 
ENDBRANCH   8  11
ENDBRANCH   7   8
ENDBRANCH   1   7
BRANCH   6  13
ATOM     13  N   LIG d   1      -4.063  79.225 116.493  0.00  0.00    -0.311 N 
ATOM     14  C   LIG d   1      -4.684  79.916 117.447  0.00  0.00     0.210 C 
ATOM     15  C   LIG d   1      -5.049  81.355 117.069  0.00  0.00     0.109 C 
ATOM     16  O   LIG d   1      -4.938  79.485 118.581  0.00  0.00    -0.276 OA
ATOM     17  H   LIG d   1      -3.868  79.663 115.614  0.00  0.00     0.149 HD
ENDBRANCH   6  13
BRANCH   5  18
ATOM     18  N   LIG d   1      -2.123  78.210 118.623  0.00  0.00     0.381 N 
ATOM     19  H   LIG d   1      -2.261  79.201 118.615  0.00  0.00    -0.090 HD
ATOM     20  H   LIG d   1      -1.201  78.023 118.978  0.00  0.00    -0.090 HD
ATOM     21  H   LIG d   1      -2.805  77.777 119.205  0.00  0.00    -0.090 HD
ENDBRANCH   5  18
BRANCH   3  22
ATOM     22  C   LIG d   1      -1.171  74.483 115.771  0.00  0.00     0.382 C 
ATOM     23  O   LIG d   1      -0.684  74.373 114.619  0.00  0.00    -0.241 OA
ATOM     24  O   LIG d   1      -0.930  73.607 116.624  0.00  0.00    -0.241 OA
ENDBRANCH   3  22
TORSDOF 7
ENDMDL
MODEL 6
REMARK VINA RESULT:      -5.0      4.840      6.841
REMARK  7 active torsions:
REMARK  status: ('A' for Active; 'I' for Inactive)
REMARK    1  A    between atoms: C_2  and  C_3 
REMARK    2  A    between atoms: C_3  and  O_6 
REMARK    3  A    between atoms: C_3  and  C_4 
REMARK    4  A    between atoms: C_7  and  O_6 
REMARK    5  A    between atoms: C_9  and  C_10 
REMARK    6  A    between atoms: N_15  and  C_14 
REMARK    7  A    between atoms: N_20  and  C_19 
REMARK       I    between atoms: C_22  and  N_20 
ROOT
ATOM      1  C   LIG d   1      -0.860  77.278 115.295  0.00  0.00     0.161 C 
ATOM      2  C   LIG d   1      -2.190  77.125 114.872  0.00  0.00     0.016 C 
ATOM      3  C   LIG d   1      -2.917  75.920 115.009  0.00  0.00     0.038 C 
ATOM      4  C   LIG d   1      -2.407  74.824 115.721  0.00  0.00     0.028 C 
ATOM      5  C   LIG d   1      -0.884  74.759 115.724  0.00  0.00    -0.047 C 
ATOM      6  C   LIG d   1      -0.324  76.128 116.174  0.00  0.00     0.091 C 
ENDROOT
BRANCH   1   7
ATOM      7  O   LIG d   1      -0.705  78.541 115.973  0.00  0.00    -0.368 OA
BRANCH   7   8
ATOM      8  C   LIG d   1      -1.813  78.956 116.809  0.00  0.00     0.119 C 
BRANCH   8   9
ATOM      9  C   LIG d   1      -2.063  80.452 116.537  0.00  0.00     0.028 C 
ATOM     10  C   LIG d   1      -3.391  80.701 115.802  0.00  0.00     0.006 C 
ENDBRANCH   8   9
BRANCH   8  11
ATOM     11  C   LIG d   1      -1.453  78.868 118.295  0.00  0.00     0.028 C 
ATOM     12  C   LIG d   1      -2.162  77.708 119.012  0.00  0.00     0.006 C 
ENDBRANCH   8  11
ENDBRANCH   7   8
ENDBRANCH   1   7
BRANCH   6  13
ATOM     13  N   LIG d   1       1.160  76.178 116.125  0.00  0.00    -0.311 N 
ATOM     14  C   LIG d   1       1.922  76.413 117.192  0.00  0.00     0.210 C 
ATOM     15  C   LIG d   1       3.429  76.442 116.917  0.00  0.00     0.109 C 
ATOM     16  O   LIG d   1       1.494  76.570 118.345  0.00  0.00    -0.276 OA
ATOM     17  H   LIG d   1       1.592  76.031 115.233  0.00  0.00     0.149 HD
ENDBRANCH   6  13
BRANCH   5  18
ATOM     18  N   LIG d   1      -0.487  73.652 116.614  0.00  0.00     0.381 N 
ATOM     19  H   LIG d   1      -0.177  72.873 116.068  0.00  0.00    -0.090 HD
ATOM     20  H   LIG d   1      -1.286  73.363 117.150  0.00  0.00    -0.090 HD
ATOM     21  H   LIG d   1       0.242  73.950 117.225  0.00  0.00    -0.090 HD
ENDBRANCH   5  18
BRANCH   3  22
ATOM     22  C   LIG d   1      -4.153  75.790 114.395  0.00  0.00     0.382 C 
ATOM     23  O   LIG d   1      -4.741  74.681 114.399  0.00  0.00    -0.241 OA
ATOM     24  O   LIG d   1      -4.668  76.755 113.799  0.00  0.00    -0.241 OA
ENDBRANCH   3  22
TORSDOF 7
ENDMDL
MODEL 7
REMARK VINA RESULT:      -4.7     14.258     16.928
REMARK  7 active torsions:
REMARK  status: ('A' for Active; 'I' for Inactive)
REMARK    1  A    between atoms: C_2  and  C_3 
REMARK    2  A    between atoms: C_3  and  O_6 
REMARK    3  A    between atoms: C_3  and  C_4 
REMARK    4  A    between atoms: C_7  and  O_6 
REMARK    5  A    between atoms: C_9  and  C_10 
REMARK    6  A    between atoms: N_15  and  C_14 
REMARK    7  A    between atoms: N_20  and  C_19 
REMARK       I    between atoms: C_22  and  N_20 
ROOT
ATOM      1  C   LIG d   1     -16.278  64.732 117.152  0.00  0.00     0.161 C 
ATOM      2  C   LIG d   1     -16.380  65.991 116.539  0.00  0.00     0.016 C 
ATOM      3  C   LIG d   1     -15.524  67.076 116.841  0.00  0.00     0.038 C 
ATOM      4  C   LIG d   1     -14.405  66.927 117.674  0.00  0.00     0.028 C 
ATOM      5  C   LIG d   1     -14.560  65.813 118.704  0.00  0.00    -0.047 C 
ATOM      6  C   LIG d   1     -14.994  64.518 117.981  0.00  0.00     0.091 C 
ENDROOT
BRANCH   1   7
ATOM      7  O   LIG d   1     -16.413  63.693 116.162  0.00  0.00    -0.368 OA
BRANCH   7   8
ATOM      8  C   LIG d   1     -17.598  62.866 116.264  0.00  0.00     0.119 C 
BRANCH   8   9
ATOM      9  C   LIG d   1     -17.132  61.421 116.531  0.00  0.00     0.028 C 
ATOM     10  C   LIG d   1     -17.665  60.869 117.863  0.00  0.00     0.006 C 
ENDBRANCH   8   9
BRANCH   8  11
ATOM     11  C   LIG d   1     -18.355  62.808 114.934  0.00  0.00     0.028 C 
ATOM     12  C   LIG d   1     -18.794  64.195 114.438  0.00  0.00     0.006 C 
ENDBRANCH   8  11
ENDBRANCH   7   8
ENDBRANCH   1   7
BRANCH   6  13
ATOM     13  N   LIG d   1     -15.250  63.400 118.927  0.00  0.00    -0.311 N 
ATOM     14  C   LIG d   1     -14.337  62.482 119.241  0.00  0.00     0.210 C 
ATOM     15  C   LIG d   1     -14.814  61.405 120.220  0.00  0.00     0.109 C 
ATOM     16  O   LIG d   1     -13.168  62.477 118.827  0.00  0.00    -0.276 OA
ATOM     17  H   LIG d   1     -16.163  63.346 119.333  0.00  0.00     0.149 HD
ENDBRANCH   6  13
BRANCH   5  18
ATOM     18  N   LIG d   1     -13.273  65.678 119.411  0.00  0.00     0.381 N 
ATOM     19  H   LIG d   1     -13.400  65.144 120.247  0.00  0.00    -0.090 HD
ATOM     20  H   LIG d   1     -12.945  66.592 119.668  0.00  0.00    -0.090 HD
ATOM     21  H   LIG d   1     -12.605  65.231 118.821  0.00  0.00    -0.090 HD
ENDBRANCH   5  18
BRANCH   3  22
ATOM     22  C   LIG d   1     -15.809  68.336 116.339  0.00  0.00     0.382 C 
ATOM     23  O   LIG d   1     -15.282  68.717 115.265  0.00  0.00    -0.241 OA
ATOM     24  O   LIG d   1     -16.550  69.115 116.968  0.00  0.00    -0.241 OA
ENDBRANCH   3  22
TORSDOF 7
ENDMDL
MODEL 8
REMARK VINA RESULT:      -4.5      4.817      7.219
REMARK  7 active torsions:
REMARK  status: ('A' for Active; 'I' for Inactive)
REMARK    1  A    between atoms: C_2  and  C_3 
REMARK    2  A    between atoms: C_3  and  O_6 
REMARK    3  A    between atoms: C_3  and  C_4 
REMARK    4  A    between atoms: C_7  and  O_6 
REMARK    5  A    between atoms: C_9  and  C_10 
REMARK    6  A    between atoms: N_15  and  C_14 
REMARK    7  A    between atoms: N_20  and  C_19 
REMARK       I    between atoms: C_22  and  N_20 
ROOT
ATOM      1  C   LIG d   1      -1.000  77.402 115.697  0.00  0.00     0.161 C 
ATOM      2  C   LIG d   1      -2.354  77.270 115.347  0.00  0.00     0.016 C 
ATOM      3  C   LIG d   1      -3.037  76.032 115.332  0.00  0.00     0.038 C 
ATOM      4  C   LIG d   1      -2.447  74.854 115.815  0.00  0.00     0.028 C 
ATOM      5  C   LIG d   1      -0.926  74.847 115.703  0.00  0.00    -0.047 C 
ATOM      6  C   LIG d   1      -0.371  76.145 116.334  0.00  0.00     0.091 C 
ENDROOT
BRANCH   1   7
ATOM      7  O   LIG d   1      -0.828  78.541 116.563  0.00  0.00    -0.368 OA
BRANCH   7   8
ATOM      8  C   LIG d   1      -0.038  79.633 116.030  0.00  0.00     0.119 C 
BRANCH   8   9
ATOM      9  C   LIG d   1       0.639  80.339 117.221  0.00  0.00     0.028 C 
ATOM     10  C   LIG d   1       2.171  80.367 117.092  0.00  0.00     0.006 C 
ENDBRANCH   8   9
BRANCH   8  11
ATOM     11  C   LIG d   1      -0.926  80.697 115.379  0.00  0.00     0.028 C 
ATOM     12  C   LIG d   1      -0.239  81.409 114.203  0.00  0.00     0.006 C 
ENDBRANCH   8  11
ENDBRANCH   7   8
ENDBRANCH   1   7
BRANCH   6  13
ATOM     13  N   LIG d   1       1.104  76.258 116.191  0.00  0.00    -0.311 N 
ATOM     14  C   LIG d   1       1.936  76.358 117.226  0.00  0.00     0.210 C 
ATOM     15  C   LIG d   1       3.417  76.485 116.856  0.00  0.00     0.109 C 
ATOM     16  O   LIG d   1       1.590  76.321 118.417  0.00  0.00    -0.276 OA
ATOM     17  H   LIG d   1       1.473  76.264 115.260  0.00  0.00     0.149 HD
ENDBRANCH   6  13
BRANCH   5  18
ATOM     18  N   LIG d   1      -0.436  73.625 116.366  0.00  0.00     0.381 N 
ATOM     19  H   LIG d   1       0.559  73.565 116.273  0.00  0.00    -0.090 HD
ATOM     20  H   LIG d   1      -0.844  72.825 115.917  0.00  0.00    -0.090 HD
ATOM     21  H   LIG d   1      -0.685  73.637 117.331  0.00  0.00    -0.090 HD
ENDBRANCH   5  18
BRANCH   3  22
ATOM     22  C   LIG d   1      -4.312  75.957 114.792  0.00  0.00     0.382 C 
ATOM     23  O   LIG d   1      -4.721  74.878 114.299  0.00  0.00    -0.241 OA
ATOM     24  O   LIG d   1      -5.041  76.965 114.753  0.00  0.00    -0.241 OA
ENDBRANCH   3  22
TORSDOF 7
ENDMDL
MODEL 9
REMARK VINA RESULT:      -4.5     13.203     15.392
REMARK  7 active torsions:
REMARK  status: ('A' for Active; 'I' for Inactive)
REMARK    1  A    between atoms: C_2  and  C_3 
REMARK    2  A    between atoms: C_3  and  O_6 
REMARK    3  A    between atoms: C_3  and  C_4 
REMARK    4  A    between atoms: C_7  and  O_6 
REMARK    5  A    between atoms: C_9  and  C_10 
REMARK    6  A    between atoms: N_15  and  C_14 
REMARK    7  A    between atoms: N_20  and  C_19 
REMARK       I    between atoms: C_22  and  N_20 
ROOT
ATOM      1  C   LIG d   1       3.914  88.754 115.742  0.00  0.00     0.161 C 
ATOM      2  C   LIG d   1       3.009  88.269 114.783  0.00  0.00     0.016 C 
ATOM      3  C   LIG d   1       3.274  88.263 113.395  0.00  0.00     0.038 C 
ATOM      4  C   LIG d   1       4.533  88.605 112.879  0.00  0.00     0.028 C 
ATOM      5  C   LIG d   1       5.306  89.578 113.763  0.00  0.00    -0.047 C 
ATOM      6  C   LIG d   1       5.336  89.028 115.208  0.00  0.00     0.091 C 
ENDROOT
BRANCH   1   7
ATOM      7  O   LIG d   1       3.966  87.853 116.865  0.00  0.00    -0.368 OA
BRANCH   7   8
ATOM      8  C   LIG d   1       2.767  87.080 117.118  0.00  0.00     0.119 C 
BRANCH   8   9
ATOM      9  C   LIG d   1       2.199  87.538 118.476  0.00  0.00     0.028 C 
ATOM     10  C   LIG d   1       1.134  88.637 118.325  0.00  0.00     0.006 C 
ENDBRANCH   8   9
BRANCH   8  11
ATOM     11  C   LIG d   1       3.089  85.593 117.295  0.00  0.00     0.028 C 
ATOM     12  C   LIG d   1       4.426  85.193 116.652  0.00  0.00     0.006 C 
ENDBRANCH   8  11
ENDBRANCH   7   8
ENDBRANCH   1   7
BRANCH   6  13
ATOM     13  N   LIG d   1       6.000  89.960 116.155  0.00  0.00    -0.311 N 
ATOM     14  C   LIG d   1       7.187  89.718 116.710  0.00  0.00     0.210 C 
ATOM     15  C   LIG d   1       7.682  90.801 117.675  0.00  0.00     0.109 C 
ATOM     16  O   LIG d   1       7.891  88.726 116.471  0.00  0.00    -0.276 OA
ATOM     17  H   LIG d   1       5.513  90.805 116.381  0.00  0.00     0.149 HD
ENDBRANCH   6  13
BRANCH   5  18
ATOM     18  N   LIG d   1       6.650  89.740 113.178  0.00  0.00     0.381 N 
ATOM     19  H   LIG d   1       7.248  89.003 113.494  0.00  0.00    -0.090 HD
ATOM     20  H   LIG d   1       7.037  90.614 113.489  0.00  0.00    -0.090 HD
ATOM     21  H   LIG d   1       6.593  89.728 112.184  0.00  0.00    -0.090 HD
ENDBRANCH   5  18
BRANCH   3  22
ATOM     22  C   LIG d   1       2.260  87.950 112.503  0.00  0.00     0.382 C 
ATOM     23  O   LIG d   1       1.421  88.823 112.175  0.00  0.00    -0.241 OA
ATOM     24  O   LIG d   1       2.147  86.793 112.055  0.00  0.00    -0.241 OA
ENDBRANCH   3  22
TORSDOF 7
ENDMDL
