MODEL 1
REMARK VINA RESULT:      -5.5      0.000      0.000
REMARK  7 active torsions:
REMARK  status: ('A' for Active; 'I' for Inactive)
REMARK    1  A    between atoms: C_2  and  C_3 
REMARK    2  A    between atoms: C_3  and  O_6 
REMARK    3  A    between atoms: C_3  and  C_4 
REMARK    4  A    between atoms: C_7  and  O_6 
REMARK    5  A    between atoms: C_9  and  C_10 
REMARK    6  A    between atoms: N_15  and  C_14 
REMARK    7  A    between atoms: N_20  and  C_19 
REMARK       I    between atoms: C_22  and  N_20 
ROOT
ATOM      1  C   LIG d   1      -3.173  77.206 116.573  0.00  0.00     0.161 C 
ATOM      2  C   LIG d   1      -3.420  78.145 115.558  0.00  0.00     0.016 C 
ATOM      3  C   LIG d   1      -2.562  78.340 114.452  0.00  0.00     0.038 C 
ATOM      4  C   LIG d   1      -1.469  77.496 114.204  0.00  0.00     0.028 C 
ATOM      5  C   LIG d   1      -0.895  76.862 115.467  0.00  0.00    -0.047 C 
ATOM      6  C   LIG d   1      -2.044  76.201 116.262  0.00  0.00     0.091 C 
ENDROOT
BRANCH   1   7
ATOM      7  O   LIG d   1      -4.390  76.507 116.899  0.00  0.00    -0.368 OA
BRANCH   7   8
ATOM      8  C   LIG d   1      -5.545  76.824 116.084  0.00  0.00     0.119 C 
BRANCH   8   9
ATOM      9  C   LIG d   1      -6.663  77.302 117.032  0.00  0.00     0.028 C 
ATOM     10  C   LIG d   1      -7.904  76.395 116.980  0.00  0.00     0.006 C 
ENDBRANCH   8   9
BRANCH   8  11
ATOM     11  C   LIG d   1      -6.103  75.574 115.397  0.00  0.00     0.028 C 
ATOM     12  C   LIG d   1      -5.061  74.859 114.523  0.00  0.00     0.006 C 
ENDBRANCH   8  11
ENDBRANCH   7   8
ENDBRANCH   1   7
BRANCH   6  13
ATOM     13  N   LIG d   1      -1.583  75.629 117.554  0.00  0.00    -0.311 N 
ATOM     14  C   LIG d   1      -1.179  74.368 117.695  0.00  0.00     0.210 C 
ATOM     15  C   LIG d   1      -0.764  73.977 119.117  0.00  0.00     0.109 C 
ATOM     16  O   LIG d   1      -1.096  73.544 116.772  0.00  0.00    -0.276 OA
ATOM     17  H   LIG d   1      -1.588  76.237 118.350  0.00  0.00     0.149 HD
ENDBRANCH   6  13
BRANCH   5  18
ATOM     18  N   LIG d   1       0.146  75.904 115.051  0.00  0.00     0.381 N 
ATOM     19  H   LIG d   1      -0.215  74.972 115.093  0.00  0.00    -0.090 HD
ATOM     20  H   LIG d   1       0.922  75.971 115.686  0.00  0.00    -0.090 HD
ATOM     21  H   LIG d   1       0.448  76.109 114.124  0.00  0.00    -0.090 HD
ENDBRANCH   5  18
BRANCH   3  22
ATOM     22  C   LIG d   1      -2.772  79.413 113.599  0.00  0.00     0.382 C 
ATOM     23  O   LIG d   1      -3.392  80.425 114.007  0.00  0.00    -0.241 OA
ATOM     24  O   LIG d   1      -2.389  79.364 112.415  0.00  0.00    -0.241 OA
ENDBRANCH   3  22
TORSDOF 7
ENDMDL
MODEL 2
REMARK VINA RESULT:      -5.0      4.114      7.332
REMARK  7 active torsions:
REMARK  status: ('A' for Active; 'I' for Inactive)
REMARK    1  A    between atoms: C_2  and  C_3 
REMARK    2  A    between atoms: C_3  and  O_6 
REMARK    3  A    between atoms: C_3  and  C_4 
REMARK    4  A    between atoms: C_7  and  O_6 
REMARK    5  A    between atoms: C_9  and  C_10 
REMARK    6  A    between atoms: N_15  and  C_14 
REMARK    7  A    between atoms: N_20  and  C_19 
REMARK       I    between atoms: C_22  and  N_20 
ROOT
ATOM      1  C   LIG d   1      -7.617  77.221 117.805  0.00  0.00     0.161 C 
ATOM      2  C   LIG d   1      -8.818  76.507 117.654  0.00  0.00     0.016 C 
ATOM      3  C   LIG d   1     -10.046  76.923 118.217  0.00  0.00     0.038 C 
ATOM      4  C   LIG d   1     -10.190  78.168 118.846  0.00  0.00     0.028 C 
ATOM      5  C   LIG d   1      -8.895  78.690 119.460  0.00  0.00    -0.047 C 
ATOM      6  C   LIG d   1      -7.778  78.639 118.393  0.00  0.00     0.091 C 
ENDROOT
BRANCH   1   7
ATOM      7  O   LIG d   1      -6.921  77.278 116.544  0.00  0.00    -0.368 OA
BRANCH   7   8
ATOM      8  C   LIG d   1      -5.933  76.244 116.314  0.00  0.00     0.119 C 
BRANCH   8   9
ATOM      9  C   LIG d   1      -4.544  76.875 116.527  0.00  0.00     0.028 C 
ATOM     10  C   LIG d   1      -3.956  76.548 117.910  0.00  0.00     0.006 C 
ENDBRANCH   8   9
BRANCH   8  11
ATOM     11  C   LIG d   1      -5.946  75.775 114.856  0.00  0.00     0.028 C 
ATOM     12  C   LIG d   1      -4.964  74.622 114.592  0.00  0.00     0.006 C 
ENDBRANCH   8  11
ENDBRANCH   7   8
ENDBRANCH   1   7
BRANCH   6  13
ATOM     13  N   LIG d   1      -6.457  79.053 118.936  0.00  0.00    -0.311 N 
ATOM     14  C   LIG d   1      -5.675  79.957 118.349  0.00  0.00     0.210 C 
ATOM     15  C   LIG d   1      -4.346  80.223 119.064  0.00  0.00     0.109 C 
ATOM     16  O   LIG d   1      -5.969  80.588 117.323  0.00  0.00    -0.276 OA
ATOM     17  H   LIG d   1      -6.154  78.614 119.783  0.00  0.00     0.149 HD
ENDBRANCH   6  13
BRANCH   5  18
ATOM     18  N   LIG d   1      -9.156  80.053 119.959  0.00  0.00     0.381 N 
ATOM     19  H   LIG d   1      -8.991  80.718 119.230  0.00  0.00    -0.090 HD
ATOM     20  H   LIG d   1      -8.524  80.249 120.715  0.00  0.00    -0.090 HD
ATOM     21  H   LIG d   1     -10.098  80.125 120.277  0.00  0.00    -0.090 HD
ENDBRANCH   5  18
BRANCH   3  22
ATOM     22  C   LIG d   1     -11.139  76.070 118.187  0.00  0.00     0.382 C 
ATOM     23  O   LIG d   1     -11.084  75.003 117.529  0.00  0.00    -0.241 OA
ATOM     24  O   LIG d   1     -12.194  76.374 118.775  0.00  0.00    -0.241 OA
ENDBRANCH   3  22
TORSDOF 7
ENDMDL
MODEL 3
REMARK VINA RESULT:      -5.0     20.607     21.990
REMARK  7 active torsions:
REMARK  status: ('A' for Active; 'I' for Inactive)
REMARK    1  A    between atoms: C_2  and  C_3 
REMARK    2  A    between atoms: C_3  and  O_6 
REMARK    3  A    between atoms: C_3  and  C_4 
REMARK    4  A    between atoms: C_7  and  O_6 
REMARK    5  A    between atoms: C_9  and  C_10 
REMARK    6  A    between atoms: N_15  and  C_14 
REMARK    7  A    between atoms: N_20  and  C_19 
REMARK       I    between atoms: C_22  and  N_20 
ROOT
ATOM      1  C   LIG d   1     -23.036  84.031 115.467  0.00  0.00     0.161 C 
ATOM      2  C   LIG d   1     -22.595  85.314 115.104  0.00  0.00     0.016 C 
ATOM      3  C   LIG d   1     -22.828  85.887 113.833  0.00  0.00     0.038 C 
ATOM      4  C   LIG d   1     -23.654  85.270 112.882  0.00  0.00     0.028 C 
ATOM      5  C   LIG d   1     -23.703  83.751 113.016  0.00  0.00    -0.047 C 
ATOM      6  C   LIG d   1     -24.035  83.388 114.481  0.00  0.00     0.091 C 
ENDROOT
BRANCH   1   7
ATOM      7  O   LIG d   1     -23.594  84.063 116.795  0.00  0.00    -0.368 OA
BRANCH   7   8
ATOM      8  C   LIG d   1     -22.647  83.967 117.887  0.00  0.00     0.119 C 
BRANCH   8   9
ATOM      9  C   LIG d   1     -22.182  82.500 117.968  0.00  0.00     0.028 C 
ATOM     10  C   LIG d   1     -23.336  81.535 118.286  0.00  0.00     0.006 C 
ENDBRANCH   8   9
BRANCH   8  11
ATOM     11  C   LIG d   1     -23.317  84.255 119.234  0.00  0.00     0.028 C 
ATOM     12  C   LIG d   1     -24.621  85.056 119.091  0.00  0.00     0.006 C 
ENDBRANCH   8  11
ENDBRANCH   7   8
ENDBRANCH   1   7
BRANCH   6  13
ATOM     13  N   LIG d   1     -24.019  81.921 114.719  0.00  0.00    -0.311 N 
ATOM     14  C   LIG d   1     -25.115  81.164 114.704  0.00  0.00     0.210 C 
ATOM     15  C   LIG d   1     -24.879  79.678 114.993  0.00  0.00     0.109 C 
ATOM     16  O   LIG d   1     -26.256  81.577 114.449  0.00  0.00    -0.276 OA
ATOM     17  H   LIG d   1     -23.131  81.498 114.903  0.00  0.00     0.149 HD
ENDBRANCH   6  13
BRANCH   5  18
ATOM     18  N   LIG d   1     -24.704  83.251 112.055  0.00  0.00     0.381 N 
ATOM     19  H   LIG d   1     -25.166  84.022 111.615  0.00  0.00    -0.090 HD
ATOM     20  H   LIG d   1     -25.392  82.714 112.553  0.00  0.00    -0.090 HD
ATOM     21  H   LIG d   1     -24.262  82.682 111.367  0.00  0.00    -0.090 HD
ENDBRANCH   5  18
BRANCH   3  22
ATOM     22  C   LIG d   1     -22.197  87.072 113.487  0.00  0.00     0.382 C 
ATOM     23  O   LIG d   1     -22.682  88.170 113.853  0.00  0.00    -0.241 OA
ATOM     24  O   LIG d   1     -21.174  87.060 112.776  0.00  0.00    -0.241 OA
ENDBRANCH   3  22
TORSDOF 7
ENDMDL
MODEL 4
REMARK VINA RESULT:      -4.9      3.198      5.266
REMARK  7 active torsions:
REMARK  status: ('A' for Active; 'I' for Inactive)
REMARK    1  A    between atoms: C_2  and  C_3 
REMARK    2  A    between atoms: C_3  and  O_6 
REMARK    3  A    between atoms: C_3  and  C_4 
REMARK    4  A    between atoms: C_7  and  O_6 
REMARK    5  A    between atoms: C_9  and  C_10 
REMARK    6  A    between atoms: N_15  and  C_14 
REMARK    7  A    between atoms: N_20  and  C_19 
REMARK       I    between atoms: C_22  and  N_20 
ROOT
ATOM      1  C   LIG d   1      -6.770  77.374 117.141  0.00  0.00     0.161 C 
ATOM      2  C   LIG d   1      -6.570  76.573 116.005  0.00  0.00     0.016 C 
ATOM      3  C   LIG d   1      -5.300  76.339 115.431  0.00  0.00     0.038 C 
ATOM      4  C   LIG d   1      -4.117  76.772 116.048  0.00  0.00     0.028 C 
ATOM      5  C   LIG d   1      -4.305  78.010 116.918  0.00  0.00    -0.047 C 
ATOM      6  C   LIG d   1      -5.480  77.764 117.892  0.00  0.00     0.091 C 
ENDROOT
BRANCH   1   7
ATOM      7  O   LIG d   1      -7.697  76.730 118.037  0.00  0.00    -0.368 OA
BRANCH   7   8
ATOM      8  C   LIG d   1      -9.103  76.957 117.772  0.00  0.00     0.119 C 
BRANCH   8   9
ATOM      9  C   LIG d   1      -9.679  77.737 118.970  0.00  0.00     0.028 C 
ATOM     10  C   LIG d   1      -9.802  79.244 118.685  0.00  0.00     0.006 C 
ENDBRANCH   8   9
BRANCH   8  11
ATOM     11  C   LIG d   1      -9.883  75.640 117.733  0.00  0.00     0.028 C 
ATOM     12  C   LIG d   1     -11.364  75.813 118.105  0.00  0.00     0.006 C 
ENDBRANCH   8  11
ENDBRANCH   7   8
ENDBRANCH   1   7
BRANCH   6  13
ATOM     13  N   LIG d   1      -5.787  78.958 118.723  0.00  0.00    -0.311 N 
ATOM     14  C   LIG d   1      -6.126  80.140 118.211  0.00  0.00     0.210 C 
ATOM     15  C   LIG d   1      -6.381  81.242 119.244  0.00  0.00     0.109 C 
ATOM     16  O   LIG d   1      -6.272  80.371 117.001  0.00  0.00    -0.276 OA
ATOM     17  H   LIG d   1      -5.723  78.851 119.716  0.00  0.00     0.149 HD
ENDBRANCH   6  13
BRANCH   5  18
ATOM     18  N   LIG d   1      -3.027  78.270 117.607  0.00  0.00     0.381 N 
ATOM     19  H   LIG d   1      -3.002  79.217 117.928  0.00  0.00    -0.090 HD
ATOM     20  H   LIG d   1      -2.274  78.137 116.955  0.00  0.00    -0.090 HD
ATOM     21  H   LIG d   1      -2.923  77.647 118.378  0.00  0.00    -0.090 HD
ENDBRANCH   5  18
BRANCH   3  22
ATOM     22  C   LIG d   1      -5.207  75.699 114.204  0.00  0.00     0.382 C 
ATOM     23  O   LIG d   1      -4.716  74.546 114.134  0.00  0.00    -0.241 OA
ATOM     24  O   LIG d   1      -5.567  76.276 113.161  0.00  0.00    -0.241 OA
ENDBRANCH   3  22
TORSDOF 7
ENDMDL
MODEL 5
REMARK VINA RESULT:      -4.9     12.655     15.065
REMARK  7 active torsions:
REMARK  status: ('A' for Active; 'I' for Inactive)
REMARK    1  A    between atoms: C_2  and  C_3 
REMARK    2  A    between atoms: C_3  and  O_6 
REMARK    3  A    between atoms: C_3  and  C_4 
REMARK    4  A    between atoms: C_7  and  O_6 
REMARK    5  A    between atoms: C_9  and  C_10 
REMARK    6  A    between atoms: N_15  and  C_14 
REMARK    7  A    between atoms: N_20  and  C_19 
REMARK       I    between atoms: C_22  and  N_20 
ROOT
ATOM      1  C   LIG d   1      10.872  79.148 114.827  0.00  0.00     0.161 C 
ATOM      2  C   LIG d   1       9.549  79.538 115.093  0.00  0.00     0.016 C 
ATOM      3  C   LIG d   1       8.564  78.657 115.595  0.00  0.00     0.038 C 
ATOM      4  C   LIG d   1       8.877  77.354 116.010  0.00  0.00     0.028 C 
ATOM      5  C   LIG d   1      10.084  76.762 115.290  0.00  0.00    -0.047 C 
ATOM      6  C   LIG d   1      11.261  77.760 115.379  0.00  0.00     0.091 C 
ENDROOT
BRANCH   1   7
ATOM      7  O   LIG d   1      11.785  80.153 115.312  0.00  0.00    -0.368 OA
BRANCH   7   8
ATOM      8  C   LIG d   1      12.384  81.007 114.307  0.00  0.00     0.119 C 
BRANCH   8   9
ATOM      9  C   LIG d   1      12.080  80.387 112.930  0.00  0.00     0.028 C 
ATOM     10  C   LIG d   1      11.204  81.300 112.055  0.00  0.00     0.006 C 
ENDBRANCH   8   9
BRANCH   8  11
ATOM     11  C   LIG d   1      13.912  81.014 114.420  0.00  0.00     0.028 C 
ATOM     12  C   LIG d   1      14.601  80.360 113.213  0.00  0.00     0.006 C 
ENDBRANCH   8  11
ENDBRANCH   7   8
ENDBRANCH   1   7
BRANCH   6  13
ATOM     13  N   LIG d   1      12.456  77.295 114.627  0.00  0.00    -0.311 N 
ATOM     14  C   LIG d   1      13.684  77.275 115.143  0.00  0.00     0.210 C 
ATOM     15  C   LIG d   1      14.776  76.778 114.191  0.00  0.00     0.109 C 
ATOM     16  O   LIG d   1      13.967  77.590 116.308  0.00  0.00    -0.276 OA
ATOM     17  H   LIG d   1      12.312  76.992 113.684  0.00  0.00     0.149 HD
ENDBRANCH   6  13
BRANCH   5  18
ATOM     18  N   LIG d   1      10.382  75.459 115.916  0.00  0.00     0.381 N 
ATOM     19  H   LIG d   1       9.528  74.999 116.162  0.00  0.00    -0.090 HD
ATOM     20  H   LIG d   1      10.909  75.616 116.756  0.00  0.00    -0.090 HD
ATOM     21  H   LIG d   1      10.905  74.891 115.287  0.00  0.00    -0.090 HD
ENDBRANCH   5  18
BRANCH   3  22
ATOM     22  C   LIG d   1       7.240  79.065 115.648  0.00  0.00     0.382 C 
ATOM     23  O   LIG d   1       6.907  80.020 116.390  0.00  0.00    -0.241 OA
ATOM     24  O   LIG d   1       6.366  78.461 114.996  0.00  0.00    -0.241 OA
ENDBRANCH   3  22
TORSDOF 7
ENDMDL
MODEL 6
REMARK VINA RESULT:      -4.8     13.350     15.619
REMARK  7 active torsions:
REMARK  status: ('A' for Active; 'I' for Inactive)
REMARK    1  A    between atoms: C_2  and  C_3 
REMARK    2  A    between atoms: C_3  and  O_6 
REMARK    3  A    between atoms: C_3  and  C_4 
REMARK    4  A    between atoms: C_7  and  O_6 
REMARK    5  A    between atoms: C_9  and  C_10 
REMARK    6  A    between atoms: N_15  and  C_14 
REMARK    7  A    between atoms: N_20  and  C_19 
REMARK       I    between atoms: C_22  and  N_20 
ROOT
ATOM      1  C   LIG d   1      -0.742  90.953 116.939  0.00  0.00     0.161 C 
ATOM      2  C   LIG d   1       0.580  91.299 117.266  0.00  0.00     0.016 C 
ATOM      3  C   LIG d   1       0.961  92.587 117.707  0.00  0.00     0.038 C 
ATOM      4  C   LIG d   1       0.015  93.581 117.998  0.00  0.00     0.028 C 
ATOM      5  C   LIG d   1      -1.279  93.437 117.203  0.00  0.00    -0.047 C 
ATOM      6  C   LIG d   1      -1.804  91.992 117.356  0.00  0.00     0.091 C 
ENDROOT
BRANCH   1   7
ATOM      7  O   LIG d   1      -1.060  89.661 117.494  0.00  0.00    -0.368 OA
BRANCH   7   8
ATOM      8  C   LIG d   1      -0.781  89.486 118.904  0.00  0.00     0.119 C 
BRANCH   8   9
ATOM      9  C   LIG d   1      -0.250  88.053 119.097  0.00  0.00     0.028 C 
ATOM     10  C   LIG d   1       0.250  87.430 117.783  0.00  0.00     0.006 C 
ENDBRANCH   8   9
BRANCH   8  11
ATOM     11  C   LIG d   1      -2.063  89.559 119.739  0.00  0.00     0.028 C 
ATOM     12  C   LIG d   1      -3.127  88.546 119.288  0.00  0.00     0.006 C 
ENDBRANCH   8  11
ENDBRANCH   7   8
ENDBRANCH   1   7
BRANCH   6  13
ATOM     13  N   LIG d   1      -3.022  91.742 116.542  0.00  0.00    -0.311 N 
ATOM     14  C   LIG d   1      -4.238  91.601 117.066  0.00  0.00     0.210 C 
ATOM     15  C   LIG d   1      -5.353  91.330 116.051  0.00  0.00     0.109 C 
ATOM     16  O   LIG d   1      -4.505  91.708 118.273  0.00  0.00    -0.276 OA
ATOM     17  H   LIG d   1      -2.901  91.672 115.551  0.00  0.00     0.149 HD
ENDBRANCH   6  13
BRANCH   5  18
ATOM     18  N   LIG d   1      -2.225  94.453 117.703  0.00  0.00     0.381 N 
ATOM     19  H   LIG d   1      -2.156  94.518 118.699  0.00  0.00    -0.090 HD
ATOM     20  H   LIG d   1      -3.160  94.169 117.470  0.00  0.00    -0.090 HD
ATOM     21  H   LIG d   1      -2.025  95.337 117.290  0.00  0.00    -0.090 HD
ENDBRANCH   5  18
BRANCH   3  22
ATOM     22  C   LIG d   1       2.306  92.903 117.823  0.00  0.00     0.382 C 
ATOM     23  O   LIG d   1       3.139  92.400 117.031  0.00  0.00    -0.241 OA
ATOM     24  O   LIG d   1       2.702  93.651 118.737  0.00  0.00    -0.241 OA
ENDBRANCH   3  22
TORSDOF 7
ENDMDL
MODEL 7
REMARK VINA RESULT:      -4.6      3.923      6.839
REMARK  7 active torsions:
REMARK  status: ('A' for Active; 'I' for Inactive)
REMARK    1  A    between atoms: C_2  and  C_3 
REMARK    2  A    between atoms: C_3  and  O_6 
REMARK    3  A    between atoms: C_3  and  C_4 
REMARK    4  A    between atoms: C_7  and  O_6 
REMARK    5  A    between atoms: C_9  and  C_10 
REMARK    6  A    between atoms: N_15  and  C_14 
REMARK    7  A    between atoms: N_20  and  C_19 
REMARK       I    between atoms: C_22  and  N_20 
ROOT
ATOM      1  C   LIG d   1      -7.697  78.600 118.109  0.00  0.00     0.161 C 
ATOM      2  C   LIG d   1      -8.943  78.017 118.395  0.00  0.00     0.016 C 
ATOM      3  C   LIG d   1      -9.325  76.734 117.942  0.00  0.00     0.038 C 
ATOM      4  C   LIG d   1      -8.422  75.878 117.293  0.00  0.00     0.028 C 
ATOM      5  C   LIG d   1      -7.319  76.617 116.542  0.00  0.00    -0.047 C 
ATOM      6  C   LIG d   1      -6.658  77.636 117.498  0.00  0.00     0.091 C 
ENDROOT
BRANCH   1   7
ATOM      7  O   LIG d   1      -7.165  79.223 119.295  0.00  0.00    -0.368 OA
BRANCH   7   8
ATOM      8  C   LIG d   1      -7.300  80.663 119.373  0.00  0.00     0.119 C 
BRANCH   8   9
ATOM      9  C   LIG d   1      -7.301  81.207 117.931  0.00  0.00     0.028 C 
ATOM     10  C   LIG d   1      -8.331  82.331 117.728  0.00  0.00     0.006 C 
ENDBRANCH   8   9
BRANCH   8  11
ATOM     11  C   LIG d   1      -6.082  81.302 120.047  0.00  0.00     0.028 C 
ATOM     12  C   LIG d   1      -4.761  80.956 119.341  0.00  0.00     0.006 C 
ENDBRANCH   8  11
ENDBRANCH   7   8
ENDBRANCH   1   7
BRANCH   6  13
ATOM     13  N   LIG d   1      -5.625  78.461 116.819  0.00  0.00    -0.311 N 
ATOM     14  C   LIG d   1      -4.328  78.158 116.820  0.00  0.00     0.210 C 
ATOM     15  C   LIG d   1      -3.431  79.153 116.077  0.00  0.00     0.109 C 
ATOM     16  O   LIG d   1      -3.839  77.142 117.337  0.00  0.00    -0.276 OA
ATOM     17  H   LIG d   1      -5.938  79.287 116.348  0.00  0.00     0.149 HD
ENDBRANCH   6  13
BRANCH   5  18
ATOM     18  N   LIG d   1      -6.374  75.606 116.031  0.00  0.00     0.381 N 
ATOM     19  H   LIG d   1      -6.607  75.372 115.087  0.00  0.00    -0.090 HD
ATOM     20  H   LIG d   1      -6.452  74.776 116.591  0.00  0.00    -0.090 HD
ATOM     21  H   LIG d   1      -5.443  75.958 116.073  0.00  0.00    -0.090 HD
ENDBRANCH   5  18
BRANCH   3  22
ATOM     22  C   LIG d   1     -10.635  76.310 118.101  0.00  0.00     0.382 C 
ATOM     23  O   LIG d   1     -11.427  76.975 118.813  0.00  0.00    -0.241 OA
ATOM     24  O   LIG d   1     -11.024  75.249 117.578  0.00  0.00    -0.241 OA
ENDBRANCH   3  22
TORSDOF 7
ENDMDL
MODEL 8
REMARK VINA RESULT:      -4.6      1.391      2.175
REMARK  7 active torsions:
REMARK  status: ('A' for Active; 'I' for Inactive)
REMARK    1  A    between atoms: C_2  and  C_3 
REMARK    2  A    between atoms: C_3  and  O_6 
REMARK    3  A    between atoms: C_3  and  C_4 
REMARK    4  A    between atoms: C_7  and  O_6 
REMARK    5  A    between atoms: C_9  and  C_10 
REMARK    6  A    between atoms: N_15  and  C_14 
REMARK    7  A    between atoms: N_20  and  C_19 
REMARK       I    between atoms: C_22  and  N_20 
ROOT
ATOM      1  C   LIG d   1      -3.353  77.768 116.337  0.00  0.00     0.161 C 
ATOM      2  C   LIG d   1      -3.445  78.693 115.284  0.00  0.00     0.016 C 
ATOM      3  C   LIG d   1      -2.585  78.683 114.162  0.00  0.00     0.038 C 
ATOM      4  C   LIG d   1      -1.664  77.648 113.942  0.00  0.00     0.028 C 
ATOM      5  C   LIG d   1      -1.192  76.975 115.227  0.00  0.00    -0.047 C 
ATOM      6  C   LIG d   1      -2.427  76.565 116.061  0.00  0.00     0.091 C 
ENDROOT
BRANCH   1   7
ATOM      7  O   LIG d   1      -4.670  77.313 116.704  0.00  0.00    -0.368 OA
BRANCH   7   8
ATOM      8  C   LIG d   1      -5.447  78.213 117.532  0.00  0.00     0.119 C 
BRANCH   8   9
ATOM      9  C   LIG d   1      -4.634  78.481 118.814  0.00  0.00     0.028 C 
ATOM     10  C   LIG d   1      -4.597  77.263 119.751  0.00  0.00     0.006 C 
ENDBRANCH   8   9
BRANCH   8  11
ATOM     11  C   LIG d   1      -6.745  77.552 118.007  0.00  0.00     0.028 C 
ATOM     12  C   LIG d   1      -7.858  78.570 118.301  0.00  0.00     0.006 C 
ENDBRANCH   8  11
ENDBRANCH   7   8
ENDBRANCH   1   7
BRANCH   6  13
ATOM     13  N   LIG d   1      -2.054  75.975 117.373  0.00  0.00    -0.311 N 
ATOM     14  C   LIG d   1      -1.946  74.664 117.583  0.00  0.00     0.210 C 
ATOM     15  C   LIG d   1      -1.570  74.267 119.015  0.00  0.00     0.109 C 
ATOM     16  O   LIG d   1      -2.095  73.793 116.713  0.00  0.00    -0.276 OA
ATOM     17  H   LIG d   1      -1.885  76.611 118.128  0.00  0.00     0.149 HD
ENDBRANCH   6  13
BRANCH   5  18
ATOM     18  N   LIG d   1      -0.346  75.829 114.844  0.00  0.00     0.381 N 
ATOM     19  H   LIG d   1      -0.125  75.286 115.655  0.00  0.00    -0.090 HD
ATOM     20  H   LIG d   1       0.512  76.175 114.453  0.00  0.00    -0.090 HD
ATOM     21  H   LIG d   1      -0.820  75.263 114.176  0.00  0.00    -0.090 HD
ENDBRANCH   5  18
BRANCH   3  22
ATOM     22  C   LIG d   1      -2.614  79.740 113.264  0.00  0.00     0.382 C 
ATOM     23  O   LIG d   1      -1.861  79.730 112.260  0.00  0.00    -0.241 OA
ATOM     24  O   LIG d   1      -3.350  80.723 113.470  0.00  0.00    -0.241 OA
ENDBRANCH   3  22
TORSDOF 7
ENDMDL
MODEL 9
REMARK VINA RESULT:      -4.5     21.858     24.520
REMARK  7 active torsions:
REMARK  status: ('A' for Active; 'I' for Inactive)
REMARK    1  A    between atoms: C_2  and  C_3 
REMARK    2  A    between atoms: C_3  and  O_6 
REMARK    3  A    between atoms: C_3  and  C_4 
REMARK    4  A    between atoms: C_7  and  O_6 
REMARK    5  A    between atoms: C_9  and  C_10 
REMARK    6  A    between atoms: N_15  and  C_14 
REMARK    7  A    between atoms: N_20  and  C_19 
REMARK       I    between atoms: C_22  and  N_20 
ROOT
ATOM      1  C   LIG d   1     -25.378  85.753 112.886  0.00  0.00     0.161 C 
ATOM      2  C   LIG d   1     -23.990  85.676 113.087  0.00  0.00     0.016 C 
ATOM      3  C   LIG d   1     -23.214  86.752 113.576  0.00  0.00     0.038 C 
ATOM      4  C   LIG d   1     -23.801  87.938 114.043  0.00  0.00     0.028 C 
ATOM      5  C   LIG d   1     -25.143  88.247 113.389  0.00  0.00    -0.047 C 
ATOM      6  C   LIG d   1     -26.052  87.001 113.494  0.00  0.00     0.091 C 
ENDROOT
BRANCH   1   7
ATOM      7  O   LIG d   1     -26.010  84.553 113.375  0.00  0.00    -0.368 OA
BRANCH   7   8
ATOM      8  C   LIG d   1     -25.276  83.812 114.381  0.00  0.00     0.119 C 
BRANCH   8   9
ATOM      9  C   LIG d   1     -25.384  82.317 114.024  0.00  0.00     0.028 C 
ATOM     10  C   LIG d   1     -24.080  81.551 114.305  0.00  0.00     0.006 C 
ENDBRANCH   8   9
BRANCH   8  11
ATOM     11  C   LIG d   1     -25.929  83.948 115.760  0.00  0.00     0.028 C 
ATOM     12  C   LIG d   1     -25.272  85.034 116.626  0.00  0.00     0.006 C 
ENDBRANCH   8  11
ENDBRANCH   7   8
ENDBRANCH   1   7
BRANCH   6  13
ATOM     13  N   LIG d   1     -27.355  87.189 112.805  0.00  0.00    -0.311 N 
ATOM     14  C   LIG d   1     -28.532  87.074 113.418  0.00  0.00     0.210 C 
ATOM     15  C   LIG d   1     -29.753  87.288 112.518  0.00  0.00     0.109 C 
ATOM     16  O   LIG d   1     -28.680  86.845 114.628  0.00  0.00    -0.276 OA
ATOM     17  H   LIG d   1     -27.327  87.408 111.828  0.00  0.00     0.149 HD
ENDBRANCH   6  13
BRANCH   5  18
ATOM     18  N   LIG d   1     -25.706  89.431 114.065  0.00  0.00     0.381 N 
ATOM     19  H   LIG d   1     -26.705  89.379 114.064  0.00  0.00    -0.090 HD
ATOM     20  H   LIG d   1     -25.433  90.255 113.559  0.00  0.00    -0.090 HD
ATOM     21  H   LIG d   1     -25.370  89.481 115.002  0.00  0.00    -0.090 HD
ENDBRANCH   5  18
BRANCH   3  22
ATOM     22  C   LIG d   1     -21.830  86.663 113.564  0.00  0.00     0.382 C 
ATOM     23  O   LIG d   1     -21.149  87.552 112.999  0.00  0.00    -0.241 OA
ATOM     24  O   LIG d   1     -21.256  85.681 114.072  0.00  0.00    -0.241 OA
ENDBRANCH   3  22
TORSDOF 7
ENDMDL
