MODEL 1
REMARK VINA RESULT:      -6.0      0.000      0.000
REMARK  7 active torsions:
REMARK  status: ('A' for Active; 'I' for Inactive)
REMARK    1  A    between atoms: C_2  and  C_3 
REMARK    2  A    between atoms: C_3  and  O_6 
REMARK    3  A    between atoms: C_3  and  C_4 
REMARK    4  A    between atoms: C_7  and  O_6 
REMARK    5  A    between atoms: C_9  and  C_10 
REMARK    6  A    between atoms: N_15  and  C_14 
REMARK    7  A    between atoms: N_20  and  C_19 
REMARK       I    between atoms: C_22  and  N_20 
ROOT
ATOM      1  C   LIG d   1      -7.223  75.092 117.374  0.00  0.00     0.161 C 
ATOM      2  C   LIG d   1      -8.450  75.659 117.759  0.00  0.00     0.016 C 
ATOM      3  C   LIG d   1      -8.700  77.051 117.750  0.00  0.00     0.038 C 
ATOM      4  C   LIG d   1      -7.784  77.965 117.208  0.00  0.00     0.028 C 
ATOM      5  C   LIG d   1      -6.338  77.486 117.276  0.00  0.00    -0.047 C 
ATOM      6  C   LIG d   1      -6.251  76.065 116.675  0.00  0.00     0.091 C 
ENDROOT
BRANCH   1   7
ATOM      7  O   LIG d   1      -7.459  73.937 116.545  0.00  0.00    -0.368 OA
BRANCH   7   8
ATOM      8  C   LIG d   1      -7.968  72.760 117.220  0.00  0.00     0.119 C 
BRANCH   8   9
ATOM      9  C   LIG d   1      -7.237  71.537 116.634  0.00  0.00     0.028 C 
ATOM     10  C   LIG d   1      -6.148  71.933 115.623  0.00  0.00     0.006 C 
ENDBRANCH   8   9
BRANCH   8  11
ATOM     11  C   LIG d   1      -9.450  72.536 116.906  0.00  0.00     0.028 C 
ATOM     12  C   LIG d   1      -9.843  71.050 116.917  0.00  0.00     0.006 C 
ENDBRANCH   8  11
ENDBRANCH   7   8
ENDBRANCH   1   7
BRANCH   6  13
ATOM     13  N   LIG d   1      -4.885  75.488 116.779  0.00  0.00    -0.311 N 
ATOM     14  C   LIG d   1      -3.981  75.566 115.804  0.00  0.00     0.210 C 
ATOM     15  C   LIG d   1      -2.642  74.887 116.109  0.00  0.00     0.109 C 
ATOM     16  O   LIG d   1      -4.149  76.161 114.729  0.00  0.00    -0.276 OA
ATOM     17  H   LIG d   1      -4.654  75.014 117.630  0.00  0.00     0.149 HD
ENDBRANCH   6  13
BRANCH   5  18
ATOM     18  N   LIG d   1      -5.508  78.470 116.555  0.00  0.00     0.381 N 
ATOM     19  H   LIG d   1      -5.084  78.037 115.759  0.00  0.00    -0.090 HD
ATOM     20  H   LIG d   1      -4.779  78.791 117.167  0.00  0.00    -0.090 HD
ATOM     21  H   LIG d   1      -6.069  79.240 116.263  0.00  0.00    -0.090 HD
ENDBRANCH   5  18
BRANCH   3  22
ATOM     22  C   LIG d   1      -9.862  77.544 118.324  0.00  0.00     0.382 C 
ATOM     23  O   LIG d   1     -10.880  76.815 118.404  0.00  0.00    -0.241 OA
ATOM     24  O   LIG d   1      -9.918  78.722 118.724  0.00  0.00    -0.241 OA
ENDBRANCH   3  22
TORSDOF 7
ENDMDL
MODEL 2
REMARK VINA RESULT:      -5.8      1.997      3.075
REMARK  7 active torsions:
REMARK  status: ('A' for Active; 'I' for Inactive)
REMARK    1  A    between atoms: C_2  and  C_3 
REMARK    2  A    between atoms: C_3  and  O_6 
REMARK    3  A    between atoms: C_3  and  C_4 
REMARK    4  A    between atoms: C_7  and  O_6 
REMARK    5  A    between atoms: C_9  and  C_10 
REMARK    6  A    between atoms: N_15  and  C_14 
REMARK    7  A    between atoms: N_20  and  C_19 
REMARK       I    between atoms: C_22  and  N_20 
ROOT
ATOM      1  C   LIG d   1      -6.064  76.727 117.936  0.00  0.00     0.161 C 
ATOM      2  C   LIG d   1      -7.399  76.466 118.286  0.00  0.00     0.016 C 
ATOM      3  C   LIG d   1      -8.397  77.466 118.348  0.00  0.00     0.038 C 
ATOM      4  C   LIG d   1      -8.159  78.779 117.916  0.00  0.00     0.028 C 
ATOM      5  C   LIG d   1      -6.698  79.200 118.035  0.00  0.00    -0.047 C 
ATOM      6  C   LIG d   1      -5.811  78.134 117.354  0.00  0.00     0.091 C 
ENDROOT
BRANCH   1   7
ATOM      7  O   LIG d   1      -5.590  75.715 117.025  0.00  0.00    -0.368 OA
BRANCH   7   8
ATOM      8  C   LIG d   1      -6.577  75.159 116.122  0.00  0.00     0.119 C 
BRANCH   8   9
ATOM      9  C   LIG d   1      -6.346  73.636 116.067  0.00  0.00     0.028 C 
ATOM     10  C   LIG d   1      -7.401  72.853 116.867  0.00  0.00     0.006 C 
ENDBRANCH   8   9
BRANCH   8  11
ATOM     11  C   LIG d   1      -6.362  75.654 114.689  0.00  0.00     0.028 C 
ATOM     12  C   LIG d   1      -4.903  76.048 114.407  0.00  0.00     0.006 C 
ENDBRANCH   8  11
ENDBRANCH   7   8
ENDBRANCH   1   7
BRANCH   6  13
ATOM     13  N   LIG d   1      -4.361  78.426 117.498  0.00  0.00    -0.311 N 
ATOM     14  C   LIG d   1      -3.626  78.981 116.536  0.00  0.00     0.210 C 
ATOM     15  C   LIG d   1      -2.147  79.178 116.884  0.00  0.00     0.109 C 
ATOM     16  O   LIG d   1      -4.065  79.359 115.439  0.00  0.00    -0.276 OA
ATOM     17  H   LIG d   1      -3.931  78.180 118.368  0.00  0.00     0.149 HD
ENDBRANCH   6  13
BRANCH   5  18
ATOM     18  N   LIG d   1      -6.569  80.536 117.423  0.00  0.00     0.381 N 
ATOM     19  H   LIG d   1      -6.504  80.449 116.429  0.00  0.00    -0.090 HD
ATOM     20  H   LIG d   1      -5.725  80.967 117.757  0.00  0.00    -0.090 HD
ATOM     21  H   LIG d   1      -7.355  81.099 117.664  0.00  0.00    -0.090 HD
ENDBRANCH   5  18
BRANCH   3  22
ATOM     22  C   LIG d   1      -9.639  77.164 118.886  0.00  0.00     0.382 C 
ATOM     23  O   LIG d   1      -9.814  77.215 120.127  0.00  0.00    -0.241 OA
ATOM     24  O   LIG d   1     -10.574  76.799 118.149  0.00  0.00    -0.241 OA
ENDBRANCH   3  22
TORSDOF 7
ENDMDL
MODEL 3
REMARK VINA RESULT:      -5.7      3.443      6.033
REMARK  7 active torsions:
REMARK  status: ('A' for Active; 'I' for Inactive)
REMARK    1  A    between atoms: C_2  and  C_3 
REMARK    2  A    between atoms: C_3  and  O_6 
REMARK    3  A    between atoms: C_3  and  C_4 
REMARK    4  A    between atoms: C_7  and  O_6 
REMARK    5  A    between atoms: C_9  and  C_10 
REMARK    6  A    between atoms: N_15  and  C_14 
REMARK    7  A    between atoms: N_20  and  C_19 
REMARK       I    between atoms: C_22  and  N_20 
ROOT
ATOM      1  C   LIG d   1      -3.409  76.674 115.540  0.00  0.00     0.161 C 
ATOM      2  C   LIG d   1      -3.427  77.659 114.539  0.00  0.00     0.016 C 
ATOM      3  C   LIG d   1      -2.257  78.222 113.980  0.00  0.00     0.038 C 
ATOM      4  C   LIG d   1      -0.979  77.725 114.280  0.00  0.00     0.028 C 
ATOM      5  C   LIG d   1      -0.889  77.078 115.658  0.00  0.00    -0.047 C 
ATOM      6  C   LIG d   1      -2.026  76.041 115.800  0.00  0.00     0.091 C 
ENDROOT
BRANCH   1   7
ATOM      7  O   LIG d   1      -4.379  75.652 115.237  0.00  0.00    -0.368 OA
BRANCH   7   8
ATOM      8  C   LIG d   1      -5.594  75.671 116.027  0.00  0.00     0.119 C 
BRANCH   8   9
ATOM      9  C   LIG d   1      -6.177  74.245 116.015  0.00  0.00     0.028 C 
ATOM     10  C   LIG d   1      -7.446  74.122 116.875  0.00  0.00     0.006 C 
ENDBRANCH   8   9
BRANCH   8  11
ATOM     11  C   LIG d   1      -6.666  76.553 115.380  0.00  0.00     0.028 C 
ATOM     12  C   LIG d   1      -6.814  76.300 113.871  0.00  0.00     0.006 C 
ENDBRANCH   8  11
ENDBRANCH   7   8
ENDBRANCH   1   7
BRANCH   6  13
ATOM     13  N   LIG d   1      -2.062  75.421 117.150  0.00  0.00    -0.311 N 
ATOM     14  C   LIG d   1      -1.389  74.316 117.468  0.00  0.00     0.210 C 
ATOM     15  C   LIG d   1      -1.581  73.834 118.909  0.00  0.00     0.109 C 
ATOM     16  O   LIG d   1      -0.625  73.709 116.703  0.00  0.00    -0.276 OA
ATOM     17  H   LIG d   1      -2.633  75.866 117.842  0.00  0.00     0.149 HD
ENDBRANCH   6  13
BRANCH   5  18
ATOM     18  N   LIG d   1       0.455  76.483 115.783  0.00  0.00     0.381 N 
ATOM     19  H   LIG d   1       0.634  76.249 116.739  0.00  0.00    -0.090 HD
ATOM     20  H   LIG d   1       1.138  77.159 115.491  0.00  0.00    -0.090 HD
ATOM     21  H   LIG d   1       0.521  75.666 115.216  0.00  0.00    -0.090 HD
ENDBRANCH   5  18
BRANCH   3  22
ATOM     22  C   LIG d   1      -2.356  79.320 113.140  0.00  0.00     0.382 C 
ATOM     23  O   LIG d   1      -1.726  79.339 112.055  0.00  0.00    -0.241 OA
ATOM     24  O   LIG d   1      -3.031  80.312 113.475  0.00  0.00    -0.241 OA
ENDBRANCH   3  22
TORSDOF 7
ENDMDL
MODEL 4
REMARK VINA RESULT:      -5.5      2.128      4.864
REMARK  7 active torsions:
REMARK  status: ('A' for Active; 'I' for Inactive)
REMARK    1  A    between atoms: C_2  and  C_3 
REMARK    2  A    between atoms: C_3  and  O_6 
REMARK    3  A    between atoms: C_3  and  C_4 
REMARK    4  A    between atoms: C_7  and  O_6 
REMARK    5  A    between atoms: C_9  and  C_10 
REMARK    6  A    between atoms: N_15  and  C_14 
REMARK    7  A    between atoms: N_20  and  C_19 
REMARK       I    between atoms: C_22  and  N_20 
ROOT
ATOM      1  C   LIG d   1      -6.636  76.997 116.693  0.00  0.00     0.161 C 
ATOM      2  C   LIG d   1      -7.990  76.868 117.048  0.00  0.00     0.016 C 
ATOM      3  C   LIG d   1      -8.656  75.624 117.133  0.00  0.00     0.038 C 
ATOM      4  C   LIG d   1      -7.971  74.406 117.015  0.00  0.00     0.028 C 
ATOM      5  C   LIG d   1      -6.712  74.499 116.160  0.00  0.00    -0.047 C 
ATOM      6  C   LIG d   1      -5.845  75.672 116.670  0.00  0.00     0.091 C 
ENDROOT
BRANCH   1   7
ATOM      7  O   LIG d   1      -5.993  77.950 117.562  0.00  0.00    -0.368 OA
BRANCH   7   8
ATOM      8  C   LIG d   1      -5.688  79.241 116.978  0.00  0.00     0.119 C 
BRANCH   8   9
ATOM      9  C   LIG d   1      -4.154  79.363 116.899  0.00  0.00     0.028 C 
ATOM     10  C   LIG d   1      -3.464  78.940 118.207  0.00  0.00     0.006 C 
ENDBRANCH   8   9
BRANCH   8  11
ATOM     11  C   LIG d   1      -6.141  80.385 117.889  0.00  0.00     0.028 C 
ATOM     12  C   LIG d   1      -7.622  80.748 117.699  0.00  0.00     0.006 C 
ENDBRANCH   8  11
ENDBRANCH   7   8
ENDBRANCH   1   7
BRANCH   6  13
ATOM     13  N   LIG d   1      -4.634  75.887 115.836  0.00  0.00    -0.311 N 
ATOM     14  C   LIG d   1      -3.392  75.764 116.301  0.00  0.00     0.210 C 
ATOM     15  C   LIG d   1      -2.287  76.049 115.279  0.00  0.00     0.109 C 
ATOM     16  O   LIG d   1      -3.100  75.415 117.455  0.00  0.00    -0.276 OA
ATOM     17  H   LIG d   1      -4.779  76.143 114.879  0.00  0.00     0.149 HD
ENDBRANCH   6  13
BRANCH   5  18
ATOM     18  N   LIG d   1      -6.024  73.196 116.236  0.00  0.00     0.381 N 
ATOM     19  H   LIG d   1      -6.396  72.576 115.544  0.00  0.00    -0.090 HD
ATOM     20  H   LIG d   1      -6.189  72.794 117.141  0.00  0.00    -0.090 HD
ATOM     21  H   LIG d   1      -5.046  73.318 116.092  0.00  0.00    -0.090 HD
ENDBRANCH   5  18
BRANCH   3  22
ATOM     22  C   LIG d   1     -10.033  75.592 117.298  0.00  0.00     0.382 C 
ATOM     23  O   LIG d   1     -10.605  76.486 117.968  0.00  0.00    -0.241 OA
ATOM     24  O   LIG d   1     -10.705  74.657 116.823  0.00  0.00    -0.241 OA
ENDBRANCH   3  22
TORSDOF 7
ENDMDL
MODEL 5
REMARK VINA RESULT:      -5.5      2.149      5.105
REMARK  7 active torsions:
REMARK  status: ('A' for Active; 'I' for Inactive)
REMARK    1  A    between atoms: C_2  and  C_3 
REMARK    2  A    between atoms: C_3  and  O_6 
REMARK    3  A    between atoms: C_3  and  C_4 
REMARK    4  A    between atoms: C_7  and  O_6 
REMARK    5  A    between atoms: C_9  and  C_10 
REMARK    6  A    between atoms: N_15  and  C_14 
REMARK    7  A    between atoms: N_20  and  C_19 
REMARK       I    between atoms: C_22  and  N_20 
ROOT
ATOM      1  C   LIG d   1      -6.389  76.961 115.231  0.00  0.00     0.161 C 
ATOM      2  C   LIG d   1      -5.252  76.671 114.459  0.00  0.00     0.016 C 
ATOM      3  C   LIG d   1      -3.956  77.142 114.776  0.00  0.00     0.038 C 
ATOM      4  C   LIG d   1      -3.685  77.814 115.977  0.00  0.00     0.028 C 
ATOM      5  C   LIG d   1      -4.888  78.564 116.537  0.00  0.00    -0.047 C 
ATOM      6  C   LIG d   1      -6.094  77.599 116.604  0.00  0.00     0.091 C 
ENDROOT
BRANCH   1   7
ATOM      7  O   LIG d   1      -7.186  75.771 115.393  0.00  0.00    -0.368 OA
BRANCH   7   8
ATOM      8  C   LIG d   1      -6.840  74.920 116.513  0.00  0.00     0.119 C 
BRANCH   8   9
ATOM      9  C   LIG d   1      -6.195  73.642 115.941  0.00  0.00     0.028 C 
ATOM     10  C   LIG d   1      -6.920  72.364 116.397  0.00  0.00     0.006 C 
ENDBRANCH   8   9
BRANCH   8  11
ATOM     11  C   LIG d   1      -8.091  74.444 117.258  0.00  0.00     0.028 C 
ATOM     12  C   LIG d   1      -9.364  75.184 116.818  0.00  0.00     0.006 C 
ENDBRANCH   8  11
ENDBRANCH   7   8
ENDBRANCH   1   7
BRANCH   6  13
ATOM     13  N   LIG d   1      -7.336  78.275 117.063  0.00  0.00    -0.311 N 
ATOM     14  C   LIG d   1      -7.860  78.102 118.274  0.00  0.00     0.210 C 
ATOM     15  C   LIG d   1      -9.155  78.877 118.536  0.00  0.00     0.109 C 
ATOM     16  O   LIG d   1      -7.359  77.404 119.169  0.00  0.00    -0.276 OA
ATOM     17  H   LIG d   1      -7.791  78.884 116.411  0.00  0.00     0.149 HD
ENDBRANCH   6  13
BRANCH   5  18
ATOM     18  N   LIG d   1      -4.504  79.102 117.855  0.00  0.00     0.381 N 
ATOM     19  H   LIG d   1      -4.712  78.432 118.568  0.00  0.00    -0.090 HD
ATOM     20  H   LIG d   1      -5.040  79.933 118.037  0.00  0.00    -0.090 HD
ATOM     21  H   LIG d   1      -3.531  79.318 117.865  0.00  0.00    -0.090 HD
ENDBRANCH   5  18
BRANCH   3  22
ATOM     22  C   LIG d   1      -2.924  76.976 113.865  0.00  0.00     0.382 C 
ATOM     23  O   LIG d   1      -3.111  77.230 112.651  0.00  0.00    -0.241 OA
ATOM     24  O   LIG d   1      -1.820  76.533 114.236  0.00  0.00    -0.241 OA
ENDBRANCH   3  22
TORSDOF 7
ENDMDL
MODEL 6
REMARK VINA RESULT:      -5.3      3.390      6.203
REMARK  7 active torsions:
REMARK  status: ('A' for Active; 'I' for Inactive)
REMARK    1  A    between atoms: C_2  and  C_3 
REMARK    2  A    between atoms: C_3  and  O_6 
REMARK    3  A    between atoms: C_3  and  C_4 
REMARK    4  A    between atoms: C_7  and  O_6 
REMARK    5  A    between atoms: C_9  and  C_10 
REMARK    6  A    between atoms: N_15  and  C_14 
REMARK    7  A    between atoms: N_20  and  C_19 
REMARK       I    between atoms: C_22  and  N_20 
ROOT
ATOM      1  C   LIG d   1      -2.984  75.484 116.201  0.00  0.00     0.161 C 
ATOM      2  C   LIG d   1      -2.512  74.707 117.272  0.00  0.00     0.016 C 
ATOM      3  C   LIG d   1      -1.211  74.833 117.811  0.00  0.00     0.038 C 
ATOM      4  C   LIG d   1      -0.339  75.856 117.411  0.00  0.00     0.028 C 
ATOM      5  C   LIG d   1      -0.587  76.341 115.987  0.00  0.00    -0.047 C 
ATOM      6  C   LIG d   1      -2.086  76.681 115.826  0.00  0.00     0.091 C 
ENDROOT
BRANCH   1   7
ATOM      7  O   LIG d   1      -4.326  75.931 116.477  0.00  0.00    -0.368 OA
BRANCH   7   8
ATOM      8  C   LIG d   1      -5.388  75.001 116.150  0.00  0.00     0.119 C 
BRANCH   8   9
ATOM      9  C   LIG d   1      -5.505  74.952 114.614  0.00  0.00     0.028 C 
ATOM     10  C   LIG d   1      -6.092  76.247 114.029  0.00  0.00     0.006 C 
ENDBRANCH   8   9
BRANCH   8  11
ATOM     11  C   LIG d   1      -6.746  75.510 116.644  0.00  0.00     0.028 C 
ATOM     12  C   LIG d   1      -7.712  74.371 117.008  0.00  0.00     0.006 C 
ENDBRANCH   8  11
ENDBRANCH   7   8
ENDBRANCH   1   7
BRANCH   6  13
ATOM     13  N   LIG d   1      -2.430  77.083 114.437  0.00  0.00    -0.311 N 
ATOM     14  C   LIG d   1      -2.449  78.349 114.024  0.00  0.00     0.210 C 
ATOM     15  C   LIG d   1      -2.850  78.545 112.558  0.00  0.00     0.109 C 
ATOM     16  O   LIG d   1      -2.140  79.326 114.723  0.00  0.00    -0.276 OA
ATOM     17  H   LIG d   1      -2.663  76.351 113.795  0.00  0.00     0.149 HD
ENDBRANCH   6  13
BRANCH   5  18
ATOM     18  N   LIG d   1       0.297  77.498 115.750  0.00  0.00     0.381 N 
ATOM     19  H   LIG d   1       0.510  77.568 114.775  0.00  0.00    -0.090 HD
ATOM     20  H   LIG d   1       1.157  77.358 116.251  0.00  0.00    -0.090 HD
ATOM     21  H   LIG d   1      -0.145  78.334 116.062  0.00  0.00    -0.090 HD
ENDBRANCH   5  18
BRANCH   3  22
ATOM     22  C   LIG d   1      -0.756  73.903 118.734  0.00  0.00     0.382 C 
ATOM     23  O   LIG d   1       0.336  74.086 119.322  0.00  0.00    -0.241 OA
ATOM     24  O   LIG d   1      -1.404  72.861 118.953  0.00  0.00    -0.241 OA
ENDBRANCH   3  22
TORSDOF 7
ENDMDL
MODEL 7
REMARK VINA RESULT:      -5.2      2.514      3.574
REMARK  7 active torsions:
REMARK  status: ('A' for Active; 'I' for Inactive)
REMARK    1  A    between atoms: C_2  and  C_3 
REMARK    2  A    between atoms: C_3  and  O_6 
REMARK    3  A    between atoms: C_3  and  C_4 
REMARK    4  A    between atoms: C_7  and  O_6 
REMARK    5  A    between atoms: C_9  and  C_10 
REMARK    6  A    between atoms: N_15  and  C_14 
REMARK    7  A    between atoms: N_20  and  C_19 
REMARK       I    between atoms: C_22  and  N_20 
ROOT
ATOM      1  C   LIG d   1      -5.042  76.893 117.729  0.00  0.00     0.161 C 
ATOM      2  C   LIG d   1      -6.048  77.856 117.922  0.00  0.00     0.016 C 
ATOM      3  C   LIG d   1      -5.947  79.189 117.462  0.00  0.00     0.038 C 
ATOM      4  C   LIG d   1      -4.891  79.613 116.641  0.00  0.00     0.028 C 
ATOM      5  C   LIG d   1      -3.608  78.814 116.844  0.00  0.00    -0.047 C 
ATOM      6  C   LIG d   1      -3.933  77.307 116.739  0.00  0.00     0.091 C 
ENDROOT
BRANCH   1   7
ATOM      7  O   LIG d   1      -5.634  75.643 117.324  0.00  0.00    -0.368 OA
BRANCH   7   8
ATOM      8  C   LIG d   1      -6.766  75.735 116.424  0.00  0.00     0.119 C 
BRANCH   8   9
ATOM      9  C   LIG d   1      -7.844  74.760 116.933  0.00  0.00     0.028 C 
ATOM     10  C   LIG d   1      -9.257  75.364 116.874  0.00  0.00     0.006 C 
ENDBRANCH   8   9
BRANCH   8  11
ATOM     11  C   LIG d   1      -6.402  75.241 115.020  0.00  0.00     0.028 C 
ATOM     12  C   LIG d   1      -6.432  76.361 113.968  0.00  0.00     0.006 C 
ENDBRANCH   8  11
ENDBRANCH   7   8
ENDBRANCH   1   7
BRANCH   6  13
ATOM     13  N   LIG d   1      -2.748  76.451 117.009  0.00  0.00    -0.311 N 
ATOM     14  C   LIG d   1      -2.310  75.519 116.164  0.00  0.00     0.210 C 
ATOM     15  C   LIG d   1      -1.084  74.736 116.646  0.00  0.00     0.109 C 
ATOM     16  O   LIG d   1      -2.799  75.288 115.049  0.00  0.00    -0.276 OA
ATOM     17  H   LIG d   1      -2.272  76.592 117.878  0.00  0.00     0.149 HD
ENDBRANCH   6  13
BRANCH   5  18
ATOM     18  N   LIG d   1      -2.636  79.268 115.832  0.00  0.00     0.381 N 
ATOM     19  H   LIG d   1      -1.898  79.778 116.275  0.00  0.00    -0.090 HD
ATOM     20  H   LIG d   1      -3.101  79.883 115.187  0.00  0.00    -0.090 HD
ATOM     21  H   LIG d   1      -2.261  78.485 115.343  0.00  0.00    -0.090 HD
ENDBRANCH   5  18
BRANCH   3  22
ATOM     22  C   LIG d   1      -6.890  80.125 117.858  0.00  0.00     0.382 C 
ATOM     23  O   LIG d   1      -7.517  79.968 118.934  0.00  0.00    -0.241 OA
ATOM     24  O   LIG d   1      -7.153  81.103 117.132  0.00  0.00    -0.241 OA
ENDBRANCH   3  22
TORSDOF 7
ENDMDL
MODEL 8
REMARK VINA RESULT:      -5.1     17.734     19.610
REMARK  7 active torsions:
REMARK  status: ('A' for Active; 'I' for Inactive)
REMARK    1  A    between atoms: C_2  and  C_3 
REMARK    2  A    between atoms: C_3  and  O_6 
REMARK    3  A    between atoms: C_3  and  C_4 
REMARK    4  A    between atoms: C_7  and  O_6 
REMARK    5  A    between atoms: C_9  and  C_10 
REMARK    6  A    between atoms: N_15  and  C_14 
REMARK    7  A    between atoms: N_20  and  C_19 
REMARK       I    between atoms: C_22  and  N_20 
ROOT
ATOM      1  C   LIG d   1       0.732  58.427 117.853  0.00  0.00     0.161 C 
ATOM      2  C   LIG d   1       0.686  59.074 116.607  0.00  0.00     0.016 C 
ATOM      3  C   LIG d   1      -0.449  59.058 115.764  0.00  0.00     0.038 C 
ATOM      4  C   LIG d   1      -1.674  58.516 116.179  0.00  0.00     0.028 C 
ATOM      5  C   LIG d   1      -1.526  57.412 117.220  0.00  0.00    -0.047 C 
ATOM      6  C   LIG d   1      -0.632  57.924 118.372  0.00  0.00     0.091 C 
ENDROOT
BRANCH   1   7
ATOM      7  O   LIG d   1       1.353  59.287 118.828  0.00  0.00    -0.368 OA
BRANCH   7   8
ATOM      8  C   LIG d   1       2.626  58.838 119.356  0.00  0.00     0.119 C 
BRANCH   8   9
ATOM      9  C   LIG d   1       3.580  60.048 119.354  0.00  0.00     0.028 C 
ATOM     10  C   LIG d   1       4.264  60.255 117.993  0.00  0.00     0.006 C 
ENDBRANCH   8   9
BRANCH   8  11
ATOM     11  C   LIG d   1       3.279  57.806 118.432  0.00  0.00     0.028 C 
ATOM     12  C   LIG d   1       3.856  56.604 119.196  0.00  0.00     0.006 C 
ENDBRANCH   8  11
ENDBRANCH   7   8
ENDBRANCH   1   7
BRANCH   6  13
ATOM     13  N   LIG d   1      -0.367  56.877 119.393  0.00  0.00    -0.311 N 
ATOM     14  C   LIG d   1       0.186  55.699 119.108  0.00  0.00     0.210 C 
ATOM     15  C   LIG d   1       0.353  54.757 120.305  0.00  0.00     0.109 C 
ATOM     16  O   LIG d   1       0.584  55.358 117.984  0.00  0.00    -0.276 OA
ATOM     17  H   LIG d   1      -0.630  57.083 120.336  0.00  0.00     0.149 HD
ENDBRANCH   6  13
BRANCH   5  18
ATOM     18  N   LIG d   1      -2.881  57.034 117.664  0.00  0.00     0.381 N 
ATOM     19  H   LIG d   1      -3.006  56.046 117.566  0.00  0.00    -0.090 HD
ATOM     20  H   LIG d   1      -3.555  57.496 117.080  0.00  0.00    -0.090 HD
ATOM     21  H   LIG d   1      -3.015  57.300 118.615  0.00  0.00    -0.090 HD
ENDBRANCH   5  18
BRANCH   3  22
ATOM     22  C   LIG d   1      -0.352  59.554 114.472  0.00  0.00     0.382 C 
ATOM     23  O   LIG d   1       0.724  59.440 113.836  0.00  0.00    -0.241 OA
ATOM     24  O   LIG d   1      -1.312  60.153 113.952  0.00  0.00    -0.241 OA
ENDBRANCH   3  22
TORSDOF 7
ENDMDL
MODEL 9
REMARK VINA RESULT:      -5.1      2.400      5.012
REMARK  7 active torsions:
REMARK  status: ('A' for Active; 'I' for Inactive)
REMARK    1  A    between atoms: C_2  and  C_3 
REMARK    2  A    between atoms: C_3  and  O_6 
REMARK    3  A    between atoms: C_3  and  C_4 
REMARK    4  A    between atoms: C_7  and  O_6 
REMARK    5  A    between atoms: C_9  and  C_10 
REMARK    6  A    between atoms: N_15  and  C_14 
REMARK    7  A    between atoms: N_20  and  C_19 
REMARK       I    between atoms: C_22  and  N_20 
ROOT
ATOM      1  C   LIG d   1      -6.908  77.078 116.947  0.00  0.00     0.161 C 
ATOM      2  C   LIG d   1      -7.573  75.878 116.647  0.00  0.00     0.016 C 
ATOM      3  C   LIG d   1      -8.875  75.574 117.106  0.00  0.00     0.038 C 
ATOM      4  C   LIG d   1      -9.665  76.521 117.775  0.00  0.00     0.028 C 
ATOM      5  C   LIG d   1      -8.850  77.561 118.536  0.00  0.00    -0.047 C 
ATOM      6  C   LIG d   1      -7.797  78.169 117.581  0.00  0.00     0.091 C 
ENDROOT
BRANCH   1   7
ATOM      7  O   LIG d   1      -6.260  77.586 115.763  0.00  0.00    -0.368 OA
BRANCH   7   8
ATOM      8  C   LIG d   1      -4.812  77.547 115.763  0.00  0.00     0.119 C 
BRANCH   8   9
ATOM      9  C   LIG d   1      -4.373  76.654 114.586  0.00  0.00     0.028 C 
ATOM     10  C   LIG d   1      -3.418  77.380 113.623  0.00  0.00     0.006 C 
ENDBRANCH   8   9
BRANCH   8  11
ATOM     11  C   LIG d   1      -4.273  76.856 117.019  0.00  0.00     0.028 C 
ATOM     12  C   LIG d   1      -3.645  75.485 116.722  0.00  0.00     0.006 C 
ENDBRANCH   8  11
ENDBRANCH   7   8
ENDBRANCH   1   7
BRANCH   6  13
ATOM     13  N   LIG d   1      -6.901  79.136 118.268  0.00  0.00    -0.311 N 
ATOM     14  C   LIG d   1      -6.869  80.436 117.982  0.00  0.00     0.210 C 
ATOM     15  C   LIG d   1      -5.858  81.252 118.794  0.00  0.00     0.109 C 
ATOM     16  O   LIG d   1      -7.605  80.997 117.156  0.00  0.00    -0.276 OA
ATOM     17  H   LIG d   1      -6.292  78.771 118.974  0.00  0.00     0.149 HD
ENDBRANCH   6  13
BRANCH   5  18
ATOM     18  N   LIG d   1      -9.792  78.563 119.069  0.00  0.00     0.381 N 
ATOM     19  H   LIG d   1      -9.421  78.964 119.907  0.00  0.00    -0.090 HD
ATOM     20  H   LIG d   1     -10.659  78.106 119.295  0.00  0.00    -0.090 HD
ATOM     21  H   LIG d   1      -9.951  79.276 118.393  0.00  0.00    -0.090 HD
ENDBRANCH   5  18
BRANCH   3  22
ATOM     22  C   LIG d   1      -9.385  74.296 116.932  0.00  0.00     0.382 C 
ATOM     23  O   LIG d   1      -8.630  73.300 117.043  0.00  0.00    -0.241 OA
ATOM     24  O   LIG d   1     -10.579  74.129 116.621  0.00  0.00    -0.241 OA
ENDBRANCH   3  22
TORSDOF 7
ENDMDL
