MODEL 1
REMARK VINA RESULT:      -6.2      0.000      0.000
REMARK  7 active torsions:
REMARK  status: ('A' for Active; 'I' for Inactive)
REMARK    1  A    between atoms: C_2  and  C_3 
REMARK    2  A    between atoms: C_3  and  O_6 
REMARK    3  A    between atoms: C_3  and  C_4 
REMARK    4  A    between atoms: C_7  and  O_6 
REMARK    5  A    between atoms: C_9  and  C_10 
REMARK    6  A    between atoms: N_15  and  C_14 
REMARK    7  A    between atoms: N_20  and  C_19 
REMARK       I    between atoms: C_22  and  N_20 
ROOT
ATOM      1  C   LIG d   1      -7.759  74.911 116.560  0.00  0.00     0.161 C 
ATOM      2  C   LIG d   1      -6.598  74.846 115.772  0.00  0.00     0.016 C 
ATOM      3  C   LIG d   1      -5.723  75.940 115.583  0.00  0.00     0.038 C 
ATOM      4  C   LIG d   1      -5.870  77.139 116.296  0.00  0.00     0.028 C 
ATOM      5  C   LIG d   1      -7.309  77.422 116.715  0.00  0.00    -0.047 C 
ATOM      6  C   LIG d   1      -7.876  76.177 117.434  0.00  0.00     0.091 C 
ENDROOT
BRANCH   1   7
ATOM      7  O   LIG d   1      -7.864  73.727 117.375  0.00  0.00    -0.368 OA
BRANCH   7   8
ATOM      8  C   LIG d   1      -9.167  73.096 117.419  0.00  0.00     0.119 C 
BRANCH   8   9
ATOM      9  C   LIG d   1      -9.474  72.768 118.893  0.00  0.00     0.028 C 
ATOM     10  C   LIG d   1      -8.238  72.917 119.796  0.00  0.00     0.006 C 
ENDBRANCH   8   9
BRANCH   8  11
ATOM     11  C   LIG d   1      -9.157  71.746 116.696  0.00  0.00     0.028 C 
ATOM     12  C   LIG d   1      -7.742  71.173 116.523  0.00  0.00     0.006 C 
ENDBRANCH   8  11
ENDBRANCH   7   8
ENDBRANCH   1   7
BRANCH   6  13
ATOM     13  N   LIG d   1      -9.307  76.338 117.803  0.00  0.00    -0.311 N 
ATOM     14  C   LIG d   1      -9.739  76.387 119.062  0.00  0.00     0.210 C 
ATOM     15  C   LIG d   1     -11.255  76.537 119.220  0.00  0.00     0.109 C 
ATOM     16  O   LIG d   1      -9.007  76.354 120.062  0.00  0.00    -0.276 OA
ATOM     17  H   LIG d   1      -9.967  76.404 117.052  0.00  0.00     0.149 HD
ENDBRANCH   6  13
BRANCH   5  18
ATOM     18  N   LIG d   1      -7.297  78.626 117.566  0.00  0.00     0.381 N 
ATOM     19  H   LIG d   1      -7.451  79.440 117.004  0.00  0.00    -0.090 HD
ATOM     20  H   LIG d   1      -6.395  78.709 118.000  0.00  0.00    -0.090 HD
ATOM     21  H   LIG d   1      -8.005  78.558 118.264  0.00  0.00    -0.090 HD
ENDBRANCH   5  18
BRANCH   3  22
ATOM     22  C   LIG d   1      -4.709  75.854 114.641  0.00  0.00     0.382 C 
ATOM     23  O   LIG d   1      -4.925  76.199 113.454  0.00  0.00    -0.241 OA
ATOM     24  O   LIG d   1      -3.594  75.396 114.953  0.00  0.00    -0.241 OA
ENDBRANCH   3  22
TORSDOF 7
ENDMDL
MODEL 2
REMARK VINA RESULT:      -5.5      1.996      4.134
REMARK  7 active torsions:
REMARK  status: ('A' for Active; 'I' for Inactive)
REMARK    1  A    between atoms: C_2  and  C_3 
REMARK    2  A    between atoms: C_3  and  O_6 
REMARK    3  A    between atoms: C_3  and  C_4 
REMARK    4  A    between atoms: C_7  and  O_6 
REMARK    5  A    between atoms: C_9  and  C_10 
REMARK    6  A    between atoms: N_15  and  C_14 
REMARK    7  A    between atoms: N_20  and  C_19 
REMARK       I    between atoms: C_22  and  N_20 
ROOT
ATOM      1  C   LIG d   1      -7.352  75.995 117.177  0.00  0.00     0.161 C 
ATOM      2  C   LIG d   1      -6.424  76.659 116.357  0.00  0.00     0.016 C 
ATOM      3  C   LIG d   1      -5.558  75.990 115.462  0.00  0.00     0.038 C 
ATOM      4  C   LIG d   1      -5.666  74.613 115.216  0.00  0.00     0.028 C 
ATOM      5  C   LIG d   1      -6.244  73.831 116.390  0.00  0.00    -0.047 C 
ATOM      6  C   LIG d   1      -7.561  74.504 116.841  0.00  0.00     0.091 C 
ENDROOT
BRANCH   1   7
ATOM      7  O   LIG d   1      -8.612  76.695 117.156  0.00  0.00    -0.368 OA
BRANCH   7   8
ATOM      8  C   LIG d   1      -8.983  77.375 118.380  0.00  0.00     0.119 C 
BRANCH   8   9
ATOM      9  C   LIG d   1     -10.229  76.664 118.945  0.00  0.00     0.028 C 
ATOM     10  C   LIG d   1     -11.057  75.972 117.849  0.00  0.00     0.006 C 
ENDBRANCH   8   9
BRANCH   8  11
ATOM     11  C   LIG d   1      -9.428  78.815 118.104  0.00  0.00     0.028 C 
ATOM     12  C   LIG d   1      -8.256  79.742 117.746  0.00  0.00     0.006 C 
ENDBRANCH   8  11
ENDBRANCH   7   8
ENDBRANCH   1   7
BRANCH   6  13
ATOM     13  N   LIG d   1      -8.149  73.851 118.040  0.00  0.00    -0.311 N 
ATOM     14  C   LIG d   1      -9.057  72.879 117.974  0.00  0.00     0.210 C 
ATOM     15  C   LIG d   1      -9.547  72.359 119.329  0.00  0.00     0.109 C 
ATOM     16  O   LIG d   1      -9.480  72.376 116.922  0.00  0.00    -0.276 OA
ATOM     17  H   LIG d   1      -7.839  74.176 118.935  0.00  0.00     0.149 HD
ENDBRANCH   6  13
BRANCH   5  18
ATOM     18  N   LIG d   1      -6.429  72.436 115.949  0.00  0.00     0.381 N 
ATOM     19  H   LIG d   1      -5.934  71.818 116.561  0.00  0.00    -0.090 HD
ATOM     20  H   LIG d   1      -6.050  72.334 115.024  0.00  0.00    -0.090 HD
ATOM     21  H   LIG d   1      -7.398  72.205 115.945  0.00  0.00    -0.090 HD
ENDBRANCH   5  18
BRANCH   3  22
ATOM     22  C   LIG d   1      -4.543  76.694 114.832  0.00  0.00     0.382 C 
ATOM     23  O   LIG d   1      -4.243  77.847 115.225  0.00  0.00    -0.241 OA
ATOM     24  O   LIG d   1      -3.953  76.208 113.849  0.00  0.00    -0.241 OA
ENDBRANCH   3  22
TORSDOF 7
ENDMDL
MODEL 3
REMARK VINA RESULT:      -5.5      1.979      4.823
REMARK  7 active torsions:
REMARK  status: ('A' for Active; 'I' for Inactive)
REMARK    1  A    between atoms: C_2  and  C_3 
REMARK    2  A    between atoms: C_3  and  O_6 
REMARK    3  A    between atoms: C_3  and  C_4 
REMARK    4  A    between atoms: C_7  and  O_6 
REMARK    5  A    between atoms: C_9  and  C_10 
REMARK    6  A    between atoms: N_15  and  C_14 
REMARK    7  A    between atoms: N_20  and  C_19 
REMARK       I    between atoms: C_22  and  N_20 
ROOT
ATOM      1  C   LIG d   1      -7.420  75.031 117.262  0.00  0.00     0.161 C 
ATOM      2  C   LIG d   1      -7.560  73.674 116.927  0.00  0.00     0.016 C 
ATOM      3  C   LIG d   1      -8.679  72.893 117.298  0.00  0.00     0.038 C 
ATOM      4  C   LIG d   1      -9.811  73.460 117.902  0.00  0.00     0.028 C 
ATOM      5  C   LIG d   1      -9.502  74.717 118.708  0.00  0.00    -0.047 C 
ATOM      6  C   LIG d   1      -8.695  75.694 117.824  0.00  0.00     0.091 C 
ENDROOT
BRANCH   1   7
ATOM      7  O   LIG d   1      -6.934  75.767 116.122  0.00  0.00    -0.368 OA
BRANCH   7   8
ATOM      8  C   LIG d   1      -5.583  76.282 116.224  0.00  0.00     0.119 C 
BRANCH   8   9
ATOM      9  C   LIG d   1      -4.750  75.623 115.108  0.00  0.00     0.028 C 
ATOM     10  C   LIG d   1      -5.629  74.961 114.033  0.00  0.00     0.006 C 
ENDBRANCH   8   9
BRANCH   8  11
ATOM     11  C   LIG d   1      -4.920  75.850 117.535  0.00  0.00     0.028 C 
ATOM     12  C   LIG d   1      -3.633  75.040 117.313  0.00  0.00     0.006 C 
ENDBRANCH   8  11
ENDBRANCH   7   8
ENDBRANCH   1   7
BRANCH   6  13
ATOM     13  N   LIG d   1      -8.279  76.915 118.562  0.00  0.00    -0.311 N 
ATOM     14  C   LIG d   1      -9.001  78.034 118.595  0.00  0.00     0.210 C 
ATOM     15  C   LIG d   1      -8.379  79.181 119.398  0.00  0.00     0.109 C 
ATOM     16  O   LIG d   1     -10.112  78.174 118.062  0.00  0.00    -0.276 OA
ATOM     17  H   LIG d   1      -7.404  76.878 119.049  0.00  0.00     0.149 HD
ENDBRANCH   6  13
BRANCH   5  18
ATOM     18  N   LIG d   1     -10.787  75.279 119.167  0.00  0.00     0.381 N 
ATOM     19  H   LIG d   1     -11.534  74.662 118.920  0.00  0.00    -0.090 HD
ATOM     20  H   LIG d   1     -10.940  76.159 118.706  0.00  0.00    -0.090 HD
ATOM     21  H   LIG d   1     -10.768  75.412 120.154  0.00  0.00    -0.090 HD
ENDBRANCH   5  18
BRANCH   3  22
ATOM     22  C   LIG d   1      -8.656  71.521 117.100  0.00  0.00     0.382 C 
ATOM     23  O   LIG d   1      -9.346  70.770 117.830  0.00  0.00    -0.241 OA
ATOM     24  O   LIG d   1      -7.919  71.021 116.229  0.00  0.00    -0.241 OA
ENDBRANCH   3  22
TORSDOF 7
ENDMDL
MODEL 4
REMARK VINA RESULT:      -5.3      2.423      4.883
REMARK  7 active torsions:
REMARK  status: ('A' for Active; 'I' for Inactive)
REMARK    1  A    between atoms: C_2  and  C_3 
REMARK    2  A    between atoms: C_3  and  O_6 
REMARK    3  A    between atoms: C_3  and  C_4 
REMARK    4  A    between atoms: C_7  and  O_6 
REMARK    5  A    between atoms: C_9  and  C_10 
REMARK    6  A    between atoms: N_15  and  C_14 
REMARK    7  A    between atoms: N_20  and  C_19 
REMARK       I    between atoms: C_22  and  N_20 
ROOT
ATOM      1  C   LIG d   1      -7.635  76.587 117.288  0.00  0.00     0.161 C 
ATOM      2  C   LIG d   1      -7.606  77.990 117.356  0.00  0.00     0.016 C 
ATOM      3  C   LIG d   1      -8.668  78.767 117.874  0.00  0.00     0.038 C 
ATOM      4  C   LIG d   1      -9.778  78.181 118.502  0.00  0.00     0.028 C 
ATOM      5  C   LIG d   1     -10.082  76.772 118.003  0.00  0.00    -0.047 C 
ATOM      6  C   LIG d   1      -8.790  75.926 118.071  0.00  0.00     0.091 C 
ENDROOT
BRANCH   1   7
ATOM      7  O   LIG d   1      -6.368  76.051 117.717  0.00  0.00    -0.368 OA
BRANCH   7   8
ATOM      8  C   LIG d   1      -5.405  75.777 116.669  0.00  0.00     0.119 C 
BRANCH   8   9
ATOM      9  C   LIG d   1      -6.056  74.781 115.691  0.00  0.00     0.028 C 
ATOM     10  C   LIG d   1      -5.696  75.077 114.225  0.00  0.00     0.006 C 
ENDBRANCH   8   9
BRANCH   8  11
ATOM     11  C   LIG d   1      -4.171  75.057 117.221  0.00  0.00     0.028 C 
ATOM     12  C   LIG d   1      -2.853  75.643 116.692  0.00  0.00     0.006 C 
ENDBRANCH   8  11
ENDBRANCH   7   8
ENDBRANCH   1   7
BRANCH   6  13
ATOM     13  N   LIG d   1      -8.979  74.558 117.522  0.00  0.00    -0.311 N 
ATOM     14  C   LIG d   1      -9.300  73.505 118.272  0.00  0.00     0.210 C 
ATOM     15  C   LIG d   1      -9.427  72.183 117.510  0.00  0.00     0.109 C 
ATOM     16  O   LIG d   1      -9.525  73.547 119.491  0.00  0.00    -0.276 OA
ATOM     17  H   LIG d   1      -8.847  74.439 116.537  0.00  0.00     0.149 HD
ENDBRANCH   6  13
BRANCH   5  18
ATOM     18  N   LIG d   1     -11.171  76.230 118.837  0.00  0.00     0.381 N 
ATOM     19  H   LIG d   1     -10.858  76.131 119.782  0.00  0.00    -0.090 HD
ATOM     20  H   LIG d   1     -11.423  75.320 118.492  0.00  0.00    -0.090 HD
ATOM     21  H   LIG d   1     -11.961  76.836 118.802  0.00  0.00    -0.090 HD
ENDBRANCH   5  18
BRANCH   3  22
ATOM     22  C   LIG d   1      -8.646  80.145 117.729  0.00  0.00     0.382 C 
ATOM     23  O   LIG d   1      -9.519  80.849 118.292  0.00  0.00    -0.241 OA
ATOM     24  O   LIG d   1      -7.789  80.691 117.008  0.00  0.00    -0.241 OA
ENDBRANCH   3  22
TORSDOF 7
ENDMDL
MODEL 5
REMARK VINA RESULT:      -5.2      2.430      4.723
REMARK  7 active torsions:
REMARK  status: ('A' for Active; 'I' for Inactive)
REMARK    1  A    between atoms: C_2  and  C_3 
REMARK    2  A    between atoms: C_3  and  O_6 
REMARK    3  A    between atoms: C_3  and  C_4 
REMARK    4  A    between atoms: C_7  and  O_6 
REMARK    5  A    between atoms: C_9  and  C_10 
REMARK    6  A    between atoms: N_15  and  C_14 
REMARK    7  A    between atoms: N_20  and  C_19 
REMARK       I    between atoms: C_22  and  N_20 
ROOT
ATOM      1  C   LIG d   1      -7.760  76.564 117.475  0.00  0.00     0.161 C 
ATOM      2  C   LIG d   1      -7.677  77.967 117.490  0.00  0.00     0.016 C 
ATOM      3  C   LIG d   1      -8.698  78.801 118.000  0.00  0.00     0.038 C 
ATOM      4  C   LIG d   1      -9.815  78.281 118.672  0.00  0.00     0.028 C 
ATOM      5  C   LIG d   1     -10.182  76.867 118.233  0.00  0.00    -0.047 C 
ATOM      6  C   LIG d   1      -8.921  75.976 118.305  0.00  0.00     0.091 C 
ENDROOT
BRANCH   1   7
ATOM      7  O   LIG d   1      -6.505  75.996 117.897  0.00  0.00    -0.368 OA
BRANCH   7   8
ATOM      8  C   LIG d   1      -5.795  75.212 116.907  0.00  0.00     0.119 C 
BRANCH   8   9
ATOM      9  C   LIG d   1      -4.414  75.864 116.703  0.00  0.00     0.028 C 
ATOM     10  C   LIG d   1      -3.283  75.067 117.375  0.00  0.00     0.006 C 
ENDBRANCH   8   9
BRANCH   8  11
ATOM     11  C   LIG d   1      -6.483  75.285 115.541  0.00  0.00     0.028 C 
ATOM     12  C   LIG d   1      -5.554  74.887 114.383  0.00  0.00     0.006 C 
ENDBRANCH   8  11
ENDBRANCH   7   8
ENDBRANCH   1   7
BRANCH   6  13
ATOM     13  N   LIG d   1      -9.173  74.597 117.811  0.00  0.00    -0.311 N 
ATOM     14  C   LIG d   1      -9.084  73.515 118.583  0.00  0.00     0.210 C 
ATOM     15  C   LIG d   1      -9.364  72.188 117.870  0.00  0.00     0.109 C 
ATOM     16  O   LIG d   1      -8.831  73.531 119.797  0.00  0.00    -0.276 OA
ATOM     17  H   LIG d   1      -9.414  74.495 116.845  0.00  0.00     0.149 HD
ENDBRANCH   6  13
BRANCH   5  18
ATOM     18  N   LIG d   1     -11.273  76.398 119.107  0.00  0.00     0.381 N 
ATOM     19  H   LIG d   1     -12.155  76.683 118.731  0.00  0.00    -0.090 HD
ATOM     20  H   LIG d   1     -11.166  76.818 120.014  0.00  0.00    -0.090 HD
ATOM     21  H   LIG d   1     -11.242  75.405 119.188  0.00  0.00    -0.090 HD
ENDBRANCH   5  18
BRANCH   3  22
ATOM     22  C   LIG d   1      -8.628  80.172 117.804  0.00  0.00     0.382 C 
ATOM     23  O   LIG d   1      -7.855  80.642 116.934  0.00  0.00    -0.241 OA
ATOM     24  O   LIG d   1      -9.293  80.947 118.516  0.00  0.00    -0.241 OA
ENDBRANCH   3  22
TORSDOF 7
ENDMDL
MODEL 6
REMARK VINA RESULT:      -5.2      2.388      4.091
REMARK  7 active torsions:
REMARK  status: ('A' for Active; 'I' for Inactive)
REMARK    1  A    between atoms: C_2  and  C_3 
REMARK    2  A    between atoms: C_3  and  O_6 
REMARK    3  A    between atoms: C_3  and  C_4 
REMARK    4  A    between atoms: C_7  and  O_6 
REMARK    5  A    between atoms: C_9  and  C_10 
REMARK    6  A    between atoms: N_15  and  C_14 
REMARK    7  A    between atoms: N_20  and  C_19 
REMARK       I    between atoms: C_22  and  N_20 
ROOT
ATOM      1  C   LIG d   1      -7.358  74.932 118.547  0.00  0.00     0.161 C 
ATOM      2  C   LIG d   1      -6.553  75.948 118.006  0.00  0.00     0.016 C 
ATOM      3  C   LIG d   1      -5.776  75.786 116.836  0.00  0.00     0.038 C 
ATOM      4  C   LIG d   1      -5.870  74.637 116.037  0.00  0.00     0.028 C 
ATOM      5  C   LIG d   1      -6.284  73.392 116.814  0.00  0.00    -0.047 C 
ATOM      6  C   LIG d   1      -7.559  73.709 117.628  0.00  0.00     0.091 C 
ENDROOT
BRANCH   1   7
ATOM      7  O   LIG d   1      -8.632  75.477 118.943  0.00  0.00    -0.368 OA
BRANCH   7   8
ATOM      8  C   LIG d   1      -9.312  76.291 117.956  0.00  0.00     0.119 C 
BRANCH   8   9
ATOM      9  C   LIG d   1      -9.661  77.635 118.625  0.00  0.00     0.028 C 
ATOM     10  C   LIG d   1      -8.831  78.802 118.065  0.00  0.00     0.006 C 
ENDBRANCH   8   9
BRANCH   8  11
ATOM     11  C   LIG d   1     -10.656  75.676 117.555  0.00  0.00     0.028 C 
ATOM     12  C   LIG d   1     -10.535  74.694 116.380  0.00  0.00     0.006 C 
ENDBRANCH   8  11
ENDBRANCH   7   8
ENDBRANCH   1   7
BRANCH   6  13
ATOM     13  N   LIG d   1      -7.985  72.570 118.482  0.00  0.00    -0.311 N 
ATOM     14  C   LIG d   1      -8.814  71.613 118.069  0.00  0.00     0.210 C 
ATOM     15  C   LIG d   1      -9.138  70.542 119.115  0.00  0.00     0.109 C 
ATOM     16  O   LIG d   1      -9.286  71.532 116.925  0.00  0.00    -0.276 OA
ATOM     17  H   LIG d   1      -7.624  72.540 119.416  0.00  0.00     0.149 HD
ENDBRANCH   6  13
BRANCH   5  18
ATOM     18  N   LIG d   1      -6.477  72.302 115.838  0.00  0.00     0.381 N 
ATOM     19  H   LIG d   1      -7.447  72.059 115.789  0.00  0.00    -0.090 HD
ATOM     20  H   LIG d   1      -5.965  71.495 116.148  0.00  0.00    -0.090 HD
ATOM     21  H   LIG d   1      -6.153  72.586 114.941  0.00  0.00    -0.090 HD
ENDBRANCH   5  18
BRANCH   3  22
ATOM     22  C   LIG d   1      -4.863  76.766 116.476  0.00  0.00     0.382 C 
ATOM     23  O   LIG d   1      -5.266  77.848 115.986  0.00  0.00    -0.241 OA
ATOM     24  O   LIG d   1      -3.640  76.563 116.593  0.00  0.00    -0.241 OA
ENDBRANCH   3  22
TORSDOF 7
ENDMDL
MODEL 7
REMARK VINA RESULT:      -5.0     15.939     19.594
REMARK  7 active torsions:
REMARK  status: ('A' for Active; 'I' for Inactive)
REMARK    1  A    between atoms: C_2  and  C_3 
REMARK    2  A    between atoms: C_3  and  O_6 
REMARK    3  A    between atoms: C_3  and  C_4 
REMARK    4  A    between atoms: C_7  and  O_6 
REMARK    5  A    between atoms: C_9  and  C_10 
REMARK    6  A    between atoms: N_15  and  C_14 
REMARK    7  A    between atoms: N_20  and  C_19 
REMARK       I    between atoms: C_22  and  N_20 
ROOT
ATOM      1  C   LIG d   1      10.248  78.692 114.467  0.00  0.00     0.161 C 
ATOM      2  C   LIG d   1       8.915  78.910 114.854  0.00  0.00     0.016 C 
ATOM      3  C   LIG d   1       8.098  77.910 115.431  0.00  0.00     0.038 C 
ATOM      4  C   LIG d   1       8.610  76.658 115.802  0.00  0.00     0.028 C 
ATOM      5  C   LIG d   1       9.813  76.225 114.971  0.00  0.00    -0.047 C 
ATOM      6  C   LIG d   1      10.857  77.365 114.966  0.00  0.00     0.091 C 
ENDROOT
BRANCH   1   7
ATOM      7  O   LIG d   1      11.065  79.805 114.880  0.00  0.00    -0.368 OA
BRANCH   7   8
ATOM      8  C   LIG d   1      11.610  80.624 113.817  0.00  0.00     0.119 C 
BRANCH   8   9
ATOM      9  C   LIG d   1      12.963  81.177 114.307  0.00  0.00     0.028 C 
ATOM     10  C   LIG d   1      14.158  80.505 113.609  0.00  0.00     0.006 C 
ENDBRANCH   8   9
BRANCH   8  11
ATOM     11  C   LIG d   1      10.738  81.857 113.561  0.00  0.00     0.028 C 
ATOM     12  C   LIG d   1      10.548  82.151 112.064  0.00  0.00     0.006 C 
ENDBRANCH   8  11
ENDBRANCH   7   8
ENDBRANCH   1   7
BRANCH   6  13
ATOM     13  N   LIG d   1      12.029  77.056 114.106  0.00  0.00    -0.311 N 
ATOM     14  C   LIG d   1      13.281  77.017 114.559  0.00  0.00     0.210 C 
ATOM     15  C   LIG d   1      14.342  76.700 113.501  0.00  0.00     0.109 C 
ATOM     16  O   LIG d   1      13.609  77.182 115.744  0.00  0.00    -0.276 OA
ATOM     17  H   LIG d   1      11.850  76.878 113.137  0.00  0.00     0.149 HD
ENDBRANCH   6  13
BRANCH   5  18
ATOM     18  N   LIG d   1      10.328  74.971 115.552  0.00  0.00     0.381 N 
ATOM     19  H   LIG d   1       9.569  74.349 115.744  0.00  0.00    -0.090 HD
ATOM     20  H   LIG d   1      10.790  75.181 116.420  0.00  0.00    -0.090 HD
ATOM     21  H   LIG d   1      10.969  74.541 114.922  0.00  0.00    -0.090 HD
ENDBRANCH   5  18
BRANCH   3  22
ATOM     22  C   LIG d   1       6.743  78.146 115.606  0.00  0.00     0.382 C 
ATOM     23  O   LIG d   1       5.945  77.950 114.658  0.00  0.00    -0.241 OA
ATOM     24  O   LIG d   1       6.314  78.594 116.686  0.00  0.00    -0.241 OA
ENDBRANCH   3  22
TORSDOF 7
ENDMDL
MODEL 8
REMARK VINA RESULT:      -4.5      2.632      4.144
REMARK  7 active torsions:
REMARK  status: ('A' for Active; 'I' for Inactive)
REMARK    1  A    between atoms: C_2  and  C_3 
REMARK    2  A    between atoms: C_3  and  O_6 
REMARK    3  A    between atoms: C_3  and  C_4 
REMARK    4  A    between atoms: C_7  and  O_6 
REMARK    5  A    between atoms: C_9  and  C_10 
REMARK    6  A    between atoms: N_15  and  C_14 
REMARK    7  A    between atoms: N_20  and  C_19 
REMARK       I    between atoms: C_22  and  N_20 
ROOT
ATOM      1  C   LIG d   1      -5.047  74.971 117.320  0.00  0.00     0.161 C 
ATOM      2  C   LIG d   1      -3.717  75.259 116.971  0.00  0.00     0.016 C 
ATOM      3  C   LIG d   1      -3.320  75.650 115.672  0.00  0.00     0.038 C 
ATOM      4  C   LIG d   1      -4.254  75.929 114.664  0.00  0.00     0.028 C 
ATOM      5  C   LIG d   1      -5.565  75.166 114.825  0.00  0.00    -0.047 C 
ATOM      6  C   LIG d   1      -6.095  75.377 116.262  0.00  0.00     0.091 C 
ENDROOT
BRANCH   1   7
ATOM      7  O   LIG d   1      -5.360  75.573 118.592  0.00  0.00    -0.368 OA
BRANCH   7   8
ATOM      8  C   LIG d   1      -5.766  76.963 118.556  0.00  0.00     0.119 C 
BRANCH   8   9
ATOM      9  C   LIG d   1      -4.609  77.798 119.140  0.00  0.00     0.028 C 
ATOM     10  C   LIG d   1      -3.887  77.076 120.291  0.00  0.00     0.006 C 
ENDBRANCH   8   9
BRANCH   8  11
ATOM     11  C   LIG d   1      -6.958  77.220 119.482  0.00  0.00     0.028 C 
ATOM     12  C   LIG d   1      -7.489  75.936 120.139  0.00  0.00     0.006 C 
ENDBRANCH   8  11
ENDBRANCH   7   8
ENDBRANCH   1   7
BRANCH   6  13
ATOM     13  N   LIG d   1      -7.331  74.597 116.531  0.00  0.00    -0.311 N 
ATOM     14  C   LIG d   1      -8.528  75.155 116.700  0.00  0.00     0.210 C 
ATOM     15  C   LIG d   1      -9.666  74.170 116.987  0.00  0.00     0.109 C 
ATOM     16  O   LIG d   1      -8.761  76.370 116.608  0.00  0.00    -0.276 OA
ATOM     17  H   LIG d   1      -7.238  73.601 116.591  0.00  0.00     0.149 HD
ENDBRANCH   6  13
BRANCH   5  18
ATOM     18  N   LIG d   1      -6.495  75.653 113.789  0.00  0.00     0.381 N 
ATOM     19  H   LIG d   1      -7.345  75.964 114.215  0.00  0.00    -0.090 HD
ATOM     20  H   LIG d   1      -6.713  74.896 113.166  0.00  0.00    -0.090 HD
ATOM     21  H   LIG d   1      -6.077  76.402 113.281  0.00  0.00    -0.090 HD
ENDBRANCH   5  18
BRANCH   3  22
ATOM     22  C   LIG d   1      -1.971  75.728 115.360  0.00  0.00     0.382 C 
ATOM     23  O   LIG d   1      -1.610  76.196 114.253  0.00  0.00    -0.241 OA
ATOM     24  O   LIG d   1      -1.113  75.295 116.152  0.00  0.00    -0.241 OA
ENDBRANCH   3  22
TORSDOF 7
ENDMDL
MODEL 9
REMARK VINA RESULT:      -4.4     16.661     18.747
REMARK  7 active torsions:
REMARK  status: ('A' for Active; 'I' for Inactive)
REMARK    1  A    between atoms: C_2  and  C_3 
REMARK    2  A    between atoms: C_3  and  O_6 
REMARK    3  A    between atoms: C_3  and  C_4 
REMARK    4  A    between atoms: C_7  and  O_6 
REMARK    5  A    between atoms: C_9  and  C_10 
REMARK    6  A    between atoms: N_15  and  C_14 
REMARK    7  A    between atoms: N_20  and  C_19 
REMARK       I    between atoms: C_22  and  N_20 
ROOT
ATOM      1  C   LIG d   1       9.261  68.147 118.315  0.00  0.00     0.161 C 
ATOM      2  C   LIG d   1      10.648  67.945 118.214  0.00  0.00     0.016 C 
ATOM      3  C   LIG d   1      11.243  66.666 118.126  0.00  0.00     0.038 C 
ATOM      4  C   LIG d   1      10.477  65.500 117.980  0.00  0.00     0.028 C 
ATOM      5  C   LIG d   1       9.082  65.613 118.585  0.00  0.00    -0.047 C 
ATOM      6  C   LIG d   1       8.403  66.893 118.046  0.00  0.00     0.091 C 
ENDROOT
BRANCH   1   7
ATOM      7  O   LIG d   1       8.860  69.225 117.446  0.00  0.00    -0.368 OA
BRANCH   7   8
ATOM      8  C   LIG d   1       8.730  70.528 118.066  0.00  0.00     0.119 C 
BRANCH   8   9
ATOM      9  C   LIG d   1       7.228  70.785 118.294  0.00  0.00     0.028 C 
ATOM     10  C   LIG d   1       6.840  70.714 119.781  0.00  0.00     0.006 C 
ENDBRANCH   8   9
BRANCH   8  11
ATOM     11  C   LIG d   1       9.192  71.642 117.121  0.00  0.00     0.028 C 
ATOM     12  C   LIG d   1       9.600  72.924 117.866  0.00  0.00     0.006 C 
ENDBRANCH   8  11
ENDBRANCH   7   8
ENDBRANCH   1   7
BRANCH   6  13
ATOM     13  N   LIG d   1       7.066  67.124 118.652  0.00  0.00    -0.311 N 
ATOM     14  C   LIG d   1       5.954  67.282 117.936  0.00  0.00     0.210 C 
ATOM     15  C   LIG d   1       4.686  67.529 118.759  0.00  0.00     0.109 C 
ATOM     16  O   LIG d   1       5.893  67.209 116.700  0.00  0.00    -0.276 OA
ATOM     17  H   LIG d   1       7.020  67.167 119.652  0.00  0.00     0.149 HD
ENDBRANCH   6  13
BRANCH   5  18
ATOM     18  N   LIG d   1       8.346  64.381 118.241  0.00  0.00     0.381 N 
ATOM     19  H   LIG d   1       8.549  64.117 117.298  0.00  0.00    -0.090 HD
ATOM     20  H   LIG d   1       7.360  64.560 118.314  0.00  0.00    -0.090 HD
ATOM     21  H   LIG d   1       8.604  63.646 118.862  0.00  0.00    -0.090 HD
ENDBRANCH   5  18
BRANCH   3  22
ATOM     22  C   LIG d   1      12.621  66.541 118.224  0.00  0.00     0.382 C 
ATOM     23  O   LIG d   1      13.354  66.929 117.282  0.00  0.00    -0.241 OA
ATOM     24  O   LIG d   1      13.137  66.005 119.222  0.00  0.00    -0.241 OA
ENDBRANCH   3  22
TORSDOF 7
ENDMDL
