MODEL 1
REMARK VINA RESULT:      -5.6      0.000      0.000
REMARK  7 active torsions:
REMARK  status: ('A' for Active; 'I' for Inactive)
REMARK    1  A    between atoms: C_2  and  C_3 
REMARK    2  A    between atoms: C_3  and  O_6 
REMARK    3  A    between atoms: C_3  and  C_4 
REMARK    4  A    between atoms: C_7  and  O_6 
REMARK    5  A    between atoms: C_9  and  C_10 
REMARK    6  A    between atoms: N_15  and  C_14 
REMARK    7  A    between atoms: N_20  and  C_19 
REMARK       I    between atoms: C_22  and  N_20 
ROOT
ATOM      1  C   LIG d   1      -6.004  76.044 117.052  0.00  0.00     0.161 C 
ATOM      2  C   LIG d   1      -6.259  74.770 116.518  0.00  0.00     0.016 C 
ATOM      3  C   LIG d   1      -7.545  74.183 116.485  0.00  0.00     0.038 C 
ATOM      4  C   LIG d   1      -8.696  74.897 116.849  0.00  0.00     0.028 C 
ATOM      5  C   LIG d   1      -8.426  76.002 117.865  0.00  0.00    -0.047 C 
ATOM      6  C   LIG d   1      -7.264  76.883 117.352  0.00  0.00     0.091 C 
ENDROOT
BRANCH   1   7
ATOM      7  O   LIG d   1      -5.115  76.770 116.180  0.00  0.00    -0.368 OA
BRANCH   7   8
ATOM      8  C   LIG d   1      -3.810  77.088 116.723  0.00  0.00     0.119 C 
BRANCH   8   9
ATOM      9  C   LIG d   1      -2.755  76.568 115.727  0.00  0.00     0.028 C 
ATOM     10  C   LIG d   1      -3.381  76.093 114.405  0.00  0.00     0.006 C 
ENDBRANCH   8   9
BRANCH   8  11
ATOM     11  C   LIG d   1      -3.548  76.327 118.026  0.00  0.00     0.028 C 
ATOM     12  C   LIG d   1      -2.389  75.325 117.907  0.00  0.00     0.006 C 
ENDBRANCH   8  11
ENDBRANCH   7   8
ENDBRANCH   1   7
BRANCH   6  13
ATOM     13  N   LIG d   1      -6.881  77.938 118.326  0.00  0.00    -0.311 N 
ATOM     14  C   LIG d   1      -7.385  79.171 118.308  0.00  0.00     0.210 C 
ATOM     15  C   LIG d   1      -6.838  80.109 119.389  0.00  0.00     0.109 C 
ATOM     16  O   LIG d   1      -8.256  79.567 117.520  0.00  0.00    -0.276 OA
ATOM     17  H   LIG d   1      -6.202  77.693 119.020  0.00  0.00     0.149 HD
ENDBRANCH   6  13
BRANCH   5  18
ATOM     18  N   LIG d   1      -9.683  76.752 118.051  0.00  0.00     0.381 N 
ATOM     19  H   LIG d   1     -10.448  76.115 118.143  0.00  0.00    -0.090 HD
ATOM     20  H   LIG d   1      -9.844  77.323 117.239  0.00  0.00    -0.090 HD
ATOM     21  H   LIG d   1      -9.620  77.327 118.862  0.00  0.00    -0.090 HD
ENDBRANCH   5  18
BRANCH   3  22
ATOM     22  C   LIG d   1      -7.683  72.852 116.121  0.00  0.00     0.382 C 
ATOM     23  O   LIG d   1      -8.691  72.202 116.490  0.00  0.00    -0.241 OA
ATOM     24  O   LIG d   1      -6.792  72.280 115.465  0.00  0.00    -0.241 OA
ENDBRANCH   3  22
TORSDOF 7
ENDMDL
MODEL 2
REMARK VINA RESULT:      -5.5      2.523      4.255
REMARK  7 active torsions:
REMARK  status: ('A' for Active; 'I' for Inactive)
REMARK    1  A    between atoms: C_2  and  C_3 
REMARK    2  A    between atoms: C_3  and  O_6 
REMARK    3  A    between atoms: C_3  and  C_4 
REMARK    4  A    between atoms: C_7  and  O_6 
REMARK    5  A    between atoms: C_9  and  C_10 
REMARK    6  A    between atoms: N_15  and  C_14 
REMARK    7  A    between atoms: N_20  and  C_19 
REMARK       I    between atoms: C_22  and  N_20 
ROOT
ATOM      1  C   LIG d   1      -6.406  77.743 117.677  0.00  0.00     0.161 C 
ATOM      2  C   LIG d   1      -7.718  77.335 117.970  0.00  0.00     0.016 C 
ATOM      3  C   LIG d   1      -8.742  78.229 118.359  0.00  0.00     0.038 C 
ATOM      4  C   LIG d   1      -8.561  79.620 118.335  0.00  0.00     0.028 C 
ATOM      5  C   LIG d   1      -7.110  80.045 118.533  0.00  0.00    -0.047 C 
ATOM      6  C   LIG d   1      -6.219  79.269 117.537  0.00  0.00     0.091 C 
ENDROOT
BRANCH   1   7
ATOM      7  O   LIG d   1      -5.939  77.071 116.490  0.00  0.00    -0.368 OA
BRANCH   7   8
ATOM      8  C   LIG d   1      -5.539  75.688 116.657  0.00  0.00     0.119 C 
BRANCH   8   9
ATOM      9  C   LIG d   1      -4.011  75.623 116.466  0.00  0.00     0.028 C 
ATOM     10  C   LIG d   1      -3.472  76.799 115.635  0.00  0.00     0.006 C 
ENDBRANCH   8   9
BRANCH   8  11
ATOM     11  C   LIG d   1      -6.124  74.802 115.553  0.00  0.00     0.028 C 
ATOM     12  C   LIG d   1      -7.471  74.175 115.945  0.00  0.00     0.006 C 
ENDBRANCH   8  11
ENDBRANCH   7   8
ENDBRANCH   1   7
BRANCH   6  13
ATOM     13  N   LIG d   1      -4.774  79.563 117.721  0.00  0.00    -0.311 N 
ATOM     14  C   LIG d   1      -4.109  80.456 116.989  0.00  0.00     0.210 C 
ATOM     15  C   LIG d   1      -2.622  80.591 117.329  0.00  0.00     0.109 C 
ATOM     16  O   LIG d   1      -4.617  81.172 116.113  0.00  0.00    -0.276 OA
ATOM     17  H   LIG d   1      -4.291  79.050 118.432  0.00  0.00     0.149 HD
ENDBRANCH   6  13
BRANCH   5  18
ATOM     18  N   LIG d   1      -7.046  81.507 118.349  0.00  0.00     0.381 N 
ATOM     19  H   LIG d   1      -6.146  81.844 118.628  0.00  0.00    -0.090 HD
ATOM     20  H   LIG d   1      -7.740  81.940 118.933  0.00  0.00    -0.090 HD
ATOM     21  H   LIG d   1      -7.213  81.738 117.394  0.00  0.00    -0.090 HD
ENDBRANCH   5  18
BRANCH   3  22
ATOM     22  C   LIG d   1      -9.952  77.730 118.817  0.00  0.00     0.382 C 
ATOM     23  O   LIG d   1     -10.364  78.036 119.962  0.00  0.00    -0.241 OA
ATOM     24  O   LIG d   1     -10.616  76.942 118.117  0.00  0.00    -0.241 OA
ENDBRANCH   3  22
TORSDOF 7
ENDMDL
MODEL 3
REMARK VINA RESULT:      -5.4      2.339      5.309
REMARK  7 active torsions:
REMARK  status: ('A' for Active; 'I' for Inactive)
REMARK    1  A    between atoms: C_2  and  C_3 
REMARK    2  A    between atoms: C_3  and  O_6 
REMARK    3  A    between atoms: C_3  and  C_4 
REMARK    4  A    between atoms: C_7  and  O_6 
REMARK    5  A    between atoms: C_9  and  C_10 
REMARK    6  A    between atoms: N_15  and  C_14 
REMARK    7  A    between atoms: N_20  and  C_19 
REMARK       I    between atoms: C_22  and  N_20 
ROOT
ATOM      1  C   LIG d   1      -6.965  77.181 117.707  0.00  0.00     0.161 C 
ATOM      2  C   LIG d   1      -8.139  77.746 118.233  0.00  0.00     0.016 C 
ATOM      3  C   LIG d   1      -8.275  79.121 118.532  0.00  0.00     0.038 C 
ATOM      4  C   LIG d   1      -7.290  80.057 118.182  0.00  0.00     0.028 C 
ATOM      5  C   LIG d   1      -5.887  79.462 118.112  0.00  0.00    -0.047 C 
ATOM      6  C   LIG d   1      -5.920  78.204 117.215  0.00  0.00     0.091 C 
ENDROOT
BRANCH   1   7
ATOM      7  O   LIG d   1      -7.297  76.257 116.652  0.00  0.00    -0.368 OA
BRANCH   7   8
ATOM      8  C   LIG d   1      -7.277  74.852 117.005  0.00  0.00     0.119 C 
BRANCH   8   9
ATOM      9  C   LIG d   1      -6.122  74.195 116.224  0.00  0.00     0.028 C 
ATOM     10  C   LIG d   1      -5.789  74.948 114.925  0.00  0.00     0.006 C 
ENDBRANCH   8   9
BRANCH   8  11
ATOM     11  C   LIG d   1      -8.546  74.140 116.528  0.00  0.00     0.028 C 
ATOM     12  C   LIG d   1      -8.348  72.626 116.348  0.00  0.00     0.006 C 
ENDBRANCH   8  11
ENDBRANCH   7   8
ENDBRANCH   1   7
BRANCH   6  13
ATOM     13  N   LIG d   1      -4.605  77.512 117.161  0.00  0.00    -0.311 N 
ATOM     14  C   LIG d   1      -3.681  77.766 116.236  0.00  0.00     0.210 C 
ATOM     15  C   LIG d   1      -2.405  76.927 116.351  0.00  0.00     0.109 C 
ATOM     16  O   LIG d   1      -3.784  78.630 115.352  0.00  0.00    -0.276 OA
ATOM     17  H   LIG d   1      -4.426  76.819 117.860  0.00  0.00     0.149 HD
ENDBRANCH   6  13
BRANCH   5  18
ATOM     18  N   LIG d   1      -4.983  80.511 117.605  0.00  0.00     0.381 N 
ATOM     19  H   LIG d   1      -4.343  80.117 116.945  0.00  0.00    -0.090 HD
ATOM     20  H   LIG d   1      -4.454  80.884 118.373  0.00  0.00    -0.090 HD
ATOM     21  H   LIG d   1      -5.512  81.237 117.173  0.00  0.00    -0.090 HD
ENDBRANCH   5  18
BRANCH   3  22
ATOM     22  C   LIG d   1      -9.390  79.567 119.225  0.00  0.00     0.382 C 
ATOM     23  O   LIG d   1      -9.513  80.785 119.499  0.00  0.00    -0.241 OA
ATOM     24  O   LIG d   1     -10.254  78.760 119.618  0.00  0.00    -0.241 OA
ENDBRANCH   3  22
TORSDOF 7
ENDMDL
MODEL 4
REMARK VINA RESULT:      -5.4      1.735      4.898
REMARK  7 active torsions:
REMARK  status: ('A' for Active; 'I' for Inactive)
REMARK    1  A    between atoms: C_2  and  C_3 
REMARK    2  A    between atoms: C_3  and  O_6 
REMARK    3  A    between atoms: C_3  and  C_4 
REMARK    4  A    between atoms: C_7  and  O_6 
REMARK    5  A    between atoms: C_9  and  C_10 
REMARK    6  A    between atoms: N_15  and  C_14 
REMARK    7  A    between atoms: N_20  and  C_19 
REMARK       I    between atoms: C_22  and  N_20 
ROOT
ATOM      1  C   LIG d   1      -6.810  76.466 117.266  0.00  0.00     0.161 C 
ATOM      2  C   LIG d   1      -6.683  77.838 117.537  0.00  0.00     0.016 C 
ATOM      3  C   LIG d   1      -7.735  78.630 118.052  0.00  0.00     0.038 C 
ATOM      4  C   LIG d   1      -8.947  78.067 118.477  0.00  0.00     0.028 C 
ATOM      5  C   LIG d   1      -9.299  76.772 117.754  0.00  0.00    -0.047 C 
ATOM      6  C   LIG d   1      -8.090  75.812 117.827  0.00  0.00     0.091 C 
ENDROOT
BRANCH   1   7
ATOM      7  O   LIG d   1      -5.642  75.765 117.736  0.00  0.00    -0.368 OA
BRANCH   7   8
ATOM      8  C   LIG d   1      -4.858  75.083 116.726  0.00  0.00     0.119 C 
BRANCH   8   9
ATOM      9  C   LIG d   1      -3.474  75.759 116.680  0.00  0.00     0.028 C 
ATOM     10  C   LIG d   1      -2.426  75.007 117.518  0.00  0.00     0.006 C 
ENDBRANCH   8   9
BRANCH   8  11
ATOM     11  C   LIG d   1      -5.453  75.283 115.330  0.00  0.00     0.028 C 
ATOM     12  C   LIG d   1      -4.382  75.516 114.253  0.00  0.00     0.006 C 
ENDBRANCH   8  11
ENDBRANCH   7   8
ENDBRANCH   1   7
BRANCH   6  13
ATOM     13  N   LIG d   1      -8.319  74.552 117.072  0.00  0.00    -0.311 N 
ATOM     14  C   LIG d   1      -8.112  73.341 117.585  0.00  0.00     0.210 C 
ATOM     15  C   LIG d   1      -8.391  72.177 116.630  0.00  0.00     0.109 C 
ATOM     16  O   LIG d   1      -7.753  73.120 118.752  0.00  0.00    -0.276 OA
ATOM     17  H   LIG d   1      -8.641  74.639 116.127  0.00  0.00     0.149 HD
ENDBRANCH   6  13
BRANCH   5  18
ATOM     18  N   LIG d   1     -10.512  76.222 118.389  0.00  0.00     0.381 N 
ATOM     19  H   LIG d   1     -11.323  76.514 117.880  0.00  0.00    -0.090 HD
ATOM     20  H   LIG d   1     -10.581  76.583 119.325  0.00  0.00    -0.090 HD
ATOM     21  H   LIG d   1     -10.465  75.228 118.411  0.00  0.00    -0.090 HD
ENDBRANCH   5  18
BRANCH   3  22
ATOM     22  C   LIG d   1      -7.592  80.008 118.110  0.00  0.00     0.382 C 
ATOM     23  O   LIG d   1      -7.032  80.540 119.099  0.00  0.00    -0.241 OA
ATOM     24  O   LIG d   1      -8.057  80.730 117.207  0.00  0.00    -0.241 OA
ENDBRANCH   3  22
TORSDOF 7
ENDMDL
MODEL 5
REMARK VINA RESULT:      -5.2      4.883      7.911
REMARK  7 active torsions:
REMARK  status: ('A' for Active; 'I' for Inactive)
REMARK    1  A    between atoms: C_2  and  C_3 
REMARK    2  A    between atoms: C_3  and  O_6 
REMARK    3  A    between atoms: C_3  and  C_4 
REMARK    4  A    between atoms: C_7  and  O_6 
REMARK    5  A    between atoms: C_9  and  C_10 
REMARK    6  A    between atoms: N_15  and  C_14 
REMARK    7  A    between atoms: N_20  and  C_19 
REMARK       I    between atoms: C_22  and  N_20 
ROOT
ATOM      1  C   LIG d   1      -1.352  79.473 115.637  0.00  0.00     0.161 C 
ATOM      2  C   LIG d   1      -1.729  80.800 115.371  0.00  0.00     0.016 C 
ATOM      3  C   LIG d   1      -2.188  81.241 114.108  0.00  0.00     0.038 C 
ATOM      4  C   LIG d   1      -2.445  80.345 113.059  0.00  0.00     0.028 C 
ATOM      5  C   LIG d   1      -1.601  79.077 113.125  0.00  0.00    -0.047 C 
ATOM      6  C   LIG d   1      -1.732  78.460 114.537  0.00  0.00     0.091 C 
ENDROOT
BRANCH   1   7
ATOM      7  O   LIG d   1      -1.891  79.058 116.908  0.00  0.00    -0.368 OA
BRANCH   7   8
ATOM      8  C   LIG d   1      -3.317  78.803 116.943  0.00  0.00     0.119 C 
BRANCH   8   9
ATOM      9  C   LIG d   1      -3.948  79.832 117.900  0.00  0.00     0.028 C 
ATOM     10  C   LIG d   1      -2.912  80.472 118.840  0.00  0.00     0.006 C 
ENDBRANCH   8   9
BRANCH   8  11
ATOM     11  C   LIG d   1      -3.623  77.435 117.560  0.00  0.00     0.028 C 
ATOM     12  C   LIG d   1      -2.357  76.683 118.001  0.00  0.00     0.006 C 
ENDBRANCH   8  11
ENDBRANCH   7   8
ENDBRANCH   1   7
BRANCH   6  13
ATOM     13  N   LIG d   1      -0.871  77.261 114.713  0.00  0.00    -0.311 N 
ATOM     14  C   LIG d   1      -1.311  76.014 114.556  0.00  0.00     0.210 C 
ATOM     15  C   LIG d   1      -0.264  74.923 114.806  0.00  0.00     0.109 C 
ATOM     16  O   LIG d   1      -2.460  75.708 114.203  0.00  0.00    -0.276 OA
ATOM     17  H   LIG d   1       0.084  77.419 114.970  0.00  0.00     0.149 HD
ENDBRANCH   6  13
BRANCH   5  18
ATOM     18  N   LIG d   1      -2.068  78.175 112.055  0.00  0.00     0.381 N 
ATOM     19  H   LIG d   1      -1.540  77.325 112.073  0.00  0.00    -0.090 HD
ATOM     20  H   LIG d   1      -1.919  78.620 111.167  0.00  0.00    -0.090 HD
ATOM     21  H   LIG d   1      -3.037  77.975 112.176  0.00  0.00    -0.090 HD
ENDBRANCH   5  18
BRANCH   3  22
ATOM     22  C   LIG d   1      -2.355  82.597 113.873  0.00  0.00     0.382 C 
ATOM     23  O   LIG d   1      -2.977  83.305 114.701  0.00  0.00    -0.241 OA
ATOM     24  O   LIG d   1      -1.931  83.112 112.821  0.00  0.00    -0.241 OA
ENDBRANCH   3  22
TORSDOF 7
ENDMDL
MODEL 6
REMARK VINA RESULT:      -5.2      1.035      1.980
REMARK  7 active torsions:
REMARK  status: ('A' for Active; 'I' for Inactive)
REMARK    1  A    between atoms: C_2  and  C_3 
REMARK    2  A    between atoms: C_3  and  O_6 
REMARK    3  A    between atoms: C_3  and  C_4 
REMARK    4  A    between atoms: C_7  and  O_6 
REMARK    5  A    between atoms: C_9  and  C_10 
REMARK    6  A    between atoms: N_15  and  C_14 
REMARK    7  A    between atoms: N_20  and  C_19 
REMARK       I    between atoms: C_22  and  N_20 
ROOT
ATOM      1  C   LIG d   1      -6.367  76.532 117.305  0.00  0.00     0.161 C 
ATOM      2  C   LIG d   1      -6.454  75.272 116.689  0.00  0.00     0.016 C 
ATOM      3  C   LIG d   1      -7.652  74.525 116.612  0.00  0.00     0.038 C 
ATOM      4  C   LIG d   1      -8.886  75.057 117.016  0.00  0.00     0.028 C 
ATOM      5  C   LIG d   1      -8.760  76.120 118.102  0.00  0.00    -0.047 C 
ATOM      6  C   LIG d   1      -7.725  77.177 117.653  0.00  0.00     0.091 C 
ENDROOT
BRANCH   1   7
ATOM      7  O   LIG d   1      -5.584  77.423 116.487  0.00  0.00    -0.368 OA
BRANCH   7   8
ATOM      8  C   LIG d   1      -4.174  77.511 116.810  0.00  0.00     0.119 C 
BRANCH   8   9
ATOM      9  C   LIG d   1      -4.053  77.539 118.346  0.00  0.00     0.028 C 
ATOM     10  C   LIG d   1      -2.964  76.585 118.866  0.00  0.00     0.006 C 
ENDBRANCH   8   9
BRANCH   8  11
ATOM     11  C   LIG d   1      -3.575  78.837 116.332  0.00  0.00     0.028 C 
ATOM     12  C   LIG d   1      -4.022  80.035 117.186  0.00  0.00     0.006 C 
ENDBRANCH   8  11
ENDBRANCH   7   8
ENDBRANCH   1   7
BRANCH   6  13
ATOM     13  N   LIG d   1      -7.479  78.208 118.694  0.00  0.00    -0.311 N 
ATOM     14  C   LIG d   1      -7.492  79.517 118.447  0.00  0.00     0.210 C 
ATOM     15  C   LIG d   1      -7.195  80.406 119.658  0.00  0.00     0.109 C 
ATOM     16  O   LIG d   1      -7.754  80.027 117.347  0.00  0.00    -0.276 OA
ATOM     17  H   LIG d   1      -7.290  77.883 119.622  0.00  0.00     0.149 HD
ENDBRANCH   6  13
BRANCH   5  18
ATOM     18  N   LIG d   1     -10.103  76.686 118.329  0.00  0.00     0.381 N 
ATOM     19  H   LIG d   1     -10.647  76.057 118.885  0.00  0.00    -0.090 HD
ATOM     20  H   LIG d   1     -10.562  76.801 117.442  0.00  0.00    -0.090 HD
ATOM     21  H   LIG d   1     -10.029  77.567 118.789  0.00  0.00    -0.090 HD
ENDBRANCH   5  18
BRANCH   3  22
ATOM     22  C   LIG d   1      -7.616  73.214 116.162  0.00  0.00     0.382 C 
ATOM     23  O   LIG d   1      -6.565  72.753 115.655  0.00  0.00    -0.241 OA
ATOM     24  O   LIG d   1      -8.635  72.499 116.217  0.00  0.00    -0.241 OA
ENDBRANCH   3  22
TORSDOF 7
ENDMDL
MODEL 7
REMARK VINA RESULT:      -5.2     15.183     18.166
REMARK  7 active torsions:
REMARK  status: ('A' for Active; 'I' for Inactive)
REMARK    1  A    between atoms: C_2  and  C_3 
REMARK    2  A    between atoms: C_3  and  O_6 
REMARK    3  A    between atoms: C_3  and  C_4 
REMARK    4  A    between atoms: C_7  and  O_6 
REMARK    5  A    between atoms: C_9  and  C_10 
REMARK    6  A    between atoms: N_15  and  C_14 
REMARK    7  A    between atoms: N_20  and  C_19 
REMARK       I    between atoms: C_22  and  N_20 
ROOT
ATOM      1  C   LIG d   1      10.585  78.971 114.297  0.00  0.00     0.161 C 
ATOM      2  C   LIG d   1       9.264  79.130 114.748  0.00  0.00     0.016 C 
ATOM      3  C   LIG d   1       8.512  78.088 115.338  0.00  0.00     0.038 C 
ATOM      4  C   LIG d   1       9.086  76.848 115.656  0.00  0.00     0.028 C 
ATOM      5  C   LIG d   1      10.264  76.479 114.761  0.00  0.00    -0.047 C 
ATOM      6  C   LIG d   1      11.264  77.657 114.736  0.00  0.00     0.091 C 
ENDROOT
BRANCH   1   7
ATOM      7  O   LIG d   1      11.379  80.104 114.699  0.00  0.00    -0.368 OA
BRANCH   7   8
ATOM      8  C   LIG d   1      11.885  80.940 113.629  0.00  0.00     0.119 C 
BRANCH   8   9
ATOM      9  C   LIG d   1      13.279  81.442 114.053  0.00  0.00     0.028 C 
ATOM     10  C   LIG d   1      14.373  81.056 113.044  0.00  0.00     0.006 C 
ENDBRANCH   8   9
BRANCH   8  11
ATOM     11  C   LIG d   1      11.034  82.202 113.458  0.00  0.00     0.028 C 
ATOM     12  C   LIG d   1      10.414  82.317 112.056  0.00  0.00     0.006 C 
ENDBRANCH   8  11
ENDBRANCH   7   8
ENDBRANCH   1   7
BRANCH   6  13
ATOM     13  N   LIG d   1      12.406  77.412 113.816  0.00  0.00    -0.311 N 
ATOM     14  C   LIG d   1      13.678  77.610 114.158  0.00  0.00     0.210 C 
ATOM     15  C   LIG d   1      14.698  77.315 113.054  0.00  0.00     0.109 C 
ATOM     16  O   LIG d   1      14.061  77.971 115.281  0.00  0.00    -0.276 OA
ATOM     17  H   LIG d   1      12.188  77.087 112.895  0.00  0.00     0.149 HD
ENDBRANCH   6  13
BRANCH   5  18
ATOM     18  N   LIG d   1      10.851  75.233 115.289  0.00  0.00     0.381 N 
ATOM     19  H   LIG d   1      11.845  75.251 115.173  0.00  0.00    -0.090 HD
ATOM     20  H   LIG d   1      10.487  74.455 114.767  0.00  0.00    -0.090 HD
ATOM     21  H   LIG d   1      10.624  75.131 116.253  0.00  0.00    -0.090 HD
ENDBRANCH   5  18
BRANCH   3  22
ATOM     22  C   LIG d   1       7.159  78.269 115.580  0.00  0.00     0.382 C 
ATOM     23  O   LIG d   1       6.311  77.758 114.809  0.00  0.00    -0.241 OA
ATOM     24  O   LIG d   1       6.776  78.973 116.533  0.00  0.00    -0.241 OA
ENDBRANCH   3  22
TORSDOF 7
ENDMDL
MODEL 8
REMARK VINA RESULT:      -5.2      2.410      5.598
REMARK  7 active torsions:
REMARK  status: ('A' for Active; 'I' for Inactive)
REMARK    1  A    between atoms: C_2  and  C_3 
REMARK    2  A    between atoms: C_3  and  O_6 
REMARK    3  A    between atoms: C_3  and  C_4 
REMARK    4  A    between atoms: C_7  and  O_6 
REMARK    5  A    between atoms: C_9  and  C_10 
REMARK    6  A    between atoms: N_15  and  C_14 
REMARK    7  A    between atoms: N_20  and  C_19 
REMARK       I    between atoms: C_22  and  N_20 
ROOT
ATOM      1  C   LIG d   1      -6.011  76.467 118.362  0.00  0.00     0.161 C 
ATOM      2  C   LIG d   1      -7.024  77.437 118.301  0.00  0.00     0.016 C 
ATOM      3  C   LIG d   1      -6.800  78.772 117.892  0.00  0.00     0.038 C 
ATOM      4  C   LIG d   1      -5.567  79.190 117.370  0.00  0.00     0.028 C 
ATOM      5  C   LIG d   1      -4.384  78.379 117.886  0.00  0.00    -0.047 C 
ATOM      6  C   LIG d   1      -4.683  76.875 117.690  0.00  0.00     0.091 C 
ENDROOT
BRANCH   1   7
ATOM      7  O   LIG d   1      -6.490  75.224 117.811  0.00  0.00    -0.368 OA
BRANCH   7   8
ATOM      8  C   LIG d   1      -7.021  75.287 116.465  0.00  0.00     0.119 C 
BRANCH   8   9
ATOM      9  C   LIG d   1      -8.443  74.693 116.500  0.00  0.00     0.028 C 
ATOM     10  C   LIG d   1      -8.459  73.188 116.183  0.00  0.00     0.006 C 
ENDBRANCH   8   9
BRANCH   8  11
ATOM     11  C   LIG d   1      -6.230  74.387 115.511  0.00  0.00     0.028 C 
ATOM     12  C   LIG d   1      -5.396  75.183 114.495  0.00  0.00     0.006 C 
ENDBRANCH   8  11
ENDBRANCH   7   8
ENDBRANCH   1   7
BRANCH   6  13
ATOM     13  N   LIG d   1      -3.612  76.007 118.246  0.00  0.00    -0.311 N 
ATOM     14  C   LIG d   1      -2.626  75.497 117.510  0.00  0.00     0.210 C 
ATOM     15  C   LIG d   1      -1.638  74.612 118.277  0.00  0.00     0.109 C 
ATOM     16  O   LIG d   1      -2.457  75.720 116.302  0.00  0.00    -0.276 OA
ATOM     17  H   LIG d   1      -3.655  75.800 119.225  0.00  0.00     0.149 HD
ENDBRANCH   6  13
BRANCH   5  18
ATOM     18  N   LIG d   1      -3.183  78.829 117.158  0.00  0.00     0.381 N 
ATOM     19  H   LIG d   1      -3.082  78.303 116.313  0.00  0.00    -0.090 HD
ATOM     20  H   LIG d   1      -2.374  78.663 117.731  0.00  0.00    -0.090 HD
ATOM     21  H   LIG d   1      -3.256  79.800 116.946  0.00  0.00    -0.090 HD
ENDBRANCH   5  18
BRANCH   3  22
ATOM     22  C   LIG d   1      -7.805  79.715 118.042  0.00  0.00     0.382 C 
ATOM     23  O   LIG d   1      -7.930  80.638 117.201  0.00  0.00    -0.241 OA
ATOM     24  O   LIG d   1      -8.562  79.680 119.031  0.00  0.00    -0.241 OA
ENDBRANCH   3  22
TORSDOF 7
ENDMDL
MODEL 9
REMARK VINA RESULT:      -5.2      2.304      4.344
REMARK  7 active torsions:
REMARK  status: ('A' for Active; 'I' for Inactive)
REMARK    1  A    between atoms: C_2  and  C_3 
REMARK    2  A    between atoms: C_3  and  O_6 
REMARK    3  A    between atoms: C_3  and  C_4 
REMARK    4  A    between atoms: C_7  and  O_6 
REMARK    5  A    between atoms: C_9  and  C_10 
REMARK    6  A    between atoms: N_15  and  C_14 
REMARK    7  A    between atoms: N_20  and  C_19 
REMARK       I    between atoms: C_22  and  N_20 
ROOT
ATOM      1  C   LIG d   1      -6.721  76.781 117.678  0.00  0.00     0.161 C 
ATOM      2  C   LIG d   1      -5.665  76.743 116.752  0.00  0.00     0.016 C 
ATOM      3  C   LIG d   1      -5.558  75.770 115.732  0.00  0.00     0.038 C 
ATOM      4  C   LIG d   1      -6.586  74.851 115.474  0.00  0.00     0.028 C 
ATOM      5  C   LIG d   1      -7.435  74.530 116.700  0.00  0.00    -0.047 C 
ATOM      6  C   LIG d   1      -7.908  75.854 117.342  0.00  0.00     0.091 C 
ENDROOT
BRANCH   1   7
ATOM      7  O   LIG d   1      -7.176  78.138 117.846  0.00  0.00    -0.368 OA
BRANCH   7   8
ATOM      8  C   LIG d   1      -6.143  79.146 117.972  0.00  0.00     0.119 C 
BRANCH   8   9
ATOM      9  C   LIG d   1      -5.778  79.250 119.465  0.00  0.00     0.028 C 
ATOM     10  C   LIG d   1      -4.753  80.362 119.743  0.00  0.00     0.006 C 
ENDBRANCH   8   9
BRANCH   8  11
ATOM     11  C   LIG d   1      -6.666  80.532 117.585  0.00  0.00     0.028 C 
ATOM     12  C   LIG d   1      -8.177  80.685 117.819  0.00  0.00     0.006 C 
ENDBRANCH   8  11
ENDBRANCH   7   8
ENDBRANCH   1   7
BRANCH   6  13
ATOM     13  N   LIG d   1      -8.675  75.633 118.596  0.00  0.00    -0.311 N 
ATOM     14  C   LIG d   1      -9.842  76.220 118.855  0.00  0.00     0.210 C 
ATOM     15  C   LIG d   1     -10.454  75.870 120.215  0.00  0.00     0.109 C 
ATOM     16  O   LIG d   1     -10.444  76.972 118.074  0.00  0.00    -0.276 OA
ATOM     17  H   LIG d   1      -8.274  75.013 119.273  0.00  0.00     0.149 HD
ENDBRANCH   6  13
BRANCH   5  18
ATOM     18  N   LIG d   1      -8.549  73.671 116.258  0.00  0.00     0.381 N 
ATOM     19  H   LIG d   1      -9.198  74.208 115.719  0.00  0.00    -0.090 HD
ATOM     20  H   LIG d   1      -9.028  73.318 117.068  0.00  0.00    -0.090 HD
ATOM     21  H   LIG d   1      -8.200  72.913 115.714  0.00  0.00    -0.090 HD
ENDBRANCH   5  18
BRANCH   3  22
ATOM     22  C   LIG d   1      -4.394  75.683 114.984  0.00  0.00     0.382 C 
ATOM     23  O   LIG d   1      -3.278  75.804 115.544  0.00  0.00    -0.241 OA
ATOM     24  O   LIG d   1      -4.447  75.531 113.749  0.00  0.00    -0.241 OA
ENDBRANCH   3  22
TORSDOF 7
ENDMDL
