MODEL 1
REMARK VINA RESULT:      -5.3      0.000      0.000
REMARK  7 active torsions:
REMARK  status: ('A' for Active; 'I' for Inactive)
REMARK    1  A    between atoms: C_2  and  C_3 
REMARK    2  A    between atoms: C_3  and  O_6 
REMARK    3  A    between atoms: C_3  and  C_4 
REMARK    4  A    between atoms: C_7  and  O_6 
REMARK    5  A    between atoms: C_9  and  C_10 
REMARK    6  A    between atoms: N_15  and  C_14 
REMARK    7  A    between atoms: N_20  and  C_19 
REMARK       I    between atoms: C_22  and  N_20 
ROOT
ATOM      1  C   LIG d   1       3.474  89.473 116.057  0.00  0.00     0.161 C 
ATOM      2  C   LIG d   1       2.520  88.834 115.247  0.00  0.00     0.016 C 
ATOM      3  C   LIG d   1       2.718  88.566 113.873  0.00  0.00     0.038 C 
ATOM      4  C   LIG d   1       3.954  88.785 113.247  0.00  0.00     0.028 C 
ATOM      5  C   LIG d   1       4.776  89.892 113.898  0.00  0.00    -0.047 C 
ATOM      6  C   LIG d   1       4.870  89.619 115.417  0.00  0.00     0.091 C 
ENDROOT
BRANCH   1   7
ATOM      7  O   LIG d   1       3.572  88.795 117.325  0.00  0.00    -0.368 OA
BRANCH   7   8
ATOM      8  C   LIG d   1       3.052  89.511 118.472  0.00  0.00     0.119 C 
BRANCH   8   9
ATOM      9  C   LIG d   1       1.719  88.846 118.867  0.00  0.00     0.028 C 
ATOM     10  C   LIG d   1       0.505  89.742 118.565  0.00  0.00     0.006 C 
ENDBRANCH   8   9
BRANCH   8  11
ATOM     11  C   LIG d   1       2.694  90.956 118.112  0.00  0.00     0.028 C 
ATOM     12  C   LIG d   1       3.512  91.987 118.906  0.00  0.00     0.006 C 
ENDBRANCH   8  11
ENDBRANCH   7   8
ENDBRANCH   1   7
BRANCH   6  13
ATOM     13  N   LIG d   1       5.587  90.699 116.144  0.00  0.00    -0.311 N 
ATOM     14  C   LIG d   1       6.561  90.470 117.023  0.00  0.00     0.210 C 
ATOM     15  C   LIG d   1       7.153  91.724 117.674  0.00  0.00     0.109 C 
ATOM     16  O   LIG d   1       7.014  89.349 117.301  0.00  0.00    -0.276 OA
ATOM     17  H   LIG d   1       5.305  91.641 115.955  0.00  0.00     0.149 HD
ENDBRANCH   6  13
BRANCH   5  18
ATOM     18  N   LIG d   1       6.092  89.920 113.233  0.00  0.00     0.381 N 
ATOM     19  H   LIG d   1       5.970  89.907 112.240  0.00  0.00    -0.090 HD
ATOM     20  H   LIG d   1       6.608  89.100 113.498  0.00  0.00    -0.090 HD
ATOM     21  H   LIG d   1       6.593  90.738 113.503  0.00  0.00    -0.090 HD
ENDBRANCH   5  18
BRANCH   3  22
ATOM     22  C   LIG d   1       1.660  88.110 113.102  0.00  0.00     0.382 C 
ATOM     23  O   LIG d   1       0.676  88.857 112.883  0.00  0.00    -0.241 OA
ATOM     24  O   LIG d   1       1.657  86.946 112.660  0.00  0.00    -0.241 OA
ENDBRANCH   3  22
TORSDOF 7
ENDMDL
MODEL 2
REMARK VINA RESULT:      -5.3      1.443      2.307
REMARK  7 active torsions:
REMARK  status: ('A' for Active; 'I' for Inactive)
REMARK    1  A    between atoms: C_2  and  C_3 
REMARK    2  A    between atoms: C_3  and  O_6 
REMARK    3  A    between atoms: C_3  and  C_4 
REMARK    4  A    between atoms: C_7  and  O_6 
REMARK    5  A    between atoms: C_9  and  C_10 
REMARK    6  A    between atoms: N_15  and  C_14 
REMARK    7  A    between atoms: N_20  and  C_19 
REMARK       I    between atoms: C_22  and  N_20 
ROOT
ATOM      1  C   LIG d   1       3.508  89.353 116.061  0.00  0.00     0.161 C 
ATOM      2  C   LIG d   1       2.557  88.714 115.248  0.00  0.00     0.016 C 
ATOM      3  C   LIG d   1       2.738  88.496 113.863  0.00  0.00     0.038 C 
ATOM      4  C   LIG d   1       3.956  88.769 113.222  0.00  0.00     0.028 C 
ATOM      5  C   LIG d   1       4.759  89.877 113.895  0.00  0.00    -0.047 C 
ATOM      6  C   LIG d   1       4.889  89.558 115.402  0.00  0.00     0.091 C 
ENDROOT
BRANCH   1   7
ATOM      7  O   LIG d   1       3.648  88.638 117.304  0.00  0.00    -0.368 OA
BRANCH   7   8
ATOM      8  C   LIG d   1       3.290  87.234 117.276  0.00  0.00     0.119 C 
BRANCH   8   9
ATOM      9  C   LIG d   1       2.686  86.883 118.650  0.00  0.00     0.028 C 
ATOM     10  C   LIG d   1       1.987  88.084 119.308  0.00  0.00     0.006 C 
ENDBRANCH   8   9
BRANCH   8  11
ATOM     11  C   LIG d   1       4.529  86.346 117.139  0.00  0.00     0.028 C 
ATOM     12  C   LIG d   1       4.337  85.207 116.125  0.00  0.00     0.006 C 
ENDBRANCH   8  11
ENDBRANCH   7   8
ENDBRANCH   1   7
BRANCH   6  13
ATOM     13  N   LIG d   1       5.589  90.634 116.151  0.00  0.00    -0.311 N 
ATOM     14  C   LIG d   1       6.608  90.408 116.977  0.00  0.00     0.210 C 
ATOM     15  C   LIG d   1       7.173  91.656 117.664  0.00  0.00     0.109 C 
ATOM     16  O   LIG d   1       7.120  89.297 117.182  0.00  0.00    -0.276 OA
ATOM     17  H   LIG d   1       5.258  91.570 116.020  0.00  0.00     0.149 HD
ENDBRANCH   6  13
BRANCH   5  18
ATOM     18  N   LIG d   1       6.062  89.962 113.209  0.00  0.00     0.381 N 
ATOM     19  H   LIG d   1       5.961  89.682 112.254  0.00  0.00    -0.090 HD
ATOM     20  H   LIG d   1       6.707  89.334 113.655  0.00  0.00    -0.090 HD
ATOM     21  H   LIG d   1       6.411  90.895 113.254  0.00  0.00    -0.090 HD
ENDBRANCH   5  18
BRANCH   3  22
ATOM     22  C   LIG d   1       1.679  88.035 113.096  0.00  0.00     0.382 C 
ATOM     23  O   LIG d   1       1.717  86.881 112.604  0.00  0.00    -0.241 OA
ATOM     24  O   LIG d   1       0.707  88.774 112.852  0.00  0.00    -0.241 OA
ENDBRANCH   3  22
TORSDOF 7
ENDMDL
MODEL 3
REMARK VINA RESULT:      -5.0     10.858     12.921
REMARK  7 active torsions:
REMARK  status: ('A' for Active; 'I' for Inactive)
REMARK    1  A    between atoms: C_2  and  C_3 
REMARK    2  A    between atoms: C_3  and  O_6 
REMARK    3  A    between atoms: C_3  and  C_4 
REMARK    4  A    between atoms: C_7  and  O_6 
REMARK    5  A    between atoms: C_9  and  C_10 
REMARK    6  A    between atoms: N_15  and  C_14 
REMARK    7  A    between atoms: N_20  and  C_19 
REMARK       I    between atoms: C_22  and  N_20 
ROOT
ATOM      1  C   LIG d   1      -2.824  79.660 115.101  0.00  0.00     0.161 C 
ATOM      2  C   LIG d   1      -2.360  80.841 114.499  0.00  0.00     0.016 C 
ATOM      3  C   LIG d   1      -1.717  80.872 113.240  0.00  0.00     0.038 C 
ATOM      4  C   LIG d   1      -1.629  79.734 112.424  0.00  0.00     0.028 C 
ATOM      5  C   LIG d   1      -1.633  78.425 113.207  0.00  0.00    -0.047 C 
ATOM      6  C   LIG d   1      -2.837  78.424 114.177  0.00  0.00     0.091 C 
ENDROOT
BRANCH   1   7
ATOM      7  O   LIG d   1      -4.134  79.879 115.662  0.00  0.00    -0.368 OA
BRANCH   7   8
ATOM      8  C   LIG d   1      -4.230  79.801 117.105  0.00  0.00     0.119 C 
BRANCH   8   9
ATOM      9  C   LIG d   1      -5.158  78.619 117.444  0.00  0.00     0.028 C 
ATOM     10  C   LIG d   1      -4.505  77.621 118.415  0.00  0.00     0.006 C 
ENDBRANCH   8   9
BRANCH   8  11
ATOM     11  C   LIG d   1      -4.922  81.039 117.685  0.00  0.00     0.028 C 
ATOM     12  C   LIG d   1      -4.994  82.204 116.686  0.00  0.00     0.006 C 
ENDBRANCH   8  11
ENDBRANCH   7   8
ENDBRANCH   1   7
BRANCH   6  13
ATOM     13  N   LIG d   1      -2.867  77.216 115.041  0.00  0.00    -0.311 N 
ATOM     14  C   LIG d   1      -3.608  76.142 114.774  0.00  0.00     0.210 C 
ATOM     15  C   LIG d   1      -3.508  75.014 115.807  0.00  0.00     0.109 C 
ATOM     16  O   LIG d   1      -4.314  76.003 113.764  0.00  0.00    -0.276 OA
ATOM     17  H   LIG d   1      -2.300  77.231 115.866  0.00  0.00     0.149 HD
ENDBRANCH   6  13
BRANCH   5  18
ATOM     18  N   LIG d   1      -1.676  77.321 112.230  0.00  0.00     0.381 N 
ATOM     19  H   LIG d   1      -1.835  76.455 112.705  0.00  0.00    -0.090 HD
ATOM     20  H   LIG d   1      -0.789  77.266 111.762  0.00  0.00    -0.090 HD
ATOM     21  H   LIG d   1      -2.401  77.482 111.566  0.00  0.00    -0.090 HD
ENDBRANCH   5  18
BRANCH   3  22
ATOM     22  C   LIG d   1      -1.118  82.043 112.803  0.00  0.00     0.382 C 
ATOM     23  O   LIG d   1      -1.749  82.830 112.056  0.00  0.00    -0.241 OA
ATOM     24  O   LIG d   1       0.061  82.302 113.109  0.00  0.00    -0.241 OA
ENDBRANCH   3  22
TORSDOF 7
ENDMDL
MODEL 4
REMARK VINA RESULT:      -5.0     16.680     18.583
REMARK  7 active torsions:
REMARK  status: ('A' for Active; 'I' for Inactive)
REMARK    1  A    between atoms: C_2  and  C_3 
REMARK    2  A    between atoms: C_3  and  O_6 
REMARK    3  A    between atoms: C_3  and  C_4 
REMARK    4  A    between atoms: C_7  and  O_6 
REMARK    5  A    between atoms: C_9  and  C_10 
REMARK    6  A    between atoms: N_15  and  C_14 
REMARK    7  A    between atoms: N_20  and  C_19 
REMARK       I    between atoms: C_22  and  N_20 
ROOT
ATOM      1  C   LIG d   1      -7.800  75.149 118.108  0.00  0.00     0.161 C 
ATOM      2  C   LIG d   1      -9.178  75.336 118.306  0.00  0.00     0.016 C 
ATOM      3  C   LIG d   1      -9.782  76.609 118.423  0.00  0.00     0.038 C 
ATOM      4  C   LIG d   1      -9.065  77.793 118.197  0.00  0.00     0.028 C 
ATOM      5  C   LIG d   1      -7.575  77.665 118.494  0.00  0.00    -0.047 C 
ATOM      6  C   LIG d   1      -7.019  76.430 117.748  0.00  0.00     0.091 C 
ENDROOT
BRANCH   1   7
ATOM      7  O   LIG d   1      -7.583  74.133 117.108  0.00  0.00    -0.368 OA
BRANCH   7   8
ATOM      8  C   LIG d   1      -6.873  72.949 117.547  0.00  0.00     0.119 C 
BRANCH   8   9
ATOM      9  C   LIG d   1      -5.522  72.919 116.806  0.00  0.00     0.028 C 
ATOM     10  C   LIG d   1      -5.579  73.646 115.452  0.00  0.00     0.006 C 
ENDBRANCH   8   9
BRANCH   8  11
ATOM     11  C   LIG d   1      -7.600  71.672 117.117  0.00  0.00     0.028 C 
ATOM     12  C   LIG d   1      -9.106  71.888 116.897  0.00  0.00     0.006 C 
ENDBRANCH   8  11
ENDBRANCH   7   8
ENDBRANCH   1   7
BRANCH   6  13
ATOM     13  N   LIG d   1      -5.585  76.183 118.051  0.00  0.00    -0.311 N 
ATOM     14  C   LIG d   1      -4.587  76.644 117.299  0.00  0.00     0.210 C 
ATOM     15  C   LIG d   1      -3.185  76.257 117.779  0.00  0.00     0.109 C 
ATOM     16  O   LIG d   1      -4.729  77.363 116.299  0.00  0.00    -0.276 OA
ATOM     17  H   LIG d   1      -5.379  75.635 118.863  0.00  0.00     0.149 HD
ENDBRANCH   6  13
BRANCH   5  18
ATOM     18  N   LIG d   1      -6.929  78.927 118.086  0.00  0.00     0.381 N 
ATOM     19  H   LIG d   1      -5.941  78.791 118.007  0.00  0.00    -0.090 HD
ATOM     20  H   LIG d   1      -7.097  79.621 118.792  0.00  0.00    -0.090 HD
ATOM     21  H   LIG d   1      -7.300  79.233 117.213  0.00  0.00    -0.090 HD
ENDBRANCH   5  18
BRANCH   3  22
ATOM     22  C   LIG d   1     -11.111  76.706 118.808  0.00  0.00     0.382 C 
ATOM     23  O   LIG d   1     -11.947  75.867 118.395  0.00  0.00    -0.241 OA
ATOM     24  O   LIG d   1     -11.492  77.648 119.528  0.00  0.00    -0.241 OA
ENDBRANCH   3  22
TORSDOF 7
ENDMDL
MODEL 5
REMARK VINA RESULT:      -4.9     17.169     19.190
REMARK  7 active torsions:
REMARK  status: ('A' for Active; 'I' for Inactive)
REMARK    1  A    between atoms: C_2  and  C_3 
REMARK    2  A    between atoms: C_3  and  O_6 
REMARK    3  A    between atoms: C_3  and  C_4 
REMARK    4  A    between atoms: C_7  and  O_6 
REMARK    5  A    between atoms: C_9  and  C_10 
REMARK    6  A    between atoms: N_15  and  C_14 
REMARK    7  A    between atoms: N_20  and  C_19 
REMARK       I    between atoms: C_22  and  N_20 
ROOT
ATOM      1  C   LIG d   1      -8.675  75.551 117.914  0.00  0.00     0.161 C 
ATOM      2  C   LIG d   1      -9.750  76.206 118.538  0.00  0.00     0.016 C 
ATOM      3  C   LIG d   1      -9.771  77.596 118.794  0.00  0.00     0.038 C 
ATOM      4  C   LIG d   1      -8.777  78.456 118.303  0.00  0.00     0.028 C 
ATOM      5  C   LIG d   1      -7.428  77.773 118.109  0.00  0.00    -0.047 C 
ATOM      6  C   LIG d   1      -7.631  76.489 117.272  0.00  0.00     0.091 C 
ENDROOT
BRANCH   1   7
ATOM      7  O   LIG d   1      -9.173  74.614 116.939  0.00  0.00    -0.368 OA
BRANCH   7   8
ATOM      8  C   LIG d   1      -9.424  73.270 117.417  0.00  0.00     0.119 C 
BRANCH   8   9
ATOM      9  C   LIG d   1      -8.238  72.392 116.972  0.00  0.00     0.028 C 
ATOM     10  C   LIG d   1      -8.608  70.901 116.894  0.00  0.00     0.006 C 
ENDBRANCH   8   9
BRANCH   8  11
ATOM     11  C   LIG d   1     -10.656  72.659 116.742  0.00  0.00     0.028 C 
ATOM     12  C   LIG d   1     -11.921  73.512 116.928  0.00  0.00     0.006 C 
ENDBRANCH   8  11
ENDBRANCH   7   8
ENDBRANCH   1   7
BRANCH   6  13
ATOM     13  N   LIG d   1      -6.373  75.716 117.107  0.00  0.00    -0.311 N 
ATOM     14  C   LIG d   1      -5.893  75.341 115.922  0.00  0.00     0.210 C 
ATOM     15  C   LIG d   1      -4.593  74.533 115.977  0.00  0.00     0.109 C 
ATOM     16  O   LIG d   1      -6.404  75.628 114.829  0.00  0.00    -0.276 OA
ATOM     17  H   LIG d   1      -5.877  75.467 117.940  0.00  0.00     0.149 HD
ENDBRANCH   6  13
BRANCH   5  18
ATOM     18  N   LIG d   1      -6.525  78.746 117.465  0.00  0.00     0.381 N 
ATOM     19  H   LIG d   1      -6.375  78.488 116.510  0.00  0.00    -0.090 HD
ATOM     20  H   LIG d   1      -5.639  78.729 117.939  0.00  0.00    -0.090 HD
ATOM     21  H   LIG d   1      -6.918  79.660 117.513  0.00  0.00    -0.090 HD
ENDBRANCH   5  18
BRANCH   3  22
ATOM     22  C   LIG d   1     -10.777  78.134 119.583  0.00  0.00     0.382 C 
ATOM     23  O   LIG d   1     -11.662  77.388 120.065  0.00  0.00    -0.241 OA
ATOM     24  O   LIG d   1     -10.835  79.362 119.782  0.00  0.00    -0.241 OA
ENDBRANCH   3  22
TORSDOF 7
ENDMDL
MODEL 6
REMARK VINA RESULT:      -4.7     13.815     15.697
REMARK  7 active torsions:
REMARK  status: ('A' for Active; 'I' for Inactive)
REMARK    1  A    between atoms: C_2  and  C_3 
REMARK    2  A    between atoms: C_3  and  O_6 
REMARK    3  A    between atoms: C_3  and  C_4 
REMARK    4  A    between atoms: C_7  and  O_6 
REMARK    5  A    between atoms: C_9  and  C_10 
REMARK    6  A    between atoms: N_15  and  C_14 
REMARK    7  A    between atoms: N_20  and  C_19 
REMARK       I    between atoms: C_22  and  N_20 
ROOT
ATOM      1  C   LIG d   1      -6.956  78.915 118.072  0.00  0.00     0.161 C 
ATOM      2  C   LIG d   1      -8.317  79.218 118.245  0.00  0.00     0.016 C 
ATOM      3  C   LIG d   1      -8.884  80.469 117.909  0.00  0.00     0.038 C 
ATOM      4  C   LIG d   1      -8.154  81.457 117.232  0.00  0.00     0.028 C 
ATOM      5  C   LIG d   1      -6.653  81.385 117.492  0.00  0.00    -0.047 C 
ATOM      6  C   LIG d   1      -6.166  79.941 117.232  0.00  0.00     0.091 C 
ENDROOT
BRANCH   1   7
ATOM      7  O   LIG d   1      -6.817  77.595 117.511  0.00  0.00    -0.368 OA
BRANCH   7   8
ATOM      8  C   LIG d   1      -7.785  76.611 117.950  0.00  0.00     0.119 C 
BRANCH   8   9
ATOM      9  C   LIG d   1      -7.136  75.799 119.088  0.00  0.00     0.028 C 
ATOM     10  C   LIG d   1      -5.711  75.336 118.740  0.00  0.00     0.006 C 
ENDBRANCH   8   9
BRANCH   8  11
ATOM     11  C   LIG d   1      -8.085  75.593 116.846  0.00  0.00     0.028 C 
ATOM     12  C   LIG d   1      -9.282  74.688 117.178  0.00  0.00     0.006 C 
ENDBRANCH   8  11
ENDBRANCH   7   8
ENDBRANCH   1   7
BRANCH   6  13
ATOM     13  N   LIG d   1      -4.724  79.764 117.545  0.00  0.00    -0.311 N 
ATOM     14  C   LIG d   1      -3.760  79.849 116.630  0.00  0.00     0.210 C 
ATOM     15  C   LIG d   1      -2.343  79.613 117.160  0.00  0.00     0.109 C 
ATOM     16  O   LIG d   1      -3.941  80.130 115.435  0.00  0.00    -0.276 OA
ATOM     17  H   LIG d   1      -4.485  79.564 118.496  0.00  0.00     0.149 HD
ENDBRANCH   6  13
BRANCH   5  18
ATOM     18  N   LIG d   1      -6.001  82.380 116.620  0.00  0.00     0.381 N 
ATOM     19  H   LIG d   1      -6.064  83.288 117.036  0.00  0.00    -0.090 HD
ATOM     20  H   LIG d   1      -6.482  82.404 115.738  0.00  0.00    -0.090 HD
ATOM     21  H   LIG d   1      -5.045  82.137 116.479  0.00  0.00    -0.090 HD
ENDBRANCH   5  18
BRANCH   3  22
ATOM     22  C   LIG d   1     -10.187  80.756 118.287  0.00  0.00     0.382 C 
ATOM     23  O   LIG d   1     -10.679  80.212 119.305  0.00  0.00    -0.241 OA
ATOM     24  O   LIG d   1     -10.891  81.519 117.598  0.00  0.00    -0.241 OA
ENDBRANCH   3  22
TORSDOF 7
ENDMDL
MODEL 7
REMARK VINA RESULT:      -4.6     30.570     32.669
REMARK  7 active torsions:
REMARK  status: ('A' for Active; 'I' for Inactive)
REMARK    1  A    between atoms: C_2  and  C_3 
REMARK    2  A    between atoms: C_3  and  O_6 
REMARK    3  A    between atoms: C_3  and  C_4 
REMARK    4  A    between atoms: C_7  and  O_6 
REMARK    5  A    between atoms: C_9  and  C_10 
REMARK    6  A    between atoms: N_15  and  C_14 
REMARK    7  A    between atoms: N_20  and  C_19 
REMARK       I    between atoms: C_22  and  N_20 
ROOT
ATOM      1  C   LIG d   1     -17.013  64.435 116.188  0.00  0.00     0.161 C 
ATOM      2  C   LIG d   1     -16.939  65.672 115.527  0.00  0.00     0.016 C 
ATOM      3  C   LIG d   1     -16.106  66.733 115.952  0.00  0.00     0.038 C 
ATOM      4  C   LIG d   1     -15.171  66.573 116.985  0.00  0.00     0.028 C 
ATOM      5  C   LIG d   1     -15.568  65.508 118.002  0.00  0.00    -0.047 C 
ATOM      6  C   LIG d   1     -15.919  64.203 117.251  0.00  0.00     0.091 C 
ENDROOT
BRANCH   1   7
ATOM      7  O   LIG d   1     -17.008  63.364 115.223  0.00  0.00    -0.368 OA
BRANCH   7   8
ATOM      8  C   LIG d   1     -18.274  62.692 115.011  0.00  0.00     0.119 C 
BRANCH   8   9
ATOM      9  C   LIG d   1     -18.903  63.282 113.734  0.00  0.00     0.028 C 
ATOM     10  C   LIG d   1     -20.100  64.199 114.039  0.00  0.00     0.006 C 
ENDBRANCH   8   9
BRANCH   8  11
ATOM     11  C   LIG d   1     -19.267  63.006 116.134  0.00  0.00     0.028 C 
ATOM     12  C   LIG d   1     -19.598  61.777 116.996  0.00  0.00     0.006 C 
ENDBRANCH   8  11
ENDBRANCH   7   8
ENDBRANCH   1   7
BRANCH   6  13
ATOM     13  N   LIG d   1     -16.399  63.134 118.165  0.00  0.00    -0.311 N 
ATOM     14  C   LIG d   1     -15.601  62.207 118.692  0.00  0.00     0.210 C 
ATOM     15  C   LIG d   1     -16.303  61.186 119.593  0.00  0.00     0.109 C 
ATOM     16  O   LIG d   1     -14.373  62.152 118.525  0.00  0.00    -0.276 OA
ATOM     17  H   LIG d   1     -17.377  63.123 118.380  0.00  0.00     0.149 HD
ENDBRANCH   6  13
BRANCH   5  18
ATOM     18  N   LIG d   1     -14.444  65.349 118.944  0.00  0.00     0.381 N 
ATOM     19  H   LIG d   1     -14.443  66.104 119.600  0.00  0.00    -0.090 HD
ATOM     20  H   LIG d   1     -13.582  65.378 118.428  0.00  0.00    -0.090 HD
ATOM     21  H   LIG d   1     -14.522  64.480 119.425  0.00  0.00    -0.090 HD
ENDBRANCH   5  18
BRANCH   3  22
ATOM     22  C   LIG d   1     -16.232  67.983 115.365  0.00  0.00     0.382 C 
ATOM     23  O   LIG d   1     -16.910  68.875 115.930  0.00  0.00    -0.241 OA
ATOM     24  O   LIG d   1     -15.712  68.216 114.257  0.00  0.00    -0.241 OA
ENDBRANCH   3  22
TORSDOF 7
ENDMDL
MODEL 8
REMARK VINA RESULT:      -4.6     26.171     28.082
REMARK  7 active torsions:
REMARK  status: ('A' for Active; 'I' for Inactive)
REMARK    1  A    between atoms: C_2  and  C_3 
REMARK    2  A    between atoms: C_3  and  O_6 
REMARK    3  A    between atoms: C_3  and  C_4 
REMARK    4  A    between atoms: C_7  and  O_6 
REMARK    5  A    between atoms: C_9  and  C_10 
REMARK    6  A    between atoms: N_15  and  C_14 
REMARK    7  A    between atoms: N_20  and  C_19 
REMARK       I    between atoms: C_22  and  N_20 
ROOT
ATOM      1  C   LIG d   1     -23.013  83.098 115.691  0.00  0.00     0.161 C 
ATOM      2  C   LIG d   1     -22.450  84.359 115.435  0.00  0.00     0.016 C 
ATOM      3  C   LIG d   1     -22.661  85.076 114.234  0.00  0.00     0.038 C 
ATOM      4  C   LIG d   1     -23.578  84.645 113.264  0.00  0.00     0.028 C 
ATOM      5  C   LIG d   1     -23.783  83.134 113.255  0.00  0.00    -0.047 C 
ATOM      6  C   LIG d   1     -24.105  82.662 114.691  0.00  0.00     0.091 C 
ENDROOT
BRANCH   1   7
ATOM      7  O   LIG d   1     -23.522  83.055 117.039  0.00  0.00    -0.368 OA
BRANCH   7   8
ATOM      8  C   LIG d   1     -22.746  83.763 118.036  0.00  0.00     0.119 C 
BRANCH   8   9
ATOM      9  C   LIG d   1     -22.245  82.723 119.057  0.00  0.00     0.028 C 
ATOM     10  C   LIG d   1     -20.851  82.178 118.705  0.00  0.00     0.006 C 
ENDBRANCH   8   9
BRANCH   8  11
ATOM     11  C   LIG d   1     -23.620  84.731 118.839  0.00  0.00     0.028 C 
ATOM     12  C   LIG d   1     -23.048  86.157 118.878  0.00  0.00     0.006 C 
ENDBRANCH   8  11
ENDBRANCH   7   8
ENDBRANCH   1   7
BRANCH   6  13
ATOM     13  N   LIG d   1     -24.238  81.185 114.786  0.00  0.00    -0.311 N 
ATOM     14  C   LIG d   1     -25.400  80.544 114.670  0.00  0.00     0.210 C 
ATOM     15  C   LIG d   1     -25.317  79.022 114.820  0.00  0.00     0.109 C 
ATOM     16  O   LIG d   1     -26.486  81.089 114.424  0.00  0.00    -0.276 OA
ATOM     17  H   LIG d   1     -23.401  80.661 114.953  0.00  0.00     0.149 HD
ENDBRANCH   6  13
BRANCH   5  18
ATOM     18  N   LIG d   1     -24.862  82.837 112.294  0.00  0.00     0.381 N 
ATOM     19  H   LIG d   1     -25.208  83.689 111.898  0.00  0.00    -0.090 HD
ATOM     20  H   LIG d   1     -25.617  82.386 112.781  0.00  0.00    -0.090 HD
ATOM     21  H   LIG d   1     -24.521  82.241 111.571  0.00  0.00    -0.090 HD
ENDBRANCH   5  18
BRANCH   3  22
ATOM     22  C   LIG d   1     -21.919  86.219 113.978  0.00  0.00     0.382 C 
ATOM     23  O   LIG d   1     -22.122  87.261 114.646  0.00  0.00    -0.241 OA
ATOM     24  O   LIG d   1     -21.081  86.235 113.056  0.00  0.00    -0.241 OA
ENDBRANCH   3  22
TORSDOF 7
ENDMDL
MODEL 9
REMARK VINA RESULT:      -4.6     14.141     15.788
REMARK  7 active torsions:
REMARK  status: ('A' for Active; 'I' for Inactive)
REMARK    1  A    between atoms: C_2  and  C_3 
REMARK    2  A    between atoms: C_3  and  O_6 
REMARK    3  A    between atoms: C_3  and  C_4 
REMARK    4  A    between atoms: C_7  and  O_6 
REMARK    5  A    between atoms: C_9  and  C_10 
REMARK    6  A    between atoms: N_15  and  C_14 
REMARK    7  A    between atoms: N_20  and  C_19 
REMARK       I    between atoms: C_22  and  N_20 
ROOT
ATOM      1  C   LIG d   1      -2.669  76.111 116.346  0.00  0.00     0.161 C 
ATOM      2  C   LIG d   1      -3.305  76.825 115.317  0.00  0.00     0.016 C 
ATOM      3  C   LIG d   1      -2.751  76.990 114.027  0.00  0.00     0.038 C 
ATOM      4  C   LIG d   1      -1.586  76.318 113.629  0.00  0.00     0.028 C 
ATOM      5  C   LIG d   1      -0.648  75.994 114.787  0.00  0.00    -0.047 C 
ATOM      6  C   LIG d   1      -1.450  75.278 115.897  0.00  0.00     0.091 C 
ENDROOT
BRANCH   1   7
ATOM      7  O   LIG d   1      -3.626  75.273 117.023  0.00  0.00    -0.368 OA
BRANCH   7   8
ATOM      8  C   LIG d   1      -4.910  75.116 116.370  0.00  0.00     0.119 C 
BRANCH   8   9
ATOM      9  C   LIG d   1      -5.997  75.201 117.459  0.00  0.00     0.028 C 
ATOM     10  C   LIG d   1      -7.181  76.088 117.039  0.00  0.00     0.006 C 
ENDBRANCH   8   9
BRANCH   8  11
ATOM     11  C   LIG d   1      -5.057  73.719 115.759  0.00  0.00     0.028 C 
ATOM     12  C   LIG d   1      -5.761  72.728 116.699  0.00  0.00     0.006 C 
ENDBRANCH   8  11
ENDBRANCH   7   8
ENDBRANCH   1   7
BRANCH   6  13
ATOM     13  N   LIG d   1      -0.626  75.001 117.103  0.00  0.00    -0.311 N 
ATOM     14  C   LIG d   1      -0.671  73.851 117.774  0.00  0.00     0.210 C 
ATOM     15  C   LIG d   1       0.245  73.781 118.999  0.00  0.00     0.109 C 
ATOM     16  O   LIG d   1      -1.360  72.871 117.452  0.00  0.00    -0.276 OA
ATOM     17  H   LIG d   1      -0.015  75.730 117.415  0.00  0.00     0.149 HD
ENDBRANCH   6  13
BRANCH   5  18
ATOM     18  N   LIG d   1       0.456  75.176 114.251  0.00  0.00     0.381 N 
ATOM     19  H   LIG d   1       0.524  74.320 114.765  0.00  0.00    -0.090 HD
ATOM     20  H   LIG d   1       1.318  75.680 114.362  0.00  0.00    -0.090 HD
ATOM     21  H   LIG d   1       0.299  74.981 113.287  0.00  0.00    -0.090 HD
ENDBRANCH   5  18
BRANCH   3  22
ATOM     22  C   LIG d   1      -3.345  77.866 113.131  0.00  0.00     0.382 C 
ATOM     23  O   LIG d   1      -3.408  79.090 113.399  0.00  0.00    -0.241 OA
ATOM     24  O   LIG d   1      -3.858  77.442 112.078  0.00  0.00    -0.241 OA
ENDBRANCH   3  22
TORSDOF 7
ENDMDL
