MODEL 1
REMARK VINA RESULT:      -5.6      0.000      0.000
REMARK  7 active torsions:
REMARK  status: ('A' for Active; 'I' for Inactive)
REMARK    1  A    between atoms: C_2  and  C_3 
REMARK    2  A    between atoms: C_3  and  O_6 
REMARK    3  A    between atoms: C_3  and  C_4 
REMARK    4  A    between atoms: C_7  and  O_6 
REMARK    5  A    between atoms: C_9  and  C_10 
REMARK    6  A    between atoms: N_15  and  C_14 
REMARK    7  A    between atoms: N_20  and  C_19 
REMARK       I    between atoms: C_22  and  N_20 
ROOT
ATOM      1  C   LIG d   1      -3.096  76.982 116.283  0.00  0.00     0.161 C 
ATOM      2  C   LIG d   1      -3.304  77.962 115.299  0.00  0.00     0.016 C 
ATOM      3  C   LIG d   1      -2.344  78.291 114.314  0.00  0.00     0.038 C 
ATOM      4  C   LIG d   1      -1.163  77.552 114.154  0.00  0.00     0.028 C 
ATOM      5  C   LIG d   1      -0.686  76.885 115.440  0.00  0.00    -0.047 C 
ATOM      6  C   LIG d   1      -1.859  76.089 116.056  0.00  0.00     0.091 C 
ENDROOT
BRANCH   1   7
ATOM      7  O   LIG d   1      -4.280  76.172 116.424  0.00  0.00    -0.368 OA
BRANCH   7   8
ATOM      8  C   LIG d   1      -5.482  76.685 115.798  0.00  0.00     0.119 C 
BRANCH   8   9
ATOM      9  C   LIG d   1      -6.510  76.949 116.915  0.00  0.00     0.028 C 
ATOM     10  C   LIG d   1      -7.716  75.998 116.838  0.00  0.00     0.006 C 
ENDBRANCH   8   9
BRANCH   8  11
ATOM     11  C   LIG d   1      -6.129  75.635 114.890  0.00  0.00     0.028 C 
ATOM     12  C   LIG d   1      -5.167  74.497 114.515  0.00  0.00     0.006 C 
ENDBRANCH   8  11
ENDBRANCH   7   8
ENDBRANCH   1   7
BRANCH   6  13
ATOM     13  N   LIG d   1      -1.502  75.473 117.361  0.00  0.00    -0.311 N 
ATOM     14  C   LIG d   1      -1.386  74.159 117.544  0.00  0.00     0.210 C 
ATOM     15  C   LIG d   1      -1.030  73.735 118.973  0.00  0.00     0.109 C 
ATOM     16  O   LIG d   1      -1.511  73.307 116.653  0.00  0.00    -0.276 OA
ATOM     17  H   LIG d   1      -1.352  76.094 118.132  0.00  0.00     0.149 HD
ENDBRANCH   6  13
BRANCH   5  18
ATOM     18  N   LIG d   1       0.473  76.038 115.100  0.00  0.00     0.381 N 
ATOM     19  H   LIG d   1       1.179  76.133 115.801  0.00  0.00    -0.090 HD
ATOM     20  H   LIG d   1       0.855  76.347 114.223  0.00  0.00    -0.090 HD
ATOM     21  H   LIG d   1       0.190  75.085 115.030  0.00  0.00    -0.090 HD
ENDBRANCH   5  18
BRANCH   3  22
ATOM     22  C   LIG d   1      -2.544  79.397 113.502  0.00  0.00     0.382 C 
ATOM     23  O   LIG d   1      -2.074  79.415 112.339  0.00  0.00    -0.241 OA
ATOM     24  O   LIG d   1      -3.152  80.396 113.933  0.00  0.00    -0.241 OA
ENDBRANCH   3  22
TORSDOF 7
ENDMDL
MODEL 2
REMARK VINA RESULT:      -5.4      2.988      5.847
REMARK  7 active torsions:
REMARK  status: ('A' for Active; 'I' for Inactive)
REMARK    1  A    between atoms: C_2  and  C_3 
REMARK    2  A    between atoms: C_3  and  O_6 
REMARK    3  A    between atoms: C_3  and  C_4 
REMARK    4  A    between atoms: C_7  and  O_6 
REMARK    5  A    between atoms: C_9  and  C_10 
REMARK    6  A    between atoms: N_15  and  C_14 
REMARK    7  A    between atoms: N_20  and  C_19 
REMARK       I    between atoms: C_22  and  N_20 
ROOT
ATOM      1  C   LIG d   1      -5.733  77.260 116.608  0.00  0.00     0.161 C 
ATOM      2  C   LIG d   1      -7.047  76.937 116.986  0.00  0.00     0.016 C 
ATOM      3  C   LIG d   1      -7.832  77.744 117.841  0.00  0.00     0.038 C 
ATOM      4  C   LIG d   1      -7.408  79.015 118.256  0.00  0.00     0.028 C 
ATOM      5  C   LIG d   1      -5.890  79.159 118.311  0.00  0.00    -0.047 C 
ATOM      6  C   LIG d   1      -5.294  78.697 116.962  0.00  0.00     0.091 C 
ENDROOT
BRANCH   1   7
ATOM      7  O   LIG d   1      -5.556  77.015 115.199  0.00  0.00    -0.368 OA
BRANCH   7   8
ATOM      8  C   LIG d   1      -4.624  75.963 114.847  0.00  0.00     0.119 C 
BRANCH   8   9
ATOM      9  C   LIG d   1      -5.446  74.785 114.289  0.00  0.00     0.028 C 
ATOM     10  C   LIG d   1      -5.843  73.776 115.380  0.00  0.00     0.006 C 
ENDBRANCH   8   9
BRANCH   8  11
ATOM     11  C   LIG d   1      -3.914  75.410 116.087  0.00  0.00     0.028 C 
ATOM     12  C   LIG d   1      -2.390  75.320 115.910  0.00  0.00     0.006 C 
ENDBRANCH   8  11
ENDBRANCH   7   8
ENDBRANCH   1   7
BRANCH   6  13
ATOM     13  N   LIG d   1      -3.808  78.726 116.960  0.00  0.00    -0.311 N 
ATOM     14  C   LIG d   1      -3.086  79.232 115.962  0.00  0.00     0.210 C 
ATOM     15  C   LIG d   1      -1.568  79.144 116.152  0.00  0.00     0.109 C 
ATOM     16  O   LIG d   1      -3.558  79.775 114.952  0.00  0.00    -0.276 OA
ATOM     17  H   LIG d   1      -3.343  78.334 117.755  0.00  0.00     0.149 HD
ENDBRANCH   6  13
BRANCH   5  18
ATOM     18  N   LIG d   1      -5.588  80.568 118.624  0.00  0.00     0.381 N 
ATOM     19  H   LIG d   1      -4.782  80.864 118.110  0.00  0.00    -0.090 HD
ATOM     20  H   LIG d   1      -5.382  80.646 119.605  0.00  0.00    -0.090 HD
ATOM     21  H   LIG d   1      -6.367  81.144 118.394  0.00  0.00    -0.090 HD
ENDBRANCH   5  18
BRANCH   3  22
ATOM     22  C   LIG d   1      -9.041  77.264 118.320  0.00  0.00     0.382 C 
ATOM     23  O   LIG d   1     -10.082  77.954 118.199  0.00  0.00    -0.241 OA
ATOM     24  O   LIG d   1      -9.096  76.170 118.913  0.00  0.00    -0.241 OA
ENDBRANCH   3  22
TORSDOF 7
ENDMDL
MODEL 3
REMARK VINA RESULT:      -5.4      2.020      2.918
REMARK  7 active torsions:
REMARK  status: ('A' for Active; 'I' for Inactive)
REMARK    1  A    between atoms: C_2  and  C_3 
REMARK    2  A    between atoms: C_3  and  O_6 
REMARK    3  A    between atoms: C_3  and  C_4 
REMARK    4  A    between atoms: C_7  and  O_6 
REMARK    5  A    between atoms: C_9  and  C_10 
REMARK    6  A    between atoms: N_15  and  C_14 
REMARK    7  A    between atoms: N_20  and  C_19 
REMARK       I    between atoms: C_22  and  N_20 
ROOT
ATOM      1  C   LIG d   1      -3.157  78.588 115.626  0.00  0.00     0.161 C 
ATOM      2  C   LIG d   1      -3.139  79.732 114.811  0.00  0.00     0.016 C 
ATOM      3  C   LIG d   1      -2.331  79.852 113.657  0.00  0.00     0.038 C 
ATOM      4  C   LIG d   1      -1.594  78.771 113.152  0.00  0.00     0.028 C 
ATOM      5  C   LIG d   1      -1.189  77.761 114.221  0.00  0.00    -0.047 C 
ATOM      6  C   LIG d   1      -2.443  77.357 115.029  0.00  0.00     0.091 C 
ENDROOT
BRANCH   1   7
ATOM      7  O   LIG d   1      -4.516  78.258 115.976  0.00  0.00    -0.368 OA
BRANCH   7   8
ATOM      8  C   LIG d   1      -5.108  79.044 117.039  0.00  0.00     0.119 C 
BRANCH   8   9
ATOM      9  C   LIG d   1      -4.268  78.813 118.310  0.00  0.00     0.028 C 
ATOM     10  C   LIG d   1      -3.835  80.130 118.974  0.00  0.00     0.006 C 
ENDBRANCH   8   9
BRANCH   8  11
ATOM     11  C   LIG d   1      -6.513  78.542 117.386  0.00  0.00     0.028 C 
ATOM     12  C   LIG d   1      -7.450  79.668 117.850  0.00  0.00     0.006 C 
ENDBRANCH   8  11
ENDBRANCH   7   8
ENDBRANCH   1   7
BRANCH   6  13
ATOM     13  N   LIG d   1      -2.122  76.435 116.150  0.00  0.00    -0.311 N 
ATOM     14  C   LIG d   1      -2.187  75.109 116.050  0.00  0.00     0.210 C 
ATOM     15  C   LIG d   1      -1.834  74.346 117.331  0.00  0.00     0.109 C 
ATOM     16  O   LIG d   1      -2.472  74.491 115.013  0.00  0.00    -0.276 OA
ATOM     17  H   LIG d   1      -1.851  76.852 117.019  0.00  0.00     0.149 HD
ENDBRANCH   6  13
BRANCH   5  18
ATOM     18  N   LIG d   1      -0.549  76.622 113.538  0.00  0.00     0.381 N 
ATOM     19  H   LIG d   1      -0.125  76.017 114.213  0.00  0.00    -0.090 HD
ATOM     20  H   LIG d   1       0.172  76.970 112.930  0.00  0.00    -0.090 HD
ATOM     21  H   LIG d   1      -1.225  76.118 113.008  0.00  0.00    -0.090 HD
ENDBRANCH   5  18
BRANCH   3  22
ATOM     22  C   LIG d   1      -2.224  81.078 113.018  0.00  0.00     0.382 C 
ATOM     23  O   LIG d   1      -3.259  81.698 112.675  0.00  0.00    -0.241 OA
ATOM     24  O   LIG d   1      -1.106  81.551 112.740  0.00  0.00    -0.241 OA
ENDBRANCH   3  22
TORSDOF 7
ENDMDL
MODEL 4
REMARK VINA RESULT:      -5.4     15.244     16.887
REMARK  7 active torsions:
REMARK  status: ('A' for Active; 'I' for Inactive)
REMARK    1  A    between atoms: C_2  and  C_3 
REMARK    2  A    between atoms: C_3  and  O_6 
REMARK    3  A    between atoms: C_3  and  C_4 
REMARK    4  A    between atoms: C_7  and  O_6 
REMARK    5  A    between atoms: C_9  and  C_10 
REMARK    6  A    between atoms: N_15  and  C_14 
REMARK    7  A    between atoms: N_20  and  C_19 
REMARK       I    between atoms: C_22  and  N_20 
ROOT
ATOM      1  C   LIG d   1     -14.637  66.139 116.364  0.00  0.00     0.161 C 
ATOM      2  C   LIG d   1     -14.650  67.167 115.407  0.00  0.00     0.016 C 
ATOM      3  C   LIG d   1     -15.251  67.036 114.134  0.00  0.00     0.038 C 
ATOM      4  C   LIG d   1     -16.016  65.913 113.787  0.00  0.00     0.028 C 
ATOM      5  C   LIG d   1     -15.606  64.647 114.530  0.00  0.00    -0.047 C 
ATOM      6  C   LIG d   1     -15.563  64.947 116.046  0.00  0.00     0.091 C 
ENDROOT
BRANCH   1   7
ATOM      7  O   LIG d   1     -14.945  66.679 117.665  0.00  0.00    -0.368 OA
BRANCH   7   8
ATOM      8  C   LIG d   1     -16.318  66.539 118.105  0.00  0.00     0.119 C 
BRANCH   8   9
ATOM      9  C   LIG d   1     -16.959  67.940 118.074  0.00  0.00     0.028 C 
ATOM     10  C   LIG d   1     -17.732  68.259 119.365  0.00  0.00     0.006 C 
ENDBRANCH   8   9
BRANCH   8  11
ATOM     11  C   LIG d   1     -16.392  66.091 119.567  0.00  0.00     0.028 C 
ATOM     12  C   LIG d   1     -15.046  65.576 120.101  0.00  0.00     0.006 C 
ENDBRANCH   8  11
ENDBRANCH   7   8
ENDBRANCH   1   7
BRANCH   6  13
ATOM     13  N   LIG d   1     -15.089  63.784 116.841  0.00  0.00    -0.311 N 
ATOM     14  C   LIG d   1     -15.909  62.929 117.451  0.00  0.00     0.210 C 
ATOM     15  C   LIG d   1     -15.212  61.812 118.234  0.00  0.00     0.109 C 
ATOM     16  O   LIG d   1     -17.147  62.972 117.391  0.00  0.00    -0.276 OA
ATOM     17  H   LIG d   1     -14.099  63.656 116.915  0.00  0.00     0.149 HD
ENDBRANCH   6  13
BRANCH   5  18
ATOM     18  N   LIG d   1     -16.572  63.590 114.177  0.00  0.00     0.381 N 
ATOM     19  H   LIG d   1     -16.233  62.702 114.490  0.00  0.00    -0.090 HD
ATOM     20  H   LIG d   1     -16.666  63.556 113.177  0.00  0.00    -0.090 HD
ATOM     21  H   LIG d   1     -17.456  63.782 114.594  0.00  0.00    -0.090 HD
ENDBRANCH   5  18
BRANCH   3  22
ATOM     22  C   LIG d   1     -15.054  68.021 113.177  0.00  0.00     0.382 C 
ATOM     23  O   LIG d   1     -15.611  67.926 112.057  0.00  0.00    -0.241 OA
ATOM     24  O   LIG d   1     -14.293  68.980 113.405  0.00  0.00    -0.241 OA
ENDBRANCH   3  22
TORSDOF 7
ENDMDL
MODEL 5
REMARK VINA RESULT:      -5.3     15.218     17.690
REMARK  7 active torsions:
REMARK  status: ('A' for Active; 'I' for Inactive)
REMARK    1  A    between atoms: C_2  and  C_3 
REMARK    2  A    between atoms: C_3  and  O_6 
REMARK    3  A    between atoms: C_3  and  C_4 
REMARK    4  A    between atoms: C_7  and  O_6 
REMARK    5  A    between atoms: C_9  and  C_10 
REMARK    6  A    between atoms: N_15  and  C_14 
REMARK    7  A    between atoms: N_20  and  C_19 
REMARK       I    between atoms: C_22  and  N_20 
ROOT
ATOM      1  C   LIG d   1     -16.309  64.821 114.741  0.00  0.00     0.161 C 
ATOM      2  C   LIG d   1     -16.038  65.849 113.822  0.00  0.00     0.016 C 
ATOM      3  C   LIG d   1     -15.174  66.933 114.099  0.00  0.00     0.038 C 
ATOM      4  C   LIG d   1     -14.399  66.983 115.268  0.00  0.00     0.028 C 
ATOM      5  C   LIG d   1     -15.020  66.229 116.439  0.00  0.00    -0.047 C 
ATOM      6  C   LIG d   1     -15.388  64.800 115.978  0.00  0.00     0.091 C 
ENDROOT
BRANCH   1   7
ATOM      7  O   LIG d   1     -16.277  63.545 114.070  0.00  0.00    -0.368 OA
BRANCH   7   8
ATOM      8  C   LIG d   1     -17.541  62.842 113.977  0.00  0.00     0.119 C 
BRANCH   8   9
ATOM      9  C   LIG d   1     -18.629  63.766 114.559  0.00  0.00     0.028 C 
ATOM     10  C   LIG d   1     -19.625  64.245 113.489  0.00  0.00     0.006 C 
ENDBRANCH   8   9
BRANCH   8  11
ATOM     11  C   LIG d   1     -17.551  61.595 114.865  0.00  0.00     0.028 C 
ATOM     12  C   LIG d   1     -18.621  61.657 115.967  0.00  0.00     0.006 C 
ENDBRANCH   8  11
ENDBRANCH   7   8
ENDBRANCH   1   7
BRANCH   6  13
ATOM     13  N   LIG d   1     -16.077  64.022 117.039  0.00  0.00    -0.311 N 
ATOM     14  C   LIG d   1     -15.449  63.177 117.855  0.00  0.00     0.210 C 
ATOM     15  C   LIG d   1     -16.351  62.461 118.865  0.00  0.00     0.109 C 
ATOM     16  O   LIG d   1     -14.225  62.977 117.859  0.00  0.00    -0.276 OA
ATOM     17  H   LIG d   1     -17.067  64.147 117.127  0.00  0.00     0.149 HD
ENDBRANCH   6  13
BRANCH   5  18
ATOM     18  N   LIG d   1     -14.046  66.246 117.547  0.00  0.00     0.381 N 
ATOM     19  H   LIG d   1     -13.143  66.502 117.200  0.00  0.00    -0.090 HD
ATOM     20  H   LIG d   1     -13.984  65.324 117.939  0.00  0.00    -0.090 HD
ATOM     21  H   LIG d   1     -14.336  66.894 118.246  0.00  0.00    -0.090 HD
ENDBRANCH   5  18
BRANCH   3  22
ATOM     22  C   LIG d   1     -15.109  68.002 113.219  0.00  0.00     0.382 C 
ATOM     23  O   LIG d   1     -15.652  67.920 112.091  0.00  0.00    -0.241 OA
ATOM     24  O   LIG d   1     -14.476  69.031 113.522  0.00  0.00    -0.241 OA
ENDBRANCH   3  22
TORSDOF 7
ENDMDL
MODEL 6
REMARK VINA RESULT:      -5.2      3.674      6.591
REMARK  7 active torsions:
REMARK  status: ('A' for Active; 'I' for Inactive)
REMARK    1  A    between atoms: C_2  and  C_3 
REMARK    2  A    between atoms: C_3  and  O_6 
REMARK    3  A    between atoms: C_3  and  C_4 
REMARK    4  A    between atoms: C_7  and  O_6 
REMARK    5  A    between atoms: C_9  and  C_10 
REMARK    6  A    between atoms: N_15  and  C_14 
REMARK    7  A    between atoms: N_20  and  C_19 
REMARK       I    between atoms: C_22  and  N_20 
ROOT
ATOM      1  C   LIG d   1      -5.498  77.646 116.811  0.00  0.00     0.161 C 
ATOM      2  C   LIG d   1      -5.198  76.524 116.021  0.00  0.00     0.016 C 
ATOM      3  C   LIG d   1      -6.123  75.488 115.759  0.00  0.00     0.038 C 
ATOM      4  C   LIG d   1      -7.468  75.578 116.148  0.00  0.00     0.028 C 
ATOM      5  C   LIG d   1      -7.685  76.454 117.378  0.00  0.00    -0.047 C 
ATOM      6  C   LIG d   1      -6.993  77.817 117.151  0.00  0.00     0.091 C 
ENDROOT
BRANCH   1   7
ATOM      7  O   LIG d   1      -4.988  78.838 116.180  0.00  0.00    -0.368 OA
BRANCH   7   8
ATOM      8  C   LIG d   1      -3.821  79.436 116.796  0.00  0.00     0.119 C 
BRANCH   8   9
ATOM      9  C   LIG d   1      -2.584  78.942 116.022  0.00  0.00     0.028 C 
ATOM     10  C   LIG d   1      -2.502  79.536 114.606  0.00  0.00     0.006 C 
ENDBRANCH   8   9
BRANCH   8  11
ATOM     11  C   LIG d   1      -3.629  78.934 118.230  0.00  0.00     0.028 C 
ATOM     12  C   LIG d   1      -3.624  80.072 119.264  0.00  0.00     0.006 C 
ENDBRANCH   8  11
ENDBRANCH   7   8
ENDBRANCH   1   7
BRANCH   6  13
ATOM     13  N   LIG d   1      -7.085  78.704 118.341  0.00  0.00    -0.311 N 
ATOM     14  C   LIG d   1      -7.423  79.990 118.271  0.00  0.00     0.210 C 
ATOM     15  C   LIG d   1      -7.438  80.728 119.614  0.00  0.00     0.109 C 
ATOM     16  O   LIG d   1      -7.742  80.583 117.230  0.00  0.00    -0.276 OA
ATOM     17  H   LIG d   1      -6.872  78.297 119.230  0.00  0.00     0.149 HD
ENDBRANCH   6  13
BRANCH   5  18
ATOM     18  N   LIG d   1      -9.140  76.572 117.589  0.00  0.00     0.381 N 
ATOM     19  H   LIG d   1      -9.493  77.358 117.081  0.00  0.00    -0.090 HD
ATOM     20  H   LIG d   1      -9.315  76.724 118.567  0.00  0.00    -0.090 HD
ATOM     21  H   LIG d   1      -9.598  75.740 117.288  0.00  0.00    -0.090 HD
ENDBRANCH   5  18
BRANCH   3  22
ATOM     22  C   LIG d   1      -5.695  74.326 115.135  0.00  0.00     0.382 C 
ATOM     23  O   LIG d   1      -4.942  74.393 114.134  0.00  0.00    -0.241 OA
ATOM     24  O   LIG d   1      -6.089  73.213 115.533  0.00  0.00    -0.241 OA
ENDBRANCH   3  22
TORSDOF 7
ENDMDL
MODEL 7
REMARK VINA RESULT:      -5.0      3.312      6.341
REMARK  7 active torsions:
REMARK  status: ('A' for Active; 'I' for Inactive)
REMARK    1  A    between atoms: C_2  and  C_3 
REMARK    2  A    between atoms: C_3  and  O_6 
REMARK    3  A    between atoms: C_3  and  C_4 
REMARK    4  A    between atoms: C_7  and  O_6 
REMARK    5  A    between atoms: C_9  and  C_10 
REMARK    6  A    between atoms: N_15  and  C_14 
REMARK    7  A    between atoms: N_20  and  C_19 
REMARK       I    between atoms: C_22  and  N_20 
ROOT
ATOM      1  C   LIG d   1      -5.010  77.690 116.619  0.00  0.00     0.161 C 
ATOM      2  C   LIG d   1      -4.835  76.543 115.828  0.00  0.00     0.016 C 
ATOM      3  C   LIG d   1      -5.857  75.594 115.596  0.00  0.00     0.038 C 
ATOM      4  C   LIG d   1      -7.177  75.807 116.019  0.00  0.00     0.028 C 
ATOM      5  C   LIG d   1      -7.281  76.703 117.249  0.00  0.00    -0.047 C 
ATOM      6  C   LIG d   1      -6.474  77.997 116.998  0.00  0.00     0.091 C 
ENDROOT
BRANCH   1   7
ATOM      7  O   LIG d   1      -4.412  78.829 115.968  0.00  0.00    -0.368 OA
BRANCH   7   8
ATOM      8  C   LIG d   1      -3.038  78.667 115.537  0.00  0.00     0.119 C 
BRANCH   8   9
ATOM      9  C   LIG d   1      -2.134  79.002 116.739  0.00  0.00     0.028 C 
ATOM     10  C   LIG d   1      -0.892  78.097 116.809  0.00  0.00     0.006 C 
ENDBRANCH   8   9
BRANCH   8  11
ATOM     11  C   LIG d   1      -2.670  79.687 114.456  0.00  0.00     0.028 C 
ATOM     12  C   LIG d   1      -2.261  79.028 113.129  0.00  0.00     0.006 C 
ENDBRANCH   8  11
ENDBRANCH   7   8
ENDBRANCH   1   7
BRANCH   6  13
ATOM     13  N   LIG d   1      -6.454  78.892 118.184  0.00  0.00    -0.311 N 
ATOM     14  C   LIG d   1      -6.956  80.126 118.180  0.00  0.00     0.210 C 
ATOM     15  C   LIG d   1      -6.814  80.886 119.502  0.00  0.00     0.109 C 
ATOM     16  O   LIG d   1      -7.533  80.651 117.216  0.00  0.00    -0.276 OA
ATOM     17  H   LIG d   1      -6.032  78.534 119.018  0.00  0.00     0.149 HD
ENDBRANCH   6  13
BRANCH   5  18
ATOM     18  N   LIG d   1      -8.713  76.953 117.498  0.00  0.00     0.381 N 
ATOM     19  H   LIG d   1      -8.898  76.916 118.481  0.00  0.00    -0.090 HD
ATOM     20  H   LIG d   1      -9.252  76.234 117.048  0.00  0.00    -0.090 HD
ATOM     21  H   LIG d   1      -8.971  77.846 117.138  0.00  0.00    -0.090 HD
ENDBRANCH   5  18
BRANCH   3  22
ATOM     22  C   LIG d   1      -5.552  74.396 114.967  0.00  0.00     0.382 C 
ATOM     23  O   LIG d   1      -5.947  73.311 115.459  0.00  0.00    -0.241 OA
ATOM     24  O   LIG d   1      -4.850  74.383 113.938  0.00  0.00    -0.241 OA
ENDBRANCH   3  22
TORSDOF 7
ENDMDL
MODEL 8
REMARK VINA RESULT:      -5.0      3.971      6.295
REMARK  7 active torsions:
REMARK  status: ('A' for Active; 'I' for Inactive)
REMARK    1  A    between atoms: C_2  and  C_3 
REMARK    2  A    between atoms: C_3  and  O_6 
REMARK    3  A    between atoms: C_3  and  C_4 
REMARK    4  A    between atoms: C_7  and  O_6 
REMARK    5  A    between atoms: C_9  and  C_10 
REMARK    6  A    between atoms: N_15  and  C_14 
REMARK    7  A    between atoms: N_20  and  C_19 
REMARK       I    between atoms: C_22  and  N_20 
ROOT
ATOM      1  C   LIG d   1      -6.149  78.393 117.378  0.00  0.00     0.161 C 
ATOM      2  C   LIG d   1      -7.498  78.155 117.687  0.00  0.00     0.016 C 
ATOM      3  C   LIG d   1      -8.374  79.153 118.173  0.00  0.00     0.038 C 
ATOM      4  C   LIG d   1      -7.995  80.502 118.241  0.00  0.00     0.028 C 
ATOM      5  C   LIG d   1      -6.494  80.702 118.418  0.00  0.00    -0.047 C 
ATOM      6  C   LIG d   1      -5.748  79.883 117.340  0.00  0.00     0.091 C 
ENDROOT
BRANCH   1   7
ATOM      7  O   LIG d   1      -5.812  77.752 116.132  0.00  0.00    -0.368 OA
BRANCH   7   8
ATOM      8  C   LIG d   1      -5.427  76.358 116.217  0.00  0.00     0.119 C 
BRANCH   8   9
ATOM      9  C   LIG d   1      -3.943  76.262 115.814  0.00  0.00     0.028 C 
ATOM     10  C   LIG d   1      -3.010  76.145 117.031  0.00  0.00     0.006 C 
ENDBRANCH   8   9
BRANCH   8  11
ATOM     11  C   LIG d   1      -6.181  75.508 115.190  0.00  0.00     0.028 C 
ATOM     12  C   LIG d   1      -5.658  74.065 115.111  0.00  0.00     0.006 C 
ENDBRANCH   8  11
ENDBRANCH   7   8
ENDBRANCH   1   7
BRANCH   6  13
ATOM     13  N   LIG d   1      -4.271  79.955 117.494  0.00  0.00    -0.311 N 
ATOM     14  C   LIG d   1      -3.622  79.496 118.563  0.00  0.00     0.210 C 
ATOM     15  C   LIG d   1      -2.103  79.688 118.528  0.00  0.00     0.109 C 
ATOM     16  O   LIG d   1      -4.157  78.919 119.521  0.00  0.00    -0.276 OA
ATOM     17  H   LIG d   1      -3.755  80.380 116.749  0.00  0.00     0.149 HD
ENDBRANCH   6  13
BRANCH   5  18
ATOM     18  N   LIG d   1      -6.224  82.149 118.335  0.00  0.00     0.381 N 
ATOM     19  H   LIG d   1      -6.418  82.477 117.410  0.00  0.00    -0.090 HD
ATOM     20  H   LIG d   1      -5.251  82.310 118.529  0.00  0.00    -0.090 HD
ATOM     21  H   LIG d   1      -6.787  82.640 118.994  0.00  0.00    -0.090 HD
ENDBRANCH   5  18
BRANCH   3  22
ATOM     22  C   LIG d   1      -9.632  78.798 118.636  0.00  0.00     0.382 C 
ATOM     23  O   LIG d   1     -10.208  79.509 119.494  0.00  0.00    -0.241 OA
ATOM     24  O   LIG d   1     -10.179  77.751 118.239  0.00  0.00    -0.241 OA
ENDBRANCH   3  22
TORSDOF 7
ENDMDL
MODEL 9
REMARK VINA RESULT:      -4.8      1.670      4.948
REMARK  7 active torsions:
REMARK  status: ('A' for Active; 'I' for Inactive)
REMARK    1  A    between atoms: C_2  and  C_3 
REMARK    2  A    between atoms: C_3  and  O_6 
REMARK    3  A    between atoms: C_3  and  C_4 
REMARK    4  A    between atoms: C_7  and  O_6 
REMARK    5  A    between atoms: C_9  and  C_10 
REMARK    6  A    between atoms: N_15  and  C_14 
REMARK    7  A    between atoms: N_20  and  C_19 
REMARK       I    between atoms: C_22  and  N_20 
ROOT
ATOM      1  C   LIG d   1      -2.803  76.152 115.295  0.00  0.00     0.161 C 
ATOM      2  C   LIG d   1      -2.703  75.180 116.305  0.00  0.00     0.016 C 
ATOM      3  C   LIG d   1      -1.868  75.317 117.437  0.00  0.00     0.038 C 
ATOM      4  C   LIG d   1      -1.185  76.511 117.715  0.00  0.00     0.028 C 
ATOM      5  C   LIG d   1      -0.860  77.327 116.468  0.00  0.00    -0.047 C 
ATOM      6  C   LIG d   1      -2.151  77.508 115.637  0.00  0.00     0.091 C 
ENDROOT
BRANCH   1   7
ATOM      7  O   LIG d   1      -4.185  76.338 114.932  0.00  0.00    -0.368 OA
BRANCH   7   8
ATOM      8  C   LIG d   1      -5.161  76.044 115.961  0.00  0.00     0.119 C 
BRANCH   8   9
ATOM      9  C   LIG d   1      -6.294  75.230 115.306  0.00  0.00     0.028 C 
ATOM     10  C   LIG d   1      -6.077  73.713 115.435  0.00  0.00     0.006 C 
ENDBRANCH   8   9
BRANCH   8  11
ATOM     11  C   LIG d   1      -5.827  77.322 116.480  0.00  0.00     0.028 C 
ATOM     12  C   LIG d   1      -5.178  77.851 117.769  0.00  0.00     0.006 C 
ENDBRANCH   8  11
ENDBRANCH   7   8
ENDBRANCH   1   7
BRANCH   6  13
ATOM     13  N   LIG d   1      -1.905  78.224 114.358  0.00  0.00    -0.311 N 
ATOM     14  C   LIG d   1      -2.534  79.346 114.013  0.00  0.00     0.210 C 
ATOM     15  C   LIG d   1      -2.147  79.910 112.642  0.00  0.00     0.109 C 
ATOM     16  O   LIG d   1      -3.352  79.946 114.726  0.00  0.00    -0.276 OA
ATOM     17  H   LIG d   1      -1.233  77.823 113.733  0.00  0.00     0.149 HD
ENDBRANCH   6  13
BRANCH   5  18
ATOM     18  N   LIG d   1      -0.274  78.605 116.913  0.00  0.00     0.381 N 
ATOM     19  H   LIG d   1       0.587  78.769 116.430  0.00  0.00    -0.090 HD
ATOM     20  H   LIG d   1      -0.079  78.549 117.897  0.00  0.00    -0.090 HD
ATOM     21  H   LIG d   1      -0.910  79.352 116.736  0.00  0.00    -0.090 HD
ENDBRANCH   5  18
BRANCH   3  22
ATOM     22  C   LIG d   1      -1.678  74.237 118.286  0.00  0.00     0.382 C 
ATOM     23  O   LIG d   1      -1.837  74.376 119.522  0.00  0.00    -0.241 OA
ATOM     24  O   LIG d   1      -1.306  73.137 117.835  0.00  0.00    -0.241 OA
ENDBRANCH   3  22
TORSDOF 7
ENDMDL
