MODEL 1
REMARK VINA RESULT:      -5.6      0.000      0.000
REMARK  7 active torsions:
REMARK  status: ('A' for Active; 'I' for Inactive)
REMARK    1  A    between atoms: C_2  and  C_3 
REMARK    2  A    between atoms: C_3  and  O_6 
REMARK    3  A    between atoms: C_3  and  C_4 
REMARK    4  A    between atoms: C_7  and  O_6 
REMARK    5  A    between atoms: C_9  and  C_10 
REMARK    6  A    between atoms: N_15  and  C_14 
REMARK    7  A    between atoms: N_20  and  C_19 
REMARK       I    between atoms: C_22  and  N_20 
ROOT
ATOM      1  C   LIG d   1      -1.934  74.778 115.702  0.00  0.00     0.161 C 
ATOM      2  C   LIG d   1      -2.436  75.659 116.674  0.00  0.00     0.016 C 
ATOM      3  C   LIG d   1      -1.655  76.660 117.296  0.00  0.00     0.038 C 
ATOM      4  C   LIG d   1      -0.348  76.949 116.874  0.00  0.00     0.028 C 
ATOM      5  C   LIG d   1       0.364  75.755 116.247  0.00  0.00    -0.047 C 
ATOM      6  C   LIG d   1      -0.542  75.151 115.149  0.00  0.00     0.091 C 
ENDROOT
BRANCH   1   7
ATOM      7  O   LIG d   1      -2.882  74.648 114.624  0.00  0.00    -0.368 OA
BRANCH   7   8
ATOM      8  C   LIG d   1      -4.200  75.200 114.865  0.00  0.00     0.119 C 
BRANCH   8   9
ATOM      9  C   LIG d   1      -5.218  74.053 114.711  0.00  0.00     0.028 C 
ATOM     10  C   LIG d   1      -5.432  73.279 116.023  0.00  0.00     0.006 C 
ENDBRANCH   8   9
BRANCH   8  11
ATOM     11  C   LIG d   1      -4.579  76.224 113.791  0.00  0.00     0.028 C 
ATOM     12  C   LIG d   1      -6.004  76.022 113.251  0.00  0.00     0.006 C 
ENDBRANCH   8  11
ENDBRANCH   7   8
ENDBRANCH   1   7
BRANCH   6  13
ATOM     13  N   LIG d   1       0.043  73.927 114.542  0.00  0.00    -0.311 N 
ATOM     14  C   LIG d   1       0.265  73.791 113.236  0.00  0.00     0.210 C 
ATOM     15  C   LIG d   1       0.856  72.441 112.818  0.00  0.00     0.109 C 
ATOM     16  O   LIG d   1       0.058  74.672 112.388  0.00  0.00    -0.276 OA
ATOM     17  H   LIG d   1       0.270  73.174 115.162  0.00  0.00     0.149 HD
ENDBRANCH   6  13
BRANCH   5  18
ATOM     18  N   LIG d   1       1.660  76.231 115.729  0.00  0.00     0.381 N 
ATOM     19  H   LIG d   1       2.385  75.595 115.994  0.00  0.00    -0.090 HD
ATOM     20  H   LIG d   1       1.863  77.127 116.135  0.00  0.00    -0.090 HD
ATOM     21  H   LIG d   1       1.623  76.309 114.736  0.00  0.00    -0.090 HD
ENDBRANCH   5  18
BRANCH   3  22
ATOM     22  C   LIG d   1      -2.167  77.358 118.379  0.00  0.00     0.382 C 
ATOM     23  O   LIG d   1      -2.434  78.579 118.268  0.00  0.00    -0.241 OA
ATOM     24  O   LIG d   1      -2.323  76.793 119.478  0.00  0.00    -0.241 OA
ENDBRANCH   3  22
TORSDOF 7
ENDMDL
MODEL 2
REMARK VINA RESULT:      -5.4      2.623      3.715
REMARK  7 active torsions:
REMARK  status: ('A' for Active; 'I' for Inactive)
REMARK    1  A    between atoms: C_2  and  C_3 
REMARK    2  A    between atoms: C_3  and  O_6 
REMARK    3  A    between atoms: C_3  and  C_4 
REMARK    4  A    between atoms: C_7  and  O_6 
REMARK    5  A    between atoms: C_9  and  C_10 
REMARK    6  A    between atoms: N_15  and  C_14 
REMARK    7  A    between atoms: N_20  and  C_19 
REMARK       I    between atoms: C_22  and  N_20 
ROOT
ATOM      1  C   LIG d   1      -2.277  75.102 115.572  0.00  0.00     0.161 C 
ATOM      2  C   LIG d   1      -1.715  74.277 116.561  0.00  0.00     0.016 C 
ATOM      3  C   LIG d   1      -0.555  74.620 117.293  0.00  0.00     0.038 C 
ATOM      4  C   LIG d   1       0.038  75.888 117.192  0.00  0.00     0.028 C 
ATOM      5  C   LIG d   1      -0.196  76.560 115.844  0.00  0.00    -0.047 C 
ATOM      6  C   LIG d   1      -1.709  76.536 115.527  0.00  0.00     0.091 C 
ENDROOT
BRANCH   1   7
ATOM      7  O   LIG d   1      -3.710  75.136 115.721  0.00  0.00    -0.368 OA
BRANCH   7   8
ATOM      8  C   LIG d   1      -4.448  74.101 115.025  0.00  0.00     0.119 C 
BRANCH   8   9
ATOM      9  C   LIG d   1      -5.261  74.784 113.908  0.00  0.00     0.028 C 
ATOM     10  C   LIG d   1      -5.925  76.088 114.379  0.00  0.00     0.006 C 
ENDBRANCH   8   9
BRANCH   8  11
ATOM     11  C   LIG d   1      -5.487  73.446 115.940  0.00  0.00     0.028 C 
ATOM     12  C   LIG d   1      -5.790  71.990 115.552  0.00  0.00     0.006 C 
ENDBRANCH   8  11
ENDBRANCH   7   8
ENDBRANCH   1   7
BRANCH   6  13
ATOM     13  N   LIG d   1      -2.016  77.100 114.186  0.00  0.00    -0.311 N 
ATOM     14  C   LIG d   1      -2.851  78.119 113.993  0.00  0.00     0.210 C 
ATOM     15  C   LIG d   1      -3.041  78.531 112.530  0.00  0.00     0.109 C 
ATOM     16  O   LIG d   1      -3.426  78.743 114.897  0.00  0.00    -0.276 OA
ATOM     17  H   LIG d   1      -1.568  76.673 113.399  0.00  0.00     0.149 HD
ENDBRANCH   6  13
BRANCH   5  18
ATOM     18  N   LIG d   1       0.356  77.926 115.925  0.00  0.00     0.381 N 
ATOM     19  H   LIG d   1       0.117  78.336 116.806  0.00  0.00    -0.090 HD
ATOM     20  H   LIG d   1      -0.051  78.485 115.196  0.00  0.00    -0.090 HD
ATOM     21  H   LIG d   1       1.347  77.900 115.820  0.00  0.00    -0.090 HD
ENDBRANCH   5  18
BRANCH   3  22
ATOM     22  C   LIG d   1       0.047  73.675 118.110  0.00  0.00     0.382 C 
ATOM     23  O   LIG d   1       0.753  74.042 119.080  0.00  0.00    -0.241 OA
ATOM     24  O   LIG d   1      -0.071  72.460 117.862  0.00  0.00    -0.241 OA
ENDBRANCH   3  22
TORSDOF 7
ENDMDL
MODEL 3
REMARK VINA RESULT:      -5.2     16.922     18.720
REMARK  7 active torsions:
REMARK  status: ('A' for Active; 'I' for Inactive)
REMARK    1  A    between atoms: C_2  and  C_3 
REMARK    2  A    between atoms: C_3  and  O_6 
REMARK    3  A    between atoms: C_3  and  C_4 
REMARK    4  A    between atoms: C_7  and  O_6 
REMARK    5  A    between atoms: C_9  and  C_10 
REMARK    6  A    between atoms: N_15  and  C_14 
REMARK    7  A    between atoms: N_20  and  C_19 
REMARK       I    between atoms: C_22  and  N_20 
ROOT
ATOM      1  C   LIG d   1       1.197  58.286 117.814  0.00  0.00     0.161 C 
ATOM      2  C   LIG d   1      -0.163  58.069 117.535  0.00  0.00     0.016 C 
ATOM      3  C   LIG d   1      -0.718  58.174 116.239  0.00  0.00     0.038 C 
ATOM      4  C   LIG d   1       0.083  58.356 115.102  0.00  0.00     0.028 C 
ATOM      5  C   LIG d   1       1.393  59.081 115.393  0.00  0.00    -0.047 C 
ATOM      6  C   LIG d   1       2.106  58.376 116.570  0.00  0.00     0.091 C 
ENDROOT
BRANCH   1   7
ATOM      7  O   LIG d   1       1.679  57.269 118.714  0.00  0.00    -0.368 OA
BRANCH   7   8
ATOM      8  C   LIG d   1       0.964  56.009 118.693  0.00  0.00     0.119 C 
BRANCH   8   9
ATOM      9  C   LIG d   1       0.912  55.482 120.141  0.00  0.00     0.028 C 
ATOM     10  C   LIG d   1       0.509  54.000 120.212  0.00  0.00     0.006 C 
ENDBRANCH   8   9
BRANCH   8  11
ATOM     11  C   LIG d   1       1.733  54.945 117.903  0.00  0.00     0.028 C 
ATOM     12  C   LIG d   1       1.156  54.715 116.497  0.00  0.00     0.006 C 
ENDBRANCH   8  11
ENDBRANCH   7   8
ENDBRANCH   1   7
BRANCH   6  13
ATOM     13  N   LIG d   1       3.355  59.072 116.975  0.00  0.00    -0.311 N 
ATOM     14  C   LIG d   1       4.477  58.433 117.301  0.00  0.00     0.210 C 
ATOM     15  C   LIG d   1       5.643  59.340 117.708  0.00  0.00     0.109 C 
ATOM     16  O   LIG d   1       4.628  57.203 117.260  0.00  0.00    -0.276 OA
ATOM     17  H   LIG d   1       3.330  60.072 117.005  0.00  0.00     0.149 HD
ENDBRANCH   6  13
BRANCH   5  18
ATOM     18  N   LIG d   1       2.189  59.080 114.151  0.00  0.00     0.381 N 
ATOM     19  H   LIG d   1       3.132  59.346 114.353  0.00  0.00    -0.090 HD
ATOM     20  H   LIG d   1       1.800  59.754 113.516  0.00  0.00    -0.090 HD
ATOM     21  H   LIG d   1       2.173  58.174 113.737  0.00  0.00    -0.090 HD
ENDBRANCH   5  18
BRANCH   3  22
ATOM     22  C   LIG d   1      -2.094  58.136 116.075  0.00  0.00     0.382 C 
ATOM     23  O   LIG d   1      -2.816  58.993 116.640  0.00  0.00    -0.241 OA
ATOM     24  O   LIG d   1      -2.626  57.230 115.406  0.00  0.00    -0.241 OA
ENDBRANCH   3  22
TORSDOF 7
ENDMDL
MODEL 4
REMARK VINA RESULT:      -5.1     16.299     19.021
REMARK  7 active torsions:
REMARK  status: ('A' for Active; 'I' for Inactive)
REMARK    1  A    between atoms: C_2  and  C_3 
REMARK    2  A    between atoms: C_3  and  O_6 
REMARK    3  A    between atoms: C_3  and  C_4 
REMARK    4  A    between atoms: C_7  and  O_6 
REMARK    5  A    between atoms: C_9  and  C_10 
REMARK    6  A    between atoms: N_15  and  C_14 
REMARK    7  A    between atoms: N_20  and  C_19 
REMARK       I    between atoms: C_22  and  N_20 
ROOT
ATOM      1  C   LIG d   1      -5.505  92.079 118.936  0.00  0.00     0.161 C 
ATOM      2  C   LIG d   1      -4.724  91.210 118.156  0.00  0.00     0.016 C 
ATOM      3  C   LIG d   1      -4.945  90.992 116.777  0.00  0.00     0.038 C 
ATOM      4  C   LIG d   1      -5.874  91.748 116.046  0.00  0.00     0.028 C 
ATOM      5  C   LIG d   1      -7.028  92.274 116.893  0.00  0.00    -0.047 C 
ATOM      6  C   LIG d   1      -6.452  92.995 118.133  0.00  0.00     0.091 C 
ENDROOT
BRANCH   1   7
ATOM      7  O   LIG d   1      -4.654  92.866 119.793  0.00  0.00    -0.368 OA
BRANCH   7   8
ATOM      8  C   LIG d   1      -4.105  94.074 119.211  0.00  0.00     0.119 C 
BRANCH   8   9
ATOM      9  C   LIG d   1      -2.572  93.924 119.192  0.00  0.00     0.028 C 
ATOM     10  C   LIG d   1      -2.013  93.789 117.765  0.00  0.00     0.006 C 
ENDBRANCH   8   9
BRANCH   8  11
ATOM     11  C   LIG d   1      -4.383  95.294 120.094  0.00  0.00     0.028 C 
ATOM     12  C   LIG d   1      -3.703  96.571 119.577  0.00  0.00     0.006 C 
ENDBRANCH   8  11
ENDBRANCH   7   8
ENDBRANCH   1   7
BRANCH   6  13
ATOM     13  N   LIG d   1      -7.514  93.467 119.059  0.00  0.00    -0.311 N 
ATOM     14  C   LIG d   1      -8.000  94.707 119.046  0.00  0.00     0.210 C 
ATOM     15  C   LIG d   1      -9.077  94.990 120.099  0.00  0.00     0.109 C 
ATOM     16  O   LIG d   1      -7.665  95.590 118.242  0.00  0.00    -0.276 OA
ATOM     17  H   LIG d   1      -7.866  92.806 119.724  0.00  0.00     0.149 HD
ENDBRANCH   6  13
BRANCH   5  18
ATOM     18  N   LIG d   1      -7.844  93.156 116.038  0.00  0.00     0.381 N 
ATOM     19  H   LIG d   1      -7.907  94.065 116.451  0.00  0.00    -0.090 HD
ATOM     20  H   LIG d   1      -8.771  92.776 115.970  0.00  0.00    -0.090 HD
ATOM     21  H   LIG d   1      -7.437  93.223 115.131  0.00  0.00    -0.090 HD
ENDBRANCH   5  18
BRANCH   3  22
ATOM     22  C   LIG d   1      -4.259  89.980 116.122  0.00  0.00     0.382 C 
ATOM     23  O   LIG d   1      -4.778  89.409 115.133  0.00  0.00    -0.241 OA
ATOM     24  O   LIG d   1      -3.148  89.601 116.536  0.00  0.00    -0.241 OA
ENDBRANCH   3  22
TORSDOF 7
ENDMDL
MODEL 5
REMARK VINA RESULT:      -5.1     16.868     18.801
REMARK  7 active torsions:
REMARK  status: ('A' for Active; 'I' for Inactive)
REMARK    1  A    between atoms: C_2  and  C_3 
REMARK    2  A    between atoms: C_3  and  O_6 
REMARK    3  A    between atoms: C_3  and  C_4 
REMARK    4  A    between atoms: C_7  and  O_6 
REMARK    5  A    between atoms: C_9  and  C_10 
REMARK    6  A    between atoms: N_15  and  C_14 
REMARK    7  A    between atoms: N_20  and  C_19 
REMARK       I    between atoms: C_22  and  N_20 
ROOT
ATOM      1  C   LIG d   1       1.976  57.706 117.259  0.00  0.00     0.161 C 
ATOM      2  C   LIG d   1       2.935  58.722 117.110  0.00  0.00     0.016 C 
ATOM      3  C   LIG d   1       4.314  58.534 117.357  0.00  0.00     0.038 C 
ATOM      4  C   LIG d   1       4.853  57.267 117.627  0.00  0.00     0.028 C 
ATOM      5  C   LIG d   1       3.859  56.314 118.282  0.00  0.00    -0.047 C 
ATOM      6  C   LIG d   1       2.560  56.290 117.445  0.00  0.00     0.091 C 
ENDROOT
BRANCH   1   7
ATOM      7  O   LIG d   1       1.062  57.729 116.146  0.00  0.00    -0.368 OA
BRANCH   7   8
ATOM      8  C   LIG d   1      -0.209  58.385 116.378  0.00  0.00     0.119 C 
BRANCH   8   9
ATOM      9  C   LIG d   1      -0.488  58.330 117.893  0.00  0.00     0.028 C 
ATOM     10  C   LIG d   1      -1.219  59.584 118.400  0.00  0.00     0.006 C 
ENDBRANCH   8   9
BRANCH   8  11
ATOM     11  C   LIG d   1      -1.361  57.615 115.725  0.00  0.00     0.028 C 
ATOM     12  C   LIG d   1      -2.202  58.489 114.781  0.00  0.00     0.006 C 
ENDBRANCH   8  11
ENDBRANCH   7   8
ENDBRANCH   1   7
BRANCH   6  13
ATOM     13  N   LIG d   1       1.504  55.445 118.062  0.00  0.00    -0.311 N 
ATOM     14  C   LIG d   1       0.697  54.651 117.361  0.00  0.00     0.210 C 
ATOM     15  C   LIG d   1      -0.335  53.882 118.191  0.00  0.00     0.109 C 
ATOM     16  O   LIG d   1       0.760  54.485 116.134  0.00  0.00    -0.276 OA
ATOM     17  H   LIG d   1       1.404  55.495 119.058  0.00  0.00     0.149 HD
ENDBRANCH   6  13
BRANCH   5  18
ATOM     18  N   LIG d   1       4.508  54.993 118.381  0.00  0.00     0.381 N 
ATOM     19  H   LIG d   1       4.362  54.611 119.294  0.00  0.00    -0.090 HD
ATOM     20  H   LIG d   1       5.497  55.105 118.240  0.00  0.00    -0.090 HD
ATOM     21  H   LIG d   1       4.135  54.377 117.691  0.00  0.00    -0.090 HD
ENDBRANCH   5  18
BRANCH   3  22
ATOM     22  C   LIG d   1       5.165  59.629 117.374  0.00  0.00     0.382 C 
ATOM     23  O   LIG d   1       4.788  60.723 116.891  0.00  0.00    -0.241 OA
ATOM     24  O   LIG d   1       6.320  59.524 117.828  0.00  0.00    -0.241 OA
ENDBRANCH   3  22
TORSDOF 7
ENDMDL
MODEL 6
REMARK VINA RESULT:      -5.0     14.692     17.311
REMARK  7 active torsions:
REMARK  status: ('A' for Active; 'I' for Inactive)
REMARK    1  A    between atoms: C_2  and  C_3 
REMARK    2  A    between atoms: C_3  and  O_6 
REMARK    3  A    between atoms: C_3  and  C_4 
REMARK    4  A    between atoms: C_7  and  O_6 
REMARK    5  A    between atoms: C_9  and  C_10 
REMARK    6  A    between atoms: N_15  and  C_14 
REMARK    7  A    between atoms: N_20  and  C_19 
REMARK       I    between atoms: C_22  and  N_20 
ROOT
ATOM      1  C   LIG d   1      -4.223  91.101 117.652  0.00  0.00     0.161 C 
ATOM      2  C   LIG d   1      -5.184  90.387 116.918  0.00  0.00     0.016 C 
ATOM      3  C   LIG d   1      -6.463  90.902 116.604  0.00  0.00     0.038 C 
ATOM      4  C   LIG d   1      -6.814  92.233 116.875  0.00  0.00     0.028 C 
ATOM      5  C   LIG d   1      -6.061  92.828 118.060  0.00  0.00    -0.047 C 
ATOM      6  C   LIG d   1      -4.546  92.595 117.860  0.00  0.00     0.091 C 
ENDROOT
BRANCH   1   7
ATOM      7  O   LIG d   1      -2.928  90.949 117.038  0.00  0.00    -0.368 OA
BRANCH   7   8
ATOM      8  C   LIG d   1      -1.885  90.395 117.877  0.00  0.00     0.119 C 
BRANCH   8   9
ATOM      9  C   LIG d   1      -0.536  90.912 117.342  0.00  0.00     0.028 C 
ATOM     10  C   LIG d   1       0.461  91.227 118.469  0.00  0.00     0.006 C 
ENDBRANCH   8   9
BRANCH   8  11
ATOM     11  C   LIG d   1      -1.816  88.871 117.746  0.00  0.00     0.028 C 
ATOM     12  C   LIG d   1      -2.030  88.147 119.086  0.00  0.00     0.006 C 
ENDBRANCH   8  11
ENDBRANCH   7   8
ENDBRANCH   1   7
BRANCH   6  13
ATOM     13  N   LIG d   1      -3.742  93.073 119.015  0.00  0.00    -0.311 N 
ATOM     14  C   LIG d   1      -2.641  93.811 118.887  0.00  0.00     0.210 C 
ATOM     15  C   LIG d   1      -1.952  94.179 120.204  0.00  0.00     0.109 C 
ATOM     16  O   LIG d   1      -2.187  94.222 117.808  0.00  0.00    -0.276 OA
ATOM     17  H   LIG d   1      -4.057  92.811 119.929  0.00  0.00     0.149 HD
ENDBRANCH   6  13
BRANCH   5  18
ATOM     18  N   LIG d   1      -6.421  94.256 118.144  0.00  0.00     0.381 N 
ATOM     19  H   LIG d   1      -5.961  94.765 117.416  0.00  0.00    -0.090 HD
ATOM     20  H   LIG d   1      -6.108  94.619 119.028  0.00  0.00    -0.090 HD
ATOM     21  H   LIG d   1      -7.408  94.365 118.063  0.00  0.00    -0.090 HD
ENDBRANCH   5  18
BRANCH   3  22
ATOM     22  C   LIG d   1      -7.422  90.068 116.047  0.00  0.00     0.382 C 
ATOM     23  O   LIG d   1      -7.304  89.684 114.859  0.00  0.00    -0.241 OA
ATOM     24  O   LIG d   1      -8.425  89.732 116.704  0.00  0.00    -0.241 OA
ENDBRANCH   3  22
TORSDOF 7
ENDMDL
MODEL 7
REMARK VINA RESULT:      -4.9      3.535      4.805
REMARK  7 active torsions:
REMARK  status: ('A' for Active; 'I' for Inactive)
REMARK    1  A    between atoms: C_2  and  C_3 
REMARK    2  A    between atoms: C_3  and  O_6 
REMARK    3  A    between atoms: C_3  and  C_4 
REMARK    4  A    between atoms: C_7  and  O_6 
REMARK    5  A    between atoms: C_9  and  C_10 
REMARK    6  A    between atoms: N_15  and  C_14 
REMARK    7  A    between atoms: N_20  and  C_19 
REMARK       I    between atoms: C_22  and  N_20 
ROOT
ATOM      1  C   LIG d   1      -4.722  77.475 116.018  0.00  0.00     0.161 C 
ATOM      2  C   LIG d   1      -6.017  77.894 116.367  0.00  0.00     0.016 C 
ATOM      3  C   LIG d   1      -6.285  78.801 117.418  0.00  0.00     0.038 C 
ATOM      4  C   LIG d   1      -5.257  79.470 118.099  0.00  0.00     0.028 C 
ATOM      5  C   LIG d   1      -3.942  78.699 118.121  0.00  0.00    -0.047 C 
ATOM      6  C   LIG d   1      -3.582  78.280 116.677  0.00  0.00     0.091 C 
ENDROOT
BRANCH   1   7
ATOM      7  O   LIG d   1      -4.576  77.481 114.584  0.00  0.00    -0.368 OA
BRANCH   7   8
ATOM      8  C   LIG d   1      -4.612  76.187 113.934  0.00  0.00     0.119 C 
BRANCH   8   9
ATOM      9  C   LIG d   1      -6.083  75.883 113.590  0.00  0.00     0.028 C 
ATOM     10  C   LIG d   1      -6.526  76.544 112.273  0.00  0.00     0.006 C 
ENDBRANCH   8   9
BRANCH   8  11
ATOM     11  C   LIG d   1      -4.181  75.070 114.890  0.00  0.00     0.028 C 
ATOM     12  C   LIG d   1      -5.152  73.879 114.892  0.00  0.00     0.006 C 
ENDBRANCH   8  11
ENDBRANCH   7   8
ENDBRANCH   1   7
BRANCH   6  13
ATOM     13  N   LIG d   1      -2.352  77.448 116.618  0.00  0.00    -0.311 N 
ATOM     14  C   LIG d   1      -1.240  77.828 115.992  0.00  0.00     0.210 C 
ATOM     15  C   LIG d   1      -0.094  76.812 116.036  0.00  0.00     0.109 C 
ATOM     16  O   LIG d   1      -1.082  78.923 115.432  0.00  0.00    -0.276 OA
ATOM     17  H   LIG d   1      -2.382  76.556 117.073  0.00  0.00     0.149 HD
ENDBRANCH   6  13
BRANCH   5  18
ATOM     18  N   LIG d   1      -2.925  79.570 118.740  0.00  0.00     0.381 N 
ATOM     19  H   LIG d   1      -2.304  79.020 119.300  0.00  0.00    -0.090 HD
ATOM     20  H   LIG d   1      -3.385  80.233 119.339  0.00  0.00    -0.090 HD
ATOM     21  H   LIG d   1      -2.411  80.050 118.034  0.00  0.00    -0.090 HD
ENDBRANCH   5  18
BRANCH   3  22
ATOM     22  C   LIG d   1      -7.593  79.015 117.824  0.00  0.00     0.382 C 
ATOM     23  O   LIG d   1      -8.202  78.128 118.469  0.00  0.00    -0.241 OA
ATOM     24  O   LIG d   1      -8.186  80.066 117.516  0.00  0.00    -0.241 OA
ENDBRANCH   3  22
TORSDOF 7
ENDMDL
MODEL 8
REMARK VINA RESULT:      -4.9     13.460     15.995
REMARK  7 active torsions:
REMARK  status: ('A' for Active; 'I' for Inactive)
REMARK    1  A    between atoms: C_2  and  C_3 
REMARK    2  A    between atoms: C_3  and  O_6 
REMARK    3  A    between atoms: C_3  and  C_4 
REMARK    4  A    between atoms: C_7  and  O_6 
REMARK    5  A    between atoms: C_9  and  C_10 
REMARK    6  A    between atoms: N_15  and  C_14 
REMARK    7  A    between atoms: N_20  and  C_19 
REMARK       I    between atoms: C_22  and  N_20 
ROOT
ATOM      1  C   LIG d   1      -2.153  90.188 117.576  0.00  0.00     0.161 C 
ATOM      2  C   LIG d   1      -3.277  89.782 116.838  0.00  0.00     0.016 C 
ATOM      3  C   LIG d   1      -4.374  90.630 116.561  0.00  0.00     0.038 C 
ATOM      4  C   LIG d   1      -4.353  91.997 116.878  0.00  0.00     0.028 C 
ATOM      5  C   LIG d   1      -3.458  92.330 118.067  0.00  0.00    -0.047 C 
ATOM      6  C   LIG d   1      -2.062  91.707 117.834  0.00  0.00     0.091 C 
ENDROOT
BRANCH   1   7
ATOM      7  O   LIG d   1      -0.951  89.716 116.935  0.00  0.00    -0.368 OA
BRANCH   7   8
ATOM      8  C   LIG d   1      -0.458  88.427 117.375  0.00  0.00     0.119 C 
BRANCH   8   9
ATOM      9  C   LIG d   1      -0.390  88.458 118.914  0.00  0.00     0.028 C 
ATOM     10  C   LIG d   1      -1.009  87.205 119.554  0.00  0.00     0.006 C 
ENDBRANCH   8   9
BRANCH   8  11
ATOM     11  C   LIG d   1       0.983  88.193 116.910  0.00  0.00     0.028 C 
ATOM     12  C   LIG d   1       1.118  86.980 115.976  0.00  0.00     0.006 C 
ENDBRANCH   8  11
ENDBRANCH   7   8
ENDBRANCH   1   7
BRANCH   6  13
ATOM     13  N   LIG d   1      -1.149  91.914 118.988  0.00  0.00    -0.311 N 
ATOM     14  C   LIG d   1       0.128  92.267 118.858  0.00  0.00     0.210 C 
ATOM     15  C   LIG d   1       0.897  92.407 120.176  0.00  0.00     0.109 C 
ATOM     16  O   LIG d   1       0.689  92.508 117.779  0.00  0.00    -0.276 OA
ATOM     17  H   LIG d   1      -1.531  91.769 119.902  0.00  0.00     0.149 HD
ENDBRANCH   6  13
BRANCH   5  18
ATOM     18  N   LIG d   1      -3.421  93.798 118.199  0.00  0.00     0.381 N 
ATOM     19  H   LIG d   1      -3.026  94.049 119.084  0.00  0.00    -0.090 HD
ATOM     20  H   LIG d   1      -4.360  94.152 118.161  0.00  0.00    -0.090 HD
ATOM     21  H   LIG d   1      -2.879  94.194 117.462  0.00  0.00    -0.090 HD
ENDBRANCH   5  18
BRANCH   3  22
ATOM     22  C   LIG d   1      -5.525  90.103 115.997  0.00  0.00     0.382 C 
ATOM     23  O   LIG d   1      -6.611  90.153 116.624  0.00  0.00    -0.241 OA
ATOM     24  O   LIG d   1      -5.483  89.537 114.888  0.00  0.00    -0.241 OA
ENDBRANCH   3  22
TORSDOF 7
ENDMDL
MODEL 9
REMARK VINA RESULT:      -4.8     12.718     14.652
REMARK  7 active torsions:
REMARK  status: ('A' for Active; 'I' for Inactive)
REMARK    1  A    between atoms: C_2  and  C_3 
REMARK    2  A    between atoms: C_3  and  O_6 
REMARK    3  A    between atoms: C_3  and  C_4 
REMARK    4  A    between atoms: C_7  and  O_6 
REMARK    5  A    between atoms: C_9  and  C_10 
REMARK    6  A    between atoms: N_15  and  C_14 
REMARK    7  A    between atoms: N_20  and  C_19 
REMARK       I    between atoms: C_22  and  N_20 
ROOT
ATOM      1  C   LIG d   1       3.135  88.703 116.098  0.00  0.00     0.161 C 
ATOM      2  C   LIG d   1       3.466  89.568 117.155  0.00  0.00     0.016 C 
ATOM      3  C   LIG d   1       4.480  90.549 117.067  0.00  0.00     0.038 C 
ATOM      4  C   LIG d   1       5.134  90.835 115.859  0.00  0.00     0.028 C 
ATOM      5  C   LIG d   1       5.186  89.648 114.903  0.00  0.00    -0.047 C 
ATOM      6  C   LIG d   1       3.760  89.074 114.738  0.00  0.00     0.091 C 
ENDROOT
BRANCH   1   7
ATOM      7  O   LIG d   1       1.702  88.602 115.981  0.00  0.00    -0.368 OA
BRANCH   7   8
ATOM      8  C   LIG d   1       1.119  87.332 116.361  0.00  0.00     0.119 C 
BRANCH   8   9
ATOM      9  C   LIG d   1       0.336  87.555 117.670  0.00  0.00     0.028 C 
ATOM     10  C   LIG d   1      -0.727  88.659 117.537  0.00  0.00     0.006 C 
ENDBRANCH   8   9
BRANCH   8  11
ATOM     11  C   LIG d   1       2.200  86.303 116.706  0.00  0.00     0.028 C 
ATOM     12  C   LIG d   1       2.212  85.106 115.742  0.00  0.00     0.006 C 
ENDBRANCH   8  11
ENDBRANCH   7   8
ENDBRANCH   1   7
BRANCH   6  13
ATOM     13  N   LIG d   1       3.735  87.858 113.884  0.00  0.00    -0.311 N 
ATOM     14  C   LIG d   1       3.002  87.755 112.777  0.00  0.00     0.210 C 
ATOM     15  C   LIG d   1       3.106  86.407 112.056  0.00  0.00     0.109 C 
ATOM     16  O   LIG d   1       2.301  88.663 112.305  0.00  0.00    -0.276 OA
ATOM     17  H   LIG d   1       4.299  87.084 114.176  0.00  0.00     0.149 HD
ENDBRANCH   6  13
BRANCH   5  18
ATOM     18  N   LIG d   1       5.769  90.124 113.634  0.00  0.00     0.381 N 
ATOM     19  H   LIG d   1       6.215  89.364 113.161  0.00  0.00    -0.090 HD
ATOM     20  H   LIG d   1       6.464  90.821 113.837  0.00  0.00    -0.090 HD
ATOM     21  H   LIG d   1       5.057  90.512 113.056  0.00  0.00    -0.090 HD
ENDBRANCH   5  18
BRANCH   3  22
ATOM     22  C   LIG d   1       4.878  91.230 118.208  0.00  0.00     0.382 C 
ATOM     23  O   LIG d   1       4.064  91.411 119.146  0.00  0.00    -0.241 OA
ATOM     24  O   LIG d   1       6.027  91.703 118.293  0.00  0.00    -0.241 OA
ENDBRANCH   3  22
TORSDOF 7
ENDMDL
