MODEL 1
REMARK VINA RESULT:      -5.7      0.000      0.000
REMARK  7 active torsions:
REMARK  status: ('A' for Active; 'I' for Inactive)
REMARK    1  A    between atoms: C_2  and  C_3 
REMARK    2  A    between atoms: C_3  and  O_6 
REMARK    3  A    between atoms: C_3  and  C_4 
REMARK    4  A    between atoms: C_7  and  O_6 
REMARK    5  A    between atoms: C_9  and  C_10 
REMARK    6  A    between atoms: N_15  and  C_14 
REMARK    7  A    between atoms: N_20  and  C_19 
REMARK       I    between atoms: C_22  and  N_20 
ROOT
ATOM      1  C   LIG d   1      -5.795  75.906 115.652  0.00  0.00     0.161 C 
ATOM      2  C   LIG d   1      -4.676  75.128 115.313  0.00  0.00     0.016 C 
ATOM      3  C   LIG d   1      -3.458  75.162 116.031  0.00  0.00     0.038 C 
ATOM      4  C   LIG d   1      -3.327  75.870 117.235  0.00  0.00     0.028 C 
ATOM      5  C   LIG d   1      -4.267  77.066 117.340  0.00  0.00    -0.047 C 
ATOM      6  C   LIG d   1      -5.708  76.601 117.027  0.00  0.00     0.091 C 
ENDROOT
BRANCH   1   7
ATOM      7  O   LIG d   1      -6.991  75.105 115.571  0.00  0.00    -0.368 OA
BRANCH   7   8
ATOM      8  C   LIG d   1      -7.307  74.312 116.742  0.00  0.00     0.119 C 
BRANCH   8   9
ATOM      9  C   LIG d   1      -7.201  72.829 116.339  0.00  0.00     0.028 C 
ATOM     10  C   LIG d   1      -8.496  72.049 116.626  0.00  0.00     0.006 C 
ENDBRANCH   8   9
BRANCH   8  11
ATOM     11  C   LIG d   1      -8.763  74.513 117.173  0.00  0.00     0.028 C 
ATOM     12  C   LIG d   1      -9.496  75.565 116.326  0.00  0.00     0.006 C 
ENDBRANCH   8  11
ENDBRANCH   7   8
ENDBRANCH   1   7
BRANCH   6  13
ATOM     13  N   LIG d   1      -6.679  77.726 117.025  0.00  0.00    -0.311 N 
ATOM     14  C   LIG d   1      -7.411  78.064 118.085  0.00  0.00     0.210 C 
ATOM     15  C   LIG d   1      -8.365  79.242 117.863  0.00  0.00     0.109 C 
ATOM     16  O   LIG d   1      -7.338  77.521 119.198  0.00  0.00    -0.276 OA
ATOM     17  H   LIG d   1      -6.779  78.241 116.172  0.00  0.00     0.149 HD
ENDBRANCH   6  13
BRANCH   5  18
ATOM     18  N   LIG d   1      -4.122  77.629 118.695  0.00  0.00     0.381 N 
ATOM     19  H   LIG d   1      -5.014  77.655 119.148  0.00  0.00    -0.090 HD
ATOM     20  H   LIG d   1      -3.778  78.570 118.622  0.00  0.00    -0.090 HD
ATOM     21  H   LIG d   1      -3.487  77.076 119.228  0.00  0.00    -0.090 HD
ENDBRANCH   5  18
BRANCH   3  22
ATOM     22  C   LIG d   1      -2.343  74.514 115.523  0.00  0.00     0.382 C 
ATOM     23  O   LIG d   1      -2.267  74.266 114.295  0.00  0.00    -0.241 OA
ATOM     24  O   LIG d   1      -1.432  74.134 116.283  0.00  0.00    -0.241 OA
ENDBRANCH   3  22
TORSDOF 7
ENDMDL
MODEL 2
REMARK VINA RESULT:      -5.6      2.092      4.659
REMARK  7 active torsions:
REMARK  status: ('A' for Active; 'I' for Inactive)
REMARK    1  A    between atoms: C_2  and  C_3 
REMARK    2  A    between atoms: C_3  and  O_6 
REMARK    3  A    between atoms: C_3  and  C_4 
REMARK    4  A    between atoms: C_7  and  O_6 
REMARK    5  A    between atoms: C_9  and  C_10 
REMARK    6  A    between atoms: N_15  and  C_14 
REMARK    7  A    between atoms: N_20  and  C_19 
REMARK       I    between atoms: C_22  and  N_20 
ROOT
ATOM      1  C   LIG d   1      -6.678  75.511 117.592  0.00  0.00     0.161 C 
ATOM      2  C   LIG d   1      -6.955  74.225 117.100  0.00  0.00     0.016 C 
ATOM      3  C   LIG d   1      -8.252  73.791 116.742  0.00  0.00     0.038 C 
ATOM      4  C   LIG d   1      -9.345  74.670 116.709  0.00  0.00     0.028 C 
ATOM      5  C   LIG d   1      -9.210  75.840 117.677  0.00  0.00    -0.047 C 
ATOM      6  C   LIG d   1      -7.839  76.519 117.457  0.00  0.00     0.091 C 
ENDROOT
BRANCH   1   7
ATOM      7  O   LIG d   1      -5.489  76.030 116.962  0.00  0.00    -0.368 OA
BRANCH   7   8
ATOM      8  C   LIG d   1      -4.845  75.158 116.002  0.00  0.00     0.119 C 
BRANCH   8   9
ATOM      9  C   LIG d   1      -3.382  74.975 116.451  0.00  0.00     0.028 C 
ATOM     10  C   LIG d   1      -2.440  74.673 115.274  0.00  0.00     0.006 C 
ENDBRANCH   8   9
BRANCH   8  11
ATOM     11  C   LIG d   1      -4.765  75.813 114.620  0.00  0.00     0.028 C 
ATOM     12  C   LIG d   1      -6.117  75.828 113.889  0.00  0.00     0.006 C 
ENDBRANCH   8  11
ENDBRANCH   7   8
ENDBRANCH   1   7
BRANCH   6  13
ATOM     13  N   LIG d   1      -7.591  77.622 118.422  0.00  0.00    -0.311 N 
ATOM     14  C   LIG d   1      -7.102  78.809 118.068  0.00  0.00     0.210 C 
ATOM     15  C   LIG d   1      -6.904  79.797 119.222  0.00  0.00     0.109 C 
ATOM     16  O   LIG d   1      -6.842  79.148 116.904  0.00  0.00    -0.276 OA
ATOM     17  H   LIG d   1      -7.803  77.443 119.384  0.00  0.00     0.149 HD
ENDBRANCH   6  13
BRANCH   5  18
ATOM     18  N   LIG d   1     -10.349  76.747 117.440  0.00  0.00     0.381 N 
ATOM     19  H   LIG d   1     -10.989  76.695 118.207  0.00  0.00    -0.090 HD
ATOM     20  H   LIG d   1     -10.829  76.456 116.607  0.00  0.00    -0.090 HD
ATOM     21  H   LIG d   1     -10.023  77.683 117.334  0.00  0.00    -0.090 HD
ENDBRANCH   5  18
BRANCH   3  22
ATOM     22  C   LIG d   1      -8.473  72.454 116.450  0.00  0.00     0.382 C 
ATOM     23  O   LIG d   1      -9.602  71.946 116.654  0.00  0.00    -0.241 OA
ATOM     24  O   LIG d   1      -7.545  71.738 116.027  0.00  0.00    -0.241 OA
ENDBRANCH   3  22
TORSDOF 7
ENDMDL
MODEL 3
REMARK VINA RESULT:      -5.5      2.036      5.404
REMARK  7 active torsions:
REMARK  status: ('A' for Active; 'I' for Inactive)
REMARK    1  A    between atoms: C_2  and  C_3 
REMARK    2  A    between atoms: C_3  and  O_6 
REMARK    3  A    between atoms: C_3  and  C_4 
REMARK    4  A    between atoms: C_7  and  O_6 
REMARK    5  A    between atoms: C_9  and  C_10 
REMARK    6  A    between atoms: N_15  and  C_14 
REMARK    7  A    between atoms: N_20  and  C_19 
REMARK       I    between atoms: C_22  and  N_20 
ROOT
ATOM      1  C   LIG d   1      -7.491  76.913 117.578  0.00  0.00     0.161 C 
ATOM      2  C   LIG d   1      -8.721  77.544 117.827  0.00  0.00     0.016 C 
ATOM      3  C   LIG d   1      -8.865  78.944 117.959  0.00  0.00     0.038 C 
ATOM      4  C   LIG d   1      -7.806  79.826 117.699  0.00  0.00     0.028 C 
ATOM      5  C   LIG d   1      -6.432  79.210 117.940  0.00  0.00    -0.047 C 
ATOM      6  C   LIG d   1      -6.344  77.866 117.181  0.00  0.00     0.091 C 
ENDROOT
BRANCH   1   7
ATOM      7  O   LIG d   1      -7.660  75.889 116.578  0.00  0.00    -0.368 OA
BRANCH   7   8
ATOM      8  C   LIG d   1      -7.821  74.537 117.071  0.00  0.00     0.119 C 
BRANCH   8   9
ATOM      9  C   LIG d   1      -6.732  73.670 116.411  0.00  0.00     0.028 C 
ATOM     10  C   LIG d   1      -6.011  74.404 115.267  0.00  0.00     0.006 C 
ENDBRANCH   8   9
BRANCH   8  11
ATOM     11  C   LIG d   1      -9.152  73.932 116.614  0.00  0.00     0.028 C 
ATOM     12  C   LIG d   1      -9.154  72.396 116.653  0.00  0.00     0.006 C 
ENDBRANCH   8  11
ENDBRANCH   7   8
ENDBRANCH   1   7
BRANCH   6  13
ATOM     13  N   LIG d   1      -5.062  77.157 117.432  0.00  0.00    -0.311 N 
ATOM     14  C   LIG d   1      -4.001  77.255 116.633  0.00  0.00     0.210 C 
ATOM     15  C   LIG d   1      -2.788  76.425 117.063  0.00  0.00     0.109 C 
ATOM     16  O   LIG d   1      -3.939  77.976 115.625  0.00  0.00    -0.276 OA
ATOM     17  H   LIG d   1      -5.015  76.574 118.245  0.00  0.00     0.149 HD
ENDBRANCH   6  13
BRANCH   5  18
ATOM     18  N   LIG d   1      -5.420  80.190 117.500  0.00  0.00     0.381 N 
ATOM     19  H   LIG d   1      -5.783  80.733 116.742  0.00  0.00    -0.090 HD
ATOM     20  H   LIG d   1      -4.609  79.695 117.174  0.00  0.00    -0.090 HD
ATOM     21  H   LIG d   1      -5.172  80.787 118.258  0.00  0.00    -0.090 HD
ENDBRANCH   5  18
BRANCH   3  22
ATOM     22  C   LIG d   1     -10.071  79.473 118.393  0.00  0.00     0.382 C 
ATOM     23  O   LIG d   1     -11.012  78.708 118.714  0.00  0.00    -0.241 OA
ATOM     24  O   LIG d   1     -10.244  80.706 118.427  0.00  0.00    -0.241 OA
ENDBRANCH   3  22
TORSDOF 7
ENDMDL
MODEL 4
REMARK VINA RESULT:      -5.2      2.329      5.469
REMARK  7 active torsions:
REMARK  status: ('A' for Active; 'I' for Inactive)
REMARK    1  A    between atoms: C_2  and  C_3 
REMARK    2  A    between atoms: C_3  and  O_6 
REMARK    3  A    between atoms: C_3  and  C_4 
REMARK    4  A    between atoms: C_7  and  O_6 
REMARK    5  A    between atoms: C_9  and  C_10 
REMARK    6  A    between atoms: N_15  and  C_14 
REMARK    7  A    between atoms: N_20  and  C_19 
REMARK       I    between atoms: C_22  and  N_20 
ROOT
ATOM      1  C   LIG d   1      -7.974  76.197 117.380  0.00  0.00     0.161 C 
ATOM      2  C   LIG d   1      -9.342  76.336 117.669  0.00  0.00     0.016 C 
ATOM      3  C   LIG d   1      -9.857  77.318 118.546  0.00  0.00     0.038 C 
ATOM      4  C   LIG d   1      -9.047  78.332 119.080  0.00  0.00     0.028 C 
ATOM      5  C   LIG d   1      -7.583  77.928 119.218  0.00  0.00    -0.047 C 
ATOM      6  C   LIG d   1      -7.089  77.363 117.867  0.00  0.00     0.091 C 
ENDROOT
BRANCH   1   7
ATOM      7  O   LIG d   1      -7.792  75.986 115.966  0.00  0.00    -0.368 OA
BRANCH   7   8
ATOM      8  C   LIG d   1      -7.451  74.637 115.562  0.00  0.00     0.119 C 
BRANCH   8   9
ATOM      9  C   LIG d   1      -7.794  73.701 116.736  0.00  0.00     0.028 C 
ATOM     10  C   LIG d   1      -8.954  72.747 116.406  0.00  0.00     0.006 C 
ENDBRANCH   8   9
BRANCH   8  11
ATOM     11  C   LIG d   1      -5.941  74.485 115.349  0.00  0.00     0.028 C 
ATOM     12  C   LIG d   1      -5.402  75.393 114.233  0.00  0.00     0.006 C 
ENDBRANCH   8  11
ENDBRANCH   7   8
ENDBRANCH   1   7
BRANCH   6  13
ATOM     13  N   LIG d   1      -5.690  76.867 117.938  0.00  0.00    -0.311 N 
ATOM     14  C   LIG d   1      -4.692  77.384 117.224  0.00  0.00     0.210 C 
ATOM     15  C   LIG d   1      -3.332  76.710 117.432  0.00  0.00     0.109 C 
ATOM     16  O   LIG d   1      -4.797  78.357 116.462  0.00  0.00    -0.276 OA
ATOM     17  H   LIG d   1      -5.509  76.099 118.555  0.00  0.00     0.149 HD
ENDBRANCH   6  13
BRANCH   5  18
ATOM     18  N   LIG d   1      -6.832  79.120 119.656  0.00  0.00     0.381 N 
ATOM     19  H   LIG d   1      -6.208  78.873 120.398  0.00  0.00    -0.090 HD
ATOM     20  H   LIG d   1      -7.481  79.804 120.004  0.00  0.00    -0.090 HD
ATOM     21  H   LIG d   1      -6.317  79.498 118.891  0.00  0.00    -0.090 HD
ENDBRANCH   5  18
BRANCH   3  22
ATOM     22  C   LIG d   1     -11.189  77.268 118.928  0.00  0.00     0.382 C 
ATOM     23  O   LIG d   1     -12.086  77.141 118.060  0.00  0.00    -0.241 OA
ATOM     24  O   LIG d   1     -11.507  77.394 120.126  0.00  0.00    -0.241 OA
ENDBRANCH   3  22
TORSDOF 7
ENDMDL
MODEL 5
REMARK VINA RESULT:      -5.0      2.850      4.896
REMARK  7 active torsions:
REMARK  status: ('A' for Active; 'I' for Inactive)
REMARK    1  A    between atoms: C_2  and  C_3 
REMARK    2  A    between atoms: C_3  and  O_6 
REMARK    3  A    between atoms: C_3  and  C_4 
REMARK    4  A    between atoms: C_7  and  O_6 
REMARK    5  A    between atoms: C_9  and  C_10 
REMARK    6  A    between atoms: N_15  and  C_14 
REMARK    7  A    between atoms: N_20  and  C_19 
REMARK       I    between atoms: C_22  and  N_20 
ROOT
ATOM      1  C   LIG d   1      -2.010  75.018 115.994  0.00  0.00     0.161 C 
ATOM      2  C   LIG d   1      -1.560  74.353 114.841  0.00  0.00     0.016 C 
ATOM      3  C   LIG d   1      -0.284  73.753 114.736  0.00  0.00     0.038 C 
ATOM      4  C   LIG d   1       0.577  73.646 115.838  0.00  0.00     0.028 C 
ATOM      5  C   LIG d   1       0.373  74.744 116.876  0.00  0.00    -0.047 C 
ATOM      6  C   LIG d   1      -1.127  74.815 117.244  0.00  0.00     0.091 C 
ENDROOT
BRANCH   1   7
ATOM      7  O   LIG d   1      -3.372  74.640 116.277  0.00  0.00    -0.368 OA
BRANCH   7   8
ATOM      8  C   LIG d   1      -4.398  75.524 115.761  0.00  0.00     0.119 C 
BRANCH   8   9
ATOM      9  C   LIG d   1      -5.183  76.075 116.967  0.00  0.00     0.028 C 
ATOM     10  C   LIG d   1      -4.654  77.440 117.437  0.00  0.00     0.006 C 
ENDBRANCH   8   9
BRANCH   8  11
ATOM     11  C   LIG d   1      -5.426  74.756 114.925  0.00  0.00     0.028 C 
ATOM     12  C   LIG d   1      -6.667  74.347 115.734  0.00  0.00     0.006 C 
ENDBRANCH   8  11
ENDBRANCH   7   8
ENDBRANCH   1   7
BRANCH   6  13
ATOM     13  N   LIG d   1      -1.427  75.919 118.191  0.00  0.00    -0.311 N 
ATOM     14  C   LIG d   1      -1.475  75.759 119.512  0.00  0.00     0.210 C 
ATOM     15  C   LIG d   1      -1.821  77.024 120.305  0.00  0.00     0.109 C 
ATOM     16  O   LIG d   1      -1.233  74.697 120.105  0.00  0.00    -0.276 OA
ATOM     17  H   LIG d   1      -1.606  76.822 117.797  0.00  0.00     0.149 HD
ENDBRANCH   6  13
BRANCH   5  18
ATOM     18  N   LIG d   1       1.237  74.433 118.031  0.00  0.00     0.381 N 
ATOM     19  H   LIG d   1       2.086  74.959 117.970  0.00  0.00    -0.090 HD
ATOM     20  H   LIG d   1       1.470  73.456 118.008  0.00  0.00    -0.090 HD
ATOM     21  H   LIG d   1       0.763  74.649 118.880  0.00  0.00    -0.090 HD
ENDBRANCH   5  18
BRANCH   3  22
ATOM     22  C   LIG d   1       0.157  73.287 113.507  0.00  0.00     0.382 C 
ATOM     23  O   LIG d   1       0.575  72.110 113.396  0.00  0.00    -0.241 OA
ATOM     24  O   LIG d   1       0.184  74.044 112.518  0.00  0.00    -0.241 OA
ENDBRANCH   3  22
TORSDOF 7
ENDMDL
MODEL 6
REMARK VINA RESULT:      -4.9      2.138      4.359
REMARK  7 active torsions:
REMARK  status: ('A' for Active; 'I' for Inactive)
REMARK    1  A    between atoms: C_2  and  C_3 
REMARK    2  A    between atoms: C_3  and  O_6 
REMARK    3  A    between atoms: C_3  and  C_4 
REMARK    4  A    between atoms: C_7  and  O_6 
REMARK    5  A    between atoms: C_9  and  C_10 
REMARK    6  A    between atoms: N_15  and  C_14 
REMARK    7  A    between atoms: N_20  and  C_19 
REMARK       I    between atoms: C_22  and  N_20 
ROOT
ATOM      1  C   LIG d   1      -5.954  77.012 117.151  0.00  0.00     0.161 C 
ATOM      2  C   LIG d   1      -4.720  76.528 116.685  0.00  0.00     0.016 C 
ATOM      3  C   LIG d   1      -4.548  75.236 116.136  0.00  0.00     0.038 C 
ATOM      4  C   LIG d   1      -5.637  74.390 115.876  0.00  0.00     0.028 C 
ATOM      5  C   LIG d   1      -6.829  74.638 116.794  0.00  0.00    -0.047 C 
ATOM      6  C   LIG d   1      -7.173  76.145 116.773  0.00  0.00     0.091 C 
ENDROOT
BRANCH   1   7
ATOM      7  O   LIG d   1      -6.147  78.369 116.705  0.00  0.00    -0.368 OA
BRANCH   7   8
ATOM      8  C   LIG d   1      -6.162  79.383 117.739  0.00  0.00     0.119 C 
BRANCH   8   9
ATOM      9  C   LIG d   1      -7.504  80.133 117.632  0.00  0.00     0.028 C 
ATOM     10  C   LIG d   1      -8.403  79.907 118.859  0.00  0.00     0.006 C 
ENDBRANCH   8   9
BRANCH   8  11
ATOM     11  C   LIG d   1      -5.085  80.444 117.495  0.00  0.00     0.028 C 
ATOM     12  C   LIG d   1      -5.656  81.869 117.429  0.00  0.00     0.006 C 
ENDBRANCH   8  11
ENDBRANCH   7   8
ENDBRANCH   1   7
BRANCH   6  13
ATOM     13  N   LIG d   1      -8.276  76.487 117.710  0.00  0.00    -0.311 N 
ATOM     14  C   LIG d   1      -9.565  76.397 117.388  0.00  0.00     0.210 C 
ATOM     15  C   LIG d   1     -10.538  76.817 118.494  0.00  0.00     0.109 C 
ATOM     16  O   LIG d   1      -9.996  75.977 116.303  0.00  0.00    -0.276 OA
ATOM     17  H   LIG d   1      -8.016  76.806 118.622  0.00  0.00     0.149 HD
ENDBRANCH   6  13
BRANCH   5  18
ATOM     18  N   LIG d   1      -7.938  73.785 116.324  0.00  0.00     0.381 N 
ATOM     19  H   LIG d   1      -7.800  72.846 116.639  0.00  0.00    -0.090 HD
ATOM     20  H   LIG d   1      -7.943  73.783 115.319  0.00  0.00    -0.090 HD
ATOM     21  H   LIG d   1      -8.805  74.134 116.667  0.00  0.00    -0.090 HD
ENDBRANCH   5  18
BRANCH   3  22
ATOM     22  C   LIG d   1      -3.271  74.763 115.878  0.00  0.00     0.382 C 
ATOM     23  O   LIG d   1      -2.775  74.889 114.733  0.00  0.00    -0.241 OA
ATOM     24  O   LIG d   1      -2.625  74.173 116.765  0.00  0.00    -0.241 OA
ENDBRANCH   3  22
TORSDOF 7
ENDMDL
MODEL 7
REMARK VINA RESULT:      -4.9      1.491      2.166
REMARK  7 active torsions:
REMARK  status: ('A' for Active; 'I' for Inactive)
REMARK    1  A    between atoms: C_2  and  C_3 
REMARK    2  A    between atoms: C_3  and  O_6 
REMARK    3  A    between atoms: C_3  and  C_4 
REMARK    4  A    between atoms: C_7  and  O_6 
REMARK    5  A    between atoms: C_9  and  C_10 
REMARK    6  A    between atoms: N_15  and  C_14 
REMARK    7  A    between atoms: N_20  and  C_19 
REMARK       I    between atoms: C_22  and  N_20 
ROOT
ATOM      1  C   LIG d   1      -6.303  75.864 116.622  0.00  0.00     0.161 C 
ATOM      2  C   LIG d   1      -5.314  75.828 115.625  0.00  0.00     0.016 C 
ATOM      3  C   LIG d   1      -4.165  76.650 115.638  0.00  0.00     0.038 C 
ATOM      4  C   LIG d   1      -3.848  77.464 116.737  0.00  0.00     0.028 C 
ATOM      5  C   LIG d   1      -5.070  77.908 117.533  0.00  0.00    -0.047 C 
ATOM      6  C   LIG d   1      -5.920  76.665 117.884  0.00  0.00     0.091 C 
ENDROOT
BRANCH   1   7
ATOM      7  O   LIG d   1      -6.687  74.521 116.978  0.00  0.00    -0.368 OA
BRANCH   7   8
ATOM      8  C   LIG d   1      -7.828  73.975 116.271  0.00  0.00     0.119 C 
BRANCH   8   9
ATOM      9  C   LIG d   1      -9.097  74.429 117.019  0.00  0.00     0.028 C 
ATOM     10  C   LIG d   1      -9.801  75.604 116.320  0.00  0.00     0.006 C 
ENDBRANCH   8   9
BRANCH   8  11
ATOM     11  C   LIG d   1      -7.844  72.445 116.336  0.00  0.00     0.028 C 
ATOM     12  C   LIG d   1      -9.175  71.885 116.861  0.00  0.00     0.006 C 
ENDBRANCH   8  11
ENDBRANCH   7   8
ENDBRANCH   1   7
BRANCH   6  13
ATOM     13  N   LIG d   1      -7.178  77.019 118.591  0.00  0.00    -0.311 N 
ATOM     14  C   LIG d   1      -7.914  78.088 118.287  0.00  0.00     0.210 C 
ATOM     15  C   LIG d   1      -9.163  78.280 119.153  0.00  0.00     0.109 C 
ATOM     16  O   LIG d   1      -7.667  78.877 117.363  0.00  0.00    -0.276 OA
ATOM     17  H   LIG d   1      -7.469  76.416 119.335  0.00  0.00     0.149 HD
ENDBRANCH   6  13
BRANCH   5  18
ATOM     18  N   LIG d   1      -4.587  78.632 118.724  0.00  0.00     0.381 N 
ATOM     19  H   LIG d   1      -3.977  79.374 118.445  0.00  0.00    -0.090 HD
ATOM     20  H   LIG d   1      -4.066  77.996 119.302  0.00  0.00    -0.090 HD
ATOM     21  H   LIG d   1      -5.358  79.001 119.235  0.00  0.00    -0.090 HD
ENDBRANCH   5  18
BRANCH   3  22
ATOM     22  C   LIG d   1      -3.337  76.694 114.527  0.00  0.00     0.382 C 
ATOM     23  O   LIG d   1      -3.674  77.363 113.520  0.00  0.00    -0.241 OA
ATOM     24  O   LIG d   1      -2.280  76.037 114.500  0.00  0.00    -0.241 OA
ENDBRANCH   3  22
TORSDOF 7
ENDMDL
MODEL 8
REMARK VINA RESULT:      -4.9      3.117      5.120
REMARK  7 active torsions:
REMARK  status: ('A' for Active; 'I' for Inactive)
REMARK    1  A    between atoms: C_2  and  C_3 
REMARK    2  A    between atoms: C_3  and  O_6 
REMARK    3  A    between atoms: C_3  and  C_4 
REMARK    4  A    between atoms: C_7  and  O_6 
REMARK    5  A    between atoms: C_9  and  C_10 
REMARK    6  A    between atoms: N_15  and  C_14 
REMARK    7  A    between atoms: N_20  and  C_19 
REMARK       I    between atoms: C_22  and  N_20 
ROOT
ATOM      1  C   LIG d   1      -3.134  76.336 116.310  0.00  0.00     0.161 C 
ATOM      2  C   LIG d   1      -3.413  77.122 115.180  0.00  0.00     0.016 C 
ATOM      3  C   LIG d   1      -2.435  77.491 114.228  0.00  0.00     0.038 C 
ATOM      4  C   LIG d   1      -1.133  76.969 114.262  0.00  0.00     0.028 C 
ATOM      5  C   LIG d   1      -0.674  76.577 115.662  0.00  0.00    -0.047 C 
ATOM      6  C   LIG d   1      -1.745  75.665 116.304  0.00  0.00     0.091 C 
ENDROOT
BRANCH   1   7
ATOM      7  O   LIG d   1      -4.168  75.346 116.483  0.00  0.00    -0.368 OA
BRANCH   7   8
ATOM      8  C   LIG d   1      -5.467  75.678 115.936  0.00  0.00     0.119 C 
BRANCH   8   9
ATOM      9  C   LIG d   1      -6.388  76.040 117.117  0.00  0.00     0.028 C 
ATOM     10  C   LIG d   1      -6.973  77.457 116.992  0.00  0.00     0.006 C 
ENDBRANCH   8   9
BRANCH   8  11
ATOM     11  C   LIG d   1      -6.119  74.462 115.271  0.00  0.00     0.028 C 
ATOM     12  C   LIG d   1      -7.110  73.737 116.197  0.00  0.00     0.006 C 
ENDBRANCH   8  11
ENDBRANCH   7   8
ENDBRANCH   1   7
BRANCH   6  13
ATOM     13  N   LIG d   1      -1.414  75.304 117.708  0.00  0.00    -0.311 N 
ATOM     14  C   LIG d   1      -0.783  74.181 118.046  0.00  0.00     0.210 C 
ATOM     15  C   LIG d   1      -0.558  73.994 119.550  0.00  0.00     0.109 C 
ATOM     16  O   LIG d   1      -0.359  73.338 117.242  0.00  0.00    -0.276 OA
ATOM     17  H   LIG d   1      -1.694  75.947 118.422  0.00  0.00     0.149 HD
ENDBRANCH   6  13
BRANCH   5  18
ATOM     18  N   LIG d   1       0.641  75.923 115.533  0.00  0.00     0.381 N 
ATOM     19  H   LIG d   1       0.771  75.273 116.283  0.00  0.00    -0.090 HD
ATOM     20  H   LIG d   1       1.360  76.623 115.595  0.00  0.00    -0.090 HD
ATOM     21  H   LIG d   1       0.702  75.450 114.659  0.00  0.00    -0.090 HD
ENDBRANCH   5  18
BRANCH   3  22
ATOM     22  C   LIG d   1      -2.745  78.424 113.250  0.00  0.00     0.382 C 
ATOM     23  O   LIG d   1      -2.982  79.613 113.571  0.00  0.00    -0.241 OA
ATOM     24  O   LIG d   1      -2.835  78.081 112.056  0.00  0.00    -0.241 OA
ENDBRANCH   3  22
TORSDOF 7
ENDMDL
MODEL 9
REMARK VINA RESULT:      -4.9      2.820      5.978
REMARK  7 active torsions:
REMARK  status: ('A' for Active; 'I' for Inactive)
REMARK    1  A    between atoms: C_2  and  C_3 
REMARK    2  A    between atoms: C_3  and  O_6 
REMARK    3  A    between atoms: C_3  and  C_4 
REMARK    4  A    between atoms: C_7  and  O_6 
REMARK    5  A    between atoms: C_9  and  C_10 
REMARK    6  A    between atoms: N_15  and  C_14 
REMARK    7  A    between atoms: N_20  and  C_19 
REMARK       I    between atoms: C_22  and  N_20 
ROOT
ATOM      1  C   LIG d   1      -7.558  78.775 117.943  0.00  0.00     0.161 C 
ATOM      2  C   LIG d   1      -8.520  79.797 118.001  0.00  0.00     0.016 C 
ATOM      3  C   LIG d   1      -8.216  81.164 117.804  0.00  0.00     0.038 C 
ATOM      4  C   LIG d   1      -6.947  81.588 117.383  0.00  0.00     0.028 C 
ATOM      5  C   LIG d   1      -5.824  80.646 117.803  0.00  0.00    -0.047 C 
ATOM      6  C   LIG d   1      -6.190  79.207 117.375  0.00  0.00     0.091 C 
ENDROOT
BRANCH   1   7
ATOM      7  O   LIG d   1      -8.079  77.656 117.198  0.00  0.00    -0.368 OA
BRANCH   7   8
ATOM      8  C   LIG d   1      -8.702  76.606 117.978  0.00  0.00     0.119 C 
BRANCH   8   9
ATOM      9  C   LIG d   1      -8.079  75.268 117.535  0.00  0.00     0.028 C 
ATOM     10  C   LIG d   1      -9.070  74.390 116.754  0.00  0.00     0.006 C 
ENDBRANCH   8   9
BRANCH   8  11
ATOM     11  C   LIG d   1     -10.195  76.484 117.657  0.00  0.00     0.028 C 
ATOM     12  C   LIG d   1     -11.086  77.189 118.692  0.00  0.00     0.006 C 
ENDBRANCH   8  11
ENDBRANCH   7   8
ENDBRANCH   1   7
BRANCH   6  13
ATOM     13  N   LIG d   1      -5.183  78.209 117.823  0.00  0.00    -0.311 N 
ATOM     14  C   LIG d   1      -4.217  77.739 117.035  0.00  0.00     0.210 C 
ATOM     15  C   LIG d   1      -3.297  76.703 117.689  0.00  0.00     0.109 C 
ATOM     16  O   LIG d   1      -4.014  78.106 115.868  0.00  0.00    -0.276 OA
ATOM     17  H   LIG d   1      -5.254  77.880 118.766  0.00  0.00     0.149 HD
ENDBRANCH   6  13
BRANCH   5  18
ATOM     18  N   LIG d   1      -4.578  81.134 117.183  0.00  0.00     0.381 N 
ATOM     19  H   LIG d   1      -3.795  80.887 117.755  0.00  0.00    -0.090 HD
ATOM     20  H   LIG d   1      -4.617  82.136 117.120  0.00  0.00    -0.090 HD
ATOM     21  H   LIG d   1      -4.472  80.741 116.274  0.00  0.00    -0.090 HD
ENDBRANCH   5  18
BRANCH   3  22
ATOM     22  C   LIG d   1      -9.179  82.127 118.068  0.00  0.00     0.382 C 
ATOM     23  O   LIG d   1     -10.360  81.954 117.683  0.00  0.00    -0.241 OA
ATOM     24  O   LIG d   1      -8.871  83.186 118.646  0.00  0.00    -0.241 OA
ENDBRANCH   3  22
TORSDOF 7
ENDMDL
