MODEL 1
REMARK VINA RESULT:      -5.3      0.000      0.000
REMARK  7 active torsions:
REMARK  status: ('A' for Active; 'I' for Inactive)
REMARK    1  A    between atoms: C_2  and  C_3 
REMARK    2  A    between atoms: C_3  and  O_6 
REMARK    3  A    between atoms: C_3  and  C_4 
REMARK    4  A    between atoms: C_7  and  O_6 
REMARK    5  A    between atoms: C_9  and  C_10 
REMARK    6  A    between atoms: N_15  and  C_14 
REMARK    7  A    between atoms: N_20  and  C_19 
REMARK       I    between atoms: C_22  and  N_20 
ROOT
ATOM      1  C   LIG d   1      -6.288  93.575 118.294  0.00  0.00     0.161 C 
ATOM      2  C   LIG d   1      -7.093  92.713 117.530  0.00  0.00     0.016 C 
ATOM      3  C   LIG d   1      -6.579  91.630 116.781  0.00  0.00     0.038 C 
ATOM      4  C   LIG d   1      -5.234  91.241 116.866  0.00  0.00     0.028 C 
ATOM      5  C   LIG d   1      -4.294  92.386 117.227  0.00  0.00    -0.047 C 
ATOM      6  C   LIG d   1      -4.833  93.099 118.488  0.00  0.00     0.091 C 
ENDROOT
BRANCH   1   7
ATOM      7  O   LIG d   1      -6.910  93.819 119.572  0.00  0.00    -0.368 OA
BRANCH   7   8
ATOM      8  C   LIG d   1      -7.460  95.145 119.769  0.00  0.00     0.119 C 
BRANCH   8   9
ATOM      9  C   LIG d   1      -8.978  95.058 119.520  0.00  0.00     0.028 C 
ATOM     10  C   LIG d   1      -9.599  93.785 120.118  0.00  0.00     0.006 C 
ENDBRANCH   8   9
BRANCH   8  11
ATOM     11  C   LIG d   1      -6.932  96.129 118.721  0.00  0.00     0.028 C 
ATOM     12  C   LIG d   1      -5.984  97.182 119.316  0.00  0.00     0.006 C 
ENDBRANCH   8  11
ENDBRANCH   7   8
ENDBRANCH   1   7
BRANCH   6  13
ATOM     13  N   LIG d   1      -4.018  94.284 118.861  0.00  0.00    -0.311 N 
ATOM     14  C   LIG d   1      -3.017  94.239 119.738  0.00  0.00     0.210 C 
ATOM     15  C   LIG d   1      -2.320  95.579 119.993  0.00  0.00     0.109 C 
ATOM     16  O   LIG d   1      -2.619  93.210 120.305  0.00  0.00    -0.276 OA
ATOM     17  H   LIG d   1      -4.252  95.155 118.425  0.00  0.00     0.149 HD
ENDBRANCH   6  13
BRANCH   5  18
ATOM     18  N   LIG d   1      -2.948  91.814 117.417  0.00  0.00     0.381 N 
ATOM     19  H   LIG d   1      -3.005  90.997 117.993  0.00  0.00    -0.090 HD
ATOM     20  H   LIG d   1      -2.371  92.490 117.885  0.00  0.00    -0.090 HD
ATOM     21  H   LIG d   1      -2.549  91.580 116.535  0.00  0.00    -0.090 HD
ENDBRANCH   5  18
BRANCH   3  22
ATOM     22  C   LIG d   1      -7.408  90.948 115.903  0.00  0.00     0.382 C 
ATOM     23  O   LIG d   1      -7.788  91.499 114.842  0.00  0.00    -0.241 OA
ATOM     24  O   LIG d   1      -7.817  89.804 116.180  0.00  0.00    -0.241 OA
ENDBRANCH   3  22
TORSDOF 7
ENDMDL
MODEL 2
REMARK VINA RESULT:      -5.2     15.283     17.815
REMARK  7 active torsions:
REMARK  status: ('A' for Active; 'I' for Inactive)
REMARK    1  A    between atoms: C_2  and  C_3 
REMARK    2  A    between atoms: C_3  and  O_6 
REMARK    3  A    between atoms: C_3  and  C_4 
REMARK    4  A    between atoms: C_7  and  O_6 
REMARK    5  A    between atoms: C_9  and  C_10 
REMARK    6  A    between atoms: N_15  and  C_14 
REMARK    7  A    between atoms: N_20  and  C_19 
REMARK       I    between atoms: C_22  and  N_20 
ROOT
ATOM      1  C   LIG d   1      -3.379  76.691 116.833  0.00  0.00     0.161 C 
ATOM      2  C   LIG d   1      -3.347  77.888 116.099  0.00  0.00     0.016 C 
ATOM      3  C   LIG d   1      -2.208  78.337 115.391  0.00  0.00     0.038 C 
ATOM      4  C   LIG d   1      -1.065  77.538 115.243  0.00  0.00     0.028 C 
ATOM      5  C   LIG d   1      -0.867  76.546 116.385  0.00  0.00    -0.047 C 
ATOM      6  C   LIG d   1      -2.178  75.752 116.592  0.00  0.00     0.091 C 
ENDROOT
BRANCH   1   7
ATOM      7  O   LIG d   1      -4.616  75.996 116.580  0.00  0.00    -0.368 OA
BRANCH   7   8
ATOM      8  C   LIG d   1      -5.399  76.475 115.459  0.00  0.00     0.119 C 
BRANCH   8   9
ATOM      9  C   LIG d   1      -6.869  76.542 115.915  0.00  0.00     0.028 C 
ATOM     10  C   LIG d   1      -7.033  77.261 117.264  0.00  0.00     0.006 C 
ENDBRANCH   8   9
BRANCH   8  11
ATOM     11  C   LIG d   1      -5.379  75.476 114.298  0.00  0.00     0.028 C 
ATOM     12  C   LIG d   1      -4.947  74.067 114.732  0.00  0.00     0.006 C 
ENDBRANCH   8  11
ENDBRANCH   7   8
ENDBRANCH   1   7
BRANCH   6  13
ATOM     13  N   LIG d   1      -2.099  74.819 117.746  0.00  0.00    -0.311 N 
ATOM     14  C   LIG d   1      -1.674  73.560 117.642  0.00  0.00     0.210 C 
ATOM     15  C   LIG d   1      -1.691  72.763 118.950  0.00  0.00     0.109 C 
ATOM     16  O   LIG d   1      -1.256  73.039 116.598  0.00  0.00    -0.276 OA
ATOM     17  H   LIG d   1      -2.389  75.169 118.637  0.00  0.00     0.149 HD
ENDBRANCH   6  13
BRANCH   5  18
ATOM     18  N   LIG d   1       0.279  75.686 116.035  0.00  0.00     0.381 N 
ATOM     19  H   LIG d   1       1.080  75.957 116.570  0.00  0.00    -0.090 HD
ATOM     20  H   LIG d   1       0.494  75.811 115.062  0.00  0.00    -0.090 HD
ATOM     21  H   LIG d   1       0.058  74.732 116.215  0.00  0.00    -0.090 HD
ENDBRANCH   5  18
BRANCH   3  22
ATOM     22  C   LIG d   1      -2.192  79.615 114.854  0.00  0.00     0.382 C 
ATOM     23  O   LIG d   1      -1.159  80.321 114.947  0.00  0.00    -0.241 OA
ATOM     24  O   LIG d   1      -3.212  80.087 114.317  0.00  0.00    -0.241 OA
ENDBRANCH   3  22
TORSDOF 7
ENDMDL
MODEL 3
REMARK VINA RESULT:      -5.1     13.840     16.634
REMARK  7 active torsions:
REMARK  status: ('A' for Active; 'I' for Inactive)
REMARK    1  A    between atoms: C_2  and  C_3 
REMARK    2  A    between atoms: C_3  and  O_6 
REMARK    3  A    between atoms: C_3  and  C_4 
REMARK    4  A    between atoms: C_7  and  O_6 
REMARK    5  A    between atoms: C_9  and  C_10 
REMARK    6  A    between atoms: N_15  and  C_14 
REMARK    7  A    between atoms: N_20  and  C_19 
REMARK       I    between atoms: C_22  and  N_20 
ROOT
ATOM      1  C   LIG d   1      -6.891  77.106 116.999  0.00  0.00     0.161 C 
ATOM      2  C   LIG d   1      -8.082  76.363 117.058  0.00  0.00     0.016 C 
ATOM      3  C   LIG d   1      -9.210  76.759 117.814  0.00  0.00     0.038 C 
ATOM      4  C   LIG d   1      -9.277  78.010 118.445  0.00  0.00     0.028 C 
ATOM      5  C   LIG d   1      -7.911  78.569 118.829  0.00  0.00    -0.047 C 
ATOM      6  C   LIG d   1      -6.986  78.528 117.591  0.00  0.00     0.091 C 
ENDROOT
BRANCH   1   7
ATOM      7  O   LIG d   1      -6.416  77.161 115.639  0.00  0.00    -0.368 OA
BRANCH   7   8
ATOM      8  C   LIG d   1      -5.125  76.553 115.391  0.00  0.00     0.119 C 
BRANCH   8   9
ATOM      9  C   LIG d   1      -5.314  75.500 114.282  0.00  0.00     0.028 C 
ATOM     10  C   LIG d   1      -5.029  74.071 114.776  0.00  0.00     0.006 C 
ENDBRANCH   8   9
BRANCH   8  11
ATOM     11  C   LIG d   1      -4.631  75.773 116.613  0.00  0.00     0.028 C 
ATOM     12  C   LIG d   1      -3.296  76.302 117.158  0.00  0.00     0.006 C 
ENDBRANCH   8  11
ENDBRANCH   7   8
ENDBRANCH   1   7
BRANCH   6  13
ATOM     13  N   LIG d   1      -5.604  78.979 117.901  0.00  0.00    -0.311 N 
ATOM     14  C   LIG d   1      -5.194  80.238 117.756  0.00  0.00     0.210 C 
ATOM     15  C   LIG d   1      -3.725  80.485 118.113  0.00  0.00     0.109 C 
ATOM     16  O   LIG d   1      -5.916  81.180 117.396  0.00  0.00    -0.276 OA
ATOM     17  H   LIG d   1      -4.961  78.286 118.229  0.00  0.00     0.149 HD
ENDBRANCH   6  13
BRANCH   5  18
ATOM     18  N   LIG d   1      -8.119  79.933 119.351  0.00  0.00     0.381 N 
ATOM     19  H   LIG d   1      -7.236  80.387 119.474  0.00  0.00    -0.090 HD
ATOM     20  H   LIG d   1      -8.570  79.874 120.246  0.00  0.00    -0.090 HD
ATOM     21  H   LIG d   1      -8.685  80.457 118.720  0.00  0.00    -0.090 HD
ENDBRANCH   5  18
BRANCH   3  22
ATOM     22  C   LIG d   1     -10.271  75.881 117.976  0.00  0.00     0.382 C 
ATOM     23  O   LIG d   1     -10.115  74.659 117.740  0.00  0.00    -0.241 OA
ATOM     24  O   LIG d   1     -11.393  76.303 118.314  0.00  0.00    -0.241 OA
ENDBRANCH   3  22
TORSDOF 7
ENDMDL
MODEL 4
REMARK VINA RESULT:      -4.9     19.670     22.236
REMARK  7 active torsions:
REMARK  status: ('A' for Active; 'I' for Inactive)
REMARK    1  A    between atoms: C_2  and  C_3 
REMARK    2  A    between atoms: C_3  and  O_6 
REMARK    3  A    between atoms: C_3  and  C_4 
REMARK    4  A    between atoms: C_7  and  O_6 
REMARK    5  A    between atoms: C_9  and  C_10 
REMARK    6  A    between atoms: N_15  and  C_14 
REMARK    7  A    between atoms: N_20  and  C_19 
REMARK       I    between atoms: C_22  and  N_20 
ROOT
ATOM      1  C   LIG d   1     -25.573  85.573 114.336  0.00  0.00     0.161 C 
ATOM      2  C   LIG d   1     -24.537  86.494 114.106  0.00  0.00     0.016 C 
ATOM      3  C   LIG d   1     -23.279  86.132 113.571  0.00  0.00     0.038 C 
ATOM      4  C   LIG d   1     -23.023  84.841 113.086  0.00  0.00     0.028 C 
ATOM      5  C   LIG d   1     -23.864  83.763 113.762  0.00  0.00    -0.047 C 
ATOM      6  C   LIG d   1     -25.351  84.180 113.710  0.00  0.00     0.091 C 
ENDROOT
BRANCH   1   7
ATOM      7  O   LIG d   1     -26.827  86.128 113.892  0.00  0.00    -0.368 OA
BRANCH   7   8
ATOM      8  C   LIG d   1     -27.044  86.147 112.460  0.00  0.00     0.119 C 
BRANCH   8   9
ATOM      9  C   LIG d   1     -27.517  87.565 112.083  0.00  0.00     0.028 C 
ATOM     10  C   LIG d   1     -26.364  88.582 112.063  0.00  0.00     0.006 C 
ENDBRANCH   8   9
BRANCH   8  11
ATOM     11  C   LIG d   1     -28.192  85.217 112.057  0.00  0.00     0.028 C 
ATOM     12  C   LIG d   1     -29.246  85.057 113.164  0.00  0.00     0.006 C 
ENDBRANCH   8  11
ENDBRANCH   7   8
ENDBRANCH   1   7
BRANCH   6  13
ATOM     13  N   LIG d   1     -26.235  83.221 114.424  0.00  0.00    -0.311 N 
ATOM     14  C   LIG d   1     -26.842  82.199 113.824  0.00  0.00     0.210 C 
ATOM     15  C   LIG d   1     -27.724  81.344 114.739  0.00  0.00     0.109 C 
ATOM     16  O   LIG d   1     -26.709  81.900 112.628  0.00  0.00    -0.276 OA
ATOM     17  H   LIG d   1     -26.373  83.371 115.404  0.00  0.00     0.149 HD
ENDBRANCH   6  13
BRANCH   5  18
ATOM     18  N   LIG d   1     -23.597  82.489 113.068  0.00  0.00     0.381 N 
ATOM     19  H   LIG d   1     -23.054  81.889 113.656  0.00  0.00    -0.090 HD
ATOM     20  H   LIG d   1     -23.067  82.677 112.235  0.00  0.00    -0.090 HD
ATOM     21  H   LIG d   1     -24.455  82.043 112.830  0.00  0.00    -0.090 HD
ENDBRANCH   5  18
BRANCH   3  22
ATOM     22  C   LIG d   1     -22.248  87.058 113.554  0.00  0.00     0.382 C 
ATOM     23  O   LIG d   1     -22.364  88.138 114.183  0.00  0.00    -0.241 OA
ATOM     24  O   LIG d   1     -21.220  86.848 112.882  0.00  0.00    -0.241 OA
ENDBRANCH   3  22
TORSDOF 7
ENDMDL
MODEL 5
REMARK VINA RESULT:      -4.7     12.651     15.401
REMARK  7 active torsions:
REMARK  status: ('A' for Active; 'I' for Inactive)
REMARK    1  A    between atoms: C_2  and  C_3 
REMARK    2  A    between atoms: C_3  and  O_6 
REMARK    3  A    between atoms: C_3  and  C_4 
REMARK    4  A    between atoms: C_7  and  O_6 
REMARK    5  A    between atoms: C_9  and  C_10 
REMARK    6  A    between atoms: N_15  and  C_14 
REMARK    7  A    between atoms: N_20  and  C_19 
REMARK       I    between atoms: C_22  and  N_20 
ROOT
ATOM      1  C   LIG d   1      -7.737  78.714 118.411  0.00  0.00     0.161 C 
ATOM      2  C   LIG d   1      -8.413  79.909 118.704  0.00  0.00     0.016 C 
ATOM      3  C   LIG d   1      -7.844  81.190 118.523  0.00  0.00     0.038 C 
ATOM      4  C   LIG d   1      -6.605  81.368 117.889  0.00  0.00     0.028 C 
ATOM      5  C   LIG d   1      -5.672  80.172 118.036  0.00  0.00    -0.047 C 
ATOM      6  C   LIG d   1      -6.427  78.891 117.614  0.00  0.00     0.091 C 
ENDROOT
BRANCH   1   7
ATOM      7  O   LIG d   1      -8.622  77.807 117.724  0.00  0.00    -0.368 OA
BRANCH   7   8
ATOM      8  C   LIG d   1      -9.178  76.732 118.521  0.00  0.00     0.119 C 
BRANCH   8   9
ATOM      9  C   LIG d   1      -9.035  75.431 117.708  0.00  0.00     0.028 C 
ATOM     10  C   LIG d   1     -10.354  74.645 117.621  0.00  0.00     0.006 C 
ENDBRANCH   8   9
BRANCH   8  11
ATOM     11  C   LIG d   1     -10.684  76.915 118.731  0.00  0.00     0.028 C 
ATOM     12  C   LIG d   1     -11.014  77.732 119.991  0.00  0.00     0.006 C 
ENDBRANCH   8  11
ENDBRANCH   7   8
ENDBRANCH   1   7
BRANCH   6  13
ATOM     13  N   LIG d   1      -5.613  77.663 117.808  0.00  0.00    -0.311 N 
ATOM     14  C   LIG d   1      -4.842  77.137 116.858  0.00  0.00     0.210 C 
ATOM     15  C   LIG d   1      -4.102  75.857 117.260  0.00  0.00     0.109 C 
ATOM     16  O   LIG d   1      -4.675  77.626 115.731  0.00  0.00    -0.276 OA
ATOM     17  H   LIG d   1      -5.665  77.218 118.703  0.00  0.00     0.149 HD
ENDBRANCH   6  13
BRANCH   5  18
ATOM     18  N   LIG d   1      -4.476  80.435 117.214  0.00  0.00     0.381 N 
ATOM     19  H   LIG d   1      -4.746  80.856 116.348  0.00  0.00    -0.090 HD
ATOM     20  H   LIG d   1      -4.021  79.562 117.012  0.00  0.00    -0.090 HD
ATOM     21  H   LIG d   1      -3.851  81.037 117.704  0.00  0.00    -0.090 HD
ENDBRANCH   5  18
BRANCH   3  22
ATOM     22  C   LIG d   1      -8.499  82.309 119.015  0.00  0.00     0.382 C 
ATOM     23  O   LIG d   1      -9.745  82.294 119.159  0.00  0.00    -0.241 OA
ATOM     24  O   LIG d   1      -7.864  83.349 119.275  0.00  0.00    -0.241 OA
ENDBRANCH   3  22
TORSDOF 7
ENDMDL
MODEL 6
REMARK VINA RESULT:      -4.6     13.850     16.095
REMARK  7 active torsions:
REMARK  status: ('A' for Active; 'I' for Inactive)
REMARK    1  A    between atoms: C_2  and  C_3 
REMARK    2  A    between atoms: C_3  and  O_6 
REMARK    3  A    between atoms: C_3  and  C_4 
REMARK    4  A    between atoms: C_7  and  O_6 
REMARK    5  A    between atoms: C_9  and  C_10 
REMARK    6  A    between atoms: N_15  and  C_14 
REMARK    7  A    between atoms: N_20  and  C_19 
REMARK       I    between atoms: C_22  and  N_20 
ROOT
ATOM      1  C   LIG d   1      -3.990  78.222 116.793  0.00  0.00     0.161 C 
ATOM      2  C   LIG d   1      -3.366  79.357 117.336  0.00  0.00     0.016 C 
ATOM      3  C   LIG d   1      -2.086  79.806 116.940  0.00  0.00     0.038 C 
ATOM      4  C   LIG d   1      -1.401  79.233 115.858  0.00  0.00     0.028 C 
ATOM      5  C   LIG d   1      -1.768  77.773 115.614  0.00  0.00    -0.047 C 
ATOM      6  C   LIG d   1      -3.306  77.649 115.534  0.00  0.00     0.091 C 
ENDROOT
BRANCH   1   7
ATOM      7  O   LIG d   1      -5.377  78.508 116.524  0.00  0.00    -0.368 OA
BRANCH   7   8
ATOM      8  C   LIG d   1      -6.334  77.968 117.468  0.00  0.00     0.119 C 
BRANCH   8   9
ATOM      9  C   LIG d   1      -7.219  76.962 116.707  0.00  0.00     0.028 C 
ATOM     10  C   LIG d   1      -8.435  76.508 117.533  0.00  0.00     0.006 C 
ENDBRANCH   8   9
BRANCH   8  11
ATOM     11  C   LIG d   1      -7.292  79.052 117.971  0.00  0.00     0.028 C 
ATOM     12  C   LIG d   1      -6.729  79.838 119.166  0.00  0.00     0.006 C 
ENDBRANCH   8  11
ENDBRANCH   7   8
ENDBRANCH   1   7
BRANCH   6  13
ATOM     13  N   LIG d   1      -3.754  76.240 115.380  0.00  0.00    -0.311 N 
ATOM     14  C   LIG d   1      -4.632  75.846 114.459  0.00  0.00     0.210 C 
ATOM     15  C   LIG d   1      -4.972  74.352 114.487  0.00  0.00     0.109 C 
ATOM     16  O   LIG d   1      -5.138  76.586 113.602  0.00  0.00    -0.276 OA
ATOM     17  H   LIG d   1      -3.370  75.568 116.015  0.00  0.00     0.149 HD
ENDBRANCH   6  13
BRANCH   5  18
ATOM     18  N   LIG d   1      -1.088  77.343 114.378  0.00  0.00     0.381 N 
ATOM     19  H   LIG d   1      -1.766  77.071 113.695  0.00  0.00    -0.090 HD
ATOM     20  H   LIG d   1      -0.511  76.547 114.584  0.00  0.00    -0.090 HD
ATOM     21  H   LIG d   1      -0.526  78.085 114.022  0.00  0.00    -0.090 HD
ENDBRANCH   5  18
BRANCH   3  22
ATOM     22  C   LIG d   1      -1.459  80.815 117.656  0.00  0.00     0.382 C 
ATOM     23  O   LIG d   1      -2.002  81.282 118.686  0.00  0.00    -0.241 OA
ATOM     24  O   LIG d   1      -0.380  81.295 117.259  0.00  0.00    -0.241 OA
ENDBRANCH   3  22
TORSDOF 7
ENDMDL
MODEL 7
REMARK VINA RESULT:      -4.6     28.750     31.580
REMARK  7 active torsions:
REMARK  status: ('A' for Active; 'I' for Inactive)
REMARK    1  A    between atoms: C_2  and  C_3 
REMARK    2  A    between atoms: C_3  and  O_6 
REMARK    3  A    between atoms: C_3  and  C_4 
REMARK    4  A    between atoms: C_7  and  O_6 
REMARK    5  A    between atoms: C_9  and  C_10 
REMARK    6  A    between atoms: N_15  and  C_14 
REMARK    7  A    between atoms: N_20  and  C_19 
REMARK       I    between atoms: C_22  and  N_20 
ROOT
ATOM      1  C   LIG d   1     -16.283  63.409 116.707  0.00  0.00     0.161 C 
ATOM      2  C   LIG d   1     -17.123  63.006 115.655  0.00  0.00     0.016 C 
ATOM      3  C   LIG d   1     -17.670  63.903 114.709  0.00  0.00     0.038 C 
ATOM      4  C   LIG d   1     -17.290  65.252 114.660  0.00  0.00     0.028 C 
ATOM      5  C   LIG d   1     -16.839  65.803 116.009  0.00  0.00    -0.047 C 
ATOM      6  C   LIG d   1     -15.769  64.860 116.604  0.00  0.00     0.091 C 
ENDROOT
BRANCH   1   7
ATOM      7  O   LIG d   1     -15.177  62.493 116.828  0.00  0.00    -0.368 OA
BRANCH   7   8
ATOM      8  C   LIG d   1     -15.213  61.598 117.968  0.00  0.00     0.119 C 
BRANCH   8   9
ATOM      9  C   LIG d   1     -15.642  60.210 117.454  0.00  0.00     0.028 C 
ATOM     10  C   LIG d   1     -17.112  59.893 117.779  0.00  0.00     0.006 C 
ENDBRANCH   8   9
BRANCH   8  11
ATOM     11  C   LIG d   1     -16.295  62.013 118.968  0.00  0.00     0.028 C 
ATOM     12  C   LIG d   1     -15.715  62.504 120.304  0.00  0.00     0.006 C 
ENDBRANCH   8  11
ENDBRANCH   7   8
ENDBRANCH   1   7
BRANCH   6  13
ATOM     13  N   LIG d   1     -15.334  65.281 117.962  0.00  0.00    -0.311 N 
ATOM     14  C   LIG d   1     -14.281  66.065 118.185  0.00  0.00     0.210 C 
ATOM     15  C   LIG d   1     -13.996  66.361 119.660  0.00  0.00     0.109 C 
ATOM     16  O   LIG d   1     -13.576  66.570 117.298  0.00  0.00    -0.276 OA
ATOM     17  H   LIG d   1     -15.870  64.942 118.737  0.00  0.00     0.149 HD
ENDBRANCH   6  13
BRANCH   5  18
ATOM     18  N   LIG d   1     -16.342  67.174 115.786  0.00  0.00     0.381 N 
ATOM     19  H   LIG d   1     -16.987  67.835 116.172  0.00  0.00    -0.090 HD
ATOM     20  H   LIG d   1     -16.275  67.339 114.797  0.00  0.00    -0.090 HD
ATOM     21  H   LIG d   1     -15.447  67.286 116.211  0.00  0.00    -0.090 HD
ENDBRANCH   5  18
BRANCH   3  22
ATOM     22  C   LIG d   1     -18.639  63.459 113.822  0.00  0.00     0.382 C 
ATOM     23  O   LIG d   1     -18.684  62.248 113.497  0.00  0.00    -0.241 OA
ATOM     24  O   LIG d   1     -19.440  64.262 113.308  0.00  0.00    -0.241 OA
ENDBRANCH   3  22
TORSDOF 7
ENDMDL
MODEL 8
REMARK VINA RESULT:      -4.5     29.242     32.329
REMARK  7 active torsions:
REMARK  status: ('A' for Active; 'I' for Inactive)
REMARK    1  A    between atoms: C_2  and  C_3 
REMARK    2  A    between atoms: C_3  and  O_6 
REMARK    3  A    between atoms: C_3  and  C_4 
REMARK    4  A    between atoms: C_7  and  O_6 
REMARK    5  A    between atoms: C_9  and  C_10 
REMARK    6  A    between atoms: N_15  and  C_14 
REMARK    7  A    between atoms: N_20  and  C_19 
REMARK       I    between atoms: C_22  and  N_20 
ROOT
ATOM      1  C   LIG d   1     -16.163  63.270 116.456  0.00  0.00     0.161 C 
ATOM      2  C   LIG d   1     -15.504  64.340 117.084  0.00  0.00     0.016 C 
ATOM      3  C   LIG d   1     -15.680  65.691 116.708  0.00  0.00     0.038 C 
ATOM      4  C   LIG d   1     -16.649  66.079 115.771  0.00  0.00     0.028 C 
ATOM      5  C   LIG d   1     -16.978  64.992 114.753  0.00  0.00    -0.047 C 
ATOM      6  C   LIG d   1     -17.307  63.683 115.507  0.00  0.00     0.091 C 
ENDROOT
BRANCH   1   7
ATOM      7  O   LIG d   1     -16.646  62.343 117.449  0.00  0.00    -0.368 OA
BRANCH   7   8
ATOM      8  C   LIG d   1     -15.639  61.542 118.116  0.00  0.00     0.119 C 
BRANCH   8   9
ATOM      9  C   LIG d   1     -15.714  60.120 117.527  0.00  0.00     0.028 C 
ATOM     10  C   LIG d   1     -17.143  59.731 117.114  0.00  0.00     0.006 C 
ENDBRANCH   8   9
BRANCH   8  11
ATOM     11  C   LIG d   1     -15.953  61.381 119.607  0.00  0.00     0.028 C 
ATOM     12  C   LIG d   1     -17.016  62.374 120.102  0.00  0.00     0.006 C 
ENDBRANCH   8  11
ENDBRANCH   7   8
ENDBRANCH   1   7
BRANCH   6  13
ATOM     13  N   LIG d   1     -17.558  62.545 114.584  0.00  0.00    -0.311 N 
ATOM     14  C   LIG d   1     -18.714  61.885 114.532  0.00  0.00     0.210 C 
ATOM     15  C   LIG d   1     -18.755  60.732 113.524  0.00  0.00     0.109 C 
ATOM     16  O   LIG d   1     -19.719  62.165 115.202  0.00  0.00    -0.276 OA
ATOM     17  H   LIG d   1     -16.806  62.272 113.982  0.00  0.00     0.149 HD
ENDBRANCH   6  13
BRANCH   5  18
ATOM     18  N   LIG d   1     -18.097  65.479 113.926  0.00  0.00     0.381 N 
ATOM     19  H   LIG d   1     -17.873  66.378 113.548  0.00  0.00    -0.090 HD
ATOM     20  H   LIG d   1     -18.913  65.575 114.505  0.00  0.00    -0.090 HD
ATOM     21  H   LIG d   1     -18.280  64.837 113.186  0.00  0.00    -0.090 HD
ENDBRANCH   5  18
BRANCH   3  22
ATOM     22  C   LIG d   1     -14.853  66.667 117.243  0.00  0.00     0.382 C 
ATOM     23  O   LIG d   1     -13.607  66.537 117.179  0.00  0.00    -0.241 OA
ATOM     24  O   LIG d   1     -15.338  67.655 117.827  0.00  0.00    -0.241 OA
ENDBRANCH   3  22
TORSDOF 7
ENDMDL
MODEL 9
REMARK VINA RESULT:      -4.4      9.318     11.546
REMARK  7 active torsions:
REMARK  status: ('A' for Active; 'I' for Inactive)
REMARK    1  A    between atoms: C_2  and  C_3 
REMARK    2  A    between atoms: C_3  and  O_6 
REMARK    3  A    between atoms: C_3  and  C_4 
REMARK    4  A    between atoms: C_7  and  O_6 
REMARK    5  A    between atoms: C_9  and  C_10 
REMARK    6  A    between atoms: N_15  and  C_14 
REMARK    7  A    between atoms: N_20  and  C_19 
REMARK       I    between atoms: C_22  and  N_20 
ROOT
ATOM      1  C   LIG d   1       2.296  87.092 115.728  0.00  0.00     0.161 C 
ATOM      2  C   LIG d   1       2.660  88.235 114.997  0.00  0.00     0.016 C 
ATOM      3  C   LIG d   1       3.402  88.185 113.794  0.00  0.00     0.038 C 
ATOM      4  C   LIG d   1       3.702  86.971 113.158  0.00  0.00     0.028 C 
ATOM      5  C   LIG d   1       3.793  85.790 114.118  0.00  0.00    -0.047 C 
ATOM      6  C   LIG d   1       2.518  85.754 114.992  0.00  0.00     0.091 C 
ENDROOT
BRANCH   1   7
ATOM      7  O   LIG d   1       0.925  87.204 116.160  0.00  0.00    -0.368 OA
BRANCH   7   8
ATOM      8  C   LIG d   1       0.721  87.611 117.535  0.00  0.00     0.119 C 
BRANCH   8   9
ATOM      9  C   LIG d   1       0.501  86.333 118.368  0.00  0.00     0.028 C 
ATOM     10  C   LIG d   1      -0.714  86.445 119.305  0.00  0.00     0.006 C 
ENDBRANCH   8   9
BRANCH   8  11
ATOM     11  C   LIG d   1      -0.568  88.423 117.691  0.00  0.00     0.028 C 
ATOM     12  C   LIG d   1      -0.342  89.935 117.536  0.00  0.00     0.006 C 
ENDBRANCH   8  11
ENDBRANCH   7   8
ENDBRANCH   1   7
BRANCH   6  13
ATOM     13  N   LIG d   1       2.563  84.679 116.016  0.00  0.00    -0.311 N 
ATOM     14  C   LIG d   1       2.194  83.422 115.777  0.00  0.00     0.210 C 
ATOM     15  C   LIG d   1       2.300  82.476 116.977  0.00  0.00     0.109 C 
ATOM     16  O   LIG d   1       1.819  82.993 114.675  0.00  0.00    -0.276 OA
ATOM     17  H   LIG d   1       2.885  84.933 116.930  0.00  0.00     0.149 HD
ENDBRANCH   6  13
BRANCH   5  18
ATOM     18  N   LIG d   1       3.973  84.570 113.308  0.00  0.00     0.381 N 
ATOM     19  H   LIG d   1       4.000  84.809 112.337  0.00  0.00    -0.090 HD
ATOM     20  H   LIG d   1       3.190  83.960 113.462  0.00  0.00    -0.090 HD
ATOM     21  H   LIG d   1       4.818  84.111 113.568  0.00  0.00    -0.090 HD
ENDBRANCH   5  18
BRANCH   3  22
ATOM     22  C   LIG d   1       3.886  89.358 113.237  0.00  0.00     0.382 C 
ATOM     23  O   LIG d   1       3.141  90.364 113.146  0.00  0.00    -0.241 OA
ATOM     24  O   LIG d   1       5.045  89.411 112.783  0.00  0.00    -0.241 OA
ENDBRANCH   3  22
TORSDOF 7
ENDMDL
