MODEL 1
REMARK VINA RESULT:      -6.0      0.000      0.000
REMARK  7 active torsions:
REMARK  status: ('A' for Active; 'I' for Inactive)
REMARK    1  A    between atoms: C_2  and  C_3 
REMARK    2  A    between atoms: C_3  and  O_6 
REMARK    3  A    between atoms: C_3  and  C_4 
REMARK    4  A    between atoms: C_7  and  O_6 
REMARK    5  A    between atoms: C_9  and  C_10 
REMARK    6  A    between atoms: N_15  and  C_14 
REMARK    7  A    between atoms: N_20  and  C_19 
REMARK       I    between atoms: C_22  and  N_20 
ROOT
ATOM      1  C   LIG d   1      -7.936  75.961 117.855  0.00  0.00     0.161 C 
ATOM      2  C   LIG d   1      -9.025  76.717 118.317  0.00  0.00     0.016 C 
ATOM      3  C   LIG d   1      -9.006  78.127 118.421  0.00  0.00     0.038 C 
ATOM      4  C   LIG d   1      -7.942  78.892 117.923  0.00  0.00     0.028 C 
ATOM      5  C   LIG d   1      -6.612  78.146 117.911  0.00  0.00    -0.047 C 
ATOM      6  C   LIG d   1      -6.806  76.786 117.203  0.00  0.00     0.091 C 
ENDROOT
BRANCH   1   7
ATOM      7  O   LIG d   1      -8.399  74.941 116.948  0.00  0.00    -0.368 OA
BRANCH   7   8
ATOM      8  C   LIG d   1      -8.546  73.612 117.505  0.00  0.00     0.119 C 
BRANCH   8   9
ATOM      9  C   LIG d   1      -7.459  72.721 116.873  0.00  0.00     0.028 C 
ATOM     10  C   LIG d   1      -7.962  71.296 116.584  0.00  0.00     0.006 C 
ENDBRANCH   8   9
BRANCH   8  11
ATOM     11  C   LIG d   1      -9.879  72.979 117.093  0.00  0.00     0.028 C 
ATOM     12  C   LIG d   1     -10.857  73.996 116.482  0.00  0.00     0.006 C 
ENDBRANCH   8  11
ENDBRANCH   7   8
ENDBRANCH   1   7
BRANCH   6  13
ATOM     13  N   LIG d   1      -5.574  75.955 117.222  0.00  0.00    -0.311 N 
ATOM     14  C   LIG d   1      -4.909  75.605 116.122  0.00  0.00     0.210 C 
ATOM     15  C   LIG d   1      -3.675  74.730 116.364  0.00  0.00     0.109 C 
ATOM     16  O   LIG d   1      -5.205  75.963 114.972  0.00  0.00    -0.276 OA
ATOM     17  H   LIG d   1      -5.245  75.647 118.116  0.00  0.00     0.149 HD
ENDBRANCH   6  13
BRANCH   5  18
ATOM     18  N   LIG d   1      -5.621  79.010 117.242  0.00  0.00     0.381 N 
ATOM     19  H   LIG d   1      -5.545  78.754 116.278  0.00  0.00    -0.090 HD
ATOM     20  H   LIG d   1      -4.725  78.874 117.677  0.00  0.00    -0.090 HD
ATOM     21  H   LIG d   1      -5.895  79.965 117.319  0.00  0.00    -0.090 HD
ENDBRANCH   5  18
BRANCH   3  22
ATOM     22  C   LIG d   1     -10.044  78.783 119.065  0.00  0.00     0.382 C 
ATOM     23  O   LIG d   1     -11.212  78.329 118.995  0.00  0.00    -0.241 OA
ATOM     24  O   LIG d   1      -9.836  79.846 119.678  0.00  0.00    -0.241 OA
ENDBRANCH   3  22
TORSDOF 7
ENDMDL
MODEL 2
REMARK VINA RESULT:      -5.9      1.147      1.363
REMARK  7 active torsions:
REMARK  status: ('A' for Active; 'I' for Inactive)
REMARK    1  A    between atoms: C_2  and  C_3 
REMARK    2  A    between atoms: C_3  and  O_6 
REMARK    3  A    between atoms: C_3  and  C_4 
REMARK    4  A    between atoms: C_7  and  O_6 
REMARK    5  A    between atoms: C_9  and  C_10 
REMARK    6  A    between atoms: N_15  and  C_14 
REMARK    7  A    between atoms: N_20  and  C_19 
REMARK       I    between atoms: C_22  and  N_20 
ROOT
ATOM      1  C   LIG d   1      -7.923  76.553 117.934  0.00  0.00     0.161 C 
ATOM      2  C   LIG d   1      -9.168  77.124 118.248  0.00  0.00     0.016 C 
ATOM      3  C   LIG d   1      -9.374  78.516 118.384  0.00  0.00     0.038 C 
ATOM      4  C   LIG d   1      -8.375  79.448 118.064  0.00  0.00     0.028 C 
ATOM      5  C   LIG d   1      -6.961  78.901 118.232  0.00  0.00    -0.047 C 
ATOM      6  C   LIG d   1      -6.848  77.560 117.473  0.00  0.00     0.091 C 
ENDROOT
BRANCH   1   7
ATOM      7  O   LIG d   1      -8.096  75.517 116.947  0.00  0.00    -0.368 OA
BRANCH   7   8
ATOM      8  C   LIG d   1      -8.549  74.233 117.443  0.00  0.00     0.119 C 
BRANCH   8   9
ATOM      9  C   LIG d   1      -7.567  73.164 116.925  0.00  0.00     0.028 C 
ATOM     10  C   LIG d   1      -6.441  73.767 116.068  0.00  0.00     0.006 C 
ENDBRANCH   8   9
BRANCH   8  11
ATOM     11  C   LIG d   1      -9.909  73.856 116.850  0.00  0.00     0.028 C 
ATOM     12  C   LIG d   1     -10.307  72.402 117.151  0.00  0.00     0.006 C 
ENDBRANCH   8  11
ENDBRANCH   7   8
ENDBRANCH   1   7
BRANCH   6  13
ATOM     13  N   LIG d   1      -5.521  76.915 117.655  0.00  0.00    -0.311 N 
ATOM     14  C   LIG d   1      -4.505  77.077 116.809  0.00  0.00     0.210 C 
ATOM     15  C   LIG d   1      -3.232  76.307 117.173  0.00  0.00     0.109 C 
ATOM     16  O   LIG d   1      -4.527  77.812 115.810  0.00  0.00    -0.276 OA
ATOM     17  H   LIG d   1      -5.406  76.327 118.457  0.00  0.00     0.149 HD
ENDBRANCH   6  13
BRANCH   5  18
ATOM     18  N   LIG d   1      -6.025  79.927 117.735  0.00  0.00     0.381 N 
ATOM     19  H   LIG d   1      -6.178  80.081 116.758  0.00  0.00    -0.090 HD
ATOM     20  H   LIG d   1      -5.084  79.596 117.858  0.00  0.00    -0.090 HD
ATOM     21  H   LIG d   1      -6.153  80.778 118.236  0.00  0.00    -0.090 HD
ENDBRANCH   5  18
BRANCH   3  22
ATOM     22  C   LIG d   1     -10.579  78.987 118.882  0.00  0.00     0.382 C 
ATOM     23  O   LIG d   1     -11.086  80.034 118.411  0.00  0.00    -0.241 OA
ATOM     24  O   LIG d   1     -11.143  78.404 119.827  0.00  0.00    -0.241 OA
ENDBRANCH   3  22
TORSDOF 7
ENDMDL
MODEL 3
REMARK VINA RESULT:      -5.7      1.792      5.012
REMARK  7 active torsions:
REMARK  status: ('A' for Active; 'I' for Inactive)
REMARK    1  A    between atoms: C_2  and  C_3 
REMARK    2  A    between atoms: C_3  and  O_6 
REMARK    3  A    between atoms: C_3  and  C_4 
REMARK    4  A    between atoms: C_7  and  O_6 
REMARK    5  A    between atoms: C_9  and  C_10 
REMARK    6  A    between atoms: N_15  and  C_14 
REMARK    7  A    between atoms: N_20  and  C_19 
REMARK       I    between atoms: C_22  and  N_20 
ROOT
ATOM      1  C   LIG d   1      -7.568  74.972 117.360  0.00  0.00     0.161 C 
ATOM      2  C   LIG d   1      -6.368  74.327 117.019  0.00  0.00     0.016 C 
ATOM      3  C   LIG d   1      -5.091  74.894 117.235  0.00  0.00     0.038 C 
ATOM      4  C   LIG d   1      -4.922  76.089 117.951  0.00  0.00     0.028 C 
ATOM      5  C   LIG d   1      -6.127  77.020 117.868  0.00  0.00    -0.047 C 
ATOM      6  C   LIG d   1      -7.400  76.227 118.242  0.00  0.00     0.091 C 
ENDROOT
BRANCH   1   7
ATOM      7  O   LIG d   1      -8.465  74.035 117.989  0.00  0.00    -0.368 OA
BRANCH   7   8
ATOM      8  C   LIG d   1      -8.912  72.930 117.165  0.00  0.00     0.119 C 
BRANCH   8   9
ATOM      9  C   LIG d   1     -10.440  73.054 117.011  0.00  0.00     0.028 C 
ATOM     10  C   LIG d   1     -10.858  74.384 116.361  0.00  0.00     0.006 C 
ENDBRANCH   8   9
BRANCH   8  11
ATOM     11  C   LIG d   1      -8.682  71.586 117.863  0.00  0.00     0.028 C 
ATOM     12  C   LIG d   1      -9.777  70.555 117.546  0.00  0.00     0.006 C 
ENDBRANCH   8  11
ENDBRANCH   7   8
ENDBRANCH   1   7
BRANCH   6  13
ATOM     13  N   LIG d   1      -8.635  77.041 118.106  0.00  0.00    -0.311 N 
ATOM     14  C   LIG d   1      -9.169  77.737 119.109  0.00  0.00     0.210 C 
ATOM     15  C   LIG d   1     -10.455  78.492 118.759  0.00  0.00     0.109 C 
ATOM     16  O   LIG d   1      -8.682  77.826 120.246  0.00  0.00    -0.276 OA
ATOM     17  H   LIG d   1      -9.079  77.051 117.209  0.00  0.00     0.149 HD
ENDBRANCH   6  13
BRANCH   5  18
ATOM     18  N   LIG d   1      -5.871  78.160 118.768  0.00  0.00     0.381 N 
ATOM     19  H   LIG d   1      -6.607  78.832 118.682  0.00  0.00    -0.090 HD
ATOM     20  H   LIG d   1      -5.009  78.601 118.497  0.00  0.00    -0.090 HD
ATOM     21  H   LIG d   1      -5.809  77.844 119.711  0.00  0.00    -0.090 HD
ENDBRANCH   5  18
BRANCH   3  22
ATOM     22  C   LIG d   1      -3.968  74.283 116.698  0.00  0.00     0.382 C 
ATOM     23  O   LIG d   1      -3.223  73.586 117.428  0.00  0.00    -0.241 OA
ATOM     24  O   LIG d   1      -3.666  74.456 115.502  0.00  0.00    -0.241 OA
ENDBRANCH   3  22
TORSDOF 7
ENDMDL
MODEL 4
REMARK VINA RESULT:      -5.6      2.139      3.143
REMARK  7 active torsions:
REMARK  status: ('A' for Active; 'I' for Inactive)
REMARK    1  A    between atoms: C_2  and  C_3 
REMARK    2  A    between atoms: C_3  and  O_6 
REMARK    3  A    between atoms: C_3  and  C_4 
REMARK    4  A    between atoms: C_7  and  O_6 
REMARK    5  A    between atoms: C_9  and  C_10 
REMARK    6  A    between atoms: N_15  and  C_14 
REMARK    7  A    between atoms: N_20  and  C_19 
REMARK       I    between atoms: C_22  and  N_20 
ROOT
ATOM      1  C   LIG d   1      -6.849  78.051 117.825  0.00  0.00     0.161 C 
ATOM      2  C   LIG d   1      -8.235  77.989 118.046  0.00  0.00     0.016 C 
ATOM      3  C   LIG d   1      -9.028  79.122 118.336  0.00  0.00     0.038 C 
ATOM      4  C   LIG d   1      -8.511  80.425 118.274  0.00  0.00     0.028 C 
ATOM      5  C   LIG d   1      -7.013  80.496 118.550  0.00  0.00    -0.047 C 
ATOM      6  C   LIG d   1      -6.287  79.477 117.643  0.00  0.00     0.091 C 
ENDROOT
BRANCH   1   7
ATOM      7  O   LIG d   1      -6.497  77.226 116.697  0.00  0.00    -0.368 OA
BRANCH   7   8
ATOM      8  C   LIG d   1      -7.371  76.101 116.432  0.00  0.00     0.119 C 
BRANCH   8   9
ATOM      9  C   LIG d   1      -6.964  74.964 117.389  0.00  0.00     0.028 C 
ATOM     10  C   LIG d   1      -8.176  74.171 117.907  0.00  0.00     0.006 C 
ENDBRANCH   8   9
BRANCH   8  11
ATOM     11  C   LIG d   1      -7.151  75.544 115.023  0.00  0.00     0.028 C 
ATOM     12  C   LIG d   1      -5.947  74.592 114.939  0.00  0.00     0.006 C 
ENDBRANCH   8  11
ENDBRANCH   7   8
ENDBRANCH   1   7
BRANCH   6  13
ATOM     13  N   LIG d   1      -4.826  79.421 117.910  0.00  0.00    -0.311 N 
ATOM     14  C   LIG d   1      -3.901  79.630 116.974  0.00  0.00     0.210 C 
ATOM     15  C   LIG d   1      -2.453  79.506 117.457  0.00  0.00     0.109 C 
ATOM     16  O   LIG d   1      -4.143  79.937 115.797  0.00  0.00    -0.276 OA
ATOM     17  H   LIG d   1      -4.540  79.208 118.846  0.00  0.00     0.149 HD
ENDBRANCH   6  13
BRANCH   5  18
ATOM     18  N   LIG d   1      -6.582  81.887 118.317  0.00  0.00     0.381 N 
ATOM     19  H   LIG d   1      -6.529  82.065 117.334  0.00  0.00    -0.090 HD
ATOM     20  H   LIG d   1      -5.666  82.014 118.711  0.00  0.00    -0.090 HD
ATOM     21  H   LIG d   1      -7.225  82.519 118.743  0.00  0.00    -0.090 HD
ENDBRANCH   5  18
BRANCH   3  22
ATOM     22  C   LIG d   1     -10.347  78.955 118.731  0.00  0.00     0.382 C 
ATOM     23  O   LIG d   1     -10.913  79.841 119.417  0.00  0.00    -0.241 OA
ATOM     24  O   LIG d   1     -10.964  77.911 118.449  0.00  0.00    -0.241 OA
ENDBRANCH   3  22
TORSDOF 7
ENDMDL
MODEL 5
REMARK VINA RESULT:      -5.3     12.238     14.926
REMARK  7 active torsions:
REMARK  status: ('A' for Active; 'I' for Inactive)
REMARK    1  A    between atoms: C_2  and  C_3 
REMARK    2  A    between atoms: C_3  and  O_6 
REMARK    3  A    between atoms: C_3  and  C_4 
REMARK    4  A    between atoms: C_7  and  O_6 
REMARK    5  A    between atoms: C_9  and  C_10 
REMARK    6  A    between atoms: N_15  and  C_14 
REMARK    7  A    between atoms: N_20  and  C_19 
REMARK       I    between atoms: C_22  and  N_20 
ROOT
ATOM      1  C   LIG d   1     -16.769  64.546 116.068  0.00  0.00     0.161 C 
ATOM      2  C   LIG d   1     -16.735  65.845 115.534  0.00  0.00     0.016 C 
ATOM      3  C   LIG d   1     -16.091  66.931 116.170  0.00  0.00     0.038 C 
ATOM      4  C   LIG d   1     -15.302  66.757 117.317  0.00  0.00     0.028 C 
ATOM      5  C   LIG d   1     -15.724  65.563 118.167  0.00  0.00    -0.047 C 
ATOM      6  C   LIG d   1     -15.821  64.313 117.263  0.00  0.00     0.091 C 
ENDROOT
BRANCH   1   7
ATOM      7  O   LIG d   1     -16.511  63.583 115.028  0.00  0.00    -0.368 OA
BRANCH   7   8
ATOM      8  C   LIG d   1     -17.662  62.856 114.532  0.00  0.00     0.119 C 
BRANCH   8   9
ATOM      9  C   LIG d   1     -17.239  61.384 114.357  0.00  0.00     0.028 C 
ATOM     10  C   LIG d   1     -18.417  60.480 113.955  0.00  0.00     0.006 C 
ENDBRANCH   8   9
BRANCH   8  11
ATOM     11  C   LIG d   1     -18.061  63.332 113.132  0.00  0.00     0.028 C 
ATOM     12  C   LIG d   1     -19.299  64.243 113.144  0.00  0.00     0.006 C 
ENDBRANCH   8  11
ENDBRANCH   7   8
ENDBRANCH   1   7
BRANCH   6  13
ATOM     13  N   LIG d   1     -16.309  63.118 117.999  0.00  0.00    -0.311 N 
ATOM     14  C   LIG d   1     -15.569  62.030 118.203  0.00  0.00     0.210 C 
ATOM     15  C   LIG d   1     -16.272  60.904 118.968  0.00  0.00     0.109 C 
ATOM     16  O   LIG d   1     -14.386  61.903 117.853  0.00  0.00    -0.276 OA
ATOM     17  H   LIG d   1     -17.248  63.148 118.345  0.00  0.00     0.149 HD
ENDBRANCH   6  13
BRANCH   5  18
ATOM     18  N   LIG d   1     -14.736  65.417 119.252  0.00  0.00     0.381 N 
ATOM     19  H   LIG d   1     -13.820  65.620 118.905  0.00  0.00    -0.090 HD
ATOM     20  H   LIG d   1     -14.748  64.466 119.576  0.00  0.00    -0.090 HD
ATOM     21  H   LIG d   1     -14.960  66.034 120.002  0.00  0.00    -0.090 HD
ENDBRANCH   5  18
BRANCH   3  22
ATOM     22  C   LIG d   1     -16.265  68.216 115.679  0.00  0.00     0.382 C 
ATOM     23  O   LIG d   1     -16.126  68.444 114.453  0.00  0.00    -0.241 OA
ATOM     24  O   LIG d   1     -16.517  69.159 116.453  0.00  0.00    -0.241 OA
ENDBRANCH   3  22
TORSDOF 7
ENDMDL
MODEL 6
REMARK VINA RESULT:      -5.1      4.508      6.825
REMARK  7 active torsions:
REMARK  status: ('A' for Active; 'I' for Inactive)
REMARK    1  A    between atoms: C_2  and  C_3 
REMARK    2  A    between atoms: C_3  and  O_6 
REMARK    3  A    between atoms: C_3  and  C_4 
REMARK    4  A    between atoms: C_7  and  O_6 
REMARK    5  A    between atoms: C_9  and  C_10 
REMARK    6  A    between atoms: N_15  and  C_14 
REMARK    7  A    between atoms: N_20  and  C_19 
REMARK       I    between atoms: C_22  and  N_20 
ROOT
ATOM      1  C   LIG d   1      -3.117  78.459 115.381  0.00  0.00     0.161 C 
ATOM      2  C   LIG d   1      -3.303  79.674 114.702  0.00  0.00     0.016 C 
ATOM      3  C   LIG d   1      -2.862  79.901 113.378  0.00  0.00     0.038 C 
ATOM      4  C   LIG d   1      -2.334  78.871 112.586  0.00  0.00     0.028 C 
ATOM      5  C   LIG d   1      -1.666  77.765 113.396  0.00  0.00    -0.047 C 
ATOM      6  C   LIG d   1      -2.643  77.288 114.495  0.00  0.00     0.091 C 
ENDROOT
BRANCH   1   7
ATOM      7  O   LIG d   1      -4.325  78.100 116.081  0.00  0.00    -0.368 OA
BRANCH   7   8
ATOM      8  C   LIG d   1      -4.334  78.352 117.508  0.00  0.00     0.119 C 
BRANCH   8   9
ATOM      9  C   LIG d   1      -4.896  77.093 118.197  0.00  0.00     0.028 C 
ATOM     10  C   LIG d   1      -3.852  76.394 119.084  0.00  0.00     0.006 C 
ENDBRANCH   8   9
BRANCH   8  11
ATOM     11  C   LIG d   1      -5.306  79.479 117.869  0.00  0.00     0.028 C 
ATOM     12  C   LIG d   1      -6.772  79.020 117.881  0.00  0.00     0.006 C 
ENDBRANCH   8  11
ENDBRANCH   7   8
ENDBRANCH   1   7
BRANCH   6  13
ATOM     13  N   LIG d   1      -2.038  76.265 115.387  0.00  0.00    -0.311 N 
ATOM     14  C   LIG d   1      -2.665  75.150 115.755  0.00  0.00     0.210 C 
ATOM     15  C   LIG d   1      -1.868  74.240 116.695  0.00  0.00     0.109 C 
ATOM     16  O   LIG d   1      -3.794  74.812 115.367  0.00  0.00    -0.276 OA
ATOM     17  H   LIG d   1      -1.112  76.444 115.723  0.00  0.00     0.149 HD
ENDBRANCH   6  13
BRANCH   5  18
ATOM     18  N   LIG d   1      -1.285  76.693 112.457  0.00  0.00     0.381 N 
ATOM     19  H   LIG d   1      -1.213  75.824 112.946  0.00  0.00    -0.090 HD
ATOM     20  H   LIG d   1      -0.385  76.909 112.065  0.00  0.00    -0.090 HD
ATOM     21  H   LIG d   1      -1.962  76.619 111.730  0.00  0.00    -0.090 HD
ENDBRANCH   5  18
BRANCH   3  22
ATOM     22  C   LIG d   1      -2.909  81.181 112.848  0.00  0.00     0.382 C 
ATOM     23  O   LIG d   1      -3.952  81.869 112.963  0.00  0.00    -0.241 OA
ATOM     24  O   LIG d   1      -1.939  81.641 112.217  0.00  0.00    -0.241 OA
ENDBRANCH   3  22
TORSDOF 7
ENDMDL
MODEL 7
REMARK VINA RESULT:      -5.0      1.976      5.047
REMARK  7 active torsions:
REMARK  status: ('A' for Active; 'I' for Inactive)
REMARK    1  A    between atoms: C_2  and  C_3 
REMARK    2  A    between atoms: C_3  and  O_6 
REMARK    3  A    between atoms: C_3  and  C_4 
REMARK    4  A    between atoms: C_7  and  O_6 
REMARK    5  A    between atoms: C_9  and  C_10 
REMARK    6  A    between atoms: N_15  and  C_14 
REMARK    7  A    between atoms: N_20  and  C_19 
REMARK       I    between atoms: C_22  and  N_20 
ROOT
ATOM      1  C   LIG d   1      -8.137  76.647 117.396  0.00  0.00     0.161 C 
ATOM      2  C   LIG d   1      -9.145  75.668 117.427  0.00  0.00     0.016 C 
ATOM      3  C   LIG d   1      -8.914  74.304 117.136  0.00  0.00     0.038 C 
ATOM      4  C   LIG d   1      -7.621  73.797 116.939  0.00  0.00     0.028 C 
ATOM      5  C   LIG d   1      -6.639  74.832 116.401  0.00  0.00    -0.047 C 
ATOM      6  C   LIG d   1      -6.701  76.093 117.293  0.00  0.00     0.091 C 
ENDROOT
BRANCH   1   7
ATOM      7  O   LIG d   1      -8.260  77.511 118.543  0.00  0.00    -0.368 OA
BRANCH   7   8
ATOM      8  C   LIG d   1      -8.614  78.888 118.269  0.00  0.00     0.119 C 
BRANCH   8   9
ATOM      9  C   LIG d   1      -7.527  79.781 118.898  0.00  0.00     0.028 C 
ATOM     10  C   LIG d   1      -6.789  80.633 117.852  0.00  0.00     0.006 C 
ENDBRANCH   8   9
BRANCH   8  11
ATOM     11  C   LIG d   1      -9.917  79.279 118.973  0.00  0.00     0.028 C 
ATOM     12  C   LIG d   1     -10.576  80.524 118.358  0.00  0.00     0.006 C 
ENDBRANCH   8  11
ENDBRANCH   7   8
ENDBRANCH   1   7
BRANCH   6  13
ATOM     13  N   LIG d   1      -5.832  77.188 116.787  0.00  0.00    -0.311 N 
ATOM     14  C   LIG d   1      -4.590  77.398 117.221  0.00  0.00     0.210 C 
ATOM     15  C   LIG d   1      -3.876  78.593 116.582  0.00  0.00     0.109 C 
ATOM     16  O   LIG d   1      -4.002  76.689 118.051  0.00  0.00    -0.276 OA
ATOM     17  H   LIG d   1      -6.219  77.792 116.089  0.00  0.00     0.149 HD
ENDBRANCH   6  13
BRANCH   5  18
ATOM     18  N   LIG d   1      -5.303  74.207 116.375  0.00  0.00     0.381 N 
ATOM     19  H   LIG d   1      -5.082  73.842 117.279  0.00  0.00    -0.090 HD
ATOM     20  H   LIG d   1      -4.621  74.907 116.142  0.00  0.00    -0.090 HD
ATOM     21  H   LIG d   1      -5.282  73.475 115.699  0.00  0.00    -0.090 HD
ENDBRANCH   5  18
BRANCH   3  22
ATOM     22  C   LIG d   1      -9.989  73.439 116.999  0.00  0.00     0.382 C 
ATOM     23  O   LIG d   1      -9.828  72.207 117.171  0.00  0.00    -0.241 OA
ATOM     24  O   LIG d   1     -11.108  73.871 116.663  0.00  0.00    -0.241 OA
ENDBRANCH   3  22
TORSDOF 7
ENDMDL
MODEL 8
REMARK VINA RESULT:      -4.9      5.509      7.673
REMARK  7 active torsions:
REMARK  status: ('A' for Active; 'I' for Inactive)
REMARK    1  A    between atoms: C_2  and  C_3 
REMARK    2  A    between atoms: C_3  and  O_6 
REMARK    3  A    between atoms: C_3  and  C_4 
REMARK    4  A    between atoms: C_7  and  O_6 
REMARK    5  A    between atoms: C_9  and  C_10 
REMARK    6  A    between atoms: N_15  and  C_14 
REMARK    7  A    between atoms: N_20  and  C_19 
REMARK       I    between atoms: C_22  and  N_20 
ROOT
ATOM      1  C   LIG d   1      -2.833  78.992 115.886  0.00  0.00     0.161 C 
ATOM      2  C   LIG d   1      -3.138  80.040 115.002  0.00  0.00     0.016 C 
ATOM      3  C   LIG d   1      -2.853  79.999 113.618  0.00  0.00     0.038 C 
ATOM      4  C   LIG d   1      -2.377  78.837 112.993  0.00  0.00     0.028 C 
ATOM      5  C   LIG d   1      -1.584  77.929 113.926  0.00  0.00    -0.047 C 
ATOM      6  C   LIG d   1      -2.416  77.672 115.204  0.00  0.00     0.091 C 
ENDROOT
BRANCH   1   7
ATOM      7  O   LIG d   1      -3.943  78.765 116.777  0.00  0.00    -0.368 OA
BRANCH   7   8
ATOM      8  C   LIG d   1      -3.821  79.335 118.104  0.00  0.00     0.119 C 
BRANCH   8   9
ATOM      9  C   LIG d   1      -4.546  80.695 118.093  0.00  0.00     0.028 C 
ATOM     10  C   LIG d   1      -5.993  80.593 118.602  0.00  0.00     0.006 C 
ENDBRANCH   8   9
BRANCH   8  11
ATOM     11  C   LIG d   1      -2.362  79.656 118.441  0.00  0.00     0.028 C 
ATOM     12  C   LIG d   1      -2.163  81.107 118.905  0.00  0.00     0.006 C 
ENDBRANCH   8  11
ENDBRANCH   7   8
ENDBRANCH   1   7
BRANCH   6  13
ATOM     13  N   LIG d   1      -1.678  76.861 116.207  0.00  0.00    -0.311 N 
ATOM     14  C   LIG d   1      -1.764  75.534 116.283  0.00  0.00     0.210 C 
ATOM     15  C   LIG d   1      -0.937  74.896 117.404  0.00  0.00     0.109 C 
ATOM     16  O   LIG d   1      -2.421  74.822 115.509  0.00  0.00    -0.276 OA
ATOM     17  H   LIG d   1      -1.096  77.355 116.855  0.00  0.00     0.149 HD
ENDBRANCH   6  13
BRANCH   5  18
ATOM     18  N   LIG d   1      -1.267  76.694 113.184  0.00  0.00     0.381 N 
ATOM     19  H   LIG d   1      -1.548  75.896 113.719  0.00  0.00    -0.090 HD
ATOM     20  H   LIG d   1      -0.273  76.645 113.043  0.00  0.00    -0.090 HD
ATOM     21  H   LIG d   1      -1.736  76.695 112.305  0.00  0.00    -0.090 HD
ENDBRANCH   5  18
BRANCH   3  22
ATOM     22  C   LIG d   1      -3.007  81.144 112.850  0.00  0.00     0.382 C 
ATOM     23  O   LIG d   1      -2.045  81.577 112.171  0.00  0.00    -0.241 OA
ATOM     24  O   LIG d   1      -4.082  81.773 112.863  0.00  0.00    -0.241 OA
ENDBRANCH   3  22
TORSDOF 7
ENDMDL
MODEL 9
REMARK VINA RESULT:      -4.9      2.204      5.027
REMARK  7 active torsions:
REMARK  status: ('A' for Active; 'I' for Inactive)
REMARK    1  A    between atoms: C_2  and  C_3 
REMARK    2  A    between atoms: C_3  and  O_6 
REMARK    3  A    between atoms: C_3  and  C_4 
REMARK    4  A    between atoms: C_7  and  O_6 
REMARK    5  A    between atoms: C_9  and  C_10 
REMARK    6  A    between atoms: N_15  and  C_14 
REMARK    7  A    between atoms: N_20  and  C_19 
REMARK       I    between atoms: C_22  and  N_20 
ROOT
ATOM      1  C   LIG d   1      -6.515  75.500 117.614  0.00  0.00     0.161 C 
ATOM      2  C   LIG d   1      -5.468  74.706 117.116  0.00  0.00     0.016 C 
ATOM      3  C   LIG d   1      -4.119  74.861 117.511  0.00  0.00     0.038 C 
ATOM      4  C   LIG d   1      -3.745  75.725 118.551  0.00  0.00     0.028 C 
ATOM      5  C   LIG d   1      -4.695  76.904 118.730  0.00  0.00    -0.047 C 
ATOM      6  C   LIG d   1      -6.143  76.372 118.831  0.00  0.00     0.091 C 
ENDROOT
BRANCH   1   7
ATOM      7  O   LIG d   1      -7.653  74.670 117.922  0.00  0.00    -0.368 OA
BRANCH   7   8
ATOM      8  C   LIG d   1      -8.388  74.150 116.787  0.00  0.00     0.119 C 
BRANCH   8   9
ATOM      9  C   LIG d   1      -9.744  74.881 116.739  0.00  0.00     0.028 C 
ATOM     10  C   LIG d   1     -10.916  73.924 116.464  0.00  0.00     0.006 C 
ENDBRANCH   8   9
BRANCH   8  11
ATOM     11  C   LIG d   1      -8.732  72.669 116.977  0.00  0.00     0.028 C 
ATOM     12  C   LIG d   1      -8.322  72.135 118.358  0.00  0.00     0.006 C 
ENDBRANCH   8  11
ENDBRANCH   7   8
ENDBRANCH   1   7
BRANCH   6  13
ATOM     13  N   LIG d   1      -7.144  77.467 118.923  0.00  0.00    -0.311 N 
ATOM     14  C   LIG d   1      -7.259  78.433 118.014  0.00  0.00     0.210 C 
ATOM     15  C   LIG d   1      -8.343  79.474 118.311  0.00  0.00     0.109 C 
ATOM     16  O   LIG d   1      -6.588  78.509 116.974  0.00  0.00    -0.276 OA
ATOM     17  H   LIG d   1      -7.750  77.464 119.720  0.00  0.00     0.149 HD
ENDBRANCH   6  13
BRANCH   5  18
ATOM     18  N   LIG d   1      -4.265  77.644 119.931  0.00  0.00     0.381 N 
ATOM     19  H   LIG d   1      -3.660  78.396 119.667  0.00  0.00    -0.090 HD
ATOM     20  H   LIG d   1      -3.753  77.022 120.530  0.00  0.00    -0.090 HD
ATOM     21  H   LIG d   1      -5.060  78.002 120.413  0.00  0.00    -0.090 HD
ENDBRANCH   5  18
BRANCH   3  22
ATOM     22  C   LIG d   1      -3.123  74.174 116.834  0.00  0.00     0.382 C 
ATOM     23  O   LIG d   1      -2.341  73.422 117.465  0.00  0.00    -0.241 OA
ATOM     24  O   LIG d   1      -2.967  74.332 115.609  0.00  0.00    -0.241 OA
ENDBRANCH   3  22
TORSDOF 7
ENDMDL
