MODEL 1
REMARK VINA RESULT:      -5.8      0.000      0.000
REMARK  7 active torsions:
REMARK  status: ('A' for Active; 'I' for Inactive)
REMARK    1  A    between atoms: C_2  and  C_3 
REMARK    2  A    between atoms: C_3  and  O_6 
REMARK    3  A    between atoms: C_3  and  C_4 
REMARK    4  A    between atoms: C_7  and  O_6 
REMARK    5  A    between atoms: C_9  and  C_10 
REMARK    6  A    between atoms: N_15  and  C_14 
REMARK    7  A    between atoms: N_20  and  C_19 
REMARK       I    between atoms: C_22  and  N_20 
ROOT
ATOM      1  C   LIG d   1      -6.982  77.206 117.172  0.00  0.00     0.161 C 
ATOM      2  C   LIG d   1      -5.995  77.139 116.174  0.00  0.00     0.016 C 
ATOM      3  C   LIG d   1      -5.705  75.964 115.444  0.00  0.00     0.038 C 
ATOM      4  C   LIG d   1      -6.490  74.807 115.558  0.00  0.00     0.028 C 
ATOM      5  C   LIG d   1      -7.174  74.671 116.914  0.00  0.00    -0.047 C 
ATOM      6  C   LIG d   1      -7.924  75.985 117.233  0.00  0.00     0.091 C 
ENDROOT
BRANCH   1   7
ATOM      7  O   LIG d   1      -7.744  78.420 117.024  0.00  0.00    -0.368 OA
BRANCH   7   8
ATOM      8  C   LIG d   1      -7.420  79.492 117.943  0.00  0.00     0.119 C 
BRANCH   8   9
ATOM      9  C   LIG d   1      -6.841  78.849 119.219  0.00  0.00     0.028 C 
ATOM     10  C   LIG d   1      -5.501  79.478 119.637  0.00  0.00     0.006 C 
ENDBRANCH   8   9
BRANCH   8  11
ATOM     11  C   LIG d   1      -8.679  80.235 118.399  0.00  0.00     0.028 C 
ATOM     12  C   LIG d   1      -8.843  81.603 117.718  0.00  0.00     0.006 C 
ENDBRANCH   8  11
ENDBRANCH   7   8
ENDBRANCH   1   7
BRANCH   6  13
ATOM     13  N   LIG d   1      -8.551  75.968 118.579  0.00  0.00    -0.311 N 
ATOM     14  C   LIG d   1      -9.743  76.503 118.840  0.00  0.00     0.210 C 
ATOM     15  C   LIG d   1     -10.196  76.394 120.299  0.00  0.00     0.109 C 
ATOM     16  O   LIG d   1     -10.482  77.029 117.994  0.00  0.00    -0.276 OA
ATOM     17  H   LIG d   1      -8.034  75.533 119.318  0.00  0.00     0.149 HD
ENDBRANCH   6  13
BRANCH   5  18
ATOM     18  N   LIG d   1      -8.067  73.498 116.848  0.00  0.00     0.381 N 
ATOM     19  H   LIG d   1      -7.722  72.776 117.448  0.00  0.00    -0.090 HD
ATOM     20  H   LIG d   1      -8.075  73.149 115.906  0.00  0.00    -0.090 HD
ATOM     21  H   LIG d   1      -8.989  73.756 117.122  0.00  0.00    -0.090 HD
ENDBRANCH   5  18
BRANCH   3  22
ATOM     22  C   LIG d   1      -4.592  75.925 114.617  0.00  0.00     0.382 C 
ATOM     23  O   LIG d   1      -4.566  76.616 113.570  0.00  0.00    -0.241 OA
ATOM     24  O   LIG d   1      -3.634  75.175 114.882  0.00  0.00    -0.241 OA
ENDBRANCH   3  22
TORSDOF 7
ENDMDL
MODEL 2
REMARK VINA RESULT:      -5.5      4.841      7.346
REMARK  7 active torsions:
REMARK  status: ('A' for Active; 'I' for Inactive)
REMARK    1  A    between atoms: C_2  and  C_3 
REMARK    2  A    between atoms: C_3  and  O_6 
REMARK    3  A    between atoms: C_3  and  C_4 
REMARK    4  A    between atoms: C_7  and  O_6 
REMARK    5  A    between atoms: C_9  and  C_10 
REMARK    6  A    between atoms: N_15  and  C_14 
REMARK    7  A    between atoms: N_20  and  C_19 
REMARK       I    between atoms: C_22  and  N_20 
ROOT
ATOM      1  C   LIG d   1      -2.209  76.570 115.230  0.00  0.00     0.161 C 
ATOM      2  C   LIG d   1      -2.198  75.546 116.191  0.00  0.00     0.016 C 
ATOM      3  C   LIG d   1      -1.145  75.359 117.116  0.00  0.00     0.038 C 
ATOM      4  C   LIG d   1      -0.095  76.281 117.241  0.00  0.00     0.028 C 
ATOM      5  C   LIG d   1       0.193  77.048 115.956  0.00  0.00    -0.047 C 
ATOM      6  C   LIG d   1      -1.127  77.652 115.424  0.00  0.00     0.091 C 
ENDROOT
BRANCH   1   7
ATOM      7  O   LIG d   1      -3.517  77.174 115.175  0.00  0.00    -0.368 OA
BRANCH   7   8
ATOM      8  C   LIG d   1      -4.553  76.521 115.949  0.00  0.00     0.119 C 
BRANCH   8   9
ATOM      9  C   LIG d   1      -5.608  75.992 114.958  0.00  0.00     0.028 C 
ATOM     10  C   LIG d   1      -5.374  74.518 114.585  0.00  0.00     0.006 C 
ENDBRANCH   8   9
BRANCH   8  11
ATOM     11  C   LIG d   1      -5.299  77.522 116.837  0.00  0.00     0.028 C 
ATOM     12  C   LIG d   1      -6.824  77.343 116.787  0.00  0.00     0.006 C 
ENDBRANCH   8  11
ENDBRANCH   7   8
ENDBRANCH   1   7
BRANCH   6  13
ATOM     13  N   LIG d   1      -0.949  78.349 114.124  0.00  0.00    -0.311 N 
ATOM     14  C   LIG d   1      -0.647  79.642 114.020  0.00  0.00     0.210 C 
ATOM     15  C   LIG d   1      -0.528  80.165 112.585  0.00  0.00     0.109 C 
ATOM     16  O   LIG d   1      -0.434  80.398 114.980  0.00  0.00    -0.276 OA
ATOM     17  H   LIG d   1      -1.072  77.803 113.293  0.00  0.00     0.149 HD
ENDBRANCH   6  13
BRANCH   5  18
ATOM     18  N   LIG d   1       1.212  78.069 116.265  0.00  0.00     0.381 N 
ATOM     19  H   LIG d   1       1.014  78.488 117.151  0.00  0.00    -0.090 HD
ATOM     20  H   LIG d   1       1.178  78.786 115.562  0.00  0.00    -0.090 HD
ATOM     21  H   LIG d   1       2.118  77.653 116.281  0.00  0.00    -0.090 HD
ENDBRANCH   5  18
BRANCH   3  22
ATOM     22  C   LIG d   1      -1.115  74.216 117.901  0.00  0.00     0.382 C 
ATOM     23  O   LIG d   1      -1.260  74.305 119.144  0.00  0.00    -0.241 OA
ATOM     24  O   LIG d   1      -0.900  73.102 117.387  0.00  0.00    -0.241 OA
ENDBRANCH   3  22
TORSDOF 7
ENDMDL
MODEL 3
REMARK VINA RESULT:      -5.1     12.184     13.809
REMARK  7 active torsions:
REMARK  status: ('A' for Active; 'I' for Inactive)
REMARK    1  A    between atoms: C_2  and  C_3 
REMARK    2  A    between atoms: C_3  and  O_6 
REMARK    3  A    between atoms: C_3  and  C_4 
REMARK    4  A    between atoms: C_7  and  O_6 
REMARK    5  A    between atoms: C_9  and  C_10 
REMARK    6  A    between atoms: N_15  and  C_14 
REMARK    7  A    between atoms: N_20  and  C_19 
REMARK       I    between atoms: C_22  and  N_20 
ROOT
ATOM      1  C   LIG d   1       1.868  86.785 114.929  0.00  0.00     0.161 C 
ATOM      2  C   LIG d   1       2.624  87.956 114.756  0.00  0.00     0.016 C 
ATOM      3  C   LIG d   1       3.625  88.096 113.766  0.00  0.00     0.038 C 
ATOM      4  C   LIG d   1       3.833  87.122 112.779  0.00  0.00     0.028 C 
ATOM      5  C   LIG d   1       3.441  85.717 113.223  0.00  0.00    -0.047 C 
ATOM      6  C   LIG d   1       2.004  85.752 113.791  0.00  0.00     0.091 C 
ENDROOT
BRANCH   1   7
ATOM      7  O   LIG d   1       0.482  87.124 115.134  0.00  0.00    -0.368 OA
BRANCH   7   8
ATOM      8  C   LIG d   1       0.056  87.256 116.513  0.00  0.00     0.119 C 
BRANCH   8   9
ATOM      9  C   LIG d   1       0.794  86.179 117.331  0.00  0.00     0.028 C 
ATOM     10  C   LIG d   1      -0.056  84.914 117.538  0.00  0.00     0.006 C 
ENDBRANCH   8   9
BRANCH   8  11
ATOM     11  C   LIG d   1      -1.434  86.934 116.668  0.00  0.00     0.028 C 
ATOM     12  C   LIG d   1      -2.202  88.023 117.434  0.00  0.00     0.006 C 
ENDBRANCH   8  11
ENDBRANCH   7   8
ENDBRANCH   1   7
BRANCH   6  13
ATOM     13  N   LIG d   1       1.573  84.434 114.325  0.00  0.00    -0.311 N 
ATOM     14  C   LIG d   1       0.903  83.535 113.607  0.00  0.00     0.210 C 
ATOM     15  C   LIG d   1       0.539  82.250 114.356  0.00  0.00     0.109 C 
ATOM     16  O   LIG d   1       0.604  83.667 112.410  0.00  0.00    -0.276 OA
ATOM     17  H   LIG d   1       1.802  84.231 115.279  0.00  0.00     0.149 HD
ENDBRANCH   6  13
BRANCH   5  18
ATOM     18  N   LIG d   1       3.580  84.826 112.055  0.00  0.00     0.381 N 
ATOM     19  H   LIG d   1       4.289  85.177 111.443  0.00  0.00    -0.090 HD
ATOM     20  H   LIG d   1       2.710  84.811 111.553  0.00  0.00    -0.090 HD
ATOM     21  H   LIG d   1       3.815  83.905 112.355  0.00  0.00    -0.090 HD
ENDBRANCH   5  18
BRANCH   3  22
ATOM     22  C   LIG d   1       4.456  89.206 113.783  0.00  0.00     0.382 C 
ATOM     23  O   LIG d   1       5.490  89.225 113.073  0.00  0.00    -0.241 OA
ATOM     24  O   LIG d   1       4.209  90.169 114.533  0.00  0.00    -0.241 OA
ENDBRANCH   3  22
TORSDOF 7
ENDMDL
MODEL 4
REMARK VINA RESULT:      -5.0      4.110      5.691
REMARK  7 active torsions:
REMARK  status: ('A' for Active; 'I' for Inactive)
REMARK    1  A    between atoms: C_2  and  C_3 
REMARK    2  A    between atoms: C_3  and  O_6 
REMARK    3  A    between atoms: C_3  and  C_4 
REMARK    4  A    between atoms: C_7  and  O_6 
REMARK    5  A    between atoms: C_9  and  C_10 
REMARK    6  A    between atoms: N_15  and  C_14 
REMARK    7  A    between atoms: N_20  and  C_19 
REMARK       I    between atoms: C_22  and  N_20 
ROOT
ATOM      1  C   LIG d   1      -2.869  76.766 117.386  0.00  0.00     0.161 C 
ATOM      2  C   LIG d   1      -1.741  77.418 117.911  0.00  0.00     0.016 C 
ATOM      3  C   LIG d   1      -0.412  77.061 117.583  0.00  0.00     0.038 C 
ATOM      4  C   LIG d   1      -0.123  76.121 116.584  0.00  0.00     0.028 C 
ATOM      5  C   LIG d   1      -1.224  75.083 116.392  0.00  0.00    -0.047 C 
ATOM      6  C   LIG d   1      -2.574  75.812 116.210  0.00  0.00     0.091 C 
ENDROOT
BRANCH   1   7
ATOM      7  O   LIG d   1      -3.862  77.739 117.005  0.00  0.00    -0.368 OA
BRANCH   7   8
ATOM      8  C   LIG d   1      -5.076  77.754 117.796  0.00  0.00     0.119 C 
BRANCH   8   9
ATOM      9  C   LIG d   1      -6.240  78.110 116.851  0.00  0.00     0.028 C 
ATOM     10  C   LIG d   1      -7.216  76.937 116.654  0.00  0.00     0.006 C 
ENDBRANCH   8   9
BRANCH   8  11
ATOM     11  C   LIG d   1      -5.046  78.872 118.842  0.00  0.00     0.028 C 
ATOM     12  C   LIG d   1      -6.400  79.071 119.540  0.00  0.00     0.006 C 
ENDBRANCH   8  11
ENDBRANCH   7   8
ENDBRANCH   1   7
BRANCH   6  13
ATOM     13  N   LIG d   1      -3.717  74.868 116.100  0.00  0.00    -0.311 N 
ATOM     14  C   LIG d   1      -4.593  74.891 115.096  0.00  0.00     0.210 C 
ATOM     15  C   LIG d   1      -5.707  73.843 115.186  0.00  0.00     0.109 C 
ATOM     16  O   LIG d   1      -4.534  75.658 114.123  0.00  0.00    -0.276 OA
ATOM     17  H   LIG d   1      -3.823  74.192 116.830  0.00  0.00     0.149 HD
ENDBRANCH   6  13
BRANCH   5  18
ATOM     18  N   LIG d   1      -0.854  74.251 115.231  0.00  0.00     0.381 N 
ATOM     19  H   LIG d   1      -1.677  73.849 114.827  0.00  0.00    -0.090 HD
ATOM     20  H   LIG d   1      -0.258  73.504 115.542  0.00  0.00    -0.090 HD
ATOM     21  H   LIG d   1      -0.379  74.805 114.552  0.00  0.00    -0.090 HD
ENDBRANCH   5  18
BRANCH   3  22
ATOM     22  C   LIG d   1       0.643  77.620 118.287  0.00  0.00     0.382 C 
ATOM     23  O   LIG d   1       1.660  76.932 118.544  0.00  0.00    -0.241 OA
ATOM     24  O   LIG d   1       0.573  78.791 118.707  0.00  0.00    -0.241 OA
ENDBRANCH   3  22
TORSDOF 7
ENDMDL
MODEL 5
REMARK VINA RESULT:      -4.9     12.399     14.258
REMARK  7 active torsions:
REMARK  status: ('A' for Active; 'I' for Inactive)
REMARK    1  A    between atoms: C_2  and  C_3 
REMARK    2  A    between atoms: C_3  and  O_6 
REMARK    3  A    between atoms: C_3  and  C_4 
REMARK    4  A    between atoms: C_7  and  O_6 
REMARK    5  A    between atoms: C_9  and  C_10 
REMARK    6  A    between atoms: N_15  and  C_14 
REMARK    7  A    between atoms: N_20  and  C_19 
REMARK       I    between atoms: C_22  and  N_20 
ROOT
ATOM      1  C   LIG d   1       2.507  86.187 113.947  0.00  0.00     0.161 C 
ATOM      2  C   LIG d   1       3.256  87.242 113.401  0.00  0.00     0.016 C 
ATOM      3  C   LIG d   1       4.364  87.830 114.054  0.00  0.00     0.038 C 
ATOM      4  C   LIG d   1       4.894  87.297 115.239  0.00  0.00     0.028 C 
ATOM      5  C   LIG d   1       3.865  86.551 116.081  0.00  0.00    -0.047 C 
ATOM      6  C   LIG d   1       3.138  85.520 115.187  0.00  0.00     0.091 C 
ENDROOT
BRANCH   1   7
ATOM      7  O   LIG d   1       2.238  85.201 112.930  0.00  0.00    -0.368 OA
BRANCH   7   8
ATOM      8  C   LIG d   1       0.873  85.139 112.448  0.00  0.00     0.119 C 
BRANCH   8   9
ATOM      9  C   LIG d   1       0.057  86.185 113.231  0.00  0.00     0.028 C 
ATOM     10  C   LIG d   1      -1.025  85.544 114.115  0.00  0.00     0.006 C 
ENDBRANCH   8   9
BRANCH   8  11
ATOM     11  C   LIG d   1       0.227  83.791 112.778  0.00  0.00     0.028 C 
ATOM     12  C   LIG d   1       1.176  82.603 112.553  0.00  0.00     0.006 C 
ENDBRANCH   8  11
ENDBRANCH   7   8
ENDBRANCH   1   7
BRANCH   6  13
ATOM     13  N   LIG d   1       2.056  84.804 115.912  0.00  0.00    -0.311 N 
ATOM     14  C   LIG d   1       2.022  83.481 116.058  0.00  0.00     0.210 C 
ATOM     15  C   LIG d   1       0.807  82.946 116.823  0.00  0.00     0.109 C 
ATOM     16  O   LIG d   1       2.898  82.702 115.654  0.00  0.00    -0.276 OA
ATOM     17  H   LIG d   1       1.320  85.362 116.299  0.00  0.00     0.149 HD
ENDBRANCH   6  13
BRANCH   5  18
ATOM     18  N   LIG d   1       4.580  85.932 117.213  0.00  0.00     0.381 N 
ATOM     19  H   LIG d   1       4.774  86.624 117.909  0.00  0.00    -0.090 HD
ATOM     20  H   LIG d   1       5.454  85.563 116.883  0.00  0.00    -0.090 HD
ATOM     21  H   LIG d   1       4.028  85.201 117.606  0.00  0.00    -0.090 HD
ENDBRANCH   5  18
BRANCH   3  22
ATOM     22  C   LIG d   1       4.929  88.987 113.541  0.00  0.00     0.382 C 
ATOM     23  O   LIG d   1       4.292  90.067 113.581  0.00  0.00    -0.241 OA
ATOM     24  O   LIG d   1       6.050  88.957 112.999  0.00  0.00    -0.241 OA
ENDBRANCH   3  22
TORSDOF 7
ENDMDL
MODEL 6
REMARK VINA RESULT:      -4.9     15.671     17.911
REMARK  7 active torsions:
REMARK  status: ('A' for Active; 'I' for Inactive)
REMARK    1  A    between atoms: C_2  and  C_3 
REMARK    2  A    between atoms: C_3  and  O_6 
REMARK    3  A    between atoms: C_3  and  C_4 
REMARK    4  A    between atoms: C_7  and  O_6 
REMARK    5  A    between atoms: C_9  and  C_10 
REMARK    6  A    between atoms: N_15  and  C_14 
REMARK    7  A    between atoms: N_20  and  C_19 
REMARK       I    between atoms: C_22  and  N_20 
ROOT
ATOM      1  C   LIG d   1     -23.274  83.322 115.702  0.00  0.00     0.161 C 
ATOM      2  C   LIG d   1     -22.861  84.643 115.457  0.00  0.00     0.016 C 
ATOM      3  C   LIG d   1     -23.080  85.312 114.231  0.00  0.00     0.038 C 
ATOM      4  C   LIG d   1     -23.866  84.754 113.212  0.00  0.00     0.028 C 
ATOM      5  C   LIG d   1     -23.875  83.229 113.220  0.00  0.00    -0.047 C 
ATOM      6  C   LIG d   1     -24.230  82.737 114.642  0.00  0.00     0.091 C 
ENDROOT
BRANCH   1   7
ATOM      7  O   LIG d   1     -23.863  83.230 117.014  0.00  0.00    -0.368 OA
BRANCH   7   8
ATOM      8  C   LIG d   1     -23.159  82.402 117.972  0.00  0.00     0.119 C 
BRANCH   8   9
ATOM      9  C   LIG d   1     -23.155  83.153 119.318  0.00  0.00     0.028 C 
ATOM     10  C   LIG d   1     -23.200  84.680 119.138  0.00  0.00     0.006 C 
ENDBRANCH   8   9
BRANCH   8  11
ATOM     11  C   LIG d   1     -21.684  82.242 117.592  0.00  0.00     0.028 C 
ATOM     12  C   LIG d   1     -20.791  81.908 118.798  0.00  0.00     0.006 C 
ENDBRANCH   8  11
ENDBRANCH   7   8
ENDBRANCH   1   7
BRANCH   6  13
ATOM     13  N   LIG d   1     -24.178  81.256 114.759  0.00  0.00    -0.311 N 
ATOM     14  C   LIG d   1     -25.179  80.524 115.244  0.00  0.00     0.210 C 
ATOM     15  C   LIG d   1     -24.911  79.016 115.295  0.00  0.00     0.109 C 
ATOM     16  O   LIG d   1     -26.276  80.976 115.606  0.00  0.00    -0.276 OA
ATOM     17  H   LIG d   1     -23.337  80.804 114.458  0.00  0.00     0.149 HD
ENDBRANCH   6  13
BRANCH   5  18
ATOM     18  N   LIG d   1     -24.840  82.783 112.197  0.00  0.00     0.381 N 
ATOM     19  H   LIG d   1     -24.349  82.445 111.393  0.00  0.00    -0.090 HD
ATOM     20  H   LIG d   1     -25.401  83.568 111.916  0.00  0.00    -0.090 HD
ATOM     21  H   LIG d   1     -25.421  82.064 112.567  0.00  0.00    -0.090 HD
ENDBRANCH   5  18
BRANCH   3  22
ATOM     22  C   LIG d   1     -22.476  86.539 114.000  0.00  0.00     0.382 C 
ATOM     23  O   LIG d   1     -21.406  86.597 113.348  0.00  0.00    -0.241 OA
ATOM     24  O   LIG d   1     -22.964  87.582 114.473  0.00  0.00    -0.241 OA
ENDBRANCH   3  22
TORSDOF 7
ENDMDL
MODEL 7
REMARK VINA RESULT:      -4.8     18.025     20.519
REMARK  7 active torsions:
REMARK  status: ('A' for Active; 'I' for Inactive)
REMARK    1  A    between atoms: C_2  and  C_3 
REMARK    2  A    between atoms: C_3  and  O_6 
REMARK    3  A    between atoms: C_3  and  C_4 
REMARK    4  A    between atoms: C_7  and  O_6 
REMARK    5  A    between atoms: C_9  and  C_10 
REMARK    6  A    between atoms: N_15  and  C_14 
REMARK    7  A    between atoms: N_20  and  C_19 
REMARK       I    between atoms: C_22  and  N_20 
ROOT
ATOM      1  C   LIG d   1     -25.731  85.103 113.619  0.00  0.00     0.161 C 
ATOM      2  C   LIG d   1     -24.699  86.054 113.688  0.00  0.00     0.016 C 
ATOM      3  C   LIG d   1     -23.327  85.713 113.701  0.00  0.00     0.038 C 
ATOM      4  C   LIG d   1     -22.888  84.397 113.492  0.00  0.00     0.028 C 
ATOM      5  C   LIG d   1     -23.903  83.344 113.922  0.00  0.00    -0.047 C 
ATOM      6  C   LIG d   1     -25.270  83.671 113.278  0.00  0.00     0.091 C 
ENDROOT
BRANCH   1   7
ATOM      7  O   LIG d   1     -26.737  85.541 112.684  0.00  0.00    -0.368 OA
BRANCH   7   8
ATOM      8  C   LIG d   1     -27.580  86.636 113.121  0.00  0.00     0.119 C 
BRANCH   8   9
ATOM      9  C   LIG d   1     -29.040  86.245 112.820  0.00  0.00     0.028 C 
ATOM     10  C   LIG d   1     -29.272  84.728 112.913  0.00  0.00     0.006 C 
ENDBRANCH   8   9
BRANCH   8  11
ATOM     11  C   LIG d   1     -27.321  87.901 112.297  0.00  0.00     0.028 C 
ATOM     12  C   LIG d   1     -27.367  89.183 113.143  0.00  0.00     0.006 C 
ENDBRANCH   8  11
ENDBRANCH   7   8
ENDBRANCH   1   7
BRANCH   6  13
ATOM     13  N   LIG d   1     -26.340  82.737 113.715  0.00  0.00    -0.311 N 
ATOM     14  C   LIG d   1     -26.645  81.616 113.065  0.00  0.00     0.210 C 
ATOM     15  C   LIG d   1     -27.795  80.807 113.673  0.00  0.00     0.109 C 
ATOM     16  O   LIG d   1     -26.051  81.197 112.060  0.00  0.00    -0.276 OA
ATOM     17  H   LIG d   1     -26.852  82.984 114.539  0.00  0.00     0.149 HD
ENDBRANCH   6  13
BRANCH   5  18
ATOM     18  N   LIG d   1     -23.375  82.026 113.522  0.00  0.00     0.381 N 
ATOM     19  H   LIG d   1     -23.476  81.377 114.277  0.00  0.00    -0.090 HD
ATOM     20  H   LIG d   1     -22.397  82.118 113.313  0.00  0.00    -0.090 HD
ATOM     21  H   LIG d   1     -23.864  81.693 112.720  0.00  0.00    -0.090 HD
ENDBRANCH   5  18
BRANCH   3  22
ATOM     22  C   LIG d   1     -22.379  86.690 113.965  0.00  0.00     0.382 C 
ATOM     23  O   LIG d   1     -21.312  86.722 113.305  0.00  0.00    -0.241 OA
ATOM     24  O   LIG d   1     -22.557  87.511 114.884  0.00  0.00    -0.241 OA
ENDBRANCH   3  22
TORSDOF 7
ENDMDL
MODEL 8
REMARK VINA RESULT:      -4.6      3.653      4.835
REMARK  7 active torsions:
REMARK  status: ('A' for Active; 'I' for Inactive)
REMARK    1  A    between atoms: C_2  and  C_3 
REMARK    2  A    between atoms: C_3  and  O_6 
REMARK    3  A    between atoms: C_3  and  C_4 
REMARK    4  A    between atoms: C_7  and  O_6 
REMARK    5  A    between atoms: C_9  and  C_10 
REMARK    6  A    between atoms: N_15  and  C_14 
REMARK    7  A    between atoms: N_20  and  C_19 
REMARK       I    between atoms: C_22  and  N_20 
ROOT
ATOM      1  C   LIG d   1      -3.199  75.522 115.870  0.00  0.00     0.161 C 
ATOM      2  C   LIG d   1      -2.344  76.351 115.124  0.00  0.00     0.016 C 
ATOM      3  C   LIG d   1      -2.767  77.089 113.995  0.00  0.00     0.038 C 
ATOM      4  C   LIG d   1      -4.117  77.167 113.623  0.00  0.00     0.028 C 
ATOM      5  C   LIG d   1      -4.932  75.949 114.041  0.00  0.00    -0.047 C 
ATOM      6  C   LIG d   1      -4.699  75.682 115.546  0.00  0.00     0.091 C 
ENDROOT
BRANCH   1   7
ATOM      7  O   LIG d   1      -2.967  75.722 117.279  0.00  0.00    -0.368 OA
BRANCH   7   8
ATOM      8  C   LIG d   1      -2.256  76.931 117.642  0.00  0.00     0.119 C 
BRANCH   8   9
ATOM      9  C   LIG d   1      -1.260  76.565 118.759  0.00  0.00     0.028 C 
ATOM     10  C   LIG d   1       0.142  76.247 118.215  0.00  0.00     0.006 C 
ENDBRANCH   8   9
BRANCH   8  11
ATOM     11  C   LIG d   1      -3.199  77.966 118.263  0.00  0.00     0.028 C 
ATOM     12  C   LIG d   1      -2.450  79.106 118.970  0.00  0.00     0.006 C 
ENDBRANCH   8  11
ENDBRANCH   7   8
ENDBRANCH   1   7
BRANCH   6  13
ATOM     13  N   LIG d   1      -5.394  74.456 116.019  0.00  0.00    -0.311 N 
ATOM     14  C   LIG d   1      -6.672  74.437 116.397  0.00  0.00     0.210 C 
ATOM     15  C   LIG d   1      -7.186  73.074 116.868  0.00  0.00     0.109 C 
ATOM     16  O   LIG d   1      -7.436  75.413 116.355  0.00  0.00    -0.276 OA
ATOM     17  H   LIG d   1      -4.857  73.612 116.054  0.00  0.00     0.149 HD
ENDBRANCH   6  13
BRANCH   5  18
ATOM     18  N   LIG d   1      -6.344  76.223 113.715  0.00  0.00     0.381 N 
ATOM     19  H   LIG d   1      -6.940  75.649 114.277  0.00  0.00    -0.090 HD
ATOM     20  H   LIG d   1      -6.505  75.995 112.749  0.00  0.00    -0.090 HD
ATOM     21  H   LIG d   1      -6.551  77.185 113.875  0.00  0.00    -0.090 HD
ENDBRANCH   5  18
BRANCH   3  22
ATOM     22  C   LIG d   1      -1.826  77.728 113.201  0.00  0.00     0.382 C 
ATOM     23  O   LIG d   1      -1.482  77.220 112.106  0.00  0.00    -0.241 OA
ATOM     24  O   LIG d   1      -1.286  78.782 113.585  0.00  0.00    -0.241 OA
ENDBRANCH   3  22
TORSDOF 7
ENDMDL
MODEL 9
REMARK VINA RESULT:      -4.6     12.308     14.110
REMARK  7 active torsions:
REMARK  status: ('A' for Active; 'I' for Inactive)
REMARK    1  A    between atoms: C_2  and  C_3 
REMARK    2  A    between atoms: C_3  and  O_6 
REMARK    3  A    between atoms: C_3  and  C_4 
REMARK    4  A    between atoms: C_7  and  O_6 
REMARK    5  A    between atoms: C_9  and  C_10 
REMARK    6  A    between atoms: N_15  and  C_14 
REMARK    7  A    between atoms: N_20  and  C_19 
REMARK       I    between atoms: C_22  and  N_20 
ROOT
ATOM      1  C   LIG d   1       1.570  87.050 114.958  0.00  0.00     0.161 C 
ATOM      2  C   LIG d   1       1.261  86.106 113.965  0.00  0.00     0.016 C 
ATOM      3  C   LIG d   1      -0.012  85.503 113.833  0.00  0.00     0.038 C 
ATOM      4  C   LIG d   1      -1.112  85.919 114.598  0.00  0.00     0.028 C 
ATOM      5  C   LIG d   1      -0.722  86.508 115.950  0.00  0.00    -0.047 C 
ATOM      6  C   LIG d   1       0.352  87.598 115.731  0.00  0.00     0.091 C 
ENDROOT
BRANCH   1   7
ATOM      7  O   LIG d   1       2.327  88.134 114.384  0.00  0.00    -0.368 OA
BRANCH   7   8
ATOM      8  C   LIG d   1       3.725  88.202 114.758  0.00  0.00     0.119 C 
BRANCH   8   9
ATOM      9  C   LIG d   1       3.935  89.522 115.526  0.00  0.00     0.028 C 
ATOM     10  C   LIG d   1       5.423  89.875 115.691  0.00  0.00     0.006 C 
ENDBRANCH   8   9
BRANCH   8  11
ATOM     11  C   LIG d   1       4.628  88.304 113.524  0.00  0.00     0.028 C 
ATOM     12  C   LIG d   1       4.407  87.154 112.529  0.00  0.00     0.006 C 
ENDBRANCH   8  11
ENDBRANCH   7   8
ENDBRANCH   1   7
BRANCH   6  13
ATOM     13  N   LIG d   1       0.850  88.168 117.010  0.00  0.00    -0.311 N 
ATOM     14  C   LIG d   1       0.662  89.436 117.371  0.00  0.00     0.210 C 
ATOM     15  C   LIG d   1       1.275  89.822 118.721  0.00  0.00     0.109 C 
ATOM     16  O   LIG d   1       0.018  90.269 116.716  0.00  0.00    -0.276 OA
ATOM     17  H   LIG d   1       1.356  87.553 117.617  0.00  0.00     0.149 HD
ENDBRANCH   6  13
BRANCH   5  18
ATOM     18  N   LIG d   1      -1.951  87.025 116.581  0.00  0.00     0.381 N 
ATOM     19  H   LIG d   1      -2.738  86.843 115.991  0.00  0.00    -0.090 HD
ATOM     20  H   LIG d   1      -1.864  88.020 116.694  0.00  0.00    -0.090 HD
ATOM     21  H   LIG d   1      -2.086  86.593 117.469  0.00  0.00    -0.090 HD
ENDBRANCH   5  18
BRANCH   3  22
ATOM     22  C   LIG d   1      -0.182  84.444 112.955  0.00  0.00     0.382 C 
ATOM     23  O   LIG d   1      -1.291  83.861 112.884  0.00  0.00    -0.241 OA
ATOM     24  O   LIG d   1       0.771  84.035 112.265  0.00  0.00    -0.241 OA
ENDBRANCH   3  22
TORSDOF 7
ENDMDL
