MODEL 1
REMARK VINA RESULT:      -5.9      0.000      0.000
REMARK  7 active torsions:
REMARK  status: ('A' for Active; 'I' for Inactive)
REMARK    1  A    between atoms: C_2  and  C_3 
REMARK    2  A    between atoms: C_3  and  O_6 
REMARK    3  A    between atoms: C_3  and  C_4 
REMARK    4  A    between atoms: C_7  and  O_6 
REMARK    5  A    between atoms: C_9  and  C_10 
REMARK    6  A    between atoms: N_15  and  C_14 
REMARK    7  A    between atoms: N_20  and  C_19 
REMARK       I    between atoms: C_22  and  N_20 
ROOT
ATOM      1  C   LIG d   1      -8.648  74.014 117.885  0.00  0.00     0.161 C 
ATOM      2  C   LIG d   1      -8.299  72.802 117.266  0.00  0.00     0.016 C 
ATOM      3  C   LIG d   1      -9.226  71.768 117.002  0.00  0.00     0.038 C 
ATOM      4  C   LIG d   1     -10.604  71.938 117.204  0.00  0.00     0.028 C 
ATOM      5  C   LIG d   1     -10.936  72.952 118.294  0.00  0.00    -0.047 C 
ATOM      6  C   LIG d   1     -10.165  74.262 118.012  0.00  0.00     0.091 C 
ENDROOT
BRANCH   1   7
ATOM      7  O   LIG d   1      -8.015  75.113 117.200  0.00  0.00    -0.368 OA
BRANCH   7   8
ATOM      8  C   LIG d   1      -6.576  75.030 117.053  0.00  0.00     0.119 C 
BRANCH   8   9
ATOM      9  C   LIG d   1      -5.959  76.153 117.908  0.00  0.00     0.028 C 
ATOM     10  C   LIG d   1      -4.535  76.519 117.457  0.00  0.00     0.006 C 
ENDBRANCH   8   9
BRANCH   8  11
ATOM     11  C   LIG d   1      -6.144  75.330 115.615  0.00  0.00     0.028 C 
ATOM     12  C   LIG d   1      -5.946  74.059 114.774  0.00  0.00     0.006 C 
ENDBRANCH   8  11
ENDBRANCH   7   8
ENDBRANCH   1   7
BRANCH   6  13
ATOM     13  N   LIG d   1     -10.368  75.279 119.076  0.00  0.00    -0.311 N 
ATOM     14  C   LIG d   1     -11.434  76.075 119.137  0.00  0.00     0.210 C 
ATOM     15  C   LIG d   1     -11.436  77.066 120.305  0.00  0.00     0.109 C 
ATOM     16  O   LIG d   1     -12.394  76.031 118.353  0.00  0.00    -0.276 OA
ATOM     17  H   LIG d   1      -9.652  75.361 119.771  0.00  0.00     0.149 HD
ENDBRANCH   6  13
BRANCH   5  18
ATOM     18  N   LIG d   1     -12.400  73.133 118.303  0.00  0.00     0.381 N 
ATOM     19  H   LIG d   1     -12.745  73.045 119.238  0.00  0.00    -0.090 HD
ATOM     20  H   LIG d   1     -12.820  72.413 117.742  0.00  0.00    -0.090 HD
ATOM     21  H   LIG d   1     -12.635  74.029 117.937  0.00  0.00    -0.090 HD
ENDBRANCH   5  18
BRANCH   3  22
ATOM     22  C   LIG d   1      -8.772  70.532 116.567  0.00  0.00     0.382 C 
ATOM     23  O   LIG d   1      -9.393  69.489 116.884  0.00  0.00    -0.241 OA
ATOM     24  O   LIG d   1      -7.724  70.444 115.899  0.00  0.00    -0.241 OA
ENDBRANCH   3  22
TORSDOF 7
ENDMDL
MODEL 2
REMARK VINA RESULT:      -5.6      2.114      4.620
REMARK  7 active torsions:
REMARK  status: ('A' for Active; 'I' for Inactive)
REMARK    1  A    between atoms: C_2  and  C_3 
REMARK    2  A    between atoms: C_3  and  O_6 
REMARK    3  A    between atoms: C_3  and  C_4 
REMARK    4  A    between atoms: C_7  and  O_6 
REMARK    5  A    between atoms: C_9  and  C_10 
REMARK    6  A    between atoms: N_15  and  C_14 
REMARK    7  A    between atoms: N_20  and  C_19 
REMARK       I    between atoms: C_22  and  N_20 
ROOT
ATOM      1  C   LIG d   1      -9.713  73.728 118.355  0.00  0.00     0.161 C 
ATOM      2  C   LIG d   1     -11.078  73.408 118.444  0.00  0.00     0.016 C 
ATOM      3  C   LIG d   1     -12.075  74.346 118.799  0.00  0.00     0.038 C 
ATOM      4  C   LIG d   1     -11.790  75.712 118.942  0.00  0.00     0.028 C 
ATOM      5  C   LIG d   1     -10.349  75.991 119.356  0.00  0.00    -0.047 C 
ATOM      6  C   LIG d   1      -9.397  75.237 118.399  0.00  0.00     0.091 C 
ENDROOT
BRANCH   1   7
ATOM      7  O   LIG d   1      -9.148  73.132 117.170  0.00  0.00    -0.368 OA
BRANCH   7   8
ATOM      8  C   LIG d   1      -8.062  72.197 117.382  0.00  0.00     0.119 C 
BRANCH   8   9
ATOM      9  C   LIG d   1      -7.162  72.243 116.132  0.00  0.00     0.028 C 
ATOM     10  C   LIG d   1      -6.475  73.607 115.952  0.00  0.00     0.006 C 
ENDBRANCH   8   9
BRANCH   8  11
ATOM     11  C   LIG d   1      -8.574  70.756 117.460  0.00  0.00     0.028 C 
ATOM     12  C   LIG d   1      -9.655  70.450 116.412  0.00  0.00     0.006 C 
ENDBRANCH   8  11
ENDBRANCH   7   8
ENDBRANCH   1   7
BRANCH   6  13
ATOM     13  N   LIG d   1      -7.970  75.388 118.785  0.00  0.00    -0.311 N 
ATOM     14  C   LIG d   1      -7.169  76.325 118.280  0.00  0.00     0.210 C 
ATOM     15  C   LIG d   1      -5.728  76.291 118.798  0.00  0.00     0.109 C 
ATOM     16  O   LIG d   1      -7.523  77.200 117.476  0.00  0.00    -0.276 OA
ATOM     17  H   LIG d   1      -7.608  74.738 119.455  0.00  0.00     0.149 HD
ENDBRANCH   6  13
BRANCH   5  18
ATOM     18  N   LIG d   1     -10.153  77.453 119.334  0.00  0.00     0.381 N 
ATOM     19  H   LIG d   1     -10.867  77.881 118.780  0.00  0.00    -0.090 HD
ATOM     20  H   LIG d   1      -9.263  77.655 118.914  0.00  0.00    -0.090 HD
ATOM     21  H   LIG d   1     -10.181  77.814 120.262  0.00  0.00    -0.090 HD
ENDBRANCH   5  18
BRANCH   3  22
ATOM     22  C   LIG d   1     -13.367  73.912 119.053  0.00  0.00     0.382 C 
ATOM     23  O   LIG d   1     -14.299  74.746 119.157  0.00  0.00    -0.241 OA
ATOM     24  O   LIG d   1     -13.605  72.702 119.224  0.00  0.00    -0.241 OA
ENDBRANCH   3  22
TORSDOF 7
ENDMDL
MODEL 3
REMARK VINA RESULT:      -5.4      2.486      5.163
REMARK  7 active torsions:
REMARK  status: ('A' for Active; 'I' for Inactive)
REMARK    1  A    between atoms: C_2  and  C_3 
REMARK    2  A    between atoms: C_3  and  O_6 
REMARK    3  A    between atoms: C_3  and  C_4 
REMARK    4  A    between atoms: C_7  and  O_6 
REMARK    5  A    between atoms: C_9  and  C_10 
REMARK    6  A    between atoms: N_15  and  C_14 
REMARK    7  A    between atoms: N_20  and  C_19 
REMARK       I    between atoms: C_22  and  N_20 
ROOT
ATOM      1  C   LIG d   1      -7.670  75.236 116.907  0.00  0.00     0.161 C 
ATOM      2  C   LIG d   1      -6.636  74.888 116.022  0.00  0.00     0.016 C 
ATOM      3  C   LIG d   1      -5.615  75.782 115.628  0.00  0.00     0.038 C 
ATOM      4  C   LIG d   1      -5.472  77.049 116.215  0.00  0.00     0.028 C 
ATOM      5  C   LIG d   1      -6.783  77.626 116.737  0.00  0.00    -0.047 C 
ATOM      6  C   LIG d   1      -7.468  76.577 117.643  0.00  0.00     0.091 C 
ENDROOT
BRANCH   1   7
ATOM      7  O   LIG d   1      -7.881  74.171 117.855  0.00  0.00    -0.368 OA
BRANCH   7   8
ATOM      8  C   LIG d   1      -8.901  73.202 117.509  0.00  0.00     0.119 C 
BRANCH   8   9
ATOM      9  C   LIG d   1     -10.033  73.330 118.547  0.00  0.00     0.028 C 
ATOM     10  C   LIG d   1     -11.368  72.767 118.032  0.00  0.00     0.006 C 
ENDBRANCH   8   9
BRANCH   8  11
ATOM     11  C   LIG d   1      -8.379  71.769 117.653  0.00  0.00     0.028 C 
ATOM     12  C   LIG d   1      -8.127  71.088 116.299  0.00  0.00     0.006 C 
ENDBRANCH   8  11
ENDBRANCH   7   8
ENDBRANCH   1   7
BRANCH   6  13
ATOM     13  N   LIG d   1      -8.797  77.029 118.128  0.00  0.00    -0.311 N 
ATOM     14  C   LIG d   1      -9.206  76.886 119.388  0.00  0.00     0.210 C 
ATOM     15  C   LIG d   1     -10.620  77.403 119.672  0.00  0.00     0.109 C 
ATOM     16  O   LIG d   1      -8.519  76.409 120.304  0.00  0.00    -0.276 OA
ATOM     17  H   LIG d   1      -9.407  77.456 117.458  0.00  0.00     0.149 HD
ENDBRANCH   6  13
BRANCH   5  18
ATOM     18  N   LIG d   1      -6.467  78.882 117.443  0.00  0.00     0.381 N 
ATOM     19  H   LIG d   1      -5.583  78.797 117.906  0.00  0.00    -0.090 HD
ATOM     20  H   LIG d   1      -7.172  79.050 118.139  0.00  0.00    -0.090 HD
ATOM     21  H   LIG d   1      -6.440  79.639 116.797  0.00  0.00    -0.090 HD
ENDBRANCH   5  18
BRANCH   3  22
ATOM     22  C   LIG d   1      -4.746  75.427 114.608  0.00  0.00     0.382 C 
ATOM     23  O   LIG d   1      -4.630  74.223 114.274  0.00  0.00    -0.241 OA
ATOM     24  O   LIG d   1      -4.044  76.289 114.047  0.00  0.00    -0.241 OA
ENDBRANCH   3  22
TORSDOF 7
ENDMDL
MODEL 4
REMARK VINA RESULT:      -5.4      2.346      5.024
REMARK  7 active torsions:
REMARK  status: ('A' for Active; 'I' for Inactive)
REMARK    1  A    between atoms: C_2  and  C_3 
REMARK    2  A    between atoms: C_3  and  O_6 
REMARK    3  A    between atoms: C_3  and  C_4 
REMARK    4  A    between atoms: C_7  and  O_6 
REMARK    5  A    between atoms: C_9  and  C_10 
REMARK    6  A    between atoms: N_15  and  C_14 
REMARK    7  A    between atoms: N_20  and  C_19 
REMARK       I    between atoms: C_22  and  N_20 
ROOT
ATOM      1  C   LIG d   1      -8.300  75.419 117.142  0.00  0.00     0.161 C 
ATOM      2  C   LIG d   1      -7.476  76.550 117.018  0.00  0.00     0.016 C 
ATOM      3  C   LIG d   1      -7.739  77.779 117.666  0.00  0.00     0.038 C 
ATOM      4  C   LIG d   1      -8.769  77.915 118.609  0.00  0.00     0.028 C 
ATOM      5  C   LIG d   1      -9.927  76.948 118.384  0.00  0.00    -0.047 C 
ATOM      6  C   LIG d   1      -9.366  75.514 118.254  0.00  0.00     0.091 C 
ENDROOT
BRANCH   1   7
ATOM      7  O   LIG d   1      -7.489  74.242 117.325  0.00  0.00    -0.368 OA
BRANCH   7   8
ATOM      8  C   LIG d   1      -6.880  73.695 116.129  0.00  0.00     0.119 C 
BRANCH   8   9
ATOM      9  C   LIG d   1      -7.148  72.177 116.126  0.00  0.00     0.028 C 
ATOM     10  C   LIG d   1      -8.246  71.773 117.125  0.00  0.00     0.006 C 
ENDBRANCH   8   9
BRANCH   8  11
ATOM     11  C   LIG d   1      -5.356  73.837 116.164  0.00  0.00     0.028 C 
ATOM     12  C   LIG d   1      -4.805  74.645 114.978  0.00  0.00     0.006 C 
ENDBRANCH   8  11
ENDBRANCH   7   8
ENDBRANCH   1   7
BRANCH   6  13
ATOM     13  N   LIG d   1     -10.424  74.517 117.948  0.00  0.00    -0.311 N 
ATOM     14  C   LIG d   1     -11.033  73.785 118.880  0.00  0.00     0.210 C 
ATOM     15  C   LIG d   1     -12.081  72.802 118.348  0.00  0.00     0.109 C 
ATOM     16  O   LIG d   1     -10.829  73.880 120.099  0.00  0.00    -0.276 OA
ATOM     17  H   LIG d   1     -10.675  74.398 116.986  0.00  0.00     0.149 HD
ENDBRANCH   6  13
BRANCH   5  18
ATOM     18  N   LIG d   1     -10.862  77.103 119.515  0.00  0.00     0.381 N 
ATOM     19  H   LIG d   1     -11.096  76.204 119.886  0.00  0.00    -0.090 HD
ATOM     20  H   LIG d   1     -11.706  77.536 119.182  0.00  0.00    -0.090 HD
ATOM     21  H   LIG d   1     -10.449  77.666 120.224  0.00  0.00    -0.090 HD
ENDBRANCH   5  18
BRANCH   3  22
ATOM     22  C   LIG d   1      -6.991  78.901 117.342  0.00  0.00     0.382 C 
ATOM     23  O   LIG d   1      -7.171  79.976 117.963  0.00  0.00    -0.241 OA
ATOM     24  O   LIG d   1      -6.170  78.864 116.406  0.00  0.00    -0.241 OA
ENDBRANCH   3  22
TORSDOF 7
ENDMDL
MODEL 5
REMARK VINA RESULT:      -5.4      2.835      4.896
REMARK  7 active torsions:
REMARK  status: ('A' for Active; 'I' for Inactive)
REMARK    1  A    between atoms: C_2  and  C_3 
REMARK    2  A    between atoms: C_3  and  O_6 
REMARK    3  A    between atoms: C_3  and  C_4 
REMARK    4  A    between atoms: C_7  and  O_6 
REMARK    5  A    between atoms: C_9  and  C_10 
REMARK    6  A    between atoms: N_15  and  C_14 
REMARK    7  A    between atoms: N_20  and  C_19 
REMARK       I    between atoms: C_22  and  N_20 
ROOT
ATOM      1  C   LIG d   1      -7.249  75.917 117.182  0.00  0.00     0.161 C 
ATOM      2  C   LIG d   1      -6.280  76.211 116.208  0.00  0.00     0.016 C 
ATOM      3  C   LIG d   1      -5.705  75.234 115.363  0.00  0.00     0.038 C 
ATOM      4  C   LIG d   1      -6.173  73.912 115.333  0.00  0.00     0.028 C 
ATOM      5  C   LIG d   1      -6.797  73.460 116.648  0.00  0.00    -0.047 C 
ATOM      6  C   LIG d   1      -7.853  74.500 117.087  0.00  0.00     0.091 C 
ENDROOT
BRANCH   1   7
ATOM      7  O   LIG d   1      -8.293  76.910 117.147  0.00  0.00    -0.368 OA
BRANCH   7   8
ATOM      8  C   LIG d   1      -8.271  77.896 118.208  0.00  0.00     0.119 C 
BRANCH   8   9
ATOM      9  C   LIG d   1      -9.686  77.954 118.816  0.00  0.00     0.028 C 
ATOM     10  C   LIG d   1      -9.703  77.566 120.304  0.00  0.00     0.006 C 
ENDBRANCH   8   9
BRANCH   8  11
ATOM     11  C   LIG d   1      -8.008  79.301 117.659  0.00  0.00     0.028 C 
ATOM     12  C   LIG d   1      -9.249  80.206 117.718  0.00  0.00     0.006 C 
ENDBRANCH   8  11
ENDBRANCH   7   8
ENDBRANCH   1   7
BRANCH   6  13
ATOM     13  N   LIG d   1      -8.452  74.177 118.408  0.00  0.00    -0.311 N 
ATOM     14  C   LIG d   1      -9.761  74.217 118.649  0.00  0.00     0.210 C 
ATOM     15  C   LIG d   1     -10.166  73.868 120.084  0.00  0.00     0.109 C 
ATOM     16  O   LIG d   1     -10.628  74.478 117.801  0.00  0.00    -0.276 OA
ATOM     17  H   LIG d   1      -7.823  73.925 119.145  0.00  0.00     0.149 HD
ENDBRANCH   6  13
BRANCH   5  18
ATOM     18  N   LIG d   1      -7.365  72.115 116.433  0.00  0.00     0.381 N 
ATOM     19  H   LIG d   1      -7.721  71.756 117.296  0.00  0.00    -0.090 HD
ATOM     20  H   LIG d   1      -6.637  71.502 116.113  0.00  0.00    -0.090 HD
ATOM     21  H   LIG d   1      -8.095  72.158 115.757  0.00  0.00    -0.090 HD
ENDBRANCH   5  18
BRANCH   3  22
ATOM     22  C   LIG d   1      -4.621  75.568 114.565  0.00  0.00     0.382 C 
ATOM     23  O   LIG d   1      -4.773  76.351 113.597  0.00  0.00    -0.241 OA
ATOM     24  O   LIG d   1      -3.503  75.061 114.774  0.00  0.00    -0.241 OA
ENDBRANCH   3  22
TORSDOF 7
ENDMDL
MODEL 6
REMARK VINA RESULT:      -5.1     18.245     21.132
REMARK  7 active torsions:
REMARK  status: ('A' for Active; 'I' for Inactive)
REMARK    1  A    between atoms: C_2  and  C_3 
REMARK    2  A    between atoms: C_3  and  O_6 
REMARK    3  A    between atoms: C_3  and  C_4 
REMARK    4  A    between atoms: C_7  and  O_6 
REMARK    5  A    between atoms: C_9  and  C_10 
REMARK    6  A    between atoms: N_15  and  C_14 
REMARK    7  A    between atoms: N_20  and  C_19 
REMARK       I    between atoms: C_22  and  N_20 
ROOT
ATOM      1  C   LIG d   1       3.724  89.174 115.635  0.00  0.00     0.161 C 
ATOM      2  C   LIG d   1       4.532  89.907 116.519  0.00  0.00     0.016 C 
ATOM      3  C   LIG d   1       5.846  90.326 116.207  0.00  0.00     0.038 C 
ATOM      4  C   LIG d   1       6.389  90.169 114.923  0.00  0.00     0.028 C 
ATOM      5  C   LIG d   1       5.800  88.990 114.157  0.00  0.00    -0.047 C 
ATOM      6  C   LIG d   1       4.258  89.090 114.190  0.00  0.00     0.091 C 
ENDROOT
BRANCH   1   7
ATOM      7  O   LIG d   1       2.384  89.705 115.644  0.00  0.00    -0.368 OA
BRANCH   7   8
ATOM      8  C   LIG d   1       1.774  89.874 116.947  0.00  0.00     0.119 C 
BRANCH   8   9
ATOM      9  C   LIG d   1       0.978  88.592 117.256  0.00  0.00     0.028 C 
ATOM     10  C   LIG d   1      -0.477  88.887 117.659  0.00  0.00     0.006 C 
ENDBRANCH   8   9
BRANCH   8  11
ATOM     11  C   LIG d   1       0.738  91.002 116.935  0.00  0.00     0.028 C 
ATOM     12  C   LIG d   1       1.290  92.325 117.490  0.00  0.00     0.006 C 
ENDBRANCH   8  11
ENDBRANCH   7   8
ENDBRANCH   1   7
BRANCH   6  13
ATOM     13  N   LIG d   1       3.601  87.929 113.534  0.00  0.00    -0.311 N 
ATOM     14  C   LIG d   1       2.676  88.051 112.583  0.00  0.00     0.210 C 
ATOM     15  C   LIG d   1       2.112  86.728 112.056  0.00  0.00     0.109 C 
ATOM     16  O   LIG d   1       2.292  89.128 112.104  0.00  0.00    -0.276 OA
ATOM     17  H   LIG d   1       3.875  87.016 113.841  0.00  0.00     0.149 HD
ENDBRANCH   6  13
BRANCH   5  18
ATOM     18  N   LIG d   1       6.353  89.026 112.790  0.00  0.00     0.381 N 
ATOM     19  H   LIG d   1       7.063  89.729 112.730  0.00  0.00    -0.090 HD
ATOM     20  H   LIG d   1       5.618  89.265 112.148  0.00  0.00    -0.090 HD
ATOM     21  H   LIG d   1       6.735  88.137 112.552  0.00  0.00    -0.090 HD
ENDBRANCH   5  18
BRANCH   3  22
ATOM     22  C   LIG d   1       6.646  90.874 117.198  0.00  0.00     0.382 C 
ATOM     23  O   LIG d   1       6.166  91.711 118.000  0.00  0.00    -0.241 OA
ATOM     24  O   LIG d   1       7.853  90.576 117.273  0.00  0.00    -0.241 OA
ENDBRANCH   3  22
TORSDOF 7
ENDMDL
MODEL 7
REMARK VINA RESULT:      -4.9      2.827      5.530
REMARK  7 active torsions:
REMARK  status: ('A' for Active; 'I' for Inactive)
REMARK    1  A    between atoms: C_2  and  C_3 
REMARK    2  A    between atoms: C_3  and  O_6 
REMARK    3  A    between atoms: C_3  and  C_4 
REMARK    4  A    between atoms: C_7  and  O_6 
REMARK    5  A    between atoms: C_9  and  C_10 
REMARK    6  A    between atoms: N_15  and  C_14 
REMARK    7  A    between atoms: N_20  and  C_19 
REMARK       I    between atoms: C_22  and  N_20 
ROOT
ATOM      1  C   LIG d   1      -7.593  76.558 117.308  0.00  0.00     0.161 C 
ATOM      2  C   LIG d   1      -7.316  77.933 117.383  0.00  0.00     0.016 C 
ATOM      3  C   LIG d   1      -8.130  78.854 118.082  0.00  0.00     0.038 C 
ATOM      4  C   LIG d   1      -9.202  78.435 118.885  0.00  0.00     0.028 C 
ATOM      5  C   LIG d   1      -9.819  77.116 118.432  0.00  0.00    -0.047 C 
ATOM      6  C   LIG d   1      -8.696  76.067 118.269  0.00  0.00     0.091 C 
ENDROOT
BRANCH   1   7
ATOM      7  O   LIG d   1      -6.381  75.804 117.508  0.00  0.00    -0.368 OA
BRANCH   7   8
ATOM      8  C   LIG d   1      -5.800  75.205 116.324  0.00  0.00     0.119 C 
BRANCH   8   9
ATOM      9  C   LIG d   1      -6.843  75.306 115.194  0.00  0.00     0.028 C 
ATOM     10  C   LIG d   1      -6.251  75.883 113.898  0.00  0.00     0.006 C 
ENDBRANCH   8   9
BRANCH   8  11
ATOM     11  C   LIG d   1      -5.557  73.706 116.519  0.00  0.00     0.028 C 
ATOM     12  C   LIG d   1      -6.683  72.839 115.934  0.00  0.00     0.006 C 
ENDBRANCH   8  11
ENDBRANCH   7   8
ENDBRANCH   1   7
BRANCH   6  13
ATOM     13  N   LIG d   1      -9.203  74.771 117.748  0.00  0.00    -0.311 N 
ATOM     14  C   LIG d   1      -9.556  73.753 118.531  0.00  0.00     0.210 C 
ATOM     15  C   LIG d   1     -10.033  72.501 117.788  0.00  0.00     0.109 C 
ATOM     16  O   LIG d   1      -9.551  73.780 119.771  0.00  0.00    -0.276 OA
ATOM     17  H   LIG d   1      -9.269  74.674 116.753  0.00  0.00     0.149 HD
ENDBRANCH   6  13
BRANCH   5  18
ATOM     18  N   LIG d   1     -10.830  76.730 119.434  0.00  0.00     0.381 N 
ATOM     19  H   LIG d   1     -10.675  75.786 119.725  0.00  0.00    -0.090 HD
ATOM     20  H   LIG d   1     -11.742  76.785 119.014  0.00  0.00    -0.090 HD
ATOM     21  H   LIG d   1     -10.782  77.340 120.220  0.00  0.00    -0.090 HD
ENDBRANCH   5  18
BRANCH   3  22
ATOM     22  C   LIG d   1      -7.899  80.214 117.950  0.00  0.00     0.382 C 
ATOM     23  O   LIG d   1      -7.371  80.855 118.890  0.00  0.00    -0.241 OA
ATOM     24  O   LIG d   1      -8.251  80.818 116.918  0.00  0.00    -0.241 OA
ENDBRANCH   3  22
TORSDOF 7
ENDMDL
MODEL 8
REMARK VINA RESULT:      -4.8      2.242      4.910
REMARK  7 active torsions:
REMARK  status: ('A' for Active; 'I' for Inactive)
REMARK    1  A    between atoms: C_2  and  C_3 
REMARK    2  A    between atoms: C_3  and  O_6 
REMARK    3  A    between atoms: C_3  and  C_4 
REMARK    4  A    between atoms: C_7  and  O_6 
REMARK    5  A    between atoms: C_9  and  C_10 
REMARK    6  A    between atoms: N_15  and  C_14 
REMARK    7  A    between atoms: N_20  and  C_19 
REMARK       I    between atoms: C_22  and  N_20 
ROOT
ATOM      1  C   LIG d   1      -7.990  75.119 117.171  0.00  0.00     0.161 C 
ATOM      2  C   LIG d   1      -7.999  76.493 117.465  0.00  0.00     0.016 C 
ATOM      3  C   LIG d   1      -9.090  77.149 118.080  0.00  0.00     0.038 C 
ATOM      4  C   LIG d   1     -10.193  76.443 118.582  0.00  0.00     0.028 C 
ATOM      5  C   LIG d   1     -10.451  75.127 117.857  0.00  0.00    -0.047 C 
ATOM      6  C   LIG d   1      -9.138  74.312 117.812  0.00  0.00     0.091 C 
ENDROOT
BRANCH   1   7
ATOM      7  O   LIG d   1      -6.715  74.551 117.532  0.00  0.00    -0.368 OA
BRANCH   7   8
ATOM      8  C   LIG d   1      -5.875  74.121 116.433  0.00  0.00     0.119 C 
BRANCH   8   9
ATOM      9  C   LIG d   1      -4.592  74.974 116.470  0.00  0.00     0.028 C 
ATOM     10  C   LIG d   1      -3.349  74.149 116.842  0.00  0.00     0.006 C 
ENDBRANCH   8   9
BRANCH   8  11
ATOM     11  C   LIG d   1      -6.526  74.425 115.081  0.00  0.00     0.028 C 
ATOM     12  C   LIG d   1      -5.771  75.501 114.284  0.00  0.00     0.006 C 
ENDBRANCH   8  11
ENDBRANCH   7   8
ENDBRANCH   1   7
BRANCH   6  13
ATOM     13  N   LIG d   1      -9.282  73.047 117.046  0.00  0.00    -0.311 N 
ATOM     14  C   LIG d   1      -8.841  71.870 117.486  0.00  0.00     0.210 C 
ATOM     15  C   LIG d   1      -9.072  70.695 116.530  0.00  0.00     0.109 C 
ATOM     16  O   LIG d   1      -8.309  71.681 118.590  0.00  0.00    -0.276 OA
ATOM     17  H   LIG d   1      -9.730  73.103 116.152  0.00  0.00     0.149 HD
ENDBRANCH   6  13
BRANCH   5  18
ATOM     18  N   LIG d   1     -11.539  74.431 118.570  0.00  0.00     0.381 N 
ATOM     19  H   LIG d   1     -12.409  74.894 118.395  0.00  0.00    -0.090 HD
ATOM     20  H   LIG d   1     -11.355  74.466 119.557  0.00  0.00    -0.090 HD
ATOM     21  H   LIG d   1     -11.593  73.483 118.268  0.00  0.00    -0.090 HD
ENDBRANCH   5  18
BRANCH   3  22
ATOM     22  C   LIG d   1      -9.102  78.534 118.160  0.00  0.00     0.382 C 
ATOM     23  O   LIG d   1      -8.021  79.171 118.152  0.00  0.00    -0.241 OA
ATOM     24  O   LIG d   1     -10.177  79.150 118.287  0.00  0.00    -0.241 OA
ENDBRANCH   3  22
TORSDOF 7
ENDMDL
MODEL 9
REMARK VINA RESULT:      -4.7     17.137     20.453
REMARK  7 active torsions:
REMARK  status: ('A' for Active; 'I' for Inactive)
REMARK    1  A    between atoms: C_2  and  C_3 
REMARK    2  A    between atoms: C_3  and  O_6 
REMARK    3  A    between atoms: C_3  and  C_4 
REMARK    4  A    between atoms: C_7  and  O_6 
REMARK    5  A    between atoms: C_9  and  C_10 
REMARK    6  A    between atoms: N_15  and  C_14 
REMARK    7  A    between atoms: N_20  and  C_19 
REMARK       I    between atoms: C_22  and  N_20 
ROOT
ATOM      1  C   LIG d   1      -0.436  91.644 117.956  0.00  0.00     0.161 C 
ATOM      2  C   LIG d   1       0.897  91.980 118.246  0.00  0.00     0.016 C 
ATOM      3  C   LIG d   1       1.353  93.312 118.378  0.00  0.00     0.038 C 
ATOM      4  C   LIG d   1       0.469  94.401 118.377  0.00  0.00     0.028 C 
ATOM      5  C   LIG d   1      -0.809  94.144 117.585  0.00  0.00    -0.047 C 
ATOM      6  C   LIG d   1      -1.436  92.814 118.062  0.00  0.00     0.091 C 
ENDROOT
BRANCH   1   7
ATOM      7  O   LIG d   1      -0.856  90.548 118.792  0.00  0.00    -0.368 OA
BRANCH   7   8
ATOM      8  C   LIG d   1      -1.371  89.382 118.103  0.00  0.00     0.119 C 
BRANCH   8   9
ATOM      9  C   LIG d   1      -2.635  88.921 118.855  0.00  0.00     0.028 C 
ATOM     10  C   LIG d   1      -3.087  89.934 119.920  0.00  0.00     0.006 C 
ENDBRANCH   8   9
BRANCH   8  11
ATOM     11  C   LIG d   1      -0.395  88.205 118.193  0.00  0.00     0.028 C 
ATOM     12  C   LIG d   1      -0.865  87.113 119.166  0.00  0.00     0.006 C 
ENDBRANCH   8  11
ENDBRANCH   7   8
ENDBRANCH   1   7
BRANCH   6  13
ATOM     13  N   LIG d   1      -2.644  92.445 117.280  0.00  0.00    -0.311 N 
ATOM     14  C   LIG d   1      -3.883  92.764 117.651  0.00  0.00     0.210 C 
ATOM     15  C   LIG d   1      -4.987  92.269 116.711  0.00  0.00     0.109 C 
ATOM     16  O   LIG d   1      -4.170  93.438 118.652  0.00  0.00    -0.276 OA
ATOM     17  H   LIG d   1      -2.501  91.924 116.437  0.00  0.00     0.149 HD
ENDBRANCH   6  13
BRANCH   5  18
ATOM     18  N   LIG d   1      -1.697  95.305 117.783  0.00  0.00     0.381 N 
ATOM     19  H   LIG d   1      -1.644  95.911 116.988  0.00  0.00    -0.090 HD
ATOM     20  H   LIG d   1      -1.388  95.817 118.590  0.00  0.00    -0.090 HD
ATOM     21  H   LIG d   1      -2.635  94.998 117.914  0.00  0.00    -0.090 HD
ENDBRANCH   5  18
BRANCH   3  22
ATOM     22  C   LIG d   1       2.712  93.567 118.472  0.00  0.00     0.382 C 
ATOM     23  O   LIG d   1       3.455  93.386 117.478  0.00  0.00    -0.241 OA
ATOM     24  O   LIG d   1       3.213  93.934 119.553  0.00  0.00    -0.241 OA
ENDBRANCH   3  22
TORSDOF 7
ENDMDL
