MODEL 1
REMARK VINA RESULT:      -6.3      0.000      0.000
REMARK  7 active torsions:
REMARK  status: ('A' for Active; 'I' for Inactive)
REMARK    1  A    between atoms: C_2  and  C_3 
REMARK    2  A    between atoms: C_3  and  O_6 
REMARK    3  A    between atoms: C_3  and  C_4 
REMARK    4  A    between atoms: C_7  and  O_6 
REMARK    5  A    between atoms: C_9  and  C_10 
REMARK    6  A    between atoms: N_15  and  C_14 
REMARK    7  A    between atoms: N_20  and  C_19 
REMARK       I    between atoms: C_22  and  N_20 
ROOT
ATOM      1  C   LIG d   1      -7.370  76.795 117.713  0.00  0.00     0.161 C 
ATOM      2  C   LIG d   1      -8.536  77.522 118.005  0.00  0.00     0.016 C 
ATOM      3  C   LIG d   1      -8.550  78.921 118.208  0.00  0.00     0.038 C 
ATOM      4  C   LIG d   1      -7.415  79.715 117.983  0.00  0.00     0.028 C 
ATOM      5  C   LIG d   1      -6.102  78.965 118.179  0.00  0.00    -0.047 C 
ATOM      6  C   LIG d   1      -6.142  77.659 117.353  0.00  0.00     0.091 C 
ENDROOT
BRANCH   1   7
ATOM      7  O   LIG d   1      -7.637  75.844 116.664  0.00  0.00    -0.368 OA
BRANCH   7   8
ATOM      8  C   LIG d   1      -7.952  74.496 117.091  0.00  0.00     0.119 C 
BRANCH   8   9
ATOM      9  C   LIG d   1      -7.047  73.534 116.297  0.00  0.00     0.028 C 
ATOM     10  C   LIG d   1      -6.114  74.276 115.324  0.00  0.00     0.006 C 
ENDBRANCH   8   9
BRANCH   8  11
ATOM     11  C   LIG d   1      -9.385  74.111 116.711  0.00  0.00     0.028 C 
ATOM     12  C   LIG d   1      -9.590  72.590 116.620  0.00  0.00     0.006 C 
ENDBRANCH   8  11
ENDBRANCH   7   8
ENDBRANCH   1   7
BRANCH   6  13
ATOM     13  N   LIG d   1      -4.930  76.823 117.555  0.00  0.00    -0.311 N 
ATOM     14  C   LIG d   1      -3.866  76.870 116.755  0.00  0.00     0.210 C 
ATOM     15  C   LIG d   1      -2.732  75.911 117.131  0.00  0.00     0.109 C 
ATOM     16  O   LIG d   1      -3.740  77.638 115.790  0.00  0.00    -0.276 OA
ATOM     17  H   LIG d   1      -4.934  76.194 118.334  0.00  0.00     0.149 HD
ENDBRANCH   6  13
BRANCH   5  18
ATOM     18  N   LIG d   1      -5.008  79.869 117.779  0.00  0.00     0.381 N 
ATOM     19  H   LIG d   1      -4.176  79.339 117.608  0.00  0.00    -0.090 HD
ATOM     20  H   LIG d   1      -4.825  80.510 118.531  0.00  0.00    -0.090 HD
ATOM     21  H   LIG d   1      -5.264  80.372 116.959  0.00  0.00    -0.090 HD
ENDBRANCH   5  18
BRANCH   3  22
ATOM     22  C   LIG d   1      -9.700  79.535 118.681  0.00  0.00     0.382 C 
ATOM     23  O   LIG d   1     -10.207  79.165 119.767  0.00  0.00    -0.241 OA
ATOM     24  O   LIG d   1     -10.261  80.424 118.013  0.00  0.00    -0.241 OA
ENDBRANCH   3  22
TORSDOF 7
ENDMDL
MODEL 2
REMARK VINA RESULT:      -5.9      2.083      5.285
REMARK  7 active torsions:
REMARK  status: ('A' for Active; 'I' for Inactive)
REMARK    1  A    between atoms: C_2  and  C_3 
REMARK    2  A    between atoms: C_3  and  O_6 
REMARK    3  A    between atoms: C_3  and  C_4 
REMARK    4  A    between atoms: C_7  and  O_6 
REMARK    5  A    between atoms: C_9  and  C_10 
REMARK    6  A    between atoms: N_15  and  C_14 
REMARK    7  A    between atoms: N_20  and  C_19 
REMARK       I    between atoms: C_22  and  N_20 
ROOT
ATOM      1  C   LIG d   1      -5.559  75.801 116.518  0.00  0.00     0.161 C 
ATOM      2  C   LIG d   1      -6.212  74.611 116.159  0.00  0.00     0.016 C 
ATOM      3  C   LIG d   1      -7.574  74.355 116.441  0.00  0.00     0.038 C 
ATOM      4  C   LIG d   1      -8.419  75.341 116.971  0.00  0.00     0.028 C 
ATOM      5  C   LIG d   1      -7.685  76.380 117.812  0.00  0.00    -0.047 C 
ATOM      6  C   LIG d   1      -6.493  76.932 116.998  0.00  0.00     0.091 C 
ENDROOT
BRANCH   1   7
ATOM      7  O   LIG d   1      -4.740  76.259 115.424  0.00  0.00    -0.368 OA
BRANCH   7   8
ATOM      8  C   LIG d   1      -3.342  75.880 115.472  0.00  0.00     0.119 C 
BRANCH   8   9
ATOM      9  C   LIG d   1      -2.972  75.666 116.953  0.00  0.00     0.028 C 
ATOM     10  C   LIG d   1      -1.591  75.011 117.123  0.00  0.00     0.006 C 
ENDBRANCH   8   9
BRANCH   8  11
ATOM     11  C   LIG d   1      -2.439  77.018 114.989  0.00  0.00     0.028 C 
ATOM     12  C   LIG d   1      -2.676  78.332 115.751  0.00  0.00     0.006 C 
ENDBRANCH   8  11
ENDBRANCH   7   8
ENDBRANCH   1   7
BRANCH   6  13
ATOM     13  N   LIG d   1      -5.671  77.894 117.778  0.00  0.00    -0.311 N 
ATOM     14  C   LIG d   1      -5.924  79.200 117.832  0.00  0.00     0.210 C 
ATOM     15  C   LIG d   1      -4.941  80.015 118.678  0.00  0.00     0.109 C 
ATOM     16  O   LIG d   1      -6.888  79.756 117.285  0.00  0.00    -0.276 OA
ATOM     17  H   LIG d   1      -4.886  77.523 118.278  0.00  0.00     0.149 HD
ENDBRANCH   6  13
BRANCH   5  18
ATOM     18  N   LIG d   1      -8.661  77.420 118.187  0.00  0.00     0.381 N 
ATOM     19  H   LIG d   1      -8.180  78.228 118.529  0.00  0.00    -0.090 HD
ATOM     20  H   LIG d   1      -9.247  77.067 118.922  0.00  0.00    -0.090 HD
ATOM     21  H   LIG d   1      -9.217  77.666 117.398  0.00  0.00    -0.090 HD
ENDBRANCH   5  18
BRANCH   3  22
ATOM     22  C   LIG d   1      -8.093  73.087 116.228  0.00  0.00     0.382 C 
ATOM     23  O   LIG d   1      -7.357  72.175 115.781  0.00  0.00    -0.241 OA
ATOM     24  O   LIG d   1      -9.299  72.855 116.436  0.00  0.00    -0.241 OA
ENDBRANCH   3  22
TORSDOF 7
ENDMDL
MODEL 3
REMARK VINA RESULT:      -5.9      1.662      4.942
REMARK  7 active torsions:
REMARK  status: ('A' for Active; 'I' for Inactive)
REMARK    1  A    between atoms: C_2  and  C_3 
REMARK    2  A    between atoms: C_3  and  O_6 
REMARK    3  A    between atoms: C_3  and  C_4 
REMARK    4  A    between atoms: C_7  and  O_6 
REMARK    5  A    between atoms: C_9  and  C_10 
REMARK    6  A    between atoms: N_15  and  C_14 
REMARK    7  A    between atoms: N_20  and  C_19 
REMARK       I    between atoms: C_22  and  N_20 
ROOT
ATOM      1  C   LIG d   1      -6.493  76.167 116.738  0.00  0.00     0.161 C 
ATOM      2  C   LIG d   1      -5.230  75.778 116.264  0.00  0.00     0.016 C 
ATOM      3  C   LIG d   1      -4.039  76.482 116.554  0.00  0.00     0.038 C 
ATOM      4  C   LIG d   1      -4.010  77.545 117.469  0.00  0.00     0.028 C 
ATOM      5  C   LIG d   1      -5.338  78.286 117.578  0.00  0.00    -0.047 C 
ATOM      6  C   LIG d   1      -6.467  77.259 117.828  0.00  0.00     0.091 C 
ENDROOT
BRANCH   1   7
ATOM      7  O   LIG d   1      -7.217  75.012 117.204  0.00  0.00    -0.368 OA
BRANCH   7   8
ATOM      8  C   LIG d   1      -7.829  74.187 116.182  0.00  0.00     0.119 C 
BRANCH   8   9
ATOM      9  C   LIG d   1      -9.275  73.895 116.626  0.00  0.00     0.028 C 
ATOM     10  C   LIG d   1     -10.040  75.173 117.011  0.00  0.00     0.006 C 
ENDBRANCH   8   9
BRANCH   8  11
ATOM     11  C   LIG d   1      -7.149  72.818 116.090  0.00  0.00     0.028 C 
ATOM     12  C   LIG d   1      -7.866  71.740 116.919  0.00  0.00     0.006 C 
ENDBRANCH   8  11
ENDBRANCH   7   8
ENDBRANCH   1   7
BRANCH   6  13
ATOM     13  N   LIG d   1      -7.811  77.892 117.864  0.00  0.00    -0.311 N 
ATOM     14  C   LIG d   1      -8.397  78.305 118.986  0.00  0.00     0.210 C 
ATOM     15  C   LIG d   1      -9.792  78.911 118.802  0.00  0.00     0.109 C 
ATOM     16  O   LIG d   1      -7.881  78.257 120.113  0.00  0.00    -0.276 OA
ATOM     17  H   LIG d   1      -8.288  77.999 116.990  0.00  0.00     0.149 HD
ENDBRANCH   6  13
BRANCH   5  18
ATOM     18  N   LIG d   1      -5.208  79.277 118.663  0.00  0.00     0.381 N 
ATOM     19  H   LIG d   1      -4.250  79.349 118.943  0.00  0.00    -0.090 HD
ATOM     20  H   LIG d   1      -5.744  78.966 119.454  0.00  0.00    -0.090 HD
ATOM     21  H   LIG d   1      -5.540  80.165 118.356  0.00  0.00    -0.090 HD
ENDBRANCH   5  18
BRANCH   3  22
ATOM     22  C   LIG d   1      -2.865  76.149 115.894  0.00  0.00     0.382 C 
ATOM     23  O   LIG d   1      -2.911  75.675 114.733  0.00  0.00    -0.241 OA
ATOM     24  O   LIG d   1      -1.764  76.275 116.462  0.00  0.00    -0.241 OA
ENDBRANCH   3  22
TORSDOF 7
ENDMDL
MODEL 4
REMARK VINA RESULT:      -5.4      4.819      6.769
REMARK  7 active torsions:
REMARK  status: ('A' for Active; 'I' for Inactive)
REMARK    1  A    between atoms: C_2  and  C_3 
REMARK    2  A    between atoms: C_3  and  O_6 
REMARK    3  A    between atoms: C_3  and  C_4 
REMARK    4  A    between atoms: C_7  and  O_6 
REMARK    5  A    between atoms: C_9  and  C_10 
REMARK    6  A    between atoms: N_15  and  C_14 
REMARK    7  A    between atoms: N_20  and  C_19 
REMARK       I    between atoms: C_22  and  N_20 
ROOT
ATOM      1  C   LIG d   1      -1.682  79.289 116.059  0.00  0.00     0.161 C 
ATOM      2  C   LIG d   1      -2.090  80.538 115.561  0.00  0.00     0.016 C 
ATOM      3  C   LIG d   1      -2.316  80.792 114.189  0.00  0.00     0.038 C 
ATOM      4  C   LIG d   1      -2.295  79.767 113.231  0.00  0.00     0.028 C 
ATOM      5  C   LIG d   1      -1.394  78.598 113.616  0.00  0.00    -0.047 C 
ATOM      6  C   LIG d   1      -1.761  78.131 115.043  0.00  0.00     0.091 C 
ENDROOT
BRANCH   1   7
ATOM      7  O   LIG d   1      -2.433  78.967 117.246  0.00  0.00    -0.368 OA
BRANCH   7   8
ATOM      8  C   LIG d   1      -3.815  78.583 117.041  0.00  0.00     0.119 C 
BRANCH   8   9
ATOM      9  C   LIG d   1      -4.694  79.593 117.805  0.00  0.00     0.028 C 
ATOM     10  C   LIG d   1      -3.966  80.210 119.011  0.00  0.00     0.006 C 
ENDBRANCH   8   9
BRANCH   8  11
ATOM     11  C   LIG d   1      -4.115  77.222 117.676  0.00  0.00     0.028 C 
ATOM     12  C   LIG d   1      -2.963  76.706 118.552  0.00  0.00     0.006 C 
ENDBRANCH   8  11
ENDBRANCH   7   8
ENDBRANCH   1   7
BRANCH   6  13
ATOM     13  N   LIG d   1      -0.871  77.044 115.530  0.00  0.00    -0.311 N 
ATOM     14  C   LIG d   1      -1.196  75.753 115.480  0.00  0.00     0.210 C 
ATOM     15  C   LIG d   1      -0.144  74.799 116.053  0.00  0.00     0.109 C 
ATOM     16  O   LIG d   1      -2.242  75.306 114.987  0.00  0.00    -0.276 OA
ATOM     17  H   LIG d   1       0.011  77.316 115.917  0.00  0.00     0.149 HD
ENDBRANCH   6  13
BRANCH   5  18
ATOM     18  N   LIG d   1      -1.573  77.545 112.599  0.00  0.00     0.381 N 
ATOM     19  H   LIG d   1      -2.549  77.370 112.460  0.00  0.00    -0.090 HD
ATOM     20  H   LIG d   1      -1.145  76.698 112.929  0.00  0.00    -0.090 HD
ATOM     21  H   LIG d   1      -1.153  77.825 111.740  0.00  0.00    -0.090 HD
ENDBRANCH   5  18
BRANCH   3  22
ATOM     22  C   LIG d   1      -2.528  82.093 113.757  0.00  0.00     0.382 C 
ATOM     23  O   LIG d   1      -1.969  82.505 112.712  0.00  0.00    -0.241 OA
ATOM     24  O   LIG d   1      -3.235  82.872 114.423  0.00  0.00    -0.241 OA
ENDBRANCH   3  22
TORSDOF 7
ENDMDL
MODEL 5
REMARK VINA RESULT:      -5.4      3.521      6.098
REMARK  7 active torsions:
REMARK  status: ('A' for Active; 'I' for Inactive)
REMARK    1  A    between atoms: C_2  and  C_3 
REMARK    2  A    between atoms: C_3  and  O_6 
REMARK    3  A    between atoms: C_3  and  C_4 
REMARK    4  A    between atoms: C_7  and  O_6 
REMARK    5  A    between atoms: C_9  and  C_10 
REMARK    6  A    between atoms: N_15  and  C_14 
REMARK    7  A    between atoms: N_20  and  C_19 
REMARK       I    between atoms: C_22  and  N_20 
ROOT
ATOM      1  C   LIG d   1      -3.094  76.270 116.472  0.00  0.00     0.161 C 
ATOM      2  C   LIG d   1      -3.166  76.938 115.239  0.00  0.00     0.016 C 
ATOM      3  C   LIG d   1      -2.038  77.194 114.425  0.00  0.00     0.038 C 
ATOM      4  C   LIG d   1      -0.775  76.661 114.721  0.00  0.00     0.028 C 
ATOM      5  C   LIG d   1      -0.556  76.410 116.209  0.00  0.00    -0.047 C 
ATOM      6  C   LIG d   1      -1.742  75.584 116.758  0.00  0.00     0.091 C 
ENDROOT
BRANCH   1   7
ATOM      7  O   LIG d   1      -4.171  75.317 116.575  0.00  0.00    -0.368 OA
BRANCH   7   8
ATOM      8  C   LIG d   1      -5.421  75.698 115.951  0.00  0.00     0.119 C 
BRANCH   8   9
ATOM      9  C   LIG d   1      -6.404  76.076 117.076  0.00  0.00     0.028 C 
ATOM     10  C   LIG d   1      -6.432  77.589 117.348  0.00  0.00     0.006 C 
ENDBRANCH   8   9
BRANCH   8  11
ATOM     11  C   LIG d   1      -6.068  74.513 115.228  0.00  0.00     0.028 C 
ATOM     12  C   LIG d   1      -6.948  73.658 116.155  0.00  0.00     0.006 C 
ENDBRANCH   8  11
ENDBRANCH   7   8
ENDBRANCH   1   7
BRANCH   6  13
ATOM     13  N   LIG d   1      -1.649  75.366 118.225  0.00  0.00    -0.311 N 
ATOM     14  C   LIG d   1      -1.025  74.325 118.774  0.00  0.00     0.210 C 
ATOM     15  C   LIG d   1      -1.065  74.281 120.305  0.00  0.00     0.109 C 
ATOM     16  O   LIG d   1      -0.414  73.452 118.140  0.00  0.00    -0.276 OA
ATOM     17  H   LIG d   1      -2.091  76.044 118.816  0.00  0.00     0.149 HD
ENDBRANCH   6  13
BRANCH   5  18
ATOM     18  N   LIG d   1       0.743  75.729 116.360  0.00  0.00     0.381 N 
ATOM     19  H   LIG d   1       1.466  76.405 116.501  0.00  0.00    -0.090 HD
ATOM     20  H   LIG d   1       0.945  75.223 115.516  0.00  0.00    -0.090 HD
ATOM     21  H   LIG d   1       0.711  75.101 117.133  0.00  0.00    -0.090 HD
ENDBRANCH   5  18
BRANCH   3  22
ATOM     22  C   LIG d   1      -2.161  78.024 113.321  0.00  0.00     0.382 C 
ATOM     23  O   LIG d   1      -1.342  78.957 113.145  0.00  0.00    -0.241 OA
ATOM     24  O   LIG d   1      -3.107  77.879 112.524  0.00  0.00    -0.241 OA
ENDBRANCH   3  22
TORSDOF 7
ENDMDL
MODEL 6
REMARK VINA RESULT:      -5.3      2.072      5.585
REMARK  7 active torsions:
REMARK  status: ('A' for Active; 'I' for Inactive)
REMARK    1  A    between atoms: C_2  and  C_3 
REMARK    2  A    between atoms: C_3  and  O_6 
REMARK    3  A    between atoms: C_3  and  C_4 
REMARK    4  A    between atoms: C_7  and  O_6 
REMARK    5  A    between atoms: C_9  and  C_10 
REMARK    6  A    between atoms: N_15  and  C_14 
REMARK    7  A    between atoms: N_20  and  C_19 
REMARK       I    between atoms: C_22  and  N_20 
ROOT
ATOM      1  C   LIG d   1      -4.499  76.567 115.853  0.00  0.00     0.161 C 
ATOM      2  C   LIG d   1      -3.373  75.755 115.637  0.00  0.00     0.016 C 
ATOM      3  C   LIG d   1      -2.400  75.493 116.629  0.00  0.00     0.038 C 
ATOM      4  C   LIG d   1      -2.568  75.907 117.959  0.00  0.00     0.028 C 
ATOM      5  C   LIG d   1      -3.434  77.153 118.101  0.00  0.00    -0.047 C 
ATOM      6  C   LIG d   1      -4.756  76.937 117.329  0.00  0.00     0.091 C 
ENDROOT
BRANCH   1   7
ATOM      7  O   LIG d   1      -5.667  75.946 115.281  0.00  0.00    -0.368 OA
BRANCH   7   8
ATOM      8  C   LIG d   1      -6.441  75.104 116.171  0.00  0.00     0.119 C 
BRANCH   8   9
ATOM      9  C   LIG d   1      -6.181  73.640 115.766  0.00  0.00     0.028 C 
ATOM     10  C   LIG d   1      -7.333  72.706 116.171  0.00  0.00     0.006 C 
ENDBRANCH   8   9
BRANCH   8  11
ATOM     11  C   LIG d   1      -7.945  75.318 115.972  0.00  0.00     0.028 C 
ATOM     12  C   LIG d   1      -8.663  75.734 117.265  0.00  0.00     0.006 C 
ENDBRANCH   8  11
ENDBRANCH   7   8
ENDBRANCH   1   7
BRANCH   6  13
ATOM     13  N   LIG d   1      -5.627  78.141 117.346  0.00  0.00    -0.311 N 
ATOM     14  C   LIG d   1      -6.517  78.388 118.305  0.00  0.00     0.210 C 
ATOM     15  C   LIG d   1      -7.326  79.676 118.120  0.00  0.00     0.109 C 
ATOM     16  O   LIG d   1      -6.692  77.679 119.308  0.00  0.00    -0.276 OA
ATOM     17  H   LIG d   1      -5.529  78.785 116.586  0.00  0.00     0.149 HD
ENDBRANCH   6  13
BRANCH   5  18
ATOM     18  N   LIG d   1      -3.639  77.392 119.542  0.00  0.00     0.381 N 
ATOM     19  H   LIG d   1      -3.827  76.526 120.006  0.00  0.00    -0.090 HD
ATOM     20  H   LIG d   1      -4.435  77.993 119.662  0.00  0.00    -0.090 HD
ATOM     21  H   LIG d   1      -2.829  77.819 119.936  0.00  0.00    -0.090 HD
ENDBRANCH   5  18
BRANCH   3  22
ATOM     22  C   LIG d   1      -1.225  74.844 116.284  0.00  0.00     0.382 C 
ATOM     23  O   LIG d   1      -0.809  74.886 115.101  0.00  0.00    -0.241 OA
ATOM     24  O   LIG d   1      -0.599  74.179 117.131  0.00  0.00    -0.241 OA
ENDBRANCH   3  22
TORSDOF 7
ENDMDL
MODEL 7
REMARK VINA RESULT:      -5.1      3.577      6.385
REMARK  7 active torsions:
REMARK  status: ('A' for Active; 'I' for Inactive)
REMARK    1  A    between atoms: C_2  and  C_3 
REMARK    2  A    between atoms: C_3  and  O_6 
REMARK    3  A    between atoms: C_3  and  C_4 
REMARK    4  A    between atoms: C_7  and  O_6 
REMARK    5  A    between atoms: C_9  and  C_10 
REMARK    6  A    between atoms: N_15  and  C_14 
REMARK    7  A    between atoms: N_20  and  C_19 
REMARK       I    between atoms: C_22  and  N_20 
ROOT
ATOM      1  C   LIG d   1      -2.636  76.349 115.496  0.00  0.00     0.161 C 
ATOM      2  C   LIG d   1      -2.375  75.467 116.558  0.00  0.00     0.016 C 
ATOM      3  C   LIG d   1      -1.262  75.595 117.420  0.00  0.00     0.038 C 
ATOM      4  C   LIG d   1      -0.411  76.709 117.372  0.00  0.00     0.028 C 
ATOM      5  C   LIG d   1      -0.343  77.361 115.995  0.00  0.00    -0.047 C 
ATOM      6  C   LIG d   1      -1.781  77.634 115.498  0.00  0.00     0.091 C 
ENDROOT
BRANCH   1   7
ATOM      7  O   LIG d   1      -4.039  76.681 115.471  0.00  0.00    -0.368 OA
BRANCH   7   8
ATOM      8  C   LIG d   1      -4.869  76.015 116.454  0.00  0.00     0.119 C 
BRANCH   8   9
ATOM      9  C   LIG d   1      -6.132  75.512 115.729  0.00  0.00     0.028 C 
ATOM     10  C   LIG d   1      -6.289  73.984 115.815  0.00  0.00     0.006 C 
ENDBRANCH   8   9
BRANCH   8  11
ATOM     11  C   LIG d   1      -5.375  76.999 117.513  0.00  0.00     0.028 C 
ATOM     12  C   LIG d   1      -6.870  77.320 117.363  0.00  0.00     0.006 C 
ENDBRANCH   8  11
ENDBRANCH   7   8
ENDBRANCH   1   7
BRANCH   6  13
ATOM     13  N   LIG d   1      -1.809  78.194 114.122  0.00  0.00    -0.311 N 
ATOM     14  C   LIG d   1      -2.362  79.367 113.818  0.00  0.00     0.210 C 
ATOM     15  C   LIG d   1      -2.299  79.747 112.336  0.00  0.00     0.109 C 
ATOM     16  O   LIG d   1      -2.872  80.142 114.641  0.00  0.00    -0.276 OA
ATOM     17  H   LIG d   1      -1.390  77.644 113.397  0.00  0.00     0.149 HD
ENDBRANCH   6  13
BRANCH   5  18
ATOM     18  N   LIG d   1       0.467  78.587 116.122  0.00  0.00     0.381 N 
ATOM     19  H   LIG d   1       0.797  78.870 115.221  0.00  0.00    -0.090 HD
ATOM     20  H   LIG d   1       1.264  78.391 116.702  0.00  0.00    -0.090 HD
ATOM     21  H   LIG d   1      -0.078  79.315 116.528  0.00  0.00    -0.090 HD
ENDBRANCH   5  18
BRANCH   3  22
ATOM     22  C   LIG d   1      -0.967  74.579 118.317  0.00  0.00     0.382 C 
ATOM     23  O   LIG d   1       0.171  74.517 118.842  0.00  0.00    -0.241 OA
ATOM     24  O   LIG d   1      -1.811  73.700 118.575  0.00  0.00    -0.241 OA
ENDBRANCH   3  22
TORSDOF 7
ENDMDL
MODEL 8
REMARK VINA RESULT:      -4.9      2.951      5.458
REMARK  7 active torsions:
REMARK  status: ('A' for Active; 'I' for Inactive)
REMARK    1  A    between atoms: C_2  and  C_3 
REMARK    2  A    between atoms: C_3  and  O_6 
REMARK    3  A    between atoms: C_3  and  C_4 
REMARK    4  A    between atoms: C_7  and  O_6 
REMARK    5  A    between atoms: C_9  and  C_10 
REMARK    6  A    between atoms: N_15  and  C_14 
REMARK    7  A    between atoms: N_20  and  C_19 
REMARK       I    between atoms: C_22  and  N_20 
ROOT
ATOM      1  C   LIG d   1      -4.062  76.199 116.447  0.00  0.00     0.161 C 
ATOM      2  C   LIG d   1      -4.894  75.123 116.095  0.00  0.00     0.016 C 
ATOM      3  C   LIG d   1      -6.297  75.134 116.269  0.00  0.00     0.038 C 
ATOM      4  C   LIG d   1      -6.984  76.289 116.671  0.00  0.00     0.028 C 
ATOM      5  C   LIG d   1      -6.138  77.234 117.517  0.00  0.00    -0.047 C 
ATOM      6  C   LIG d   1      -4.806  77.508 116.783  0.00  0.00     0.091 C 
ENDROOT
BRANCH   1   7
ATOM      7  O   LIG d   1      -3.091  76.427 115.406  0.00  0.00    -0.368 OA
BRANCH   7   8
ATOM      8  C   LIG d   1      -1.702  76.419 115.818  0.00  0.00     0.119 C 
BRANCH   8   9
ATOM      9  C   LIG d   1      -0.905  77.226 114.775  0.00  0.00     0.028 C 
ATOM     10  C   LIG d   1      -1.805  77.809 113.672  0.00  0.00     0.006 C 
ENDBRANCH   8   9
BRANCH   8  11
ATOM     11  C   LIG d   1      -1.115  75.005 115.771  0.00  0.00     0.028 C 
ATOM     12  C   LIG d   1      -0.408  74.609 117.077  0.00  0.00     0.006 C 
ENDBRANCH   8  11
ENDBRANCH   7   8
ENDBRANCH   1   7
BRANCH   6  13
ATOM     13  N   LIG d   1      -3.883  78.357 117.580  0.00  0.00    -0.311 N 
ATOM     14  C   LIG d   1      -3.300  79.455 117.103  0.00  0.00     0.210 C 
ATOM     15  C   LIG d   1      -2.369  80.173 118.085  0.00  0.00     0.109 C 
ATOM     16  O   LIG d   1      -3.489  79.921 115.969  0.00  0.00    -0.276 OA
ATOM     17  H   LIG d   1      -3.698  78.070 118.522  0.00  0.00     0.149 HD
ENDBRANCH   6  13
BRANCH   5  18
ATOM     18  N   LIG d   1      -6.932  78.456 117.749  0.00  0.00     0.381 N 
ATOM     19  H   LIG d   1      -7.905  78.227 117.780  0.00  0.00    -0.090 HD
ATOM     20  H   LIG d   1      -6.781  79.091 116.985  0.00  0.00    -0.090 HD
ATOM     21  H   LIG d   1      -6.657  78.884 118.606  0.00  0.00    -0.090 HD
ENDBRANCH   5  18
BRANCH   3  22
ATOM     22  C   LIG d   1      -7.023  73.968 116.079  0.00  0.00     0.382 C 
ATOM     23  O   LIG d   1      -6.460  72.949 115.611  0.00  0.00    -0.241 OA
ATOM     24  O   LIG d   1      -8.243  73.936 116.328  0.00  0.00    -0.241 OA
ENDBRANCH   3  22
TORSDOF 7
ENDMDL
MODEL 9
REMARK VINA RESULT:      -4.8     11.277     14.234
REMARK  7 active torsions:
REMARK  status: ('A' for Active; 'I' for Inactive)
REMARK    1  A    between atoms: C_2  and  C_3 
REMARK    2  A    between atoms: C_3  and  O_6 
REMARK    3  A    between atoms: C_3  and  C_4 
REMARK    4  A    between atoms: C_7  and  O_6 
REMARK    5  A    between atoms: C_9  and  C_10 
REMARK    6  A    between atoms: N_15  and  C_14 
REMARK    7  A    between atoms: N_20  and  C_19 
REMARK       I    between atoms: C_22  and  N_20 
ROOT
ATOM      1  C   LIG d   1       1.607  86.704 115.171  0.00  0.00     0.161 C 
ATOM      2  C   LIG d   1       2.504  87.653 114.652  0.00  0.00     0.016 C 
ATOM      3  C   LIG d   1       3.092  87.547 113.370  0.00  0.00     0.038 C 
ATOM      4  C   LIG d   1       2.705  86.557 112.456  0.00  0.00     0.028 C 
ATOM      5  C   LIG d   1       2.180  85.290 113.121  0.00  0.00    -0.047 C 
ATOM      6  C   LIG d   1       1.088  85.675 114.145  0.00  0.00     0.091 C 
ENDROOT
BRANCH   1   7
ATOM      7  O   LIG d   1       0.504  87.373 115.812  0.00  0.00    -0.368 OA
BRANCH   7   8
ATOM      8  C   LIG d   1       0.831  88.168 116.978  0.00  0.00     0.119 C 
BRANCH   8   9
ATOM      9  C   LIG d   1       0.326  87.403 118.217  0.00  0.00     0.028 C 
ATOM     10  C   LIG d   1       1.459  86.673 118.958  0.00  0.00     0.006 C 
ENDBRANCH   8   9
BRANCH   8  11
ATOM     11  C   LIG d   1       0.066  89.495 116.981  0.00  0.00     0.028 C 
ATOM     12  C   LIG d   1      -1.417  89.327 117.346  0.00  0.00     0.006 C 
ENDBRANCH   8  11
ENDBRANCH   7   8
ENDBRANCH   1   7
BRANCH   6  13
ATOM     13  N   LIG d   1       0.580  84.502 114.901  0.00  0.00    -0.311 N 
ATOM     14  C   LIG d   1      -0.527  83.839 114.570  0.00  0.00     0.210 C 
ATOM     15  C   LIG d   1      -0.883  82.671 115.496  0.00  0.00     0.109 C 
ATOM     16  O   LIG d   1      -1.230  84.087 113.579  0.00  0.00    -0.276 OA
ATOM     17  H   LIG d   1       1.107  84.213 115.702  0.00  0.00     0.149 HD
ENDBRANCH   6  13
BRANCH   5  18
ATOM     18  N   LIG d   1       1.685  84.399 112.055  0.00  0.00     0.381 N 
ATOM     19  H   LIG d   1       1.002  83.770 112.429  0.00  0.00    -0.090 HD
ATOM     20  H   LIG d   1       2.453  83.856 111.702  0.00  0.00    -0.090 HD
ATOM     21  H   LIG d   1       1.283  84.937 111.320  0.00  0.00    -0.090 HD
ENDBRANCH   5  18
BRANCH   3  22
ATOM     22  C   LIG d   1       4.110  88.417 113.008  0.00  0.00     0.382 C 
ATOM     23  O   LIG d   1       3.999  89.644 113.244  0.00  0.00    -0.241 OA
ATOM     24  O   LIG d   1       5.117  87.996 112.409  0.00  0.00    -0.241 OA
ENDBRANCH   3  22
TORSDOF 7
ENDMDL
