MODEL 1
REMARK VINA RESULT:      -5.5      0.000      0.000
REMARK  7 active torsions:
REMARK  status: ('A' for Active; 'I' for Inactive)
REMARK    1  A    between atoms: C_2  and  C_3 
REMARK    2  A    between atoms: C_3  and  O_6 
REMARK    3  A    between atoms: C_3  and  C_4 
REMARK    4  A    between atoms: C_7  and  O_6 
REMARK    5  A    between atoms: C_9  and  C_10 
REMARK    6  A    between atoms: N_15  and  C_14 
REMARK    7  A    between atoms: N_20  and  C_19 
REMARK       I    between atoms: C_22  and  N_20 
ROOT
ATOM      1  C   LIG d   1      -4.887  75.459 117.445  0.00  0.00     0.161 C 
ATOM      2  C   LIG d   1      -6.043  76.257 117.495  0.00  0.00     0.016 C 
ATOM      3  C   LIG d   1      -6.041  77.646 117.229  0.00  0.00     0.038 C 
ATOM      4  C   LIG d   1      -4.903  78.307 116.744  0.00  0.00     0.028 C 
ATOM      5  C   LIG d   1      -3.594  77.645 117.162  0.00  0.00    -0.047 C 
ATOM      6  C   LIG d   1      -3.657  76.142 116.810  0.00  0.00     0.091 C 
ENDROOT
BRANCH   1   7
ATOM      7  O   LIG d   1      -5.178  74.220 116.768  0.00  0.00    -0.368 OA
BRANCH   7   8
ATOM      8  C   LIG d   1      -6.255  74.261 115.800  0.00  0.00     0.119 C 
BRANCH   8   9
ATOM      9  C   LIG d   1      -6.963  72.892 115.838  0.00  0.00     0.028 C 
ATOM     10  C   LIG d   1      -6.912  72.244 117.231  0.00  0.00     0.006 C 
ENDBRANCH   8   9
BRANCH   8  11
ATOM     11  C   LIG d   1      -5.716  74.399 114.373  0.00  0.00     0.028 C 
ATOM     12  C   LIG d   1      -5.826  75.833 113.831  0.00  0.00     0.006 C 
ENDBRANCH   8  11
ENDBRANCH   7   8
ENDBRANCH   1   7
BRANCH   6  13
ATOM     13  N   LIG d   1      -2.450  75.402 117.262  0.00  0.00    -0.311 N 
ATOM     14  C   LIG d   1      -1.839  74.477 116.525  0.00  0.00     0.210 C 
ATOM     15  C   LIG d   1      -0.623  73.822 117.187  0.00  0.00     0.109 C 
ATOM     16  O   LIG d   1      -2.168  74.159 115.372  0.00  0.00    -0.276 OA
ATOM     17  H   LIG d   1      -2.096  75.620 118.173  0.00  0.00     0.149 HD
ENDBRANCH   6  13
BRANCH   5  18
ATOM     18  N   LIG d   1      -2.497  78.354 116.477  0.00  0.00     0.381 N 
ATOM     19  H   LIG d   1      -2.452  78.064 115.521  0.00  0.00    -0.090 HD
ATOM     20  H   LIG d   1      -1.628  78.115 116.921  0.00  0.00    -0.090 HD
ATOM     21  H   LIG d   1      -2.644  79.339 116.527  0.00  0.00    -0.090 HD
ENDBRANCH   5  18
BRANCH   3  22
ATOM     22  C   LIG d   1      -7.179  78.396 117.486  0.00  0.00     0.382 C 
ATOM     23  O   LIG d   1      -8.287  77.825 117.627  0.00  0.00    -0.241 OA
ATOM     24  O   LIG d   1      -7.119  79.639 117.535  0.00  0.00    -0.241 OA
ENDBRANCH   3  22
TORSDOF 7
ENDMDL
MODEL 2
REMARK VINA RESULT:      -5.5      2.098      3.034
REMARK  7 active torsions:
REMARK  status: ('A' for Active; 'I' for Inactive)
REMARK    1  A    between atoms: C_2  and  C_3 
REMARK    2  A    between atoms: C_3  and  O_6 
REMARK    3  A    between atoms: C_3  and  C_4 
REMARK    4  A    between atoms: C_7  and  O_6 
REMARK    5  A    between atoms: C_9  and  C_10 
REMARK    6  A    between atoms: N_15  and  C_14 
REMARK    7  A    between atoms: N_20  and  C_19 
REMARK       I    between atoms: C_22  and  N_20 
ROOT
ATOM      1  C   LIG d   1      -6.585  76.824 117.293  0.00  0.00     0.161 C 
ATOM      2  C   LIG d   1      -7.784  77.305 117.843  0.00  0.00     0.016 C 
ATOM      3  C   LIG d   1      -7.987  78.656 118.208  0.00  0.00     0.038 C 
ATOM      4  C   LIG d   1      -7.049  79.654 117.905  0.00  0.00     0.028 C 
ATOM      5  C   LIG d   1      -5.619  79.133 117.808  0.00  0.00    -0.047 C 
ATOM      6  C   LIG d   1      -5.591  77.919 116.851  0.00  0.00     0.091 C 
ENDROOT
BRANCH   1   7
ATOM      7  O   LIG d   1      -6.873  75.937 116.194  0.00  0.00    -0.368 OA
BRANCH   7   8
ATOM      8  C   LIG d   1      -6.393  74.576 116.330  0.00  0.00     0.119 C 
BRANCH   8   9
ATOM      9  C   LIG d   1      -5.839  74.142 114.960  0.00  0.00     0.028 C 
ATOM     10  C   LIG d   1      -5.695  75.321 113.983  0.00  0.00     0.006 C 
ENDBRANCH   8   9
BRANCH   8  11
ATOM     11  C   LIG d   1      -7.542  73.608 116.629  0.00  0.00     0.028 C 
ATOM     12  C   LIG d   1      -7.252  72.175 116.154  0.00  0.00     0.006 C 
ENDBRANCH   8  11
ENDBRANCH   7   8
ENDBRANCH   1   7
BRANCH   6  13
ATOM     13  N   LIG d   1      -4.245  77.296 116.765  0.00  0.00    -0.311 N 
ATOM     14  C   LIG d   1      -3.361  77.587 115.812  0.00  0.00     0.210 C 
ATOM     15  C   LIG d   1      -2.040  76.816 115.896  0.00  0.00     0.109 C 
ATOM     16  O   LIG d   1      -3.534  78.435 114.923  0.00  0.00    -0.276 OA
ATOM     17  H   LIG d   1      -4.009  76.620 117.465  0.00  0.00     0.149 HD
ENDBRANCH   6  13
BRANCH   5  18
ATOM     18  N   LIG d   1      -4.768  80.248 117.352  0.00  0.00     0.381 N 
ATOM     19  H   LIG d   1      -4.091  79.911 116.697  0.00  0.00    -0.090 HD
ATOM     20  H   LIG d   1      -4.279  80.628 118.143  0.00  0.00    -0.090 HD
ATOM     21  H   LIG d   1      -5.329  80.954 116.928  0.00  0.00    -0.090 HD
ENDBRANCH   5  18
BRANCH   3  22
ATOM     22  C   LIG d   1      -9.121  79.013 118.921  0.00  0.00     0.382 C 
ATOM     23  O   LIG d   1      -9.136  78.907 120.171  0.00  0.00    -0.241 OA
ATOM     24  O   LIG d   1     -10.146  79.397 118.326  0.00  0.00    -0.241 OA
ENDBRANCH   3  22
TORSDOF 7
ENDMDL
MODEL 3
REMARK VINA RESULT:      -5.4      2.834      5.268
REMARK  7 active torsions:
REMARK  status: ('A' for Active; 'I' for Inactive)
REMARK    1  A    between atoms: C_2  and  C_3 
REMARK    2  A    between atoms: C_3  and  O_6 
REMARK    3  A    between atoms: C_3  and  C_4 
REMARK    4  A    between atoms: C_7  and  O_6 
REMARK    5  A    between atoms: C_9  and  C_10 
REMARK    6  A    between atoms: N_15  and  C_14 
REMARK    7  A    between atoms: N_20  and  C_19 
REMARK       I    between atoms: C_22  and  N_20 
ROOT
ATOM      1  C   LIG d   1      -3.639  75.176 115.908  0.00  0.00     0.161 C 
ATOM      2  C   LIG d   1      -4.469  74.152 116.393  0.00  0.00     0.016 C 
ATOM      3  C   LIG d   1      -5.742  73.861 115.852  0.00  0.00     0.038 C 
ATOM      4  C   LIG d   1      -6.211  74.480 114.684  0.00  0.00     0.028 C 
ATOM      5  C   LIG d   1      -5.626  75.870 114.459  0.00  0.00    -0.047 C 
ATOM      6  C   LIG d   1      -4.086  75.789 114.564  0.00  0.00     0.091 C 
ENDROOT
BRANCH   1   7
ATOM      7  O   LIG d   1      -2.281  74.702 115.815  0.00  0.00    -0.368 OA
BRANCH   7   8
ATOM      8  C   LIG d   1      -1.501  74.759 117.035  0.00  0.00     0.119 C 
BRANCH   8   9
ATOM      9  C   LIG d   1      -0.570  75.983 116.933  0.00  0.00     0.028 C 
ATOM     10  C   LIG d   1      -0.093  76.239 115.493  0.00  0.00     0.006 C 
ENDBRANCH   8   9
BRANCH   8  11
ATOM     11  C   LIG d   1      -0.569  73.550 117.157  0.00  0.00     0.028 C 
ATOM     12  C   LIG d   1      -0.243  73.194 118.616  0.00  0.00     0.006 C 
ENDBRANCH   8  11
ENDBRANCH   7   8
ENDBRANCH   1   7
BRANCH   6  13
ATOM     13  N   LIG d   1      -3.438  77.121 114.440  0.00  0.00    -0.311 N 
ATOM     14  C   LIG d   1      -2.899  77.572 113.309  0.00  0.00     0.210 C 
ATOM     15  C   LIG d   1      -2.265  78.963 113.403  0.00  0.00     0.109 C 
ATOM     16  O   LIG d   1      -2.914  76.964 112.227  0.00  0.00    -0.276 OA
ATOM     17  H   LIG d   1      -3.410  77.693 115.262  0.00  0.00     0.149 HD
ENDBRANCH   6  13
BRANCH   5  18
ATOM     18  N   LIG d   1      -6.091  76.342 113.142  0.00  0.00     0.381 N 
ATOM     19  H   LIG d   1      -6.456  77.270 113.224  0.00  0.00    -0.090 HD
ATOM     20  H   LIG d   1      -6.830  75.740 112.823  0.00  0.00    -0.090 HD
ATOM     21  H   LIG d   1      -5.338  76.330 112.489  0.00  0.00    -0.090 HD
ENDBRANCH   5  18
BRANCH   3  22
ATOM     22  C   LIG d   1      -6.578  72.968 116.505  0.00  0.00     0.382 C 
ATOM     23  O   LIG d   1      -6.589  72.922 117.759  0.00  0.00    -0.241 OA
ATOM     24  O   LIG d   1      -7.289  72.177 115.856  0.00  0.00    -0.241 OA
ENDBRANCH   3  22
TORSDOF 7
ENDMDL
MODEL 4
REMARK VINA RESULT:      -5.4      2.607      3.808
REMARK  7 active torsions:
REMARK  status: ('A' for Active; 'I' for Inactive)
REMARK    1  A    between atoms: C_2  and  C_3 
REMARK    2  A    between atoms: C_3  and  O_6 
REMARK    3  A    between atoms: C_3  and  C_4 
REMARK    4  A    between atoms: C_7  and  O_6 
REMARK    5  A    between atoms: C_9  and  C_10 
REMARK    6  A    between atoms: N_15  and  C_14 
REMARK    7  A    between atoms: N_20  and  C_19 
REMARK       I    between atoms: C_22  and  N_20 
ROOT
ATOM      1  C   LIG d   1      -3.162  75.807 116.012  0.00  0.00     0.161 C 
ATOM      2  C   LIG d   1      -3.633  76.519 114.896  0.00  0.00     0.016 C 
ATOM      3  C   LIG d   1      -2.788  77.022 113.881  0.00  0.00     0.038 C 
ATOM      4  C   LIG d   1      -1.420  76.714 113.834  0.00  0.00     0.028 C 
ATOM      5  C   LIG d   1      -0.818  76.424 115.204  0.00  0.00    -0.047 C 
ATOM      6  C   LIG d   1      -1.687  75.365 115.921  0.00  0.00     0.091 C 
ENDROOT
BRANCH   1   7
ATOM      7  O   LIG d   1      -4.012  74.669 116.259  0.00  0.00    -0.368 OA
BRANCH   7   8
ATOM      8  C   LIG d   1      -5.435  74.890 116.103  0.00  0.00     0.119 C 
BRANCH   8   9
ATOM      9  C   LIG d   1      -6.062  74.883 117.511  0.00  0.00     0.028 C 
ATOM     10  C   LIG d   1      -6.555  76.275 117.940  0.00  0.00     0.006 C 
ENDBRANCH   8   9
BRANCH   8  11
ATOM     11  C   LIG d   1      -6.101  73.730 115.357  0.00  0.00     0.028 C 
ATOM     12  C   LIG d   1      -7.119  72.971 116.223  0.00  0.00     0.006 C 
ENDBRANCH   8  11
ENDBRANCH   7   8
ENDBRANCH   1   7
BRANCH   6  13
ATOM     13  N   LIG d   1      -1.215  75.085 117.302  0.00  0.00    -0.311 N 
ATOM     14  C   LIG d   1      -0.693  73.918 117.676  0.00  0.00     0.210 C 
ATOM     15  C   LIG d   1      -0.289  73.834 119.151  0.00  0.00     0.109 C 
ATOM     16  O   LIG d   1      -0.495  72.956 116.918  0.00  0.00    -0.276 OA
ATOM     17  H   LIG d   1      -1.309  75.821 117.974  0.00  0.00     0.149 HD
ENDBRANCH   6  13
BRANCH   5  18
ATOM     18  N   LIG d   1       0.574  75.984 114.995  0.00  0.00     0.381 N 
ATOM     19  H   LIG d   1       0.649  75.500 114.123  0.00  0.00    -0.090 HD
ATOM     20  H   LIG d   1       0.829  75.348 115.731  0.00  0.00    -0.090 HD
ATOM     21  H   LIG d   1       1.185  76.771 115.000  0.00  0.00    -0.090 HD
ENDBRANCH   5  18
BRANCH   3  22
ATOM     22  C   LIG d   1      -3.304  77.877 112.918  0.00  0.00     0.382 C 
ATOM     23  O   LIG d   1      -3.007  79.096 112.939  0.00  0.00    -0.241 OA
ATOM     24  O   LIG d   1      -4.097  77.453 112.056  0.00  0.00    -0.241 OA
ENDBRANCH   3  22
TORSDOF 7
ENDMDL
MODEL 5
REMARK VINA RESULT:      -5.2      2.632      5.326
REMARK  7 active torsions:
REMARK  status: ('A' for Active; 'I' for Inactive)
REMARK    1  A    between atoms: C_2  and  C_3 
REMARK    2  A    between atoms: C_3  and  O_6 
REMARK    3  A    between atoms: C_3  and  C_4 
REMARK    4  A    between atoms: C_7  and  O_6 
REMARK    5  A    between atoms: C_9  and  C_10 
REMARK    6  A    between atoms: N_15  and  C_14 
REMARK    7  A    between atoms: N_20  and  C_19 
REMARK       I    between atoms: C_22  and  N_20 
ROOT
ATOM      1  C   LIG d   1      -1.934  75.185 115.417  0.00  0.00     0.161 C 
ATOM      2  C   LIG d   1      -1.596  74.250 116.409  0.00  0.00     0.016 C 
ATOM      3  C   LIG d   1      -0.632  74.495 117.414  0.00  0.00     0.038 C 
ATOM      4  C   LIG d   1      -0.046  75.758 117.587  0.00  0.00     0.028 C 
ATOM      5  C   LIG d   1       0.018  76.577 116.302  0.00  0.00    -0.047 C 
ATOM      6  C   LIG d   1      -1.386  76.608 115.656  0.00  0.00     0.091 C 
ENDROOT
BRANCH   1   7
ATOM      7  O   LIG d   1      -3.365  75.222 115.247  0.00  0.00    -0.368 OA
BRANCH   7   8
ATOM      8  C   LIG d   1      -4.155  74.957 116.432  0.00  0.00     0.119 C 
BRANCH   8   9
ATOM      9  C   LIG d   1      -5.405  74.172 115.989  0.00  0.00     0.028 C 
ATOM     10  C   LIG d   1      -5.674  74.299 114.480  0.00  0.00     0.006 C 
ENDBRANCH   8   9
BRANCH   8  11
ATOM     11  C   LIG d   1      -4.687  76.254 117.048  0.00  0.00     0.028 C 
ATOM     12  C   LIG d   1      -3.924  76.669 118.316  0.00  0.00     0.006 C 
ENDBRANCH   8  11
ENDBRANCH   7   8
ENDBRANCH   1   7
BRANCH   6  13
ATOM     13  N   LIG d   1      -1.393  77.318 114.350  0.00  0.00    -0.311 N 
ATOM     14  C   LIG d   1      -2.303  78.232 114.018  0.00  0.00     0.210 C 
ATOM     15  C   LIG d   1      -2.140  78.827 112.616  0.00  0.00     0.109 C 
ATOM     16  O   LIG d   1      -3.210  78.631 114.764  0.00  0.00    -0.276 OA
ATOM     17  H   LIG d   1      -0.674  77.078 113.696  0.00  0.00     0.149 HD
ENDBRANCH   6  13
BRANCH   5  18
ATOM     18  N   LIG d   1       0.523  77.917 116.652  0.00  0.00     0.381 N 
ATOM     19  H   LIG d   1       1.370  77.834 117.179  0.00  0.00    -0.090 HD
ATOM     20  H   LIG d   1      -0.159  78.383 117.224  0.00  0.00    -0.090 HD
ATOM     21  H   LIG d   1       0.690  78.446 115.824  0.00  0.00    -0.090 HD
ENDBRANCH   5  18
BRANCH   3  22
ATOM     22  C   LIG d   1      -0.217  73.459 118.236  0.00  0.00     0.382 C 
ATOM     23  O   LIG d   1      -0.756  72.329 118.142  0.00  0.00    -0.241 OA
ATOM     24  O   LIG d   1       0.659  73.650 119.100  0.00  0.00    -0.241 OA
ENDBRANCH   3  22
TORSDOF 7
ENDMDL
MODEL 6
REMARK VINA RESULT:      -5.1      2.873      6.044
REMARK  7 active torsions:
REMARK  status: ('A' for Active; 'I' for Inactive)
REMARK    1  A    between atoms: C_2  and  C_3 
REMARK    2  A    between atoms: C_3  and  O_6 
REMARK    3  A    between atoms: C_3  and  C_4 
REMARK    4  A    between atoms: C_7  and  O_6 
REMARK    5  A    between atoms: C_9  and  C_10 
REMARK    6  A    between atoms: N_15  and  C_14 
REMARK    7  A    between atoms: N_20  and  C_19 
REMARK       I    between atoms: C_22  and  N_20 
ROOT
ATOM      1  C   LIG d   1      -4.563  77.849 116.439  0.00  0.00     0.161 C 
ATOM      2  C   LIG d   1      -4.715  76.647 115.727  0.00  0.00     0.016 C 
ATOM      3  C   LIG d   1      -5.923  75.915 115.685  0.00  0.00     0.038 C 
ATOM      4  C   LIG d   1      -7.114  76.417 116.231  0.00  0.00     0.028 C 
ATOM      5  C   LIG d   1      -6.889  77.383 117.390  0.00  0.00    -0.047 C 
ATOM      6  C   LIG d   1      -5.881  78.469 116.949  0.00  0.00     0.091 C 
ENDROOT
BRANCH   1   7
ATOM      7  O   LIG d   1      -3.838  78.802 115.638  0.00  0.00    -0.368 OA
BRANCH   7   8
ATOM      8  C   LIG d   1      -2.542  79.206 116.144  0.00  0.00     0.119 C 
BRANCH   8   9
ATOM      9  C   LIG d   1      -2.594  80.726 116.391  0.00  0.00     0.028 C 
ATOM     10  C   LIG d   1      -2.153  81.105 117.815  0.00  0.00     0.006 C 
ENDBRANCH   8   9
BRANCH   8  11
ATOM     11  C   LIG d   1      -1.445  79.002 115.095  0.00  0.00     0.028 C 
ATOM     12  C   LIG d   1      -2.002  78.876 113.668  0.00  0.00     0.006 C 
ENDBRANCH   8  11
ENDBRANCH   7   8
ENDBRANCH   1   7
BRANCH   6  13
ATOM     13  N   LIG d   1      -5.540  79.406 118.050  0.00  0.00    -0.311 N 
ATOM     14  C   LIG d   1      -6.104  80.604 118.194  0.00  0.00     0.210 C 
ATOM     15  C   LIG d   1      -5.594  81.420 119.386  0.00  0.00     0.109 C 
ATOM     16  O   LIG d   1      -7.001  81.056 117.466  0.00  0.00    -0.276 OA
ATOM     17  H   LIG d   1      -4.844  79.107 118.705  0.00  0.00     0.149 HD
ENDBRANCH   6  13
BRANCH   5  18
ATOM     18  N   LIG d   1      -8.202  77.934 117.772  0.00  0.00     0.381 N 
ATOM     19  H   LIG d   1      -8.820  77.915 116.985  0.00  0.00    -0.090 HD
ATOM     20  H   LIG d   1      -8.083  78.890 118.057  0.00  0.00    -0.090 HD
ATOM     21  H   LIG d   1      -8.590  77.402 118.521  0.00  0.00    -0.090 HD
ENDBRANCH   5  18
BRANCH   3  22
ATOM     22  C   LIG d   1      -5.939  74.646 115.125  0.00  0.00     0.382 C 
ATOM     23  O   LIG d   1      -5.412  74.449 114.004  0.00  0.00    -0.241 OA
ATOM     24  O   LIG d   1      -6.513  73.706 115.706  0.00  0.00    -0.241 OA
ENDBRANCH   3  22
TORSDOF 7
ENDMDL
MODEL 7
REMARK VINA RESULT:      -5.1     12.331     14.490
REMARK  7 active torsions:
REMARK  status: ('A' for Active; 'I' for Inactive)
REMARK    1  A    between atoms: C_2  and  C_3 
REMARK    2  A    between atoms: C_3  and  O_6 
REMARK    3  A    between atoms: C_3  and  C_4 
REMARK    4  A    between atoms: C_7  and  O_6 
REMARK    5  A    between atoms: C_9  and  C_10 
REMARK    6  A    between atoms: N_15  and  C_14 
REMARK    7  A    between atoms: N_20  and  C_19 
REMARK       I    between atoms: C_22  and  N_20 
ROOT
ATOM      1  C   LIG d   1       1.105  88.141 115.305  0.00  0.00     0.161 C 
ATOM      2  C   LIG d   1      -0.003  87.998 116.157  0.00  0.00     0.016 C 
ATOM      3  C   LIG d   1      -0.382  88.970 117.112  0.00  0.00     0.038 C 
ATOM      4  C   LIG d   1       0.237  90.227 117.175  0.00  0.00     0.028 C 
ATOM      5  C   LIG d   1       1.679  90.219 116.678  0.00  0.00    -0.047 C 
ATOM      6  C   LIG d   1       1.725  89.554 115.283  0.00  0.00     0.091 C 
ENDROOT
BRANCH   1   7
ATOM      7  O   LIG d   1       0.751  87.728 113.970  0.00  0.00    -0.368 OA
BRANCH   7   8
ATOM      8  C   LIG d   1       1.475  86.590 113.443  0.00  0.00     0.119 C 
BRANCH   8   9
ATOM      9  C   LIG d   1       2.139  87.034 112.125  0.00  0.00     0.028 C 
ATOM     10  C   LIG d   1       3.624  86.639 112.055  0.00  0.00     0.006 C 
ENDBRANCH   8   9
BRANCH   8  11
ATOM     11  C   LIG d   1       0.522  85.455 113.054  0.00  0.00     0.028 C 
ATOM     12  C   LIG d   1      -0.113  84.766 114.272  0.00  0.00     0.006 C 
ENDBRANCH   8  11
ENDBRANCH   7   8
ENDBRANCH   1   7
BRANCH   6  13
ATOM     13  N   LIG d   1       3.110  89.429 114.760  0.00  0.00    -0.311 N 
ATOM     14  C   LIG d   1       3.558  90.100 113.700  0.00  0.00     0.210 C 
ATOM     15  C   LIG d   1       5.012  89.810 113.317  0.00  0.00     0.109 C 
ATOM     16  O   LIG d   1       2.898  90.933 113.061  0.00  0.00    -0.276 OA
ATOM     17  H   LIG d   1       3.723  88.798 115.239  0.00  0.00     0.149 HD
ENDBRANCH   6  13
BRANCH   5  18
ATOM     18  N   LIG d   1       2.156  91.615 116.669  0.00  0.00     0.381 N 
ATOM     19  H   LIG d   1       1.668  92.143 117.365  0.00  0.00    -0.090 HD
ATOM     20  H   LIG d   1       1.959  92.020 115.771  0.00  0.00    -0.090 HD
ATOM     21  H   LIG d   1       3.135  91.641 116.847  0.00  0.00    -0.090 HD
ENDBRANCH   5  18
BRANCH   3  22
ATOM     22  C   LIG d   1      -1.365  88.672 118.043  0.00  0.00     0.382 C 
ATOM     23  O   LIG d   1      -1.046  88.404 119.227  0.00  0.00    -0.241 OA
ATOM     24  O   LIG d   1      -2.562  88.624 117.704  0.00  0.00    -0.241 OA
ENDBRANCH   3  22
TORSDOF 7
ENDMDL
MODEL 8
REMARK VINA RESULT:      -5.1      2.199      2.911
REMARK  7 active torsions:
REMARK  status: ('A' for Active; 'I' for Inactive)
REMARK    1  A    between atoms: C_2  and  C_3 
REMARK    2  A    between atoms: C_3  and  O_6 
REMARK    3  A    between atoms: C_3  and  C_4 
REMARK    4  A    between atoms: C_7  and  O_6 
REMARK    5  A    between atoms: C_9  and  C_10 
REMARK    6  A    between atoms: N_15  and  C_14 
REMARK    7  A    between atoms: N_20  and  C_19 
REMARK       I    between atoms: C_22  and  N_20 
ROOT
ATOM      1  C   LIG d   1      -3.101  76.589 117.398  0.00  0.00     0.161 C 
ATOM      2  C   LIG d   1      -3.538  77.816 116.871  0.00  0.00     0.016 C 
ATOM      3  C   LIG d   1      -2.753  78.617 116.010  0.00  0.00     0.038 C 
ATOM      4  C   LIG d   1      -1.529  78.169 115.492  0.00  0.00     0.028 C 
ATOM      5  C   LIG d   1      -0.822  77.161 116.393  0.00  0.00    -0.047 C 
ATOM      6  C   LIG d   1      -1.813  76.032 116.756  0.00  0.00     0.091 C 
ENDROOT
BRANCH   1   7
ATOM      7  O   LIG d   1      -4.163  75.617 117.316  0.00  0.00    -0.368 OA
BRANCH   7   8
ATOM      8  C   LIG d   1      -5.240  75.925 116.398  0.00  0.00     0.119 C 
BRANCH   8   9
ATOM      9  C   LIG d   1      -6.550  75.428 117.037  0.00  0.00     0.028 C 
ATOM     10  C   LIG d   1      -6.559  73.904 117.250  0.00  0.00     0.006 C 
ENDBRANCH   8   9
BRANCH   8  11
ATOM     11  C   LIG d   1      -5.101  75.136 115.092  0.00  0.00     0.028 C 
ATOM     12  C   LIG d   1      -5.836  75.797 113.915  0.00  0.00     0.006 C 
ENDBRANCH   8  11
ENDBRANCH   7   8
ENDBRANCH   1   7
BRANCH   6  13
ATOM     13  N   LIG d   1      -1.229  75.047 117.703  0.00  0.00    -0.311 N 
ATOM     14  C   LIG d   1      -0.896  73.804 117.357  0.00  0.00     0.210 C 
ATOM     15  C   LIG d   1      -0.328  72.947 118.492  0.00  0.00     0.109 C 
ATOM     16  O   LIG d   1      -0.989  73.341 116.210  0.00  0.00    -0.276 OA
ATOM     17  H   LIG d   1      -1.091  75.349 118.648  0.00  0.00     0.149 HD
ENDBRANCH   6  13
BRANCH   5  18
ATOM     18  N   LIG d   1       0.369  76.676 115.671  0.00  0.00     0.381 N 
ATOM     19  H   LIG d   1       1.138  76.591 116.305  0.00  0.00    -0.090 HD
ATOM     20  H   LIG d   1       0.615  77.345 114.964  0.00  0.00    -0.090 HD
ATOM     21  H   LIG d   1       0.176  75.793 115.251  0.00  0.00    -0.090 HD
ENDBRANCH   5  18
BRANCH   3  22
ATOM     22  C   LIG d   1      -3.174  79.898 115.690  0.00  0.00     0.382 C 
ATOM     23  O   LIG d   1      -3.781  80.590 116.542  0.00  0.00    -0.241 OA
ATOM     24  O   LIG d   1      -2.994  80.355 114.545  0.00  0.00    -0.241 OA
ENDBRANCH   3  22
TORSDOF 7
ENDMDL
MODEL 9
REMARK VINA RESULT:      -5.0      2.302      4.977
REMARK  7 active torsions:
REMARK  status: ('A' for Active; 'I' for Inactive)
REMARK    1  A    between atoms: C_2  and  C_3 
REMARK    2  A    between atoms: C_3  and  O_6 
REMARK    3  A    between atoms: C_3  and  C_4 
REMARK    4  A    between atoms: C_7  and  O_6 
REMARK    5  A    between atoms: C_9  and  C_10 
REMARK    6  A    between atoms: N_15  and  C_14 
REMARK    7  A    between atoms: N_20  and  C_19 
REMARK       I    between atoms: C_22  and  N_20 
ROOT
ATOM      1  C   LIG d   1      -4.606  75.188 116.723  0.00  0.00     0.161 C 
ATOM      2  C   LIG d   1      -5.350  74.011 116.541  0.00  0.00     0.016 C 
ATOM      3  C   LIG d   1      -6.758  73.955 116.652  0.00  0.00     0.038 C 
ATOM      4  C   LIG d   1      -7.536  75.112 116.805  0.00  0.00     0.028 C 
ATOM      5  C   LIG d   1      -6.796  76.252 117.496  0.00  0.00    -0.047 C 
ATOM      6  C   LIG d   1      -5.446  76.481 116.780  0.00  0.00     0.091 C 
ENDROOT
BRANCH   1   7
ATOM      7  O   LIG d   1      -3.596  75.292 115.699  0.00  0.00    -0.368 OA
BRANCH   7   8
ATOM      8  C   LIG d   1      -2.224  75.344 116.160  0.00  0.00     0.119 C 
BRANCH   8   9
ATOM      9  C   LIG d   1      -1.433  76.213 115.163  0.00  0.00     0.028 C 
ATOM     10  C   LIG d   1      -0.550  77.258 115.866  0.00  0.00     0.006 C 
ENDBRANCH   8   9
BRANCH   8  11
ATOM     11  C   LIG d   1      -1.565  73.963 116.106  0.00  0.00     0.028 C 
ATOM     12  C   LIG d   1      -0.681  73.676 117.331  0.00  0.00     0.006 C 
ENDBRANCH   8  11
ENDBRANCH   7   8
ENDBRANCH   1   7
BRANCH   6  13
ATOM     13  N   LIG d   1      -4.621  77.524 117.445  0.00  0.00    -0.311 N 
ATOM     14  C   LIG d   1      -3.977  78.483 116.782  0.00  0.00     0.210 C 
ATOM     15  C   LIG d   1      -3.168  79.444 117.659  0.00  0.00     0.109 C 
ATOM     16  O   LIG d   1      -4.025  78.648 115.554  0.00  0.00    -0.276 OA
ATOM     17  H   LIG d   1      -4.553  77.484 118.443  0.00  0.00     0.149 HD
ENDBRANCH   6  13
BRANCH   5  18
ATOM     18  N   LIG d   1      -7.675  77.437 117.466  0.00  0.00     0.381 N 
ATOM     19  H   LIG d   1      -7.121  78.268 117.408  0.00  0.00    -0.090 HD
ATOM     20  H   LIG d   1      -8.205  77.470 118.319  0.00  0.00    -0.090 HD
ATOM     21  H   LIG d   1      -8.292  77.384 116.685  0.00  0.00    -0.090 HD
ENDBRANCH   5  18
BRANCH   3  22
ATOM     22  C   LIG d   1      -7.399  72.726 116.650  0.00  0.00     0.382 C 
ATOM     23  O   LIG d   1      -8.651  72.672 116.588  0.00  0.00    -0.241 OA
ATOM     24  O   LIG d   1      -6.744  71.671 116.754  0.00  0.00    -0.241 OA
ENDBRANCH   3  22
TORSDOF 7
ENDMDL
