MODEL 1
REMARK VINA RESULT:      -5.5      0.000      0.000
REMARK  7 active torsions:
REMARK  status: ('A' for Active; 'I' for Inactive)
REMARK    1  A    between atoms: C_2  and  C_3 
REMARK    2  A    between atoms: C_3  and  O_6 
REMARK    3  A    between atoms: C_3  and  C_4 
REMARK    4  A    between atoms: C_7  and  O_6 
REMARK    5  A    between atoms: C_9  and  C_10 
REMARK    6  A    between atoms: N_15  and  C_14 
REMARK    7  A    between atoms: N_20  and  C_19 
REMARK       I    between atoms: C_22  and  N_20 
ROOT
ATOM      1  C   LIG d   1      -7.672  74.997 117.723  0.00  0.00     0.161 C 
ATOM      2  C   LIG d   1      -8.830  75.780 117.861  0.00  0.00     0.016 C 
ATOM      3  C   LIG d   1      -8.815  77.194 117.891  0.00  0.00     0.038 C 
ATOM      4  C   LIG d   1      -7.648  77.928 117.633  0.00  0.00     0.028 C 
ATOM      5  C   LIG d   1      -6.369  77.179 117.990  0.00  0.00    -0.047 C 
ATOM      6  C   LIG d   1      -6.403  75.783 117.329  0.00  0.00     0.091 C 
ENDROOT
BRANCH   1   7
ATOM      7  O   LIG d   1      -7.912  73.930 116.785  0.00  0.00    -0.368 OA
BRANCH   7   8
ATOM      8  C   LIG d   1      -8.303  72.656 117.355  0.00  0.00     0.119 C 
BRANCH   8   9
ATOM      9  C   LIG d   1      -7.663  71.549 116.496  0.00  0.00     0.028 C 
ATOM     10  C   LIG d   1      -6.689  72.109 115.446  0.00  0.00     0.006 C 
ENDBRANCH   8   9
BRANCH   8  11
ATOM     11  C   LIG d   1      -9.814  72.436 117.242  0.00  0.00     0.028 C 
ATOM     12  C   LIG d   1     -10.174  71.052 116.677  0.00  0.00     0.006 C 
ENDBRANCH   8  11
ENDBRANCH   7   8
ENDBRANCH   1   7
BRANCH   6  13
ATOM     13  N   LIG d   1      -5.227  74.952 117.696  0.00  0.00    -0.311 N 
ATOM     14  C   LIG d   1      -4.107  74.908 116.977  0.00  0.00     0.210 C 
ATOM     15  C   LIG d   1      -3.025  73.972 117.523  0.00  0.00     0.109 C 
ATOM     16  O   LIG d   1      -3.895  75.580 115.957  0.00  0.00    -0.276 OA
ATOM     17  H   LIG d   1      -5.302  74.399 118.527  0.00  0.00     0.149 HD
ENDBRANCH   6  13
BRANCH   5  18
ATOM     18  N   LIG d   1      -5.230  78.003 117.543  0.00  0.00     0.381 N 
ATOM     19  H   LIG d   1      -5.480  78.505 116.715  0.00  0.00    -0.090 HD
ATOM     20  H   LIG d   1      -4.458  77.399 117.324  0.00  0.00    -0.090 HD
ATOM     21  H   LIG d   1      -4.968  78.642 118.261  0.00  0.00    -0.090 HD
ENDBRANCH   5  18
BRANCH   3  22
ATOM     22  C   LIG d   1      -9.970  77.886 118.222  0.00  0.00     0.382 C 
ATOM     23  O   LIG d   1     -10.005  79.135 118.110  0.00  0.00    -0.241 OA
ATOM     24  O   LIG d   1     -10.961  77.282 118.674  0.00  0.00    -0.241 OA
ENDBRANCH   3  22
TORSDOF 7
ENDMDL
MODEL 2
REMARK VINA RESULT:      -5.3      3.677      5.884
REMARK  7 active torsions:
REMARK  status: ('A' for Active; 'I' for Inactive)
REMARK    1  A    between atoms: C_2  and  C_3 
REMARK    2  A    between atoms: C_3  and  O_6 
REMARK    3  A    between atoms: C_3  and  C_4 
REMARK    4  A    between atoms: C_7  and  O_6 
REMARK    5  A    between atoms: C_9  and  C_10 
REMARK    6  A    between atoms: N_15  and  C_14 
REMARK    7  A    between atoms: N_20  and  C_19 
REMARK       I    between atoms: C_22  and  N_20 
ROOT
ATOM      1  C   LIG d   1      -3.685  76.435 114.991  0.00  0.00     0.161 C 
ATOM      2  C   LIG d   1      -3.669  77.521 114.100  0.00  0.00     0.016 C 
ATOM      3  C   LIG d   1      -2.512  78.286 113.826  0.00  0.00     0.038 C 
ATOM      4  C   LIG d   1      -1.249  77.920 114.313  0.00  0.00     0.028 C 
ATOM      5  C   LIG d   1      -1.308  77.131 115.617  0.00  0.00    -0.047 C 
ATOM      6  C   LIG d   1      -2.292  75.952 115.447  0.00  0.00     0.091 C 
ENDROOT
BRANCH   1   7
ATOM      7  O   LIG d   1      -4.431  75.343 114.417  0.00  0.00    -0.368 OA
BRANCH   7   8
ATOM      8  C   LIG d   1      -5.762  75.131 114.950  0.00  0.00     0.119 C 
BRANCH   8   9
ATOM      9  C   LIG d   1      -6.209  76.447 115.615  0.00  0.00     0.028 C 
ATOM     10  C   LIG d   1      -7.156  76.211 116.804  0.00  0.00     0.006 C 
ENDBRANCH   8   9
BRANCH   8  11
ATOM     11  C   LIG d   1      -5.752  74.091 116.074  0.00  0.00     0.028 C 
ATOM     12  C   LIG d   1      -6.706  72.916 115.806  0.00  0.00     0.006 C 
ENDBRANCH   8  11
ENDBRANCH   7   8
ENDBRANCH   1   7
BRANCH   6  13
ATOM     13  N   LIG d   1      -2.473  75.178 116.702  0.00  0.00    -0.311 N 
ATOM     14  C   LIG d   1      -1.774  74.083 116.996  0.00  0.00     0.210 C 
ATOM     15  C   LIG d   1      -2.132  73.427 118.333  0.00  0.00     0.109 C 
ATOM     16  O   LIG d   1      -0.869  73.611 116.291  0.00  0.00    -0.276 OA
ATOM     17  H   LIG d   1      -3.165  75.509 117.346  0.00  0.00     0.149 HD
ENDBRANCH   6  13
BRANCH   5  18
ATOM     18  N   LIG d   1       0.065  76.697 115.938  0.00  0.00     0.381 N 
ATOM     19  H   LIG d   1       0.724  77.270 115.450  0.00  0.00    -0.090 HD
ATOM     20  H   LIG d   1       0.185  75.748 115.631  0.00  0.00    -0.090 HD
ATOM     21  H   LIG d   1       0.222  76.759 116.920  0.00  0.00    -0.090 HD
ENDBRANCH   5  18
BRANCH   3  22
ATOM     22  C   LIG d   1      -2.620  79.455 113.088  0.00  0.00     0.382 C 
ATOM     23  O   LIG d   1      -1.925  79.611 112.055  0.00  0.00    -0.241 OA
ATOM     24  O   LIG d   1      -3.370  80.374 113.467  0.00  0.00    -0.241 OA
ENDBRANCH   3  22
TORSDOF 7
ENDMDL
MODEL 3
REMARK VINA RESULT:      -5.1      3.881      6.775
REMARK  7 active torsions:
REMARK  status: ('A' for Active; 'I' for Inactive)
REMARK    1  A    between atoms: C_2  and  C_3 
REMARK    2  A    between atoms: C_3  and  O_6 
REMARK    3  A    between atoms: C_3  and  C_4 
REMARK    4  A    between atoms: C_7  and  O_6 
REMARK    5  A    between atoms: C_9  and  C_10 
REMARK    6  A    between atoms: N_15  and  C_14 
REMARK    7  A    between atoms: N_20  and  C_19 
REMARK       I    between atoms: C_22  and  N_20 
ROOT
ATOM      1  C   LIG d   1      -2.706  75.108 115.842  0.00  0.00     0.161 C 
ATOM      2  C   LIG d   1      -2.203  74.317 116.888  0.00  0.00     0.016 C 
ATOM      3  C   LIG d   1      -0.980  74.583 117.546  0.00  0.00     0.038 C 
ATOM      4  C   LIG d   1      -0.246  75.753 117.302  0.00  0.00     0.028 C 
ATOM      5  C   LIG d   1      -0.457  76.320 115.902  0.00  0.00    -0.047 C 
ATOM      6  C   LIG d   1      -1.975  76.451 115.638  0.00  0.00     0.091 C 
ENDROOT
BRANCH   1   7
ATOM      7  O   LIG d   1      -4.117  75.330 116.033  0.00  0.00    -0.368 OA
BRANCH   7   8
ATOM      8  C   LIG d   1      -4.970  75.018 114.904  0.00  0.00     0.119 C 
BRANCH   8   9
ATOM      9  C   LIG d   1      -5.893  76.230 114.672  0.00  0.00     0.028 C 
ATOM     10  C   LIG d   1      -5.758  77.291 115.778  0.00  0.00     0.006 C 
ENDBRANCH   8   9
BRANCH   8  11
ATOM     11  C   LIG d   1      -5.908  73.849 115.220  0.00  0.00     0.028 C 
ATOM     12  C   LIG d   1      -6.332  73.808 116.697  0.00  0.00     0.006 C 
ENDBRANCH   8  11
ENDBRANCH   7   8
ENDBRANCH   1   7
BRANCH   6  13
ATOM     13  N   LIG d   1      -2.271  76.919 114.259  0.00  0.00    -0.311 N 
ATOM     14  C   LIG d   1      -2.517  78.192 113.953  0.00  0.00     0.210 C 
ATOM     15  C   LIG d   1      -2.819  78.456 112.475  0.00  0.00     0.109 C 
ATOM     16  O   LIG d   1      -2.481  79.133 114.761  0.00  0.00    -0.276 OA
ATOM     17  H   LIG d   1      -2.290  76.226 113.536  0.00  0.00     0.149 HD
ENDBRANCH   6  13
BRANCH   5  18
ATOM     18  N   LIG d   1       0.256  77.609 115.831  0.00  0.00     0.381 N 
ATOM     19  H   LIG d   1       1.121  77.491 115.342  0.00  0.00    -0.090 HD
ATOM     20  H   LIG d   1       0.461  77.919 116.764  0.00  0.00    -0.090 HD
ATOM     21  H   LIG d   1      -0.308  78.285 115.364  0.00  0.00    -0.090 HD
ENDBRANCH   5  18
BRANCH   3  22
ATOM     22  C   LIG d   1      -0.459  73.652 118.432  0.00  0.00     0.382 C 
ATOM     23  O   LIG d   1       0.520  73.954 119.156  0.00  0.00    -0.241 OA
ATOM     24  O   LIG d   1      -0.928  72.499 118.485  0.00  0.00    -0.241 OA
ENDBRANCH   3  22
TORSDOF 7
ENDMDL
MODEL 4
REMARK VINA RESULT:      -5.0      3.413      5.628
REMARK  7 active torsions:
REMARK  status: ('A' for Active; 'I' for Inactive)
REMARK    1  A    between atoms: C_2  and  C_3 
REMARK    2  A    between atoms: C_3  and  O_6 
REMARK    3  A    between atoms: C_3  and  C_4 
REMARK    4  A    between atoms: C_7  and  O_6 
REMARK    5  A    between atoms: C_9  and  C_10 
REMARK    6  A    between atoms: N_15  and  C_14 
REMARK    7  A    between atoms: N_20  and  C_19 
REMARK       I    between atoms: C_22  and  N_20 
ROOT
ATOM      1  C   LIG d   1      -3.633  75.737 115.773  0.00  0.00     0.161 C 
ATOM      2  C   LIG d   1      -3.770  76.671 114.732  0.00  0.00     0.016 C 
ATOM      3  C   LIG d   1      -2.677  77.356 114.153  0.00  0.00     0.038 C 
ATOM      4  C   LIG d   1      -1.349  77.040 114.475  0.00  0.00     0.028 C 
ATOM      5  C   LIG d   1      -1.186  76.465 115.878  0.00  0.00    -0.047 C 
ATOM      6  C   LIG d   1      -2.182  75.297 116.061  0.00  0.00     0.091 C 
ENDROOT
BRANCH   1   7
ATOM      7  O   LIG d   1      -4.462  74.588 115.510  0.00  0.00    -0.368 OA
BRANCH   7   8
ATOM      8  C   LIG d   1      -5.343  74.178 116.585  0.00  0.00     0.119 C 
BRANCH   8   9
ATOM      9  C   LIG d   1      -6.696  73.797 115.955  0.00  0.00     0.028 C 
ATOM     10  C   LIG d   1      -6.925  72.276 115.930  0.00  0.00     0.006 C 
ENDBRANCH   8   9
BRANCH   8  11
ATOM     11  C   LIG d   1      -5.649  75.344 117.530  0.00  0.00     0.028 C 
ATOM     12  C   LIG d   1      -7.108  75.351 118.013  0.00  0.00     0.006 C 
ENDBRANCH   8  11
ENDBRANCH   7   8
ENDBRANCH   1   7
BRANCH   6  13
ATOM     13  N   LIG d   1      -2.148  74.733 117.435  0.00  0.00    -0.311 N 
ATOM     14  C   LIG d   1      -1.377  73.705 117.787  0.00  0.00     0.210 C 
ATOM     15  C   LIG d   1      -1.509  73.268 119.249  0.00  0.00     0.109 C 
ATOM     16  O   LIG d   1      -0.572  73.135 117.034  0.00  0.00    -0.276 OA
ATOM     17  H   LIG d   1      -2.747  75.156 118.117  0.00  0.00     0.149 HD
ENDBRANCH   6  13
BRANCH   5  18
ATOM     18  N   LIG d   1       0.222  76.053 116.030  0.00  0.00     0.381 N 
ATOM     19  H   LIG d   1       0.770  76.829 116.344  0.00  0.00    -0.090 HD
ATOM     20  H   LIG d   1       0.573  75.760 115.136  0.00  0.00    -0.090 HD
ATOM     21  H   LIG d   1       0.289  75.304 116.684  0.00  0.00    -0.090 HD
ENDBRANCH   5  18
BRANCH   3  22
ATOM     22  C   LIG d   1      -2.910  78.398 113.269  0.00  0.00     0.382 C 
ATOM     23  O   LIG d   1      -3.563  78.194 112.217  0.00  0.00    -0.241 OA
ATOM     24  O   LIG d   1      -2.438  79.530 113.488  0.00  0.00    -0.241 OA
ENDBRANCH   3  22
TORSDOF 7
ENDMDL
MODEL 5
REMARK VINA RESULT:      -4.7     18.732     21.272
REMARK  7 active torsions:
REMARK  status: ('A' for Active; 'I' for Inactive)
REMARK    1  A    between atoms: C_2  and  C_3 
REMARK    2  A    between atoms: C_3  and  O_6 
REMARK    3  A    between atoms: C_3  and  C_4 
REMARK    4  A    between atoms: C_7  and  O_6 
REMARK    5  A    between atoms: C_9  and  C_10 
REMARK    6  A    between atoms: N_15  and  C_14 
REMARK    7  A    between atoms: N_20  and  C_19 
REMARK       I    between atoms: C_22  and  N_20 
ROOT
ATOM      1  C   LIG d   1     -25.548  85.174 114.464  0.00  0.00     0.161 C 
ATOM      2  C   LIG d   1     -24.564  86.175 114.397  0.00  0.00     0.016 C 
ATOM      3  C   LIG d   1     -23.263  85.955 113.889  0.00  0.00     0.038 C 
ATOM      4  C   LIG d   1     -22.903  84.749 113.271  0.00  0.00     0.028 C 
ATOM      5  C   LIG d   1     -23.701  83.549 113.770  0.00  0.00    -0.047 C 
ATOM      6  C   LIG d   1     -25.209  83.882 113.691  0.00  0.00     0.091 C 
ENDROOT
BRANCH   1   7
ATOM      7  O   LIG d   1     -26.814  85.703 114.024  0.00  0.00    -0.368 OA
BRANCH   7   8
ATOM      8  C   LIG d   1     -26.973  85.869 112.593  0.00  0.00     0.119 C 
BRANCH   8   9
ATOM      9  C   LIG d   1     -27.406  87.326 112.342  0.00  0.00     0.028 C 
ATOM     10  C   LIG d   1     -27.722  88.078 113.646  0.00  0.00     0.006 C 
ENDBRANCH   8   9
BRANCH   8  11
ATOM     11  C   LIG d   1     -28.120  85.007 112.057  0.00  0.00     0.028 C 
ATOM     12  C   LIG d   1     -29.128  84.609 113.147  0.00  0.00     0.006 C 
ENDBRANCH   8  11
ENDBRANCH   7   8
ENDBRANCH   1   7
BRANCH   6  13
ATOM     13  N   LIG d   1     -26.059  82.793 114.240  0.00  0.00    -0.311 N 
ATOM     14  C   LIG d   1     -26.614  81.845 113.487  0.00  0.00     0.210 C 
ATOM     15  C   LIG d   1     -27.469  80.830 114.251  0.00  0.00     0.109 C 
ATOM     16  O   LIG d   1     -26.452  81.730 112.262  0.00  0.00    -0.276 OA
ATOM     17  H   LIG d   1     -26.216  82.792 115.229  0.00  0.00     0.149 HD
ENDBRANCH   6  13
BRANCH   5  18
ATOM     18  N   LIG d   1     -23.321  82.386 112.946  0.00  0.00     0.381 N 
ATOM     19  H   LIG d   1     -22.772  81.751 113.489  0.00  0.00    -0.090 HD
ATOM     20  H   LIG d   1     -22.763  82.704 112.173  0.00  0.00    -0.090 HD
ATOM     21  H   LIG d   1     -24.138  81.926 112.609  0.00  0.00    -0.090 HD
ENDBRANCH   5  18
BRANCH   3  22
ATOM     22  C   LIG d   1     -22.294  86.936 114.035  0.00  0.00     0.382 C 
ATOM     23  O   LIG d   1     -21.128  86.731 113.620  0.00  0.00    -0.241 OA
ATOM     24  O   LIG d   1     -22.560  88.005 114.615  0.00  0.00    -0.241 OA
ENDBRANCH   3  22
TORSDOF 7
ENDMDL
MODEL 6
REMARK VINA RESULT:      -4.7     16.310     18.734
REMARK  7 active torsions:
REMARK  status: ('A' for Active; 'I' for Inactive)
REMARK    1  A    between atoms: C_2  and  C_3 
REMARK    2  A    between atoms: C_3  and  O_6 
REMARK    3  A    between atoms: C_3  and  C_4 
REMARK    4  A    between atoms: C_7  and  O_6 
REMARK    5  A    between atoms: C_9  and  C_10 
REMARK    6  A    between atoms: N_15  and  C_14 
REMARK    7  A    between atoms: N_20  and  C_19 
REMARK       I    between atoms: C_22  and  N_20 
ROOT
ATOM      1  C   LIG d   1     -23.573  83.116 116.054  0.00  0.00     0.161 C 
ATOM      2  C   LIG d   1     -24.047  81.794 116.020  0.00  0.00     0.016 C 
ATOM      3  C   LIG d   1     -24.547  81.177 114.850  0.00  0.00     0.038 C 
ATOM      4  C   LIG d   1     -24.465  81.794 113.593  0.00  0.00     0.028 C 
ATOM      5  C   LIG d   1     -24.458  83.317 113.665  0.00  0.00    -0.047 C 
ATOM      6  C   LIG d   1     -23.372  83.767 114.669  0.00  0.00     0.091 C 
ENDROOT
BRANCH   1   7
ATOM      7  O   LIG d   1     -22.352  83.177 116.817  0.00  0.00    -0.368 OA
BRANCH   7   8
ATOM      8  C   LIG d   1     -22.462  83.732 118.151  0.00  0.00     0.119 C 
BRANCH   8   9
ATOM      9  C   LIG d   1     -22.393  82.558 119.148  0.00  0.00     0.028 C 
ATOM     10  C   LIG d   1     -21.150  81.677 118.932  0.00  0.00     0.006 C 
ENDBRANCH   8   9
BRANCH   8  11
ATOM     11  C   LIG d   1     -23.833  84.374 118.376  0.00  0.00     0.028 C 
ATOM     12  C   LIG d   1     -23.767  85.908 118.455  0.00  0.00     0.006 C 
ENDBRANCH   8  11
ENDBRANCH   7   8
ENDBRANCH   1   7
BRANCH   6  13
ATOM     13  N   LIG d   1     -23.355  85.240 114.863  0.00  0.00    -0.311 N 
ATOM     14  C   LIG d   1     -22.561  86.060 114.177  0.00  0.00     0.210 C 
ATOM     15  C   LIG d   1     -22.687  87.542 114.547  0.00  0.00     0.109 C 
ATOM     16  O   LIG d   1     -21.787  85.706 113.275  0.00  0.00    -0.276 OA
ATOM     17  H   LIG d   1     -23.974  85.617 115.553  0.00  0.00     0.149 HD
ENDBRANCH   6  13
BRANCH   5  18
ATOM     18  N   LIG d   1     -24.230  83.827 112.300  0.00  0.00     0.381 N 
ATOM     19  H   LIG d   1     -23.255  84.003 112.163  0.00  0.00    -0.090 HD
ATOM     20  H   LIG d   1     -24.726  84.693 112.190  0.00  0.00    -0.090 HD
ATOM     21  H   LIG d   1     -24.553  83.163 111.630  0.00  0.00    -0.090 HD
ENDBRANCH   5  18
BRANCH   3  22
ATOM     22  C   LIG d   1     -25.174  79.943 114.939  0.00  0.00     0.382 C 
ATOM     23  O   LIG d   1     -26.384  79.831 114.629  0.00  0.00    -0.241 OA
ATOM     24  O   LIG d   1     -24.555  78.950 115.366  0.00  0.00    -0.241 OA
ENDBRANCH   3  22
TORSDOF 7
ENDMDL
MODEL 7
REMARK VINA RESULT:      -4.7      2.945      6.356
REMARK  7 active torsions:
REMARK  status: ('A' for Active; 'I' for Inactive)
REMARK    1  A    between atoms: C_2  and  C_3 
REMARK    2  A    between atoms: C_3  and  O_6 
REMARK    3  A    between atoms: C_3  and  C_4 
REMARK    4  A    between atoms: C_7  and  O_6 
REMARK    5  A    between atoms: C_9  and  C_10 
REMARK    6  A    between atoms: N_15  and  C_14 
REMARK    7  A    between atoms: N_20  and  C_19 
REMARK       I    between atoms: C_22  and  N_20 
ROOT
ATOM      1  C   LIG d   1      -3.686  74.455 116.394  0.00  0.00     0.161 C 
ATOM      2  C   LIG d   1      -2.617  75.241 115.934  0.00  0.00     0.016 C 
ATOM      3  C   LIG d   1      -2.775  76.320 115.034  0.00  0.00     0.038 C 
ATOM      4  C   LIG d   1      -4.041  76.784 114.648  0.00  0.00     0.028 C 
ATOM      5  C   LIG d   1      -5.119  75.707 114.688  0.00  0.00    -0.047 C 
ATOM      6  C   LIG d   1      -5.087  75.017 116.071  0.00  0.00     0.091 C 
ENDROOT
BRANCH   1   7
ATOM      7  O   LIG d   1      -3.552  74.229 117.811  0.00  0.00    -0.368 OA
BRANCH   7   8
ATOM      8  C   LIG d   1      -2.775  75.209 118.542  0.00  0.00     0.119 C 
BRANCH   8   9
ATOM      9  C   LIG d   1      -1.916  74.445 119.569  0.00  0.00     0.028 C 
ATOM     10  C   LIG d   1      -1.222  73.217 118.957  0.00  0.00     0.006 C 
ENDBRANCH   8   9
BRANCH   8  11
ATOM     11  C   LIG d   1      -3.676  76.129 119.371  0.00  0.00     0.028 C 
ATOM     12  C   LIG d   1      -3.965  77.467 118.672  0.00  0.00     0.006 C 
ENDBRANCH   8  11
ENDBRANCH   7   8
ENDBRANCH   1   7
BRANCH   6  13
ATOM     13  N   LIG d   1      -6.055  73.893 116.166  0.00  0.00    -0.311 N 
ATOM     14  C   LIG d   1      -6.981  73.802 117.118  0.00  0.00     0.210 C 
ATOM     15  C   LIG d   1      -7.864  72.552 117.044  0.00  0.00     0.109 C 
ATOM     16  O   LIG d   1      -7.177  74.653 117.999  0.00  0.00    -0.276 OA
ATOM     17  H   LIG d   1      -5.988  73.173 115.473  0.00  0.00     0.149 HD
ENDBRANCH   6  13
BRANCH   5  18
ATOM     18  N   LIG d   1      -6.411  76.358 114.397  0.00  0.00     0.381 N 
ATOM     19  H   LIG d   1      -6.737  76.841 115.210  0.00  0.00    -0.090 HD
ATOM     20  H   LIG d   1      -7.084  75.652 114.158  0.00  0.00    -0.090 HD
ATOM     21  H   LIG d   1      -6.307  76.998 113.641  0.00  0.00    -0.090 HD
ENDBRANCH   5  18
BRANCH   3  22
ATOM     22  C   LIG d   1      -1.655  76.921 114.479  0.00  0.00     0.382 C 
ATOM     23  O   LIG d   1      -0.845  77.536 115.213  0.00  0.00    -0.241 OA
ATOM     24  O   LIG d   1      -1.469  76.894 113.247  0.00  0.00    -0.241 OA
ENDBRANCH   3  22
TORSDOF 7
ENDMDL
MODEL 8
REMARK VINA RESULT:      -4.6     17.539     19.743
REMARK  7 active torsions:
REMARK  status: ('A' for Active; 'I' for Inactive)
REMARK    1  A    between atoms: C_2  and  C_3 
REMARK    2  A    between atoms: C_3  and  O_6 
REMARK    3  A    between atoms: C_3  and  C_4 
REMARK    4  A    between atoms: C_7  and  O_6 
REMARK    5  A    between atoms: C_9  and  C_10 
REMARK    6  A    between atoms: N_15  and  C_14 
REMARK    7  A    between atoms: N_20  and  C_19 
REMARK       I    between atoms: C_22  and  N_20 
ROOT
ATOM      1  C   LIG d   1     -24.166  83.600 114.838  0.00  0.00     0.161 C 
ATOM      2  C   LIG d   1     -23.252  84.667 114.849  0.00  0.00     0.016 C 
ATOM      3  C   LIG d   1     -23.436  85.857 114.107  0.00  0.00     0.038 C 
ATOM      4  C   LIG d   1     -24.628  86.123 113.417  0.00  0.00     0.028 C 
ATOM      5  C   LIG d   1     -25.362  84.864 112.967  0.00  0.00    -0.047 C 
ATOM      6  C   LIG d   1     -25.524  83.918 114.179  0.00  0.00     0.091 C 
ENDROOT
BRANCH   1   7
ATOM      7  O   LIG d   1     -24.362  83.110 116.179  0.00  0.00    -0.368 OA
BRANCH   7   8
ATOM      8  C   LIG d   1     -23.733  81.843 116.493  0.00  0.00     0.119 C 
BRANCH   8   9
ATOM      9  C   LIG d   1     -22.287  82.140 116.933  0.00  0.00     0.028 C 
ATOM     10  C   LIG d   1     -22.225  83.040 118.179  0.00  0.00     0.006 C 
ENDBRANCH   8   9
BRANCH   8  11
ATOM     11  C   LIG d   1     -23.606  80.960 115.248  0.00  0.00     0.028 C 
ATOM     12  C   LIG d   1     -24.482  79.700 115.318  0.00  0.00     0.006 C 
ENDBRANCH   8  11
ENDBRANCH   7   8
ENDBRANCH   1   7
BRANCH   6  13
ATOM     13  N   LIG d   1     -26.158  82.626 113.808  0.00  0.00    -0.311 N 
ATOM     14  C   LIG d   1     -27.252  82.149 114.400  0.00  0.00     0.210 C 
ATOM     15  C   LIG d   1     -27.728  80.790 113.879  0.00  0.00     0.109 C 
ATOM     16  O   LIG d   1     -27.891  82.738 115.284  0.00  0.00    -0.276 OA
ATOM     17  H   LIG d   1     -25.722  82.097 113.077  0.00  0.00     0.149 HD
ENDBRANCH   6  13
BRANCH   5  18
ATOM     18  N   LIG d   1     -26.651  85.284 112.385  0.00  0.00     0.381 N 
ATOM     19  H   LIG d   1     -27.403  84.835 112.869  0.00  0.00    -0.090 HD
ATOM     20  H   LIG d   1     -26.681  84.999 111.422  0.00  0.00    -0.090 HD
ATOM     21  H   LIG d   1     -26.748  86.274 112.450  0.00  0.00    -0.090 HD
ENDBRANCH   5  18
BRANCH   3  22
ATOM     22  C   LIG d   1     -22.404  86.778 114.019  0.00  0.00     0.382 C 
ATOM     23  O   LIG d   1     -21.325  86.459 113.464  0.00  0.00    -0.241 OA
ATOM     24  O   LIG d   1     -22.521  87.909 114.526  0.00  0.00    -0.241 OA
ENDBRANCH   3  22
TORSDOF 7
ENDMDL
MODEL 9
REMARK VINA RESULT:      -4.6     13.128     16.183
REMARK  7 active torsions:
REMARK  status: ('A' for Active; 'I' for Inactive)
REMARK    1  A    between atoms: C_2  and  C_3 
REMARK    2  A    between atoms: C_3  and  O_6 
REMARK    3  A    between atoms: C_3  and  C_4 
REMARK    4  A    between atoms: C_7  and  O_6 
REMARK    5  A    between atoms: C_9  and  C_10 
REMARK    6  A    between atoms: N_15  and  C_14 
REMARK    7  A    between atoms: N_20  and  C_19 
REMARK       I    between atoms: C_22  and  N_20 
ROOT
ATOM      1  C   LIG d   1     -16.642  62.646 115.716  0.00  0.00     0.161 C 
ATOM      2  C   LIG d   1     -16.704  61.456 114.972  0.00  0.00     0.016 C 
ATOM      3  C   LIG d   1     -17.126  61.403 113.623  0.00  0.00     0.038 C 
ATOM      4  C   LIG d   1     -17.370  62.565 112.876  0.00  0.00     0.028 C 
ATOM      5  C   LIG d   1     -17.807  63.752 113.728  0.00  0.00    -0.047 C 
ATOM      6  C   LIG d   1     -16.798  63.937 114.885  0.00  0.00     0.091 C 
ENDROOT
BRANCH   1   7
ATOM      7  O   LIG d   1     -15.417  62.684 116.475  0.00  0.00    -0.368 OA
BRANCH   7   8
ATOM      8  C   LIG d   1     -15.555  62.584 117.913  0.00  0.00     0.119 C 
BRANCH   8   9
ATOM      9  C   LIG d   1     -14.562  63.579 118.544  0.00  0.00     0.028 C 
ATOM     10  C   LIG d   1     -15.255  64.597 119.465  0.00  0.00     0.006 C 
ENDBRANCH   8   9
BRANCH   8  11
ATOM     11  C   LIG d   1     -15.124  61.205 118.420  0.00  0.00     0.028 C 
ATOM     12  C   LIG d   1     -16.281  60.412 119.049  0.00  0.00     0.006 C 
ENDBRANCH   8  11
ENDBRANCH   7   8
ENDBRANCH   1   7
BRANCH   6  13
ATOM     13  N   LIG d   1     -17.197  65.026 115.815  0.00  0.00    -0.311 N 
ATOM     14  C   LIG d   1     -16.381  66.013 116.181  0.00  0.00     0.210 C 
ATOM     15  C   LIG d   1     -16.985  67.020 117.164  0.00  0.00     0.109 C 
ATOM     16  O   LIG d   1     -15.225  66.168 115.759  0.00  0.00    -0.276 OA
ATOM     17  H   LIG d   1     -18.128  64.995 116.181  0.00  0.00     0.149 HD
ENDBRANCH   6  13
BRANCH   5  18
ATOM     18  N   LIG d   1     -17.893  64.928 112.842  0.00  0.00     0.381 N 
ATOM     19  H   LIG d   1     -17.263  64.820 112.073  0.00  0.00    -0.090 HD
ATOM     20  H   LIG d   1     -17.621  65.745 113.360  0.00  0.00    -0.090 HD
ATOM     21  H   LIG d   1     -18.825  65.034 112.506  0.00  0.00    -0.090 HD
ENDBRANCH   5  18
BRANCH   3  22
ATOM     22  C   LIG d   1     -17.344  60.174 113.020  0.00  0.00     0.382 C 
ATOM     23  O   LIG d   1     -18.304  60.027 112.226  0.00  0.00    -0.241 OA
ATOM     24  O   LIG d   1     -16.621  59.198 113.294  0.00  0.00    -0.241 OA
ENDBRANCH   3  22
TORSDOF 7
ENDMDL
