MODEL 1
REMARK VINA RESULT:      -6.0      0.000      0.000
REMARK  7 active torsions:
REMARK  status: ('A' for Active; 'I' for Inactive)
REMARK    1  A    between atoms: C_2  and  C_3 
REMARK    2  A    between atoms: C_3  and  O_6 
REMARK    3  A    between atoms: C_3  and  C_4 
REMARK    4  A    between atoms: C_7  and  O_6 
REMARK    5  A    between atoms: C_9  and  C_10 
REMARK    6  A    between atoms: N_15  and  C_14 
REMARK    7  A    between atoms: N_20  and  C_19 
REMARK       I    between atoms: C_22  and  N_20 
ROOT
ATOM      1  C   LIG d   1      -6.621  74.665 117.205  0.00  0.00     0.161 C 
ATOM      2  C   LIG d   1      -5.413  73.978 116.997  0.00  0.00     0.016 C 
ATOM      3  C   LIG d   1      -4.146  74.521 117.309  0.00  0.00     0.038 C 
ATOM      4  C   LIG d   1      -4.008  75.737 117.994  0.00  0.00     0.028 C 
ATOM      5  C   LIG d   1      -5.174  76.694 117.770  0.00  0.00    -0.047 C 
ATOM      6  C   LIG d   1      -6.498  75.948 118.054  0.00  0.00     0.091 C 
ENDROOT
BRANCH   1   7
ATOM      7  O   LIG d   1      -7.597  73.775 117.781  0.00  0.00    -0.368 OA
BRANCH   7   8
ATOM      8  C   LIG d   1      -8.116  72.745 116.904  0.00  0.00     0.119 C 
BRANCH   8   9
ATOM      9  C   LIG d   1      -9.651  72.878 116.890  0.00  0.00     0.028 C 
ATOM     10  C   LIG d   1     -10.115  74.260 116.400  0.00  0.00     0.006 C 
ENDBRANCH   8   9
BRANCH   8  11
ATOM     11  C   LIG d   1      -7.836  71.346 117.461  0.00  0.00     0.028 C 
ATOM     12  C   LIG d   1      -9.048  70.407 117.351  0.00  0.00     0.006 C 
ENDBRANCH   8  11
ENDBRANCH   7   8
ENDBRANCH   1   7
BRANCH   6  13
ATOM     13  N   LIG d   1      -7.693  76.787 117.778  0.00  0.00    -0.311 N 
ATOM     14  C   LIG d   1      -8.634  77.044 118.685  0.00  0.00     0.210 C 
ATOM     15  C   LIG d   1      -9.791  77.915 118.186  0.00  0.00     0.109 C 
ATOM     16  O   LIG d   1      -8.603  76.660 119.864  0.00  0.00    -0.276 OA
ATOM     17  H   LIG d   1      -7.781  77.165 116.855  0.00  0.00     0.149 HD
ENDBRANCH   6  13
BRANCH   5  18
ATOM     18  N   LIG d   1      -4.969  77.861 118.649  0.00  0.00     0.381 N 
ATOM     19  H   LIG d   1      -5.853  78.212 118.959  0.00  0.00    -0.090 HD
ATOM     20  H   LIG d   1      -4.508  78.585 118.126  0.00  0.00    -0.090 HD
ATOM     21  H   LIG d   1      -4.412  77.603 119.434  0.00  0.00    -0.090 HD
ENDBRANCH   5  18
BRANCH   3  22
ATOM     22  C   LIG d   1      -2.996  73.864 116.897  0.00  0.00     0.382 C 
ATOM     23  O   LIG d   1      -2.366  73.139 117.705  0.00  0.00    -0.241 OA
ATOM     24  O   LIG d   1      -2.558  74.021 115.742  0.00  0.00    -0.241 OA
ENDBRANCH   3  22
TORSDOF 7
ENDMDL
MODEL 2
REMARK VINA RESULT:      -5.5      1.541      4.778
REMARK  7 active torsions:
REMARK  status: ('A' for Active; 'I' for Inactive)
REMARK    1  A    between atoms: C_2  and  C_3 
REMARK    2  A    between atoms: C_3  and  O_6 
REMARK    3  A    between atoms: C_3  and  C_4 
REMARK    4  A    between atoms: C_7  and  O_6 
REMARK    5  A    between atoms: C_9  and  C_10 
REMARK    6  A    between atoms: N_15  and  C_14 
REMARK    7  A    between atoms: N_20  and  C_19 
REMARK       I    between atoms: C_22  and  N_20 
ROOT
ATOM      1  C   LIG d   1      -7.186  75.361 118.784  0.00  0.00     0.161 C 
ATOM      2  C   LIG d   1      -8.258  76.262 118.885  0.00  0.00     0.016 C 
ATOM      3  C   LIG d   1      -8.284  77.518 118.235  0.00  0.00     0.038 C 
ATOM      4  C   LIG d   1      -7.297  77.895 117.313  0.00  0.00     0.028 C 
ATOM      5  C   LIG d   1      -5.946  77.234 117.566  0.00  0.00    -0.047 C 
ATOM      6  C   LIG d   1      -6.150  75.707 117.693  0.00  0.00     0.091 C 
ENDROOT
BRANCH   1   7
ATOM      7  O   LIG d   1      -7.688  74.023 118.591  0.00  0.00    -0.368 OA
BRANCH   7   8
ATOM      8  C   LIG d   1      -7.825  73.586 117.217  0.00  0.00     0.119 C 
BRANCH   8   9
ATOM      9  C   LIG d   1      -9.303  73.210 116.996  0.00  0.00     0.028 C 
ATOM     10  C   LIG d   1     -10.107  74.347 116.342  0.00  0.00     0.006 C 
ENDBRANCH   8   9
BRANCH   8  11
ATOM     11  C   LIG d   1      -7.037  72.299 116.960  0.00  0.00     0.028 C 
ATOM     12  C   LIG d   1      -7.908  71.037 117.057  0.00  0.00     0.006 C 
ENDBRANCH   8  11
ENDBRANCH   7   8
ENDBRANCH   1   7
BRANCH   6  13
ATOM     13  N   LIG d   1      -4.890  74.993 118.026  0.00  0.00    -0.311 N 
ATOM     14  C   LIG d   1      -4.081  74.468 117.108  0.00  0.00     0.210 C 
ATOM     15  C   LIG d   1      -2.844  73.757 117.667  0.00  0.00     0.109 C 
ATOM     16  O   LIG d   1      -4.252  74.553 115.883  0.00  0.00    -0.276 OA
ATOM     17  H   LIG d   1      -4.658  74.905 118.996  0.00  0.00     0.149 HD
ENDBRANCH   6  13
BRANCH   5  18
ATOM     18  N   LIG d   1      -5.051  77.607 116.454  0.00  0.00     0.381 N 
ATOM     19  H   LIG d   1      -4.250  78.089 116.811  0.00  0.00    -0.090 HD
ATOM     20  H   LIG d   1      -5.543  78.228 115.836  0.00  0.00    -0.090 HD
ATOM     21  H   LIG d   1      -4.765  76.792 115.959  0.00  0.00    -0.090 HD
ENDBRANCH   5  18
BRANCH   3  22
ATOM     22  C   LIG d   1      -9.285  78.428 118.537  0.00  0.00     0.382 C 
ATOM     23  O   LIG d   1      -8.997  79.516 119.092  0.00  0.00    -0.241 OA
ATOM     24  O   LIG d   1     -10.478  78.156 118.303  0.00  0.00    -0.241 OA
ENDBRANCH   3  22
TORSDOF 7
ENDMDL
MODEL 3
REMARK VINA RESULT:      -5.4      2.097      5.418
REMARK  7 active torsions:
REMARK  status: ('A' for Active; 'I' for Inactive)
REMARK    1  A    between atoms: C_2  and  C_3 
REMARK    2  A    between atoms: C_3  and  O_6 
REMARK    3  A    between atoms: C_3  and  C_4 
REMARK    4  A    between atoms: C_7  and  O_6 
REMARK    5  A    between atoms: C_9  and  C_10 
REMARK    6  A    between atoms: N_15  and  C_14 
REMARK    7  A    between atoms: N_20  and  C_19 
REMARK       I    between atoms: C_22  and  N_20 
ROOT
ATOM      1  C   LIG d   1      -5.161  74.323 117.082  0.00  0.00     0.161 C 
ATOM      2  C   LIG d   1      -5.965  73.178 116.947  0.00  0.00     0.016 C 
ATOM      3  C   LIG d   1      -7.377  73.206 117.021  0.00  0.00     0.038 C 
ATOM      4  C   LIG d   1      -8.093  74.410 117.084  0.00  0.00     0.028 C 
ATOM      5  C   LIG d   1      -7.308  75.548 117.729  0.00  0.00    -0.047 C 
ATOM      6  C   LIG d   1      -5.929  75.661 117.040  0.00  0.00     0.091 C 
ENDROOT
BRANCH   1   7
ATOM      7  O   LIG d   1      -4.122  74.311 116.083  0.00  0.00    -0.368 OA
BRANCH   7   8
ATOM      8  C   LIG d   1      -2.790  73.991 116.554  0.00  0.00     0.119 C 
BRANCH   8   9
ATOM      9  C   LIG d   1      -2.818  74.042 118.094  0.00  0.00     0.028 C 
ATOM     10  C   LIG d   1      -1.669  73.241 118.729  0.00  0.00     0.006 C 
ENDBRANCH   8   9
BRANCH   8  11
ATOM     11  C   LIG d   1      -1.778  75.060 116.131  0.00  0.00     0.028 C 
ATOM     12  C   LIG d   1      -0.583  74.477 115.360  0.00  0.00     0.006 C 
ENDBRANCH   8  11
ENDBRANCH   7   8
ENDBRANCH   1   7
BRANCH   6  13
ATOM     13  N   LIG d   1      -5.065  76.695 117.667  0.00  0.00    -0.311 N 
ATOM     14  C   LIG d   1      -4.395  77.611 116.971  0.00  0.00     0.210 C 
ATOM     15  C   LIG d   1      -3.548  78.571 117.812  0.00  0.00     0.109 C 
ATOM     16  O   LIG d   1      -4.448  77.741 115.738  0.00  0.00    -0.276 OA
ATOM     17  H   LIG d   1      -4.990  76.682 118.666  0.00  0.00     0.149 HD
ENDBRANCH   6  13
BRANCH   5  18
ATOM     18  N   LIG d   1      -8.119  76.774 117.606  0.00  0.00     0.381 N 
ATOM     19  H   LIG d   1      -7.518  77.572 117.541  0.00  0.00    -0.090 HD
ATOM     20  H   LIG d   1      -8.687  76.873 118.429  0.00  0.00    -0.090 HD
ATOM     21  H   LIG d   1      -8.699  76.719 116.798  0.00  0.00    -0.090 HD
ENDBRANCH   5  18
BRANCH   3  22
ATOM     22  C   LIG d   1      -8.085  72.015 117.072  0.00  0.00     0.382 C 
ATOM     23  O   LIG d   1      -7.476  70.920 117.009  0.00  0.00    -0.241 OA
ATOM     24  O   LIG d   1      -9.329  72.022 117.135  0.00  0.00    -0.241 OA
ENDBRANCH   3  22
TORSDOF 7
ENDMDL
MODEL 4
REMARK VINA RESULT:      -5.3      2.239      5.529
REMARK  7 active torsions:
REMARK  status: ('A' for Active; 'I' for Inactive)
REMARK    1  A    between atoms: C_2  and  C_3 
REMARK    2  A    between atoms: C_3  and  O_6 
REMARK    3  A    between atoms: C_3  and  C_4 
REMARK    4  A    between atoms: C_7  and  O_6 
REMARK    5  A    between atoms: C_9  and  C_10 
REMARK    6  A    between atoms: N_15  and  C_14 
REMARK    7  A    between atoms: N_20  and  C_19 
REMARK       I    between atoms: C_22  and  N_20 
ROOT
ATOM      1  C   LIG d   1      -7.436  75.866 117.227  0.00  0.00     0.161 C 
ATOM      2  C   LIG d   1      -8.391  74.837 117.256  0.00  0.00     0.016 C 
ATOM      3  C   LIG d   1      -8.060  73.465 117.167  0.00  0.00     0.038 C 
ATOM      4  C   LIG d   1      -6.730  73.020 117.195  0.00  0.00     0.028 C 
ATOM      5  C   LIG d   1      -5.737  74.044 116.656  0.00  0.00    -0.047 C 
ATOM      6  C   LIG d   1      -5.973  75.395 117.369  0.00  0.00     0.091 C 
ENDROOT
BRANCH   1   7
ATOM      7  O   LIG d   1      -7.746  76.850 118.234  0.00  0.00    -0.368 OA
BRANCH   7   8
ATOM      8  C   LIG d   1      -8.189  78.141 117.748  0.00  0.00     0.119 C 
BRANCH   8   9
ATOM      9  C   LIG d   1      -7.078  79.161 118.066  0.00  0.00     0.028 C 
ATOM     10  C   LIG d   1      -6.379  78.869 119.405  0.00  0.00     0.006 C 
ENDBRANCH   8   9
BRANCH   8  11
ATOM     11  C   LIG d   1      -9.421  78.631 118.515  0.00  0.00     0.028 C 
ATOM     12  C   LIG d   1      -9.857  80.045 118.099  0.00  0.00     0.006 C 
ENDBRANCH   8  11
ENDBRANCH   7   8
ENDBRANCH   1   7
BRANCH   6  13
ATOM     13  N   LIG d   1      -5.099  76.475 116.841  0.00  0.00    -0.311 N 
ATOM     14  C   LIG d   1      -3.944  76.825 117.405  0.00  0.00     0.210 C 
ATOM     15  C   LIG d   1      -3.209  77.976 116.712  0.00  0.00     0.109 C 
ATOM     16  O   LIG d   1      -3.443  76.269 118.394  0.00  0.00    -0.276 OA
ATOM     17  H   LIG d   1      -5.415  76.958 116.023  0.00  0.00     0.149 HD
ENDBRANCH   6  13
BRANCH   5  18
ATOM     18  N   LIG d   1      -4.381  73.506 116.871  0.00  0.00     0.381 N 
ATOM     19  H   LIG d   1      -3.934  73.351 115.990  0.00  0.00    -0.090 HD
ATOM     20  H   LIG d   1      -4.453  72.624 117.348  0.00  0.00    -0.090 HD
ATOM     21  H   LIG d   1      -3.844  74.143 117.417  0.00  0.00    -0.090 HD
ENDBRANCH   5  18
BRANCH   3  22
ATOM     22  C   LIG d   1      -9.067  72.524 117.009  0.00  0.00     0.382 C 
ATOM     23  O   LIG d   1     -10.252  72.820 117.295  0.00  0.00    -0.241 OA
ATOM     24  O   LIG d   1      -8.798  71.370 116.625  0.00  0.00    -0.241 OA
ENDBRANCH   3  22
TORSDOF 7
ENDMDL
MODEL 5
REMARK VINA RESULT:      -5.1     16.084     18.962
REMARK  7 active torsions:
REMARK  status: ('A' for Active; 'I' for Inactive)
REMARK    1  A    between atoms: C_2  and  C_3 
REMARK    2  A    between atoms: C_3  and  O_6 
REMARK    3  A    between atoms: C_3  and  C_4 
REMARK    4  A    between atoms: C_7  and  O_6 
REMARK    5  A    between atoms: C_9  and  C_10 
REMARK    6  A    between atoms: N_15  and  C_14 
REMARK    7  A    between atoms: N_20  and  C_19 
REMARK       I    between atoms: C_22  and  N_20 
ROOT
ATOM      1  C   LIG d   1      -6.270  92.283 118.970  0.00  0.00     0.161 C 
ATOM      2  C   LIG d   1      -7.517  92.929 118.939  0.00  0.00     0.016 C 
ATOM      3  C   LIG d   1      -7.674  94.325 119.096  0.00  0.00     0.038 C 
ATOM      4  C   LIG d   1      -6.574  95.194 119.144  0.00  0.00     0.028 C 
ATOM      5  C   LIG d   1      -5.308  94.539 119.686  0.00  0.00    -0.047 C 
ATOM      6  C   LIG d   1      -5.051  93.227 118.911  0.00  0.00     0.091 C 
ENDROOT
BRANCH   1   7
ATOM      7  O   LIG d   1      -6.200  91.306 117.913  0.00  0.00    -0.368 OA
BRANCH   7   8
ATOM      8  C   LIG d   1      -5.427  91.683 116.747  0.00  0.00     0.119 C 
BRANCH   8   9
ATOM      9  C   LIG d   1      -6.421  92.115 115.652  0.00  0.00     0.028 C 
ATOM     10  C   LIG d   1      -6.644  91.019 114.597  0.00  0.00     0.006 C 
ENDBRANCH   8   9
BRANCH   8  11
ATOM     11  C   LIG d   1      -4.677  90.482 116.163  0.00  0.00     0.028 C 
ATOM     12  C   LIG d   1      -3.988  89.628 117.240  0.00  0.00     0.006 C 
ENDBRANCH   8  11
ENDBRANCH   7   8
ENDBRANCH   1   7
BRANCH   6  13
ATOM     13  N   LIG d   1      -3.878  92.479 119.434  0.00  0.00    -0.311 N 
ATOM     14  C   LIG d   1      -2.649  92.602 118.936  0.00  0.00     0.210 C 
ATOM     15  C   LIG d   1      -1.588  91.726 119.609  0.00  0.00     0.109 C 
ATOM     16  O   LIG d   1      -2.330  93.377 118.021  0.00  0.00    -0.276 OA
ATOM     17  H   LIG d   1      -4.040  91.851 120.197  0.00  0.00     0.149 HD
ENDBRANCH   6  13
BRANCH   5  18
ATOM     18  N   LIG d   1      -4.209  95.514 119.552  0.00  0.00     0.381 N 
ATOM     19  H   LIG d   1      -4.585  96.433 119.426  0.00  0.00    -0.090 HD
ATOM     20  H   LIG d   1      -3.666  95.282 118.739  0.00  0.00    -0.090 HD
ATOM     21  H   LIG d   1      -3.632  95.492 120.364  0.00  0.00    -0.090 HD
ENDBRANCH   5  18
BRANCH   3  22
ATOM     22  C   LIG d   1      -8.944  94.862 119.246  0.00  0.00     0.382 C 
ATOM     23  O   LIG d   1      -9.117  96.100 119.150  0.00  0.00    -0.241 OA
ATOM     24  O   LIG d   1      -9.911  94.127 119.522  0.00  0.00    -0.241 OA
ENDBRANCH   3  22
TORSDOF 7
ENDMDL
MODEL 6
REMARK VINA RESULT:      -5.0     15.777     18.488
REMARK  7 active torsions:
REMARK  status: ('A' for Active; 'I' for Inactive)
REMARK    1  A    between atoms: C_2  and  C_3 
REMARK    2  A    between atoms: C_3  and  O_6 
REMARK    3  A    between atoms: C_3  and  C_4 
REMARK    4  A    between atoms: C_7  and  O_6 
REMARK    5  A    between atoms: C_9  and  C_10 
REMARK    6  A    between atoms: N_15  and  C_14 
REMARK    7  A    between atoms: N_20  and  C_19 
REMARK       I    between atoms: C_22  and  N_20 
ROOT
ATOM      1  C   LIG d   1      10.912  78.673 114.771  0.00  0.00     0.161 C 
ATOM      2  C   LIG d   1      10.453  77.376 114.484  0.00  0.00     0.016 C 
ATOM      3  C   LIG d   1       9.401  76.750 115.191  0.00  0.00     0.038 C 
ATOM      4  C   LIG d   1       8.631  77.439 116.139  0.00  0.00     0.028 C 
ATOM      5  C   LIG d   1       9.382  78.580 116.816  0.00  0.00    -0.047 C 
ATOM      6  C   LIG d   1      10.011  79.481 115.728  0.00  0.00     0.091 C 
ENDROOT
BRANCH   1   7
ATOM      7  O   LIG d   1      11.120  79.400 113.545  0.00  0.00    -0.368 OA
BRANCH   7   8
ATOM      8  C   LIG d   1      12.488  79.778 113.251  0.00  0.00     0.119 C 
BRANCH   8   9
ATOM      9  C   LIG d   1      12.464  81.221 112.712  0.00  0.00     0.028 C 
ATOM     10  C   LIG d   1      11.121  81.580 112.056  0.00  0.00     0.006 C 
ENDBRANCH   8   9
BRANCH   8  11
ATOM     11  C   LIG d   1      13.069  78.930 112.116  0.00  0.00     0.028 C 
ATOM     12  C   LIG d   1      13.956  77.782 112.624  0.00  0.00     0.006 C 
ENDBRANCH   8  11
ENDBRANCH   7   8
ENDBRANCH   1   7
BRANCH   6  13
ATOM     13  N   LIG d   1      10.835  80.575 116.305  0.00  0.00    -0.311 N 
ATOM     14  C   LIG d   1      10.670  81.860 115.993  0.00  0.00     0.210 C 
ATOM     15  C   LIG d   1      11.638  82.823 116.687  0.00  0.00     0.109 C 
ATOM     16  O   LIG d   1       9.792  82.296 115.233  0.00  0.00    -0.276 OA
ATOM     17  H   LIG d   1      11.550  80.314 116.955  0.00  0.00     0.149 HD
ENDBRANCH   6  13
BRANCH   5  18
ATOM     18  N   LIG d   1       8.422  79.298 117.676  0.00  0.00     0.381 N 
ATOM     19  H   LIG d   1       7.541  78.824 117.669  0.00  0.00    -0.090 HD
ATOM     20  H   LIG d   1       8.285  80.223 117.310  0.00  0.00    -0.090 HD
ATOM     21  H   LIG d   1       8.772  79.349 118.607  0.00  0.00    -0.090 HD
ENDBRANCH   5  18
BRANCH   3  22
ATOM     22  C   LIG d   1       9.136  75.405 114.978  0.00  0.00     0.382 C 
ATOM     23  O   LIG d   1       8.164  75.063 114.263  0.00  0.00    -0.241 OA
ATOM     24  O   LIG d   1       9.831  74.530 115.529  0.00  0.00    -0.241 OA
ENDBRANCH   3  22
TORSDOF 7
ENDMDL
MODEL 7
REMARK VINA RESULT:      -5.0     19.788     22.058
REMARK  7 active torsions:
REMARK  status: ('A' for Active; 'I' for Inactive)
REMARK    1  A    between atoms: C_2  and  C_3 
REMARK    2  A    between atoms: C_3  and  O_6 
REMARK    3  A    between atoms: C_3  and  C_4 
REMARK    4  A    between atoms: C_7  and  O_6 
REMARK    5  A    between atoms: C_9  and  C_10 
REMARK    6  A    between atoms: N_15  and  C_14 
REMARK    7  A    between atoms: N_20  and  C_19 
REMARK       I    between atoms: C_22  and  N_20 
ROOT
ATOM      1  C   LIG d   1     -25.130  85.234 114.593  0.00  0.00     0.161 C 
ATOM      2  C   LIG d   1     -24.207  86.280 114.425  0.00  0.00     0.016 C 
ATOM      3  C   LIG d   1     -23.040  86.168 113.634  0.00  0.00     0.038 C 
ATOM      4  C   LIG d   1     -22.794  85.045 112.830  0.00  0.00     0.028 C 
ATOM      5  C   LIG d   1     -23.439  83.768 113.360  0.00  0.00    -0.047 C 
ATOM      6  C   LIG d   1     -24.935  84.039 113.636  0.00  0.00     0.091 C 
ENDROOT
BRANCH   1   7
ATOM      7  O   LIG d   1     -26.473  85.746 114.489  0.00  0.00    -0.368 OA
BRANCH   7   8
ATOM      8  C   LIG d   1     -26.936  86.053 113.151  0.00  0.00     0.119 C 
BRANCH   8   9
ATOM      9  C   LIG d   1     -27.393  87.524 113.144  0.00  0.00     0.028 C 
ATOM     10  C   LIG d   1     -26.492  88.415 112.272  0.00  0.00     0.006 C 
ENDBRANCH   8   9
BRANCH   8  11
ATOM     11  C   LIG d   1     -28.183  85.239 112.793  0.00  0.00     0.028 C 
ATOM     12  C   LIG d   1     -29.478  86.062 112.888  0.00  0.00     0.006 C 
ENDBRANCH   8  11
ENDBRANCH   7   8
ENDBRANCH   1   7
BRANCH   6  13
ATOM     13  N   LIG d   1     -25.623  82.866 114.236  0.00  0.00    -0.311 N 
ATOM     14  C   LIG d   1     -26.347  82.000 113.529  0.00  0.00     0.210 C 
ATOM     15  C   LIG d   1     -26.987  80.874 114.346  0.00  0.00     0.109 C 
ATOM     16  O   LIG d   1     -26.494  82.041 112.298  0.00  0.00    -0.276 OA
ATOM     17  H   LIG d   1     -25.530  82.740 115.225  0.00  0.00     0.149 HD
ENDBRANCH   6  13
BRANCH   5  18
ATOM     18  N   LIG d   1     -23.219  82.709 112.357  0.00  0.00     0.381 N 
ATOM     19  H   LIG d   1     -24.098  82.332 112.064  0.00  0.00    -0.090 HD
ATOM     20  H   LIG d   1     -22.683  81.970 112.778  0.00  0.00    -0.090 HD
ATOM     21  H   LIG d   1     -22.729  83.079 111.572  0.00  0.00    -0.090 HD
ENDBRANCH   5  18
BRANCH   3  22
ATOM     22  C   LIG d   1     -22.085  87.172 113.672  0.00  0.00     0.382 C 
ATOM     23  O   LIG d   1     -20.978  87.006 113.106  0.00  0.00    -0.241 OA
ATOM     24  O   LIG d   1     -22.300  88.224 114.304  0.00  0.00    -0.241 OA
ENDBRANCH   3  22
TORSDOF 7
ENDMDL
MODEL 8
REMARK VINA RESULT:      -4.9     15.090     17.495
REMARK  7 active torsions:
REMARK  status: ('A' for Active; 'I' for Inactive)
REMARK    1  A    between atoms: C_2  and  C_3 
REMARK    2  A    between atoms: C_3  and  O_6 
REMARK    3  A    between atoms: C_3  and  C_4 
REMARK    4  A    between atoms: C_7  and  O_6 
REMARK    5  A    between atoms: C_9  and  C_10 
REMARK    6  A    between atoms: N_15  and  C_14 
REMARK    7  A    between atoms: N_20  and  C_19 
REMARK       I    between atoms: C_22  and  N_20 
ROOT
ATOM      1  C   LIG d   1      -3.933  90.848 117.822  0.00  0.00     0.161 C 
ATOM      2  C   LIG d   1      -4.866  90.105 117.080  0.00  0.00     0.016 C 
ATOM      3  C   LIG d   1      -6.114  90.621 116.661  0.00  0.00     0.038 C 
ATOM      4  C   LIG d   1      -6.452  91.972 116.829  0.00  0.00     0.028 C 
ATOM      5  C   LIG d   1      -5.755  92.628 118.016  0.00  0.00    -0.047 C 
ATOM      6  C   LIG d   1      -4.237  92.357 117.919  0.00  0.00     0.091 C 
ENDROOT
BRANCH   1   7
ATOM      7  O   LIG d   1      -2.608  90.636 117.294  0.00  0.00    -0.368 OA
BRANCH   7   8
ATOM      8  C   LIG d   1      -1.651  90.030 118.198  0.00  0.00     0.119 C 
BRANCH   8   9
ATOM      9  C   LIG d   1      -0.242  90.354 117.664  0.00  0.00     0.028 C 
ATOM     10  C   LIG d   1       0.488  91.396 118.528  0.00  0.00     0.006 C 
ENDBRANCH   8   9
BRANCH   8  11
ATOM     11  C   LIG d   1      -1.752  88.502 118.175  0.00  0.00     0.028 C 
ATOM     12  C   LIG d   1      -1.067  87.842 119.382  0.00  0.00     0.006 C 
ENDBRANCH   8  11
ENDBRANCH   7   8
ENDBRANCH   1   7
BRANCH   6  13
ATOM     13  N   LIG d   1      -3.489  92.893 119.086  0.00  0.00    -0.311 N 
ATOM     14  C   LIG d   1      -2.381  93.623 118.975  0.00  0.00     0.210 C 
ATOM     15  C   LIG d   1      -1.757  94.058 120.305  0.00  0.00     0.109 C 
ATOM     16  O   LIG d   1      -1.873  93.979 117.901  0.00  0.00    -0.276 OA
ATOM     17  H   LIG d   1      -3.849  92.678 119.996  0.00  0.00     0.149 HD
ENDBRANCH   6  13
BRANCH   5  18
ATOM     18  N   LIG d   1      -6.090  94.064 117.991  0.00  0.00     0.381 N 
ATOM     19  H   LIG d   1      -5.469  94.546 117.372  0.00  0.00    -0.090 HD
ATOM     20  H   LIG d   1      -5.970  94.442 118.914  0.00  0.00    -0.090 HD
ATOM     21  H   LIG d   1      -7.032  94.190 117.692  0.00  0.00    -0.090 HD
ENDBRANCH   5  18
BRANCH   3  22
ATOM     22  C   LIG d   1      -7.056  89.770 116.103  0.00  0.00     0.382 C 
ATOM     23  O   LIG d   1      -7.450  89.957 114.926  0.00  0.00    -0.241 OA
ATOM     24  O   LIG d   1      -7.551  88.846 116.775  0.00  0.00    -0.241 OA
ENDBRANCH   3  22
TORSDOF 7
ENDMDL
MODEL 9
REMARK VINA RESULT:      -4.8     18.080     20.746
REMARK  7 active torsions:
REMARK  status: ('A' for Active; 'I' for Inactive)
REMARK    1  A    between atoms: C_2  and  C_3 
REMARK    2  A    between atoms: C_3  and  O_6 
REMARK    3  A    between atoms: C_3  and  C_4 
REMARK    4  A    between atoms: C_7  and  O_6 
REMARK    5  A    between atoms: C_9  and  C_10 
REMARK    6  A    between atoms: N_15  and  C_14 
REMARK    7  A    between atoms: N_20  and  C_19 
REMARK       I    between atoms: C_22  and  N_20 
ROOT
ATOM      1  C   LIG d   1     -23.787  83.727 113.597  0.00  0.00     0.161 C 
ATOM      2  C   LIG d   1     -22.821  84.736 113.741  0.00  0.00     0.016 C 
ATOM      3  C   LIG d   1     -23.111  86.115 113.622  0.00  0.00     0.038 C 
ATOM      4  C   LIG d   1     -24.426  86.588 113.500  0.00  0.00     0.028 C 
ATOM      5  C   LIG d   1     -25.371  85.586 112.845  0.00  0.00    -0.047 C 
ATOM      6  C   LIG d   1     -25.247  84.228 113.574  0.00  0.00     0.091 C 
ENDROOT
BRANCH   1   7
ATOM      7  O   LIG d   1     -23.615  82.735 114.628  0.00  0.00    -0.368 OA
BRANCH   7   8
ATOM      8  C   LIG d   1     -22.971  83.185 115.845  0.00  0.00     0.119 C 
BRANCH   8   9
ATOM      9  C   LIG d   1     -22.163  82.000 116.408  0.00  0.00     0.028 C 
ATOM     10  C   LIG d   1     -21.405  82.364 117.695  0.00  0.00     0.006 C 
ENDBRANCH   8   9
BRANCH   8  11
ATOM     11  C   LIG d   1     -24.001  83.524 116.928  0.00  0.00     0.028 C 
ATOM     12  C   LIG d   1     -24.054  85.025 117.250  0.00  0.00     0.006 C 
ENDBRANCH   8  11
ENDBRANCH   7   8
ENDBRANCH   1   7
BRANCH   6  13
ATOM     13  N   LIG d   1     -26.076  83.168 112.944  0.00  0.00    -0.311 N 
ATOM     14  C   LIG d   1     -26.883  82.363 113.632  0.00  0.00     0.210 C 
ATOM     15  C   LIG d   1     -27.633  81.326 112.790  0.00  0.00     0.109 C 
ATOM     16  O   LIG d   1     -27.073  82.429 114.856  0.00  0.00    -0.276 OA
ATOM     17  H   LIG d   1     -26.007  83.065 111.950  0.00  0.00     0.149 HD
ENDBRANCH   6  13
BRANCH   5  18
ATOM     18  N   LIG d   1     -26.732  86.152 112.906  0.00  0.00     0.381 N 
ATOM     19  H   LIG d   1     -27.394  85.480 112.572  0.00  0.00    -0.090 HD
ATOM     20  H   LIG d   1     -26.775  86.960 112.311  0.00  0.00    -0.090 HD
ATOM     21  H   LIG d   1     -26.953  86.408 113.843  0.00  0.00    -0.090 HD
ENDBRANCH   5  18
BRANCH   3  22
ATOM     22  C   LIG d   1     -22.074  87.035 113.585  0.00  0.00     0.382 C 
ATOM     23  O   LIG d   1     -22.141  88.082 114.272  0.00  0.00    -0.241 OA
ATOM     24  O   LIG d   1     -21.093  86.851 112.839  0.00  0.00    -0.241 OA
ENDBRANCH   3  22
TORSDOF 7
ENDMDL
