MODEL 1
REMARK VINA RESULT:      -5.8      0.000      0.000
REMARK  7 active torsions:
REMARK  status: ('A' for Active; 'I' for Inactive)
REMARK    1  A    between atoms: C_2  and  C_3 
REMARK    2  A    between atoms: C_3  and  O_6 
REMARK    3  A    between atoms: C_3  and  C_4 
REMARK    4  A    between atoms: C_7  and  O_6 
REMARK    5  A    between atoms: C_9  and  C_10 
REMARK    6  A    between atoms: N_15  and  C_14 
REMARK    7  A    between atoms: N_20  and  C_19 
REMARK       I    between atoms: C_22  and  N_20 
ROOT
ATOM      1  C   LIG d   1      -2.855  77.644 114.643  0.00  0.00     0.161 C 
ATOM      2  C   LIG d   1      -2.979  78.766 113.805  0.00  0.00     0.016 C 
ATOM      3  C   LIG d   1      -1.891  79.596 113.450  0.00  0.00     0.038 C 
ATOM      4  C   LIG d   1      -0.569  79.271 113.789  0.00  0.00     0.028 C 
ATOM      5  C   LIG d   1      -0.458  78.428 115.054  0.00  0.00    -0.047 C 
ATOM      6  C   LIG d   1      -1.403  77.210 114.931  0.00  0.00     0.091 C 
ENDROOT
BRANCH   1   7
ATOM      7  O   LIG d   1      -3.608  76.543 114.099  0.00  0.00    -0.368 OA
BRANCH   7   8
ATOM      8  C   LIG d   1      -4.835  76.205 114.793  0.00  0.00     0.119 C 
BRANCH   8   9
ATOM      9  C   LIG d   1      -4.820  76.944 116.145  0.00  0.00     0.028 C 
ATOM     10  C   LIG d   1      -6.226  77.375 116.593  0.00  0.00     0.006 C 
ENDBRANCH   8   9
BRANCH   8  11
ATOM     11  C   LIG d   1      -4.884  74.715 115.145  0.00  0.00     0.028 C 
ATOM     12  C   LIG d   1      -6.281  74.104 114.956  0.00  0.00     0.006 C 
ENDBRANCH   8  11
ENDBRANCH   7   8
ENDBRANCH   1   7
BRANCH   6  13
ATOM     13  N   LIG d   1      -1.418  76.378 116.163  0.00  0.00    -0.311 N 
ATOM     14  C   LIG d   1      -1.371  75.047 116.148  0.00  0.00     0.210 C 
ATOM     15  C   LIG d   1      -1.418  74.384 117.528  0.00  0.00     0.109 C 
ATOM     16  O   LIG d   1      -1.261  74.354 115.126  0.00  0.00    -0.276 OA
ATOM     17  H   LIG d   1      -1.474  76.860 117.038  0.00  0.00     0.149 HD
ENDBRANCH   6  13
BRANCH   5  18
ATOM     18  N   LIG d   1       0.958  78.046 115.213  0.00  0.00     0.381 N 
ATOM     19  H   LIG d   1       1.545  78.829 115.005  0.00  0.00    -0.090 HD
ATOM     20  H   LIG d   1       1.172  77.310 114.563  0.00  0.00    -0.090 HD
ATOM     21  H   LIG d   1       1.126  77.736 116.145  0.00  0.00    -0.090 HD
ENDBRANCH   5  18
BRANCH   3  22
ATOM     22  C   LIG d   1      -2.125  80.787 112.781  0.00  0.00     0.382 C 
ATOM     23  O   LIG d   1      -3.246  81.345 112.868  0.00  0.00    -0.241 OA
ATOM     24  O   LIG d   1      -1.245  81.288 112.056  0.00  0.00    -0.241 OA
ENDBRANCH   3  22
TORSDOF 7
ENDMDL
MODEL 2
REMARK VINA RESULT:      -5.6      1.851      5.071
REMARK  7 active torsions:
REMARK  status: ('A' for Active; 'I' for Inactive)
REMARK    1  A    between atoms: C_2  and  C_3 
REMARK    2  A    between atoms: C_3  and  O_6 
REMARK    3  A    between atoms: C_3  and  C_4 
REMARK    4  A    between atoms: C_7  and  O_6 
REMARK    5  A    between atoms: C_9  and  C_10 
REMARK    6  A    between atoms: N_15  and  C_14 
REMARK    7  A    between atoms: N_20  and  C_19 
REMARK       I    between atoms: C_22  and  N_20 
ROOT
ATOM      1  C   LIG d   1      -2.563  76.241 114.985  0.00  0.00     0.161 C 
ATOM      2  C   LIG d   1      -2.423  75.346 116.059  0.00  0.00     0.016 C 
ATOM      3  C   LIG d   1      -1.844  75.704 117.299  0.00  0.00     0.038 C 
ATOM      4  C   LIG d   1      -1.503  77.030 117.602  0.00  0.00     0.028 C 
ATOM      5  C   LIG d   1      -1.160  77.864 116.372  0.00  0.00    -0.047 C 
ATOM      6  C   LIG d   1      -2.298  77.720 115.336  0.00  0.00     0.091 C 
ENDROOT
BRANCH   1   7
ATOM      7  O   LIG d   1      -3.869  76.093 114.393  0.00  0.00    -0.368 OA
BRANCH   7   8
ATOM      8  C   LIG d   1      -4.919  75.623 115.275  0.00  0.00     0.119 C 
BRANCH   8   9
ATOM      9  C   LIG d   1      -5.724  74.555 114.509  0.00  0.00     0.028 C 
ATOM     10  C   LIG d   1      -6.541  73.652 115.448  0.00  0.00     0.006 C 
ENDBRANCH   8   9
BRANCH   8  11
ATOM     11  C   LIG d   1      -5.921  76.737 115.591  0.00  0.00     0.028 C 
ATOM     12  C   LIG d   1      -5.505  77.587 116.802  0.00  0.00     0.006 C 
ENDBRANCH   8  11
ENDBRANCH   7   8
ENDBRANCH   1   7
BRANCH   6  13
ATOM     13  N   LIG d   1      -2.003  78.437 114.068  0.00  0.00    -0.311 N 
ATOM     14  C   LIG d   1      -2.448  79.663 113.799  0.00  0.00     0.210 C 
ATOM     15  C   LIG d   1      -2.046  80.210 112.426  0.00  0.00     0.109 C 
ATOM     16  O   LIG d   1      -3.111  80.362 114.580  0.00  0.00    -0.276 OA
ATOM     17  H   LIG d   1      -1.446  77.955 113.390  0.00  0.00     0.149 HD
ENDBRANCH   6  13
BRANCH   5  18
ATOM     18  N   LIG d   1      -0.959  79.255 116.819  0.00  0.00     0.381 N 
ATOM     19  H   LIG d   1      -0.051  79.351 117.229  0.00  0.00    -0.090 HD
ATOM     20  H   LIG d   1      -1.645  79.475 117.519  0.00  0.00    -0.090 HD
ATOM     21  H   LIG d   1      -1.050  79.878 116.047  0.00  0.00    -0.090 HD
ENDBRANCH   5  18
BRANCH   3  22
ATOM     22  C   LIG d   1      -1.566  74.721 118.236  0.00  0.00     0.382 C 
ATOM     23  O   LIG d   1      -1.039  75.030 119.332  0.00  0.00    -0.241 OA
ATOM     24  O   LIG d   1      -1.794  73.523 117.982  0.00  0.00    -0.241 OA
ENDBRANCH   3  22
TORSDOF 7
ENDMDL
MODEL 3
REMARK VINA RESULT:      -5.6      1.900      2.648
REMARK  7 active torsions:
REMARK  status: ('A' for Active; 'I' for Inactive)
REMARK    1  A    between atoms: C_2  and  C_3 
REMARK    2  A    between atoms: C_3  and  O_6 
REMARK    3  A    between atoms: C_3  and  C_4 
REMARK    4  A    between atoms: C_7  and  O_6 
REMARK    5  A    between atoms: C_9  and  C_10 
REMARK    6  A    between atoms: N_15  and  C_14 
REMARK    7  A    between atoms: N_20  and  C_19 
REMARK       I    between atoms: C_22  and  N_20 
ROOT
ATOM      1  C   LIG d   1      -2.787  78.418 115.600  0.00  0.00     0.161 C 
ATOM      2  C   LIG d   1      -2.962  79.487 114.705  0.00  0.00     0.016 C 
ATOM      3  C   LIG d   1      -2.236  79.618 113.499  0.00  0.00     0.038 C 
ATOM      4  C   LIG d   1      -1.389  78.604 113.029  0.00  0.00     0.028 C 
ATOM      5  C   LIG d   1      -0.801  77.742 114.142  0.00  0.00    -0.047 C 
ATOM      6  C   LIG d   1      -1.948  77.246 115.051  0.00  0.00     0.091 C 
ENDROOT
BRANCH   1   7
ATOM      7  O   LIG d   1      -4.071  77.946 116.054  0.00  0.00    -0.368 OA
BRANCH   7   8
ATOM      8  C   LIG d   1      -4.336  78.084 117.472  0.00  0.00     0.119 C 
BRANCH   8   9
ATOM      9  C   LIG d   1      -5.660  78.859 117.623  0.00  0.00     0.028 C 
ATOM     10  C   LIG d   1      -5.448  80.382 117.652  0.00  0.00     0.006 C 
ENDBRANCH   8   9
BRANCH   8  11
ATOM     11  C   LIG d   1      -3.277  78.954 118.155  0.00  0.00     0.028 C 
ATOM     12  C   LIG d   1      -2.730  78.324 119.446  0.00  0.00     0.006 C 
ENDBRANCH   8  11
ENDBRANCH   7   8
ENDBRANCH   1   7
BRANCH   6  13
ATOM     13  N   LIG d   1      -1.452  76.464 116.214  0.00  0.00    -0.311 N 
ATOM     14  C   LIG d   1      -1.955  75.285 116.574  0.00  0.00     0.210 C 
ATOM     15  C   LIG d   1      -1.312  74.658 117.814  0.00  0.00     0.109 C 
ATOM     16  O   LIG d   1      -2.852  74.683 115.964  0.00  0.00    -0.276 OA
ATOM     17  H   LIG d   1      -0.704  76.864 116.746  0.00  0.00     0.149 HD
ENDBRANCH   6  13
BRANCH   5  18
ATOM     18  N   LIG d   1      -0.051  76.643 113.505  0.00  0.00     0.381 N 
ATOM     19  H   LIG d   1      -0.513  76.361 112.664  0.00  0.00    -0.090 HD
ATOM     20  H   LIG d   1      -0.029  75.859 114.132  0.00  0.00    -0.090 HD
ATOM     21  H   LIG d   1       0.878  76.939 113.299  0.00  0.00    -0.090 HD
ENDBRANCH   5  18
BRANCH   3  22
ATOM     22  C   LIG d   1      -2.325  80.794 112.768  0.00  0.00     0.382 C 
ATOM     23  O   LIG d   1      -1.360  81.164 112.057  0.00  0.00    -0.241 OA
ATOM     24  O   LIG d   1      -3.340  81.511 112.846  0.00  0.00    -0.241 OA
ENDBRANCH   3  22
TORSDOF 7
ENDMDL
MODEL 4
REMARK VINA RESULT:      -5.2      1.709      2.174
REMARK  7 active torsions:
REMARK  status: ('A' for Active; 'I' for Inactive)
REMARK    1  A    between atoms: C_2  and  C_3 
REMARK    2  A    between atoms: C_3  and  O_6 
REMARK    3  A    between atoms: C_3  and  C_4 
REMARK    4  A    between atoms: C_7  and  O_6 
REMARK    5  A    between atoms: C_9  and  C_10 
REMARK    6  A    between atoms: N_15  and  C_14 
REMARK    7  A    between atoms: N_20  and  C_19 
REMARK       I    between atoms: C_22  and  N_20 
ROOT
ATOM      1  C   LIG d   1      -2.800  78.087 116.775  0.00  0.00     0.161 C 
ATOM      2  C   LIG d   1      -2.977  78.960 115.689  0.00  0.00     0.016 C 
ATOM      3  C   LIG d   1      -2.366  78.769 114.429  0.00  0.00     0.038 C 
ATOM      4  C   LIG d   1      -1.652  77.601 114.120  0.00  0.00     0.028 C 
ATOM      5  C   LIG d   1      -1.028  76.933 115.341  0.00  0.00    -0.047 C 
ATOM      6  C   LIG d   1      -2.115  76.749 116.424  0.00  0.00     0.091 C 
ENDROOT
BRANCH   1   7
ATOM      7  O   LIG d   1      -4.066  77.847 117.420  0.00  0.00    -0.368 OA
BRANCH   7   8
ATOM      8  C   LIG d   1      -5.240  77.948 116.578  0.00  0.00     0.119 C 
BRANCH   8   9
ATOM      9  C   LIG d   1      -6.380  78.525 117.439  0.00  0.00     0.028 C 
ATOM     10  C   LIG d   1      -7.505  77.506 117.684  0.00  0.00     0.006 C 
ENDBRANCH   8   9
BRANCH   8  11
ATOM     11  C   LIG d   1      -5.728  76.566 116.134  0.00  0.00     0.028 C 
ATOM     12  C   LIG d   1      -5.322  76.226 114.691  0.00  0.00     0.006 C 
ENDBRANCH   8  11
ENDBRANCH   7   8
ENDBRANCH   1   7
BRANCH   6  13
ATOM     13  N   LIG d   1      -1.570  76.179 117.683  0.00  0.00    -0.311 N 
ATOM     14  C   LIG d   1      -1.637  74.885 117.992  0.00  0.00     0.210 C 
ATOM     15  C   LIG d   1      -1.031  74.511 119.348  0.00  0.00     0.109 C 
ATOM     16  O   LIG d   1      -2.112  74.006 117.256  0.00  0.00    -0.276 OA
ATOM     17  H   LIG d   1      -1.139  76.817 118.324  0.00  0.00     0.149 HD
ENDBRANCH   6  13
BRANCH   5  18
ATOM     18  N   LIG d   1      -0.434  75.658 114.896  0.00  0.00     0.381 N 
ATOM     19  H   LIG d   1      -0.236  75.081 115.689  0.00  0.00    -0.090 HD
ATOM     20  H   LIG d   1       0.432  75.850 114.422  0.00  0.00    -0.090 HD
ATOM     21  H   LIG d   1      -1.059  75.187 114.280  0.00  0.00    -0.090 HD
ENDBRANCH   5  18
BRANCH   3  22
ATOM     22  C   LIG d   1      -2.433  79.771 113.473  0.00  0.00     0.382 C 
ATOM     23  O   LIG d   1      -1.880  79.612 112.358  0.00  0.00    -0.241 OA
ATOM     24  O   LIG d   1      -3.001  80.850 113.728  0.00  0.00    -0.241 OA
ENDBRANCH   3  22
TORSDOF 7
ENDMDL
MODEL 5
REMARK VINA RESULT:      -5.1      3.376      4.663
REMARK  7 active torsions:
REMARK  status: ('A' for Active; 'I' for Inactive)
REMARK    1  A    between atoms: C_2  and  C_3 
REMARK    2  A    between atoms: C_3  and  O_6 
REMARK    3  A    between atoms: C_3  and  C_4 
REMARK    4  A    between atoms: C_7  and  O_6 
REMARK    5  A    between atoms: C_9  and  C_10 
REMARK    6  A    between atoms: N_15  and  C_14 
REMARK    7  A    between atoms: N_20  and  C_19 
REMARK       I    between atoms: C_22  and  N_20 
ROOT
ATOM      1  C   LIG d   1      -3.825  77.904 116.786  0.00  0.00     0.161 C 
ATOM      2  C   LIG d   1      -4.785  77.291 115.963  0.00  0.00     0.016 C 
ATOM      3  C   LIG d   1      -4.579  76.048 115.322  0.00  0.00     0.038 C 
ATOM      4  C   LIG d   1      -3.451  75.256 115.583  0.00  0.00     0.028 C 
ATOM      5  C   LIG d   1      -2.231  76.064 116.012  0.00  0.00    -0.047 C 
ATOM      6  C   LIG d   1      -2.633  77.004 117.171  0.00  0.00     0.091 C 
ENDROOT
BRANCH   1   7
ATOM      7  O   LIG d   1      -4.460  78.429 117.969  0.00  0.00    -0.368 OA
BRANCH   7   8
ATOM      8  C   LIG d   1      -5.756  79.047 117.776  0.00  0.00     0.119 C 
BRANCH   8   9
ATOM      9  C   LIG d   1      -5.606  80.547 118.092  0.00  0.00     0.028 C 
ATOM     10  C   LIG d   1      -6.887  81.342 117.791  0.00  0.00     0.006 C 
ENDBRANCH   8   9
BRANCH   8  11
ATOM     11  C   LIG d   1      -6.780  78.520 118.787  0.00  0.00     0.028 C 
ATOM     12  C   LIG d   1      -7.852  77.629 118.139  0.00  0.00     0.006 C 
ENDBRANCH   8  11
ENDBRANCH   7   8
ENDBRANCH   1   7
BRANCH   6  13
ATOM     13  N   LIG d   1      -1.518  77.891 117.595  0.00  0.00    -0.311 N 
ATOM     14  C   LIG d   1      -0.683  77.594 118.589  0.00  0.00     0.210 C 
ATOM     15  C   LIG d   1       0.384  78.656 118.876  0.00  0.00     0.109 C 
ATOM     16  O   LIG d   1      -0.704  76.538 119.239  0.00  0.00    -0.276 OA
ATOM     17  H   LIG d   1      -1.409  78.754 117.100  0.00  0.00     0.149 HD
ENDBRANCH   6  13
BRANCH   5  18
ATOM     18  N   LIG d   1      -1.171  75.107 116.384  0.00  0.00     0.381 N 
ATOM     19  H   LIG d   1      -1.335  74.764 117.309  0.00  0.00    -0.090 HD
ATOM     20  H   LIG d   1      -0.286  75.583 116.377  0.00  0.00    -0.090 HD
ATOM     21  H   LIG d   1      -1.155  74.349 115.738  0.00  0.00    -0.090 HD
ENDBRANCH   5  18
BRANCH   3  22
ATOM     22  C   LIG d   1      -5.492  75.603 114.377  0.00  0.00     0.382 C 
ATOM     23  O   LIG d   1      -5.797  74.387 114.324  0.00  0.00    -0.241 OA
ATOM     24  O   LIG d   1      -5.980  76.394 113.549  0.00  0.00    -0.241 OA
ENDBRANCH   3  22
TORSDOF 7
ENDMDL
MODEL 6
REMARK VINA RESULT:      -5.0     11.946     14.400
REMARK  7 active torsions:
REMARK  status: ('A' for Active; 'I' for Inactive)
REMARK    1  A    between atoms: C_2  and  C_3 
REMARK    2  A    between atoms: C_3  and  O_6 
REMARK    3  A    between atoms: C_3  and  C_4 
REMARK    4  A    between atoms: C_7  and  O_6 
REMARK    5  A    between atoms: C_9  and  C_10 
REMARK    6  A    between atoms: N_15  and  C_14 
REMARK    7  A    between atoms: N_20  and  C_19 
REMARK       I    between atoms: C_22  and  N_20 
ROOT
ATOM      1  C   LIG d   1      10.539  78.002 114.589  0.00  0.00     0.161 C 
ATOM      2  C   LIG d   1       9.674  76.896 114.639  0.00  0.00     0.016 C 
ATOM      3  C   LIG d   1      10.108  75.560 114.473  0.00  0.00     0.038 C 
ATOM      4  C   LIG d   1      11.469  75.227 114.396  0.00  0.00     0.028 C 
ATOM      5  C   LIG d   1      12.336  76.349 113.835  0.00  0.00    -0.047 C 
ATOM      6  C   LIG d   1      12.041  77.650 114.616  0.00  0.00     0.091 C 
ENDROOT
BRANCH   1   7
ATOM      7  O   LIG d   1      10.220  78.920 115.653  0.00  0.00    -0.368 OA
BRANCH   7   8
ATOM      8  C   LIG d   1       9.722  78.328 116.878  0.00  0.00     0.119 C 
BRANCH   8   9
ATOM      9  C   LIG d   1       8.535  79.186 117.356  0.00  0.00     0.028 C 
ATOM     10  C   LIG d   1       7.246  78.897 116.568  0.00  0.00     0.006 C 
ENDBRANCH   8   9
BRANCH   8  11
ATOM     11  C   LIG d   1      10.761  78.412 118.000  0.00  0.00     0.028 C 
ATOM     12  C   LIG d   1      11.535  77.098 118.194  0.00  0.00     0.006 C 
ENDBRANCH   8  11
ENDBRANCH   7   8
ENDBRANCH   1   7
BRANCH   6  13
ATOM     13  N   LIG d   1      12.787  78.816 114.076  0.00  0.00    -0.311 N 
ATOM     14  C   LIG d   1      13.973  79.207 114.539  0.00  0.00     0.210 C 
ATOM     15  C   LIG d   1      14.558  80.446 113.854  0.00  0.00     0.109 C 
ATOM     16  O   LIG d   1      14.610  78.626 115.430  0.00  0.00    -0.276 OA
ATOM     17  H   LIG d   1      12.356  79.327 113.329  0.00  0.00     0.149 HD
ENDBRANCH   6  13
BRANCH   5  18
ATOM     18  N   LIG d   1      13.743  75.918 113.939  0.00  0.00     0.381 N 
ATOM     19  H   LIG d   1      13.924  75.189 113.278  0.00  0.00    -0.090 HD
ATOM     20  H   LIG d   1      13.905  75.554 114.861  0.00  0.00    -0.090 HD
ATOM     21  H   LIG d   1      14.349  76.690 113.767  0.00  0.00    -0.090 HD
ENDBRANCH   5  18
BRANCH   3  22
ATOM     22  C   LIG d   1       9.173  74.545 114.344  0.00  0.00     0.382 C 
ATOM     23  O   LIG d   1       8.280  74.623 113.466  0.00  0.00    -0.241 OA
ATOM     24  O   LIG d   1       9.184  73.573 115.122  0.00  0.00    -0.241 OA
ENDBRANCH   3  22
TORSDOF 7
ENDMDL
MODEL 7
REMARK VINA RESULT:      -5.0      2.771      5.231
REMARK  7 active torsions:
REMARK  status: ('A' for Active; 'I' for Inactive)
REMARK    1  A    between atoms: C_2  and  C_3 
REMARK    2  A    between atoms: C_3  and  O_6 
REMARK    3  A    between atoms: C_3  and  C_4 
REMARK    4  A    between atoms: C_7  and  O_6 
REMARK    5  A    between atoms: C_9  and  C_10 
REMARK    6  A    between atoms: N_15  and  C_14 
REMARK    7  A    between atoms: N_20  and  C_19 
REMARK       I    between atoms: C_22  and  N_20 
ROOT
ATOM      1  C   LIG d   1      -2.243  78.114 117.445  0.00  0.00     0.161 C 
ATOM      2  C   LIG d   1      -3.289  77.331 116.931  0.00  0.00     0.016 C 
ATOM      3  C   LIG d   1      -3.350  76.899 115.586  0.00  0.00     0.038 C 
ATOM      4  C   LIG d   1      -2.284  77.096 114.695  0.00  0.00     0.028 C 
ATOM      5  C   LIG d   1      -1.433  78.316 115.030  0.00  0.00    -0.047 C 
ATOM      6  C   LIG d   1      -1.017  78.244 116.517  0.00  0.00     0.091 C 
ENDROOT
BRANCH   1   7
ATOM      7  O   LIG d   1      -1.843  77.609 118.735  0.00  0.00    -0.368 OA
BRANCH   7   8
ATOM      8  C   LIG d   1      -0.788  76.616 118.732  0.00  0.00     0.119 C 
BRANCH   8   9
ATOM      9  C   LIG d   1      -1.379  75.312 119.303  0.00  0.00     0.028 C 
ATOM     10  C   LIG d   1      -1.596  74.242 118.220  0.00  0.00     0.006 C 
ENDBRANCH   8   9
BRANCH   8  11
ATOM     11  C   LIG d   1       0.343  77.002 119.689  0.00  0.00     0.028 C 
ATOM     12  C   LIG d   1       1.649  76.244 119.404  0.00  0.00     0.006 C 
ENDBRANCH   8  11
ENDBRANCH   7   8
ENDBRANCH   1   7
BRANCH   6  13
ATOM     13  N   LIG d   1      -0.251  79.442 116.950  0.00  0.00    -0.311 N 
ATOM     14  C   LIG d   1       1.079  79.479 117.011  0.00  0.00     0.210 C 
ATOM     15  C   LIG d   1       1.667  80.806 117.502  0.00  0.00     0.109 C 
ATOM     16  O   LIG d   1       1.829  78.551 116.675  0.00  0.00    -0.276 OA
ATOM     17  H   LIG d   1      -0.779  80.252 117.211  0.00  0.00     0.149 HD
ENDBRANCH   6  13
BRANCH   5  18
ATOM     18  N   LIG d   1      -0.282  78.322 114.108  0.00  0.00     0.381 N 
ATOM     19  H   LIG d   1      -0.296  77.497 113.543  0.00  0.00    -0.090 HD
ATOM     20  H   LIG d   1       0.567  78.322 114.646  0.00  0.00    -0.090 HD
ATOM     21  H   LIG d   1      -0.315  79.132 113.527  0.00  0.00    -0.090 HD
ENDBRANCH   5  18
BRANCH   3  22
ATOM     22  C   LIG d   1      -4.505  76.297 115.109  0.00  0.00     0.382 C 
ATOM     23  O   LIG d   1      -4.425  75.286 114.371  0.00  0.00    -0.241 OA
ATOM     24  O   LIG d   1      -5.623  76.779 115.371  0.00  0.00    -0.241 OA
ENDBRANCH   3  22
TORSDOF 7
ENDMDL
MODEL 8
REMARK VINA RESULT:      -5.0      3.234      5.276
REMARK  7 active torsions:
REMARK  status: ('A' for Active; 'I' for Inactive)
REMARK    1  A    between atoms: C_2  and  C_3 
REMARK    2  A    between atoms: C_3  and  O_6 
REMARK    3  A    between atoms: C_3  and  C_4 
REMARK    4  A    between atoms: C_7  and  O_6 
REMARK    5  A    between atoms: C_9  and  C_10 
REMARK    6  A    between atoms: N_15  and  C_14 
REMARK    7  A    between atoms: N_20  and  C_19 
REMARK       I    between atoms: C_22  and  N_20 
ROOT
ATOM      1  C   LIG d   1      -4.721  77.615 116.815  0.00  0.00     0.161 C 
ATOM      2  C   LIG d   1      -6.107  77.789 116.959  0.00  0.00     0.016 C 
ATOM      3  C   LIG d   1      -6.688  78.638 117.929  0.00  0.00     0.038 C 
ATOM      4  C   LIG d   1      -5.913  79.491 118.728  0.00  0.00     0.028 C 
ATOM      5  C   LIG d   1      -4.497  78.978 118.965  0.00  0.00    -0.047 C 
ATOM      6  C   LIG d   1      -3.857  78.622 117.604  0.00  0.00     0.091 C 
ENDROOT
BRANCH   1   7
ATOM      7  O   LIG d   1      -4.368  77.638 115.418  0.00  0.00    -0.368 OA
BRANCH   7   8
ATOM      8  C   LIG d   1      -4.186  76.348 114.785  0.00  0.00     0.119 C 
BRANCH   8   9
ATOM      9  C   LIG d   1      -5.571  75.865 114.312  0.00  0.00     0.028 C 
ATOM     10  C   LIG d   1      -5.925  74.472 114.860  0.00  0.00     0.006 C 
ENDBRANCH   8   9
BRANCH   8  11
ATOM     11  C   LIG d   1      -3.712  75.295 115.792  0.00  0.00     0.028 C 
ATOM     12  C   LIG d   1      -2.198  75.042 115.719  0.00  0.00     0.006 C 
ENDBRANCH   8  11
ENDBRANCH   7   8
ENDBRANCH   1   7
BRANCH   6  13
ATOM     13  N   LIG d   1      -2.501  78.033 117.751  0.00  0.00    -0.311 N 
ATOM     14  C   LIG d   1      -1.434  78.475 117.087  0.00  0.00     0.210 C 
ATOM     15  C   LIG d   1      -0.135  77.713 117.371  0.00  0.00     0.109 C 
ATOM     16  O   LIG d   1      -1.433  79.445 116.315  0.00  0.00    -0.276 OA
ATOM     17  H   LIG d   1      -2.405  77.261 118.381  0.00  0.00     0.149 HD
ENDBRANCH   6  13
BRANCH   5  18
ATOM     18  N   LIG d   1      -3.759  80.027 119.694  0.00  0.00     0.381 N 
ATOM     19  H   LIG d   1      -3.162  79.608 120.379  0.00  0.00    -0.090 HD
ATOM     20  H   LIG d   1      -4.418  80.618 120.170  0.00  0.00    -0.090 HD
ATOM     21  H   LIG d   1      -3.216  80.568 119.057  0.00  0.00    -0.090 HD
ENDBRANCH   5  18
BRANCH   3  22
ATOM     22  C   LIG d   1      -8.059  78.608 118.136  0.00  0.00     0.382 C 
ATOM     23  O   LIG d   1      -8.692  77.535 117.989  0.00  0.00    -0.241 OA
ATOM     24  O   LIG d   1      -8.678  79.651 118.423  0.00  0.00    -0.241 OA
ENDBRANCH   3  22
TORSDOF 7
ENDMDL
MODEL 9
REMARK VINA RESULT:      -4.8     12.303     14.252
REMARK  7 active torsions:
REMARK  status: ('A' for Active; 'I' for Inactive)
REMARK    1  A    between atoms: C_2  and  C_3 
REMARK    2  A    between atoms: C_3  and  O_6 
REMARK    3  A    between atoms: C_3  and  C_4 
REMARK    4  A    between atoms: C_7  and  O_6 
REMARK    5  A    between atoms: C_9  and  C_10 
REMARK    6  A    between atoms: N_15  and  C_14 
REMARK    7  A    between atoms: N_20  and  C_19 
REMARK       I    between atoms: C_22  and  N_20 
ROOT
ATOM      1  C   LIG d   1      10.880  75.826 114.781  0.00  0.00     0.161 C 
ATOM      2  C   LIG d   1       9.685  76.535 114.986  0.00  0.00     0.016 C 
ATOM      3  C   LIG d   1       9.613  77.947 115.022  0.00  0.00     0.038 C 
ATOM      4  C   LIG d   1      10.716  78.753 114.703  0.00  0.00     0.028 C 
ATOM      5  C   LIG d   1      12.057  78.085 114.986  0.00  0.00    -0.047 C 
ATOM      6  C   LIG d   1      12.073  76.690 114.321  0.00  0.00     0.091 C 
ENDROOT
BRANCH   1   7
ATOM      7  O   LIG d   1      10.655  74.747 113.853  0.00  0.00    -0.368 OA
BRANCH   7   8
ATOM      8  C   LIG d   1      10.646  73.412 114.417  0.00  0.00     0.119 C 
BRANCH   8   9
ATOM      9  C   LIG d   1       9.181  73.057 114.740  0.00  0.00     0.028 C 
ATOM     10  C   LIG d   1       8.964  72.765 116.234  0.00  0.00     0.006 C 
ENDBRANCH   8   9
BRANCH   8  11
ATOM     11  C   LIG d   1      11.379  73.370 115.762  0.00  0.00     0.028 C 
ATOM     12  C   LIG d   1      12.689  72.569 115.701  0.00  0.00     0.006 C 
ENDBRANCH   8  11
ENDBRANCH   7   8
ENDBRANCH   1   7
BRANCH   6  13
ATOM     13  N   LIG d   1      13.317  75.934 114.620  0.00  0.00    -0.311 N 
ATOM     14  C   LIG d   1      14.413  75.998 113.865  0.00  0.00     0.210 C 
ATOM     15  C   LIG d   1      15.578  75.123 114.340  0.00  0.00     0.109 C 
ATOM     16  O   LIG d   1      14.542  76.720 112.865  0.00  0.00    -0.276 OA
ATOM     17  H   LIG d   1      13.311  75.346 115.430  0.00  0.00     0.149 HD
ENDBRANCH   6  13
BRANCH   5  18
ATOM     18  N   LIG d   1      13.116  78.979 114.481  0.00  0.00     0.381 N 
ATOM     19  H   LIG d   1      12.972  79.158 113.507  0.00  0.00    -0.090 HD
ATOM     20  H   LIG d   1      14.005  78.524 114.590  0.00  0.00    -0.090 HD
ATOM     21  H   LIG d   1      13.109  79.837 114.988  0.00  0.00    -0.090 HD
ENDBRANCH   5  18
BRANCH   3  22
ATOM     22  C   LIG d   1       8.438  78.565 115.420  0.00  0.00     0.382 C 
ATOM     23  O   LIG d   1       7.406  78.462 114.714  0.00  0.00    -0.241 OA
ATOM     24  O   LIG d   1       8.408  79.262 116.452  0.00  0.00    -0.241 OA
ENDBRANCH   3  22
TORSDOF 7
ENDMDL
