MODEL 1
REMARK VINA RESULT:      -5.7      0.000      0.000
REMARK  7 active torsions:
REMARK  status: ('A' for Active; 'I' for Inactive)
REMARK    1  A    between atoms: C_2  and  C_3 
REMARK    2  A    between atoms: C_3  and  O_6 
REMARK    3  A    between atoms: C_3  and  C_4 
REMARK    4  A    between atoms: C_7  and  O_6 
REMARK    5  A    between atoms: C_9  and  C_10 
REMARK    6  A    between atoms: N_15  and  C_14 
REMARK    7  A    between atoms: N_20  and  C_19 
REMARK       I    between atoms: C_22  and  N_20 
ROOT
ATOM      1  C   LIG d   1      -7.640  75.115 118.502  0.00  0.00     0.161 C 
ATOM      2  C   LIG d   1      -7.507  73.883 117.839  0.00  0.00     0.016 C 
ATOM      3  C   LIG d   1      -8.550  73.281 117.098  0.00  0.00     0.038 C 
ATOM      4  C   LIG d   1      -9.758  73.947 116.843  0.00  0.00     0.028 C 
ATOM      5  C   LIG d   1     -10.122  74.972 117.912  0.00  0.00    -0.047 C 
ATOM      6  C   LIG d   1      -8.913  75.908 118.143  0.00  0.00     0.091 C 
ENDROOT
BRANCH   1   7
ATOM      7  O   LIG d   1      -6.467  75.921 118.275  0.00  0.00    -0.368 OA
BRANCH   7   8
ATOM      8  C   LIG d   1      -6.492  76.767 117.099  0.00  0.00     0.119 C 
BRANCH   8   9
ATOM      9  C   LIG d   1      -5.432  76.230 116.119  0.00  0.00     0.028 C 
ATOM     10  C   LIG d   1      -6.058  75.620 114.853  0.00  0.00     0.006 C 
ENDBRANCH   8   9
BRANCH   8  11
ATOM     11  C   LIG d   1      -6.051  78.196 117.432  0.00  0.00     0.028 C 
ATOM     12  C   LIG d   1      -5.901  78.437 118.942  0.00  0.00     0.006 C 
ENDBRANCH   8  11
ENDBRANCH   7   8
ENDBRANCH   1   7
BRANCH   6  13
ATOM     13  N   LIG d   1      -9.155  76.888 119.233  0.00  0.00    -0.311 N 
ATOM     14  C   LIG d   1      -9.652  78.106 119.027  0.00  0.00     0.210 C 
ATOM     15  C   LIG d   1      -9.804  78.965 120.287  0.00  0.00     0.109 C 
ATOM     16  O   LIG d   1     -10.013  78.546 117.925  0.00  0.00    -0.276 OA
ATOM     17  H   LIG d   1      -8.920  76.603 120.164  0.00  0.00     0.149 HD
ENDBRANCH   6  13
BRANCH   5  18
ATOM     18  N   LIG d   1     -11.327  75.687 117.452  0.00  0.00     0.381 N 
ATOM     19  H   LIG d   1     -11.374  75.665 116.453  0.00  0.00    -0.090 HD
ATOM     20  H   LIG d   1     -11.268  76.647 117.745  0.00  0.00    -0.090 HD
ATOM     21  H   LIG d   1     -12.143  75.265 117.839  0.00  0.00    -0.090 HD
ENDBRANCH   5  18
BRANCH   3  22
ATOM     22  C   LIG d   1      -8.404  71.982 116.637  0.00  0.00     0.382 C 
ATOM     23  O   LIG d   1      -9.247  71.107 116.952  0.00  0.00    -0.241 OA
ATOM     24  O   LIG d   1      -7.417  71.663 115.948  0.00  0.00    -0.241 OA
ENDBRANCH   3  22
TORSDOF 7
ENDMDL
MODEL 2
REMARK VINA RESULT:      -5.7      1.271      2.111
REMARK  7 active torsions:
REMARK  status: ('A' for Active; 'I' for Inactive)
REMARK    1  A    between atoms: C_2  and  C_3 
REMARK    2  A    between atoms: C_3  and  O_6 
REMARK    3  A    between atoms: C_3  and  C_4 
REMARK    4  A    between atoms: C_7  and  O_6 
REMARK    5  A    between atoms: C_9  and  C_10 
REMARK    6  A    between atoms: N_15  and  C_14 
REMARK    7  A    between atoms: N_20  and  C_19 
REMARK       I    between atoms: C_22  and  N_20 
ROOT
ATOM      1  C   LIG d   1      -7.356  75.000 118.383  0.00  0.00     0.161 C 
ATOM      2  C   LIG d   1      -7.305  73.734 117.776  0.00  0.00     0.016 C 
ATOM      3  C   LIG d   1      -8.389  73.165 117.069  0.00  0.00     0.038 C 
ATOM      4  C   LIG d   1      -9.555  73.893 116.789  0.00  0.00     0.028 C 
ATOM      5  C   LIG d   1      -9.847  74.986 117.812  0.00  0.00    -0.047 C 
ATOM      6  C   LIG d   1      -8.581  75.854 117.994  0.00  0.00     0.091 C 
ENDROOT
BRANCH   1   7
ATOM      7  O   LIG d   1      -6.137  75.721 118.114  0.00  0.00    -0.368 OA
BRANCH   7   8
ATOM      8  C   LIG d   1      -5.182  75.058 117.249  0.00  0.00     0.119 C 
BRANCH   8   9
ATOM      9  C   LIG d   1      -3.792  75.203 117.897  0.00  0.00     0.028 C 
ATOM     10  C   LIG d   1      -2.911  73.961 117.680  0.00  0.00     0.006 C 
ENDBRANCH   8   9
BRANCH   8  11
ATOM     11  C   LIG d   1      -5.074  75.763 115.894  0.00  0.00     0.028 C 
ATOM     12  C   LIG d   1      -5.381  74.832 114.711  0.00  0.00     0.006 C 
ENDBRANCH   8  11
ENDBRANCH   7   8
ENDBRANCH   1   7
BRANCH   6  13
ATOM     13  N   LIG d   1      -8.753  76.896 119.040  0.00  0.00    -0.311 N 
ATOM     14  C   LIG d   1      -8.499  78.187 118.837  0.00  0.00     0.210 C 
ATOM     15  C   LIG d   1      -8.724  79.089 120.055  0.00  0.00     0.109 C 
ATOM     16  O   LIG d   1      -8.138  78.676 117.756  0.00  0.00    -0.276 OA
ATOM     17  H   LIG d   1      -9.072  76.591 119.939  0.00  0.00     0.149 HD
ENDBRANCH   6  13
BRANCH   5  18
ATOM     18  N   LIG d   1     -11.009  75.753 117.326  0.00  0.00     0.381 N 
ATOM     19  H   LIG d   1     -11.737  75.736 118.012  0.00  0.00    -0.090 HD
ATOM     20  H   LIG d   1     -11.356  75.321 116.487  0.00  0.00    -0.090 HD
ATOM     21  H   LIG d   1     -10.742  76.694 117.138  0.00  0.00    -0.090 HD
ENDBRANCH   5  18
BRANCH   3  22
ATOM     22  C   LIG d   1      -8.328  71.840 116.667  0.00  0.00     0.382 C 
ATOM     23  O   LIG d   1      -7.384  71.448 115.939  0.00  0.00    -0.241 OA
ATOM     24  O   LIG d   1      -9.228  71.041 116.986  0.00  0.00    -0.241 OA
ENDBRANCH   3  22
TORSDOF 7
ENDMDL
MODEL 3
REMARK VINA RESULT:      -5.6      2.407      4.606
REMARK  7 active torsions:
REMARK  status: ('A' for Active; 'I' for Inactive)
REMARK    1  A    between atoms: C_2  and  C_3 
REMARK    2  A    between atoms: C_3  and  O_6 
REMARK    3  A    between atoms: C_3  and  C_4 
REMARK    4  A    between atoms: C_7  and  O_6 
REMARK    5  A    between atoms: C_9  and  C_10 
REMARK    6  A    between atoms: N_15  and  C_14 
REMARK    7  A    between atoms: N_20  and  C_19 
REMARK       I    between atoms: C_22  and  N_20 
ROOT
ATOM      1  C   LIG d   1      -6.623  75.398 116.351  0.00  0.00     0.161 C 
ATOM      2  C   LIG d   1      -5.412  74.744 116.071  0.00  0.00     0.016 C 
ATOM      3  C   LIG d   1      -4.297  74.764 116.941  0.00  0.00     0.038 C 
ATOM      4  C   LIG d   1      -4.370  75.318 118.227  0.00  0.00     0.028 C 
ATOM      5  C   LIG d   1      -5.409  76.427 118.351  0.00  0.00    -0.047 C 
ATOM      6  C   LIG d   1      -6.759  75.914 117.799  0.00  0.00     0.091 C 
ENDROOT
BRANCH   1   7
ATOM      7  O   LIG d   1      -7.731  74.539 116.020  0.00  0.00    -0.368 OA
BRANCH   7   8
ATOM      8  C   LIG d   1      -8.186  73.651 117.070  0.00  0.00     0.119 C 
BRANCH   8   9
ATOM      9  C   LIG d   1      -7.859  72.210 116.634  0.00  0.00     0.028 C 
ATOM     10  C   LIG d   1      -8.995  71.226 116.960  0.00  0.00     0.006 C 
ENDBRANCH   8   9
BRANCH   8  11
ATOM     11  C   LIG d   1      -9.710  73.695 117.215  0.00  0.00     0.028 C 
ATOM     12  C   LIG d   1     -10.363  74.765 116.326  0.00  0.00     0.006 C 
ENDBRANCH   8  11
ENDBRANCH   7   8
ENDBRANCH   1   7
BRANCH   6  13
ATOM     13  N   LIG d   1      -7.810  76.965 117.805  0.00  0.00    -0.311 N 
ATOM     14  C   LIG d   1      -8.742  77.064 118.751  0.00  0.00     0.210 C 
ATOM     15  C   LIG d   1      -9.742  78.208 118.556  0.00  0.00     0.109 C 
ATOM     16  O   LIG d   1      -8.816  76.333 119.750  0.00  0.00    -0.276 OA
ATOM     17  H   LIG d   1      -7.805  77.620 117.048  0.00  0.00     0.149 HD
ENDBRANCH   6  13
BRANCH   5  18
ATOM     18  N   LIG d   1      -5.476  76.819 119.772  0.00  0.00     0.381 N 
ATOM     19  H   LIG d   1      -6.087  76.199 120.265  0.00  0.00    -0.090 HD
ATOM     20  H   LIG d   1      -5.852  77.749 119.835  0.00  0.00    -0.090 HD
ATOM     21  H   LIG d   1      -4.566  76.792 120.176  0.00  0.00    -0.090 HD
ENDBRANCH   5  18
BRANCH   3  22
ATOM     22  C   LIG d   1      -3.079  74.260 116.509  0.00  0.00     0.382 C 
ATOM     23  O   LIG d   1      -2.391  73.543 117.275  0.00  0.00    -0.241 OA
ATOM     24  O   LIG d   1      -2.641  74.549 115.380  0.00  0.00    -0.241 OA
ENDBRANCH   3  22
TORSDOF 7
ENDMDL
MODEL 4
REMARK VINA RESULT:      -5.5      1.910      5.037
REMARK  7 active torsions:
REMARK  status: ('A' for Active; 'I' for Inactive)
REMARK    1  A    between atoms: C_2  and  C_3 
REMARK    2  A    between atoms: C_3  and  O_6 
REMARK    3  A    between atoms: C_3  and  C_4 
REMARK    4  A    between atoms: C_7  and  O_6 
REMARK    5  A    between atoms: C_9  and  C_10 
REMARK    6  A    between atoms: N_15  and  C_14 
REMARK    7  A    between atoms: N_20  and  C_19 
REMARK       I    between atoms: C_22  and  N_20 
ROOT
ATOM      1  C   LIG d   1      -7.070  76.282 117.202  0.00  0.00     0.161 C 
ATOM      2  C   LIG d   1      -7.240  77.648 117.482  0.00  0.00     0.016 C 
ATOM      3  C   LIG d   1      -8.466  78.207 117.910  0.00  0.00     0.038 C 
ATOM      4  C   LIG d   1      -9.572  77.408 118.236  0.00  0.00     0.028 C 
ATOM      5  C   LIG d   1      -9.601  76.080 117.487  0.00  0.00    -0.047 C 
ATOM      6  C   LIG d   1      -8.234  75.378 117.658  0.00  0.00     0.091 C 
ENDROOT
BRANCH   1   7
ATOM      7  O   LIG d   1      -5.826  75.819 117.766  0.00  0.00    -0.368 OA
BRANCH   7   8
ATOM      8  C   LIG d   1      -4.752  75.573 116.826  0.00  0.00     0.119 C 
BRANCH   8   9
ATOM      9  C   LIG d   1      -5.353  75.646 115.408  0.00  0.00     0.028 C 
ATOM     10  C   LIG d   1      -5.230  74.313 114.650  0.00  0.00     0.006 C 
ENDBRANCH   8   9
BRANCH   8  11
ATOM     11  C   LIG d   1      -4.207  74.148 116.962  0.00  0.00     0.028 C 
ATOM     12  C   LIG d   1      -2.872  74.091 117.722  0.00  0.00     0.006 C 
ENDBRANCH   8  11
ENDBRANCH   7   8
ENDBRANCH   1   7
BRANCH   6  13
ATOM     13  N   LIG d   1      -8.148  74.110 116.887  0.00  0.00    -0.311 N 
ATOM     14  C   LIG d   1      -7.607  72.994 117.371  0.00  0.00     0.210 C 
ATOM     15  C   LIG d   1      -7.601  71.806 116.404  0.00  0.00     0.109 C 
ATOM     16  O   LIG d   1      -7.159  72.865 118.520  0.00  0.00    -0.276 OA
ATOM     17  H   LIG d   1      -8.516  74.117 115.956  0.00  0.00     0.149 HD
ENDBRANCH   6  13
BRANCH   5  18
ATOM     18  N   LIG d   1     -10.727  75.291 118.022  0.00  0.00     0.381 N 
ATOM     19  H   LIG d   1     -11.036  75.686 118.887  0.00  0.00    -0.090 HD
ATOM     20  H   LIG d   1     -10.413  74.353 118.198  0.00  0.00    -0.090 HD
ATOM     21  H   LIG d   1     -11.477  75.281 117.366  0.00  0.00    -0.090 HD
ENDBRANCH   5  18
BRANCH   3  22
ATOM     22  C   LIG d   1      -8.606  79.585 117.979  0.00  0.00     0.382 C 
ATOM     23  O   LIG d   1      -7.705  80.330 117.523  0.00  0.00    -0.241 OA
ATOM     24  O   LIG d   1      -9.600  80.092 118.531  0.00  0.00    -0.241 OA
ENDBRANCH   3  22
TORSDOF 7
ENDMDL
MODEL 5
REMARK VINA RESULT:      -5.5      2.354      4.724
REMARK  7 active torsions:
REMARK  status: ('A' for Active; 'I' for Inactive)
REMARK    1  A    between atoms: C_2  and  C_3 
REMARK    2  A    between atoms: C_3  and  O_6 
REMARK    3  A    between atoms: C_3  and  C_4 
REMARK    4  A    between atoms: C_7  and  O_6 
REMARK    5  A    between atoms: C_9  and  C_10 
REMARK    6  A    between atoms: N_15  and  C_14 
REMARK    7  A    between atoms: N_20  and  C_19 
REMARK       I    between atoms: C_22  and  N_20 
ROOT
ATOM      1  C   LIG d   1      -7.394  76.417 116.991  0.00  0.00     0.161 C 
ATOM      2  C   LIG d   1      -6.922  75.884 115.781  0.00  0.00     0.016 C 
ATOM      3  C   LIG d   1      -5.572  75.963 115.369  0.00  0.00     0.038 C 
ATOM      4  C   LIG d   1      -4.566  76.452 116.216  0.00  0.00     0.028 C 
ATOM      5  C   LIG d   1      -5.075  77.460 117.241  0.00  0.00    -0.047 C 
ATOM      6  C   LIG d   1      -6.292  76.856 117.978  0.00  0.00     0.091 C 
ENDROOT
BRANCH   1   7
ATOM      7  O   LIG d   1      -8.288  75.480 117.623  0.00  0.00    -0.368 OA
BRANCH   7   8
ATOM      8  C   LIG d   1      -8.553  74.258 116.890  0.00  0.00     0.119 C 
BRANCH   8   9
ATOM      9  C   LIG d   1     -10.072  74.005 116.946  0.00  0.00     0.028 C 
ATOM     10  C   LIG d   1     -10.848  75.210 117.503  0.00  0.00     0.006 C 
ENDBRANCH   8   9
BRANCH   8  11
ATOM     11  C   LIG d   1      -7.914  73.047 117.577  0.00  0.00     0.028 C 
ATOM     12  C   LIG d   1      -7.575  71.915 116.594  0.00  0.00     0.006 C 
ENDBRANCH   8  11
ENDBRANCH   7   8
ENDBRANCH   1   7
BRANCH   6  13
ATOM     13  N   LIG d   1      -6.903  77.810 118.940  0.00  0.00    -0.311 N 
ATOM     14  C   LIG d   1      -7.325  79.027 118.598  0.00  0.00     0.210 C 
ATOM     15  C   LIG d   1      -7.905  79.857 119.748  0.00  0.00     0.109 C 
ATOM     16  O   LIG d   1      -7.302  79.485 117.446  0.00  0.00    -0.276 OA
ATOM     17  H   LIG d   1      -6.988  77.508 119.891  0.00  0.00     0.149 HD
ENDBRANCH   6  13
BRANCH   5  18
ATOM     18  N   LIG d   1      -3.954  77.782 118.144  0.00  0.00     0.381 N 
ATOM     19  H   LIG d   1      -3.784  78.768 118.135  0.00  0.00    -0.090 HD
ATOM     20  H   LIG d   1      -3.127  77.317 117.814  0.00  0.00    -0.090 HD
ATOM     21  H   LIG d   1      -4.165  77.483 119.070  0.00  0.00    -0.090 HD
ENDBRANCH   5  18
BRANCH   3  22
ATOM     22  C   LIG d   1      -5.223  75.586 114.082  0.00  0.00     0.382 C 
ATOM     23  O   LIG d   1      -5.139  74.370 113.785  0.00  0.00    -0.241 OA
ATOM     24  O   LIG d   1      -4.947  76.446 113.224  0.00  0.00    -0.241 OA
ENDBRANCH   3  22
TORSDOF 7
ENDMDL
MODEL 6
REMARK VINA RESULT:      -5.5      2.513      5.958
REMARK  7 active torsions:
REMARK  status: ('A' for Active; 'I' for Inactive)
REMARK    1  A    between atoms: C_2  and  C_3 
REMARK    2  A    between atoms: C_3  and  O_6 
REMARK    3  A    between atoms: C_3  and  C_4 
REMARK    4  A    between atoms: C_7  and  O_6 
REMARK    5  A    between atoms: C_9  and  C_10 
REMARK    6  A    between atoms: N_15  and  C_14 
REMARK    7  A    between atoms: N_20  and  C_19 
REMARK       I    between atoms: C_22  and  N_20 
ROOT
ATOM      1  C   LIG d   1      -7.136  75.685 117.756  0.00  0.00     0.161 C 
ATOM      2  C   LIG d   1      -8.141  76.662 117.856  0.00  0.00     0.016 C 
ATOM      3  C   LIG d   1      -7.887  78.050 117.776  0.00  0.00     0.038 C 
ATOM      4  C   LIG d   1      -6.623  78.555 117.438  0.00  0.00     0.028 C 
ATOM      5  C   LIG d   1      -5.477  77.627 117.827  0.00  0.00    -0.047 C 
ATOM      6  C   LIG d   1      -5.768  76.212 117.276  0.00  0.00     0.091 C 
ENDROOT
BRANCH   1   7
ATOM      7  O   LIG d   1      -7.584  74.609 116.909  0.00  0.00    -0.368 OA
BRANCH   7   8
ATOM      8  C   LIG d   1      -8.300  73.535 117.567  0.00  0.00     0.119 C 
BRANCH   8   9
ATOM      9  C   LIG d   1      -7.380  72.299 117.570  0.00  0.00     0.028 C 
ATOM     10  C   LIG d   1      -6.925  71.902 116.156  0.00  0.00     0.006 C 
ENDBRANCH   8   9
BRANCH   8  11
ATOM     11  C   LIG d   1      -9.537  73.118 116.766  0.00  0.00     0.028 C 
ATOM     12  C   LIG d   1     -10.412  74.313 116.356  0.00  0.00     0.006 C 
ENDBRANCH   8  11
ENDBRANCH   7   8
ENDBRANCH   1   7
BRANCH   6  13
ATOM     13  N   LIG d   1      -4.736  75.222 117.683  0.00  0.00    -0.311 N 
ATOM     14  C   LIG d   1      -3.714  74.868 116.907  0.00  0.00     0.210 C 
ATOM     15  C   LIG d   1      -2.778  73.816 117.511  0.00  0.00     0.109 C 
ATOM     16  O   LIG d   1      -3.475  75.347 115.789  0.00  0.00    -0.276 OA
ATOM     17  H   LIG d   1      -4.836  74.807 118.589  0.00  0.00     0.149 HD
ENDBRANCH   6  13
BRANCH   5  18
ATOM     18  N   LIG d   1      -4.231  78.210 117.294  0.00  0.00     0.381 N 
ATOM     19  H   LIG d   1      -3.832  78.832 117.968  0.00  0.00    -0.090 HD
ATOM     20  H   LIG d   1      -4.447  78.738 116.467  0.00  0.00    -0.090 HD
ATOM     21  H   LIG d   1      -3.582  77.486 117.075  0.00  0.00    -0.090 HD
ENDBRANCH   5  18
BRANCH   3  22
ATOM     22  C   LIG d   1      -8.897  78.952 118.076  0.00  0.00     0.382 C 
ATOM     23  O   LIG d   1      -8.614  80.145 118.341  0.00  0.00    -0.241 OA
ATOM     24  O   LIG d   1     -10.084  78.577 118.129  0.00  0.00    -0.241 OA
ENDBRANCH   3  22
TORSDOF 7
ENDMDL
MODEL 7
REMARK VINA RESULT:      -5.4      1.720      4.999
REMARK  7 active torsions:
REMARK  status: ('A' for Active; 'I' for Inactive)
REMARK    1  A    between atoms: C_2  and  C_3 
REMARK    2  A    between atoms: C_3  and  O_6 
REMARK    3  A    between atoms: C_3  and  C_4 
REMARK    4  A    between atoms: C_7  and  O_6 
REMARK    5  A    between atoms: C_9  and  C_10 
REMARK    6  A    between atoms: N_15  and  C_14 
REMARK    7  A    between atoms: N_20  and  C_19 
REMARK       I    between atoms: C_22  and  N_20 
ROOT
ATOM      1  C   LIG d   1      -7.222  76.286 117.239  0.00  0.00     0.161 C 
ATOM      2  C   LIG d   1      -7.540  77.624 117.523  0.00  0.00     0.016 C 
ATOM      3  C   LIG d   1      -8.833  78.054 117.903  0.00  0.00     0.038 C 
ATOM      4  C   LIG d   1      -9.866  77.144 118.172  0.00  0.00     0.028 C 
ATOM      5  C   LIG d   1      -9.730  75.830 117.411  0.00  0.00    -0.047 C 
ATOM      6  C   LIG d   1      -8.309  75.265 117.635  0.00  0.00     0.091 C 
ENDROOT
BRANCH   1   7
ATOM      7  O   LIG d   1      -5.964  75.942 117.852  0.00  0.00    -0.368 OA
BRANCH   7   8
ATOM      8  C   LIG d   1      -4.916  75.501 116.954  0.00  0.00     0.119 C 
BRANCH   8   9
ATOM      9  C   LIG d   1      -3.682  76.386 117.214  0.00  0.00     0.028 C 
ATOM     10  C   LIG d   1      -3.851  77.809 116.655  0.00  0.00     0.006 C 
ENDBRANCH   8   9
BRANCH   8  11
ATOM     11  C   LIG d   1      -5.294  75.752 115.491  0.00  0.00     0.028 C 
ATOM     12  C   LIG d   1      -5.240  74.477 114.635  0.00  0.00     0.006 C 
ENDBRANCH   8  11
ENDBRANCH   7   8
ENDBRANCH   1   7
BRANCH   6  13
ATOM     13  N   LIG d   1      -8.064  74.023 116.857  0.00  0.00    -0.311 N 
ATOM     14  C   LIG d   1      -7.472  72.944 117.366  0.00  0.00     0.210 C 
ATOM     15  C   LIG d   1      -7.299  71.778 116.387  0.00  0.00     0.109 C 
ATOM     16  O   LIG d   1      -7.103  72.829 118.545  0.00  0.00    -0.276 OA
ATOM     17  H   LIG d   1      -8.360  74.017 115.901  0.00  0.00     0.149 HD
ENDBRANCH   6  13
BRANCH   5  18
ATOM     18  N   LIG d   1     -10.794  74.926 117.888  0.00  0.00     0.381 N 
ATOM     19  H   LIG d   1     -10.752  74.851 118.885  0.00  0.00    -0.090 HD
ATOM     20  H   LIG d   1     -10.645  74.013 117.497  0.00  0.00    -0.090 HD
ATOM     21  H   LIG d   1     -11.686  75.273 117.611  0.00  0.00    -0.090 HD
ENDBRANCH   5  18
BRANCH   3  22
ATOM     22  C   LIG d   1      -9.112  79.410 117.978  0.00  0.00     0.382 C 
ATOM     23  O   LIG d   1     -10.253  79.796 118.328  0.00  0.00    -0.241 OA
ATOM     24  O   LIG d   1      -8.251  80.251 117.657  0.00  0.00    -0.241 OA
ENDBRANCH   3  22
TORSDOF 7
ENDMDL
MODEL 8
REMARK VINA RESULT:      -5.1      2.663      4.513
REMARK  7 active torsions:
REMARK  status: ('A' for Active; 'I' for Inactive)
REMARK    1  A    between atoms: C_2  and  C_3 
REMARK    2  A    between atoms: C_3  and  O_6 
REMARK    3  A    between atoms: C_3  and  C_4 
REMARK    4  A    between atoms: C_7  and  O_6 
REMARK    5  A    between atoms: C_9  and  C_10 
REMARK    6  A    between atoms: N_15  and  C_14 
REMARK    7  A    between atoms: N_20  and  C_19 
REMARK       I    between atoms: C_22  and  N_20 
ROOT
ATOM      1  C   LIG d   1      -6.791  75.876 115.906  0.00  0.00     0.161 C 
ATOM      2  C   LIG d   1      -7.859  75.011 116.198  0.00  0.00     0.016 C 
ATOM      3  C   LIG d   1      -7.700  73.779 116.875  0.00  0.00     0.038 C 
ATOM      4  C   LIG d   1      -6.475  73.398 117.442  0.00  0.00     0.028 C 
ATOM      5  C   LIG d   1      -5.266  74.000 116.735  0.00  0.00    -0.047 C 
ATOM      6  C   LIG d   1      -5.465  75.529 116.615  0.00  0.00     0.091 C 
ENDROOT
BRANCH   1   7
ATOM      7  O   LIG d   1      -7.172  77.236 116.193  0.00  0.00    -0.368 OA
BRANCH   7   8
ATOM      8  C   LIG d   1      -7.012  77.666 117.568  0.00  0.00     0.119 C 
BRANCH   8   9
ATOM      9  C   LIG d   1      -8.416  77.968 118.125  0.00  0.00     0.028 C 
ATOM     10  C   LIG d   1      -8.846  76.966 119.209  0.00  0.00     0.006 C 
ENDBRANCH   8   9
BRANCH   8  11
ATOM     11  C   LIG d   1      -6.248  78.991 117.652  0.00  0.00     0.028 C 
ATOM     12  C   LIG d   1      -7.167  80.192 117.925  0.00  0.00     0.006 C 
ENDBRANCH   8  11
ENDBRANCH   7   8
ENDBRANCH   1   7
BRANCH   6  13
ATOM     13  N   LIG d   1      -4.367  76.186 115.860  0.00  0.00    -0.311 N 
ATOM     14  C   LIG d   1      -3.333  76.788 116.446  0.00  0.00     0.210 C 
ATOM     15  C   LIG d   1      -2.322  77.420 115.483  0.00  0.00     0.109 C 
ATOM     16  O   LIG d   1      -3.140  76.831 117.670  0.00  0.00    -0.276 OA
ATOM     17  H   LIG d   1      -4.427  76.171 114.861  0.00  0.00     0.149 HD
ENDBRANCH   6  13
BRANCH   5  18
ATOM     18  N   LIG d   1      -4.066  73.633 117.511  0.00  0.00     0.381 N 
ATOM     19  H   LIG d   1      -3.478  73.037 116.963  0.00  0.00    -0.090 HD
ATOM     20  H   LIG d   1      -4.352  73.127 118.330  0.00  0.00    -0.090 HD
ATOM     21  H   LIG d   1      -3.567  74.453 117.775  0.00  0.00    -0.090 HD
ENDBRANCH   5  18
BRANCH   3  22
ATOM     22  C   LIG d   1      -8.766  72.896 116.954  0.00  0.00     0.382 C 
ATOM     23  O   LIG d   1      -8.553  71.662 117.032  0.00  0.00    -0.241 OA
ATOM     24  O   LIG d   1      -9.938  73.315 116.905  0.00  0.00    -0.241 OA
ENDBRANCH   3  22
TORSDOF 7
ENDMDL
MODEL 9
REMARK VINA RESULT:      -5.1      2.513      5.087
REMARK  7 active torsions:
REMARK  status: ('A' for Active; 'I' for Inactive)
REMARK    1  A    between atoms: C_2  and  C_3 
REMARK    2  A    between atoms: C_3  and  O_6 
REMARK    3  A    between atoms: C_3  and  C_4 
REMARK    4  A    between atoms: C_7  and  O_6 
REMARK    5  A    between atoms: C_9  and  C_10 
REMARK    6  A    between atoms: N_15  and  C_14 
REMARK    7  A    between atoms: N_20  and  C_19 
REMARK       I    between atoms: C_22  and  N_20 
ROOT
ATOM      1  C   LIG d   1      -7.555  76.238 117.921  0.00  0.00     0.161 C 
ATOM      2  C   LIG d   1      -8.944  76.294 118.123  0.00  0.00     0.016 C 
ATOM      3  C   LIG d   1      -9.655  77.501 118.309  0.00  0.00     0.038 C 
ATOM      4  C   LIG d   1      -9.043  78.754 118.153  0.00  0.00     0.028 C 
ATOM      5  C   LIG d   1      -7.548  78.738 118.449  0.00  0.00    -0.047 C 
ATOM      6  C   LIG d   1      -6.887  77.600 117.637  0.00  0.00     0.091 C 
ENDROOT
BRANCH   1   7
ATOM      7  O   LIG d   1      -7.251  75.303 116.867  0.00  0.00    -0.368 OA
BRANCH   7   8
ATOM      8  C   LIG d   1      -6.863  73.972 117.288  0.00  0.00     0.119 C 
BRANCH   8   9
ATOM      9  C   LIG d   1      -5.568  73.608 116.536  0.00  0.00     0.028 C 
ATOM     10  C   LIG d   1      -5.510  74.233 115.132  0.00  0.00     0.006 C 
ENDBRANCH   8   9
BRANCH   8  11
ATOM     11  C   LIG d   1      -7.893  72.926 116.852  0.00  0.00     0.028 C 
ATOM     12  C   LIG d   1      -7.336  71.494 116.878  0.00  0.00     0.006 C 
ENDBRANCH   8  11
ENDBRANCH   7   8
ENDBRANCH   1   7
BRANCH   6  13
ATOM     13  N   LIG d   1      -5.437  77.461 117.932  0.00  0.00    -0.311 N 
ATOM     14  C   LIG d   1      -4.499  77.407 116.988  0.00  0.00     0.210 C 
ATOM     15  C   LIG d   1      -3.068  77.242 117.508  0.00  0.00     0.109 C 
ATOM     16  O   LIG d   1      -4.714  77.513 115.771  0.00  0.00    -0.276 OA
ATOM     17  H   LIG d   1      -5.172  77.400 118.895  0.00  0.00     0.149 HD
ENDBRANCH   6  13
BRANCH   5  18
ATOM     18  N   LIG d   1      -7.013  80.072 118.115  0.00  0.00     0.381 N 
ATOM     19  H   LIG d   1      -7.603  80.513 117.437  0.00  0.00    -0.090 HD
ATOM     20  H   LIG d   1      -6.098  79.965 117.715  0.00  0.00    -0.090 HD
ATOM     21  H   LIG d   1      -6.961  80.634 118.936  0.00  0.00    -0.090 HD
ENDBRANCH   5  18
BRANCH   3  22
ATOM     22  C   LIG d   1     -10.987  77.462 118.694  0.00  0.00     0.382 C 
ATOM     23  O   LIG d   1     -11.803  76.752 118.058  0.00  0.00    -0.241 OA
ATOM     24  O   LIG d   1     -11.391  78.161 119.642  0.00  0.00    -0.241 OA
ENDBRANCH   3  22
TORSDOF 7
ENDMDL
