MODEL 1
REMARK VINA RESULT:      -6.1      0.000      0.000
REMARK  7 active torsions:
REMARK  status: ('A' for Active; 'I' for Inactive)
REMARK    1  A    between atoms: C_2  and  C_3 
REMARK    2  A    between atoms: C_3  and  O_6 
REMARK    3  A    between atoms: C_3  and  C_4 
REMARK    4  A    between atoms: C_7  and  O_6 
REMARK    5  A    between atoms: C_9  and  C_10 
REMARK    6  A    between atoms: N_15  and  C_14 
REMARK    7  A    between atoms: N_20  and  C_19 
REMARK       I    between atoms: C_22  and  N_20 
ROOT
ATOM      1  C   LIG d   1      -6.409  75.088 116.683  0.00  0.00     0.161 C 
ATOM      2  C   LIG d   1      -5.189  74.504 116.306  0.00  0.00     0.016 C 
ATOM      3  C   LIG d   1      -3.932  74.959 116.767  0.00  0.00     0.038 C 
ATOM      4  C   LIG d   1      -3.819  75.941 117.763  0.00  0.00     0.028 C 
ATOM      5  C   LIG d   1      -5.001  76.905 117.800  0.00  0.00    -0.047 C 
ATOM      6  C   LIG d   1      -6.312  76.088 117.855  0.00  0.00     0.091 C 
ENDROOT
BRANCH   1   7
ATOM      7  O   LIG d   1      -7.372  74.059 116.982  0.00  0.00    -0.368 OA
BRANCH   7   8
ATOM      8  C   LIG d   1      -6.832  72.789 117.425  0.00  0.00     0.119 C 
BRANCH   8   9
ATOM      9  C   LIG d   1      -7.416  71.694 116.513  0.00  0.00     0.028 C 
ATOM     10  C   LIG d   1      -8.414  70.786 117.252  0.00  0.00     0.006 C 
ENDBRANCH   8   9
BRANCH   8  11
ATOM     11  C   LIG d   1      -7.313  72.441 118.837  0.00  0.00     0.028 C 
ATOM     12  C   LIG d   1      -7.610  73.685 119.689  0.00  0.00     0.006 C 
ENDBRANCH   8  11
ENDBRANCH   7   8
ENDBRANCH   1   7
BRANCH   6  13
ATOM     13  N   LIG d   1      -7.520  76.953 117.809  0.00  0.00    -0.311 N 
ATOM     14  C   LIG d   1      -8.153  77.388 118.897  0.00  0.00     0.210 C 
ATOM     15  C   LIG d   1      -9.389  78.251 118.626  0.00  0.00     0.109 C 
ATOM     16  O   LIG d   1      -7.789  77.167 120.062  0.00  0.00    -0.276 OA
ATOM     17  H   LIG d   1      -7.866  77.206 116.904  0.00  0.00     0.149 HD
ENDBRANCH   6  13
BRANCH   5  18
ATOM     18  N   LIG d   1      -4.820  77.787 118.968  0.00  0.00     0.381 N 
ATOM     19  H   LIG d   1      -3.957  77.571 119.425  0.00  0.00    -0.090 HD
ATOM     20  H   LIG d   1      -5.570  77.624 119.618  0.00  0.00    -0.090 HD
ATOM     21  H   LIG d   1      -4.822  78.740 118.679  0.00  0.00    -0.090 HD
ENDBRANCH   5  18
BRANCH   3  22
ATOM     22  C   LIG d   1      -2.770  74.458 116.202  0.00  0.00     0.382 C 
ATOM     23  O   LIG d   1      -2.561  74.595 114.972  0.00  0.00    -0.241 OA
ATOM     24  O   LIG d   1      -1.947  73.833 116.898  0.00  0.00    -0.241 OA
ENDBRANCH   3  22
TORSDOF 7
ENDMDL
MODEL 2
REMARK VINA RESULT:      -5.7      3.635      6.234
REMARK  7 active torsions:
REMARK  status: ('A' for Active; 'I' for Inactive)
REMARK    1  A    between atoms: C_2  and  C_3 
REMARK    2  A    between atoms: C_3  and  O_6 
REMARK    3  A    between atoms: C_3  and  C_4 
REMARK    4  A    between atoms: C_7  and  O_6 
REMARK    5  A    between atoms: C_9  and  C_10 
REMARK    6  A    between atoms: N_15  and  C_14 
REMARK    7  A    between atoms: N_20  and  C_19 
REMARK       I    between atoms: C_22  and  N_20 
ROOT
ATOM      1  C   LIG d   1      -2.444  74.618 116.277  0.00  0.00     0.161 C 
ATOM      2  C   LIG d   1      -3.028  75.454 117.243  0.00  0.00     0.016 C 
ATOM      3  C   LIG d   1      -2.344  76.528 117.858  0.00  0.00     0.038 C 
ATOM      4  C   LIG d   1      -1.070  76.935 117.435  0.00  0.00     0.028 C 
ATOM      5  C   LIG d   1      -0.249  75.809 116.815  0.00  0.00    -0.047 C 
ATOM      6  C   LIG d   1      -1.093  75.115 115.722  0.00  0.00     0.091 C 
ENDROOT
BRANCH   1   7
ATOM      7  O   LIG d   1      -3.375  74.392 115.200  0.00  0.00    -0.368 OA
BRANCH   7   8
ATOM      8  C   LIG d   1      -4.699  74.954 115.374  0.00  0.00     0.119 C 
BRANCH   8   9
ATOM      9  C   LIG d   1      -5.703  73.784 115.373  0.00  0.00     0.028 C 
ATOM     10  C   LIG d   1      -6.197  73.434 116.786  0.00  0.00     0.006 C 
ENDBRANCH   8   9
BRANCH   8  11
ATOM     11  C   LIG d   1      -5.095  75.828 114.180  0.00  0.00     0.028 C 
ATOM     12  C   LIG d   1      -6.617  75.952 114.011  0.00  0.00     0.006 C 
ENDBRANCH   8  11
ENDBRANCH   7   8
ENDBRANCH   1   7
BRANCH   6  13
ATOM     13  N   LIG d   1      -0.395  73.948 115.123  0.00  0.00    -0.311 N 
ATOM     14  C   LIG d   1       0.025  73.914 113.859  0.00  0.00     0.210 C 
ATOM     15  C   LIG d   1       0.703  72.607 113.438  0.00  0.00     0.109 C 
ATOM     16  O   LIG d   1      -0.070  74.855 113.057  0.00  0.00    -0.276 OA
ATOM     17  H   LIG d   1      -0.249  73.152 115.713  0.00  0.00     0.149 HD
ENDBRANCH   6  13
BRANCH   5  18
ATOM     18  N   LIG d   1       0.997  76.402 116.294  0.00  0.00     0.381 N 
ATOM     19  H   LIG d   1       1.575  75.685 115.901  0.00  0.00    -0.090 HD
ATOM     20  H   LIG d   1       1.497  76.828 117.054  0.00  0.00    -0.090 HD
ATOM     21  H   LIG d   1       0.786  77.085 115.601  0.00  0.00    -0.090 HD
ENDBRANCH   5  18
BRANCH   3  22
ATOM     22  C   LIG d   1      -2.920  77.182 118.936  0.00  0.00     0.382 C 
ATOM     23  O   LIG d   1      -4.078  77.655 118.837  0.00  0.00    -0.241 OA
ATOM     24  O   LIG d   1      -2.280  77.344 119.993  0.00  0.00    -0.241 OA
ENDBRANCH   3  22
TORSDOF 7
ENDMDL
MODEL 3
REMARK VINA RESULT:      -5.6      3.048      6.158
REMARK  7 active torsions:
REMARK  status: ('A' for Active; 'I' for Inactive)
REMARK    1  A    between atoms: C_2  and  C_3 
REMARK    2  A    between atoms: C_3  and  O_6 
REMARK    3  A    between atoms: C_3  and  C_4 
REMARK    4  A    between atoms: C_7  and  O_6 
REMARK    5  A    between atoms: C_9  and  C_10 
REMARK    6  A    between atoms: N_15  and  C_14 
REMARK    7  A    between atoms: N_20  and  C_19 
REMARK       I    between atoms: C_22  and  N_20 
ROOT
ATOM      1  C   LIG d   1      -3.559  75.381 116.119  0.00  0.00     0.161 C 
ATOM      2  C   LIG d   1      -4.336  74.361 116.693  0.00  0.00     0.016 C 
ATOM      3  C   LIG d   1      -5.573  73.932 116.161  0.00  0.00     0.038 C 
ATOM      4  C   LIG d   1      -6.048  74.393 114.924  0.00  0.00     0.028 C 
ATOM      5  C   LIG d   1      -5.546  75.787 114.564  0.00  0.00    -0.047 C 
ATOM      6  C   LIG d   1      -4.007  75.819 114.709  0.00  0.00     0.091 C 
ENDROOT
BRANCH   1   7
ATOM      7  O   LIG d   1      -2.172  74.990 116.105  0.00  0.00    -0.368 OA
BRANCH   7   8
ATOM      8  C   LIG d   1      -1.248  75.896 116.756  0.00  0.00     0.119 C 
BRANCH   8   9
ATOM      9  C   LIG d   1      -0.128  76.218 115.748  0.00  0.00     0.028 C 
ATOM     10  C   LIG d   1      -0.155  75.288 114.524  0.00  0.00     0.006 C 
ENDBRANCH   8   9
BRANCH   8  11
ATOM     11  C   LIG d   1      -0.547  75.222 117.939  0.00  0.00     0.028 C 
ATOM     12  C   LIG d   1      -0.766  73.701 117.974  0.00  0.00     0.006 C 
ENDBRANCH   8  11
ENDBRANCH   7   8
ENDBRANCH   1   7
BRANCH   6  13
ATOM     13  N   LIG d   1      -3.442  77.170 114.457  0.00  0.00    -0.311 N 
ATOM     14  C   LIG d   1      -2.776  77.491 113.349  0.00  0.00     0.210 C 
ATOM     15  C   LIG d   1      -2.261  78.933 113.299  0.00  0.00     0.109 C 
ATOM     16  O   LIG d   1      -2.592  76.728 112.388  0.00  0.00    -0.276 OA
ATOM     17  H   LIG d   1      -3.573  77.860 115.171  0.00  0.00     0.149 HD
ENDBRANCH   6  13
BRANCH   5  18
ATOM     18  N   LIG d   1      -6.004  76.086 113.195  0.00  0.00     0.381 N 
ATOM     19  H   LIG d   1      -6.997  75.972 113.137  0.00  0.00    -0.090 HD
ATOM     20  H   LIG d   1      -5.574  75.438 112.559  0.00  0.00    -0.090 HD
ATOM     21  H   LIG d   1      -5.756  77.019 112.948  0.00  0.00    -0.090 HD
ENDBRANCH   5  18
BRANCH   3  22
ATOM     22  C   LIG d   1      -6.369  73.060 116.888  0.00  0.00     0.382 C 
ATOM     23  O   LIG d   1      -6.578  71.898 116.462  0.00  0.00    -0.241 OA
ATOM     24  O   LIG d   1      -6.916  73.434 117.943  0.00  0.00    -0.241 OA
ENDBRANCH   3  22
TORSDOF 7
ENDMDL
MODEL 4
REMARK VINA RESULT:      -5.6     14.804     17.714
REMARK  7 active torsions:
REMARK  status: ('A' for Active; 'I' for Inactive)
REMARK    1  A    between atoms: C_2  and  C_3 
REMARK    2  A    between atoms: C_3  and  O_6 
REMARK    3  A    between atoms: C_3  and  C_4 
REMARK    4  A    between atoms: C_7  and  O_6 
REMARK    5  A    between atoms: C_9  and  C_10 
REMARK    6  A    between atoms: N_15  and  C_14 
REMARK    7  A    between atoms: N_20  and  C_19 
REMARK       I    between atoms: C_22  and  N_20 
ROOT
ATOM      1  C   LIG d   1      -3.552  91.728 117.172  0.00  0.00     0.161 C 
ATOM      2  C   LIG d   1      -4.689  92.485 116.844  0.00  0.00     0.016 C 
ATOM      3  C   LIG d   1      -5.710  92.022 115.981  0.00  0.00     0.038 C 
ATOM      4  C   LIG d   1      -5.736  90.703 115.505  0.00  0.00     0.028 C 
ATOM      5  C   LIG d   1      -4.353  90.068 115.402  0.00  0.00    -0.047 C 
ATOM      6  C   LIG d   1      -3.618  90.246 116.750  0.00  0.00     0.091 C 
ENDROOT
BRANCH   1   7
ATOM      7  O   LIG d   1      -3.284  91.837 118.584  0.00  0.00    -0.368 OA
BRANCH   7   8
ATOM      8  C   LIG d   1      -2.141  92.647 118.955  0.00  0.00     0.119 C 
BRANCH   8   9
ATOM      9  C   LIG d   1      -2.663  93.822 119.804  0.00  0.00     0.028 C 
ATOM     10  C   LIG d   1      -3.140  95.003 118.941  0.00  0.00     0.006 C 
ENDBRANCH   8   9
BRANCH   8  11
ATOM     11  C   LIG d   1      -1.491  93.291 117.727  0.00  0.00     0.028 C 
ATOM     12  C   LIG d   1      -0.044  92.823 117.504  0.00  0.00     0.006 C 
ENDBRANCH   8  11
ENDBRANCH   7   8
ENDBRANCH   1   7
BRANCH   6  13
ATOM     13  N   LIG d   1      -2.226  89.727 116.709  0.00  0.00    -0.311 N 
ATOM     14  C   LIG d   1      -1.837  88.621 117.342  0.00  0.00     0.210 C 
ATOM     15  C   LIG d   1      -0.353  88.275 117.184  0.00  0.00     0.109 C 
ATOM     16  O   LIG d   1      -2.586  87.877 117.991  0.00  0.00    -0.276 OA
ATOM     17  H   LIG d   1      -1.559  90.253 116.179  0.00  0.00     0.149 HD
ENDBRANCH   6  13
BRANCH   5  18
ATOM     18  N   LIG d   1      -4.539  88.654 115.026  0.00  0.00     0.381 N 
ATOM     19  H   LIG d   1      -5.349  88.286 115.484  0.00  0.00    -0.090 HD
ATOM     20  H   LIG d   1      -3.739  88.129 115.331  0.00  0.00    -0.090 HD
ATOM     21  H   LIG d   1      -4.641  88.574 114.039  0.00  0.00    -0.090 HD
ENDBRANCH   5  18
BRANCH   3  22
ATOM     22  C   LIG d   1      -6.698  92.897 115.555  0.00  0.00     0.382 C 
ATOM     23  O   LIG d   1      -7.240  93.677 116.374  0.00  0.00    -0.241 OA
ATOM     24  O   LIG d   1      -7.085  92.884 114.371  0.00  0.00    -0.241 OA
ENDBRANCH   3  22
TORSDOF 7
ENDMDL
MODEL 5
REMARK VINA RESULT:      -5.6      2.727      5.147
REMARK  7 active torsions:
REMARK  status: ('A' for Active; 'I' for Inactive)
REMARK    1  A    between atoms: C_2  and  C_3 
REMARK    2  A    between atoms: C_3  and  O_6 
REMARK    3  A    between atoms: C_3  and  C_4 
REMARK    4  A    between atoms: C_7  and  O_6 
REMARK    5  A    between atoms: C_9  and  C_10 
REMARK    6  A    between atoms: N_15  and  C_14 
REMARK    7  A    between atoms: N_20  and  C_19 
REMARK       I    between atoms: C_22  and  N_20 
ROOT
ATOM      1  C   LIG d   1      -3.080  74.505 116.103  0.00  0.00     0.161 C 
ATOM      2  C   LIG d   1      -2.268  75.331 115.307  0.00  0.00     0.016 C 
ATOM      3  C   LIG d   1      -2.776  76.198 114.313  0.00  0.00     0.038 C 
ATOM      4  C   LIG d   1      -4.153  76.411 114.149  0.00  0.00     0.028 C 
ATOM      5  C   LIG d   1      -5.006  75.225 114.585  0.00  0.00    -0.047 C 
ATOM      6  C   LIG d   1      -4.591  74.807 116.014  0.00  0.00     0.091 C 
ENDROOT
BRANCH   1   7
ATOM      7  O   LIG d   1      -2.638  74.560 117.474  0.00  0.00    -0.368 OA
BRANCH   7   8
ATOM      8  C   LIG d   1      -1.233  74.845 117.679  0.00  0.00     0.119 C 
BRANCH   8   9
ATOM      9  C   LIG d   1      -0.593  73.591 118.306  0.00  0.00     0.028 C 
ATOM     10  C   LIG d   1       0.203  73.914 119.582  0.00  0.00     0.006 C 
ENDBRANCH   8   9
BRANCH   8  11
ATOM     11  C   LIG d   1      -1.036  75.960 118.711  0.00  0.00     0.028 C 
ATOM     12  C   LIG d   1      -2.215  76.944 118.757  0.00  0.00     0.006 C 
ENDBRANCH   8  11
ENDBRANCH   7   8
ENDBRANCH   1   7
BRANCH   6  13
ATOM     13  N   LIG d   1      -5.319  73.600 116.485  0.00  0.00    -0.311 N 
ATOM     14  C   LIG d   1      -6.463  73.652 117.165  0.00  0.00     0.210 C 
ATOM     15  C   LIG d   1      -7.036  72.291 117.573  0.00  0.00     0.109 C 
ATOM     16  O   LIG d   1      -7.075  74.695 117.440  0.00  0.00    -0.276 OA
ATOM     17  H   LIG d   1      -4.909  72.710 116.278  0.00  0.00     0.149 HD
ENDBRANCH   6  13
BRANCH   5  18
ATOM     18  N   LIG d   1      -6.420  75.633 114.490  0.00  0.00     0.381 N 
ATOM     19  H   LIG d   1      -6.792  75.783 115.406  0.00  0.00    -0.090 HD
ATOM     20  H   LIG d   1      -6.944  74.895 114.053  0.00  0.00    -0.090 HD
ATOM     21  H   LIG d   1      -6.498  76.468 113.952  0.00  0.00    -0.090 HD
ENDBRANCH   5  18
BRANCH   3  22
ATOM     22  C   LIG d   1      -1.903  76.832 113.443  0.00  0.00     0.382 C 
ATOM     23  O   LIG d   1      -1.980  76.616 112.209  0.00  0.00    -0.241 OA
ATOM     24  O   LIG d   1      -1.011  77.583 113.880  0.00  0.00    -0.241 OA
ENDBRANCH   3  22
TORSDOF 7
ENDMDL
MODEL 6
REMARK VINA RESULT:      -5.5      3.212      5.042
REMARK  7 active torsions:
REMARK  status: ('A' for Active; 'I' for Inactive)
REMARK    1  A    between atoms: C_2  and  C_3 
REMARK    2  A    between atoms: C_3  and  O_6 
REMARK    3  A    between atoms: C_3  and  C_4 
REMARK    4  A    between atoms: C_7  and  O_6 
REMARK    5  A    between atoms: C_9  and  C_10 
REMARK    6  A    between atoms: N_15  and  C_14 
REMARK    7  A    between atoms: N_20  and  C_19 
REMARK       I    between atoms: C_22  and  N_20 
ROOT
ATOM      1  C   LIG d   1      -2.892  74.834 115.902  0.00  0.00     0.161 C 
ATOM      2  C   LIG d   1      -2.271  74.244 117.016  0.00  0.00     0.016 C 
ATOM      3  C   LIG d   1      -1.028  74.676 117.533  0.00  0.00     0.038 C 
ATOM      4  C   LIG d   1      -0.390  75.833 117.061  0.00  0.00     0.028 C 
ATOM      5  C   LIG d   1      -0.729  76.163 115.611  0.00  0.00    -0.047 C 
ATOM      6  C   LIG d   1      -2.265  76.167 115.443  0.00  0.00     0.091 C 
ENDROOT
BRANCH   1   7
ATOM      7  O   LIG d   1      -4.300  75.005 116.162  0.00  0.00    -0.368 OA
BRANCH   7   8
ATOM      8  C   LIG d   1      -5.202  74.423 115.190  0.00  0.00     0.119 C 
BRANCH   8   9
ATOM      9  C   LIG d   1      -6.310  75.457 114.909  0.00  0.00     0.028 C 
ATOM     10  C   LIG d   1      -6.192  76.701 115.805  0.00  0.00     0.006 C 
ENDBRANCH   8   9
BRANCH   8  11
ATOM     11  C   LIG d   1      -5.925  73.201 115.763  0.00  0.00     0.028 C 
ATOM     12  C   LIG d   1      -6.730  73.525 117.031  0.00  0.00     0.006 C 
ENDBRANCH   8  11
ENDBRANCH   7   8
ENDBRANCH   1   7
BRANCH   6  13
ATOM     13  N   LIG d   1      -2.681  76.398 114.035  0.00  0.00    -0.311 N 
ATOM     14  C   LIG d   1      -2.893  77.609 113.522  0.00  0.00     0.210 C 
ATOM     15  C   LIG d   1      -3.335  77.622 112.056  0.00  0.00     0.109 C 
ATOM     16  O   LIG d   1      -2.726  78.675 114.134  0.00  0.00    -0.276 OA
ATOM     17  H   LIG d   1      -2.810  75.590 113.459  0.00  0.00     0.149 HD
ENDBRANCH   6  13
BRANCH   5  18
ATOM     18  N   LIG d   1      -0.108  77.462 115.292  0.00  0.00     0.381 N 
ATOM     19  H   LIG d   1       0.885  77.396 115.389  0.00  0.00    -0.090 HD
ATOM     20  H   LIG d   1      -0.443  78.151 115.943  0.00  0.00    -0.090 HD
ATOM     21  H   LIG d   1      -0.341  77.733 114.362  0.00  0.00    -0.090 HD
ENDBRANCH   5  18
BRANCH   3  22
ATOM     22  C   LIG d   1      -0.391  73.924 118.508  0.00  0.00     0.382 C 
ATOM     23  O   LIG d   1       0.605  74.393 119.110  0.00  0.00    -0.241 OA
ATOM     24  O   LIG d   1      -0.772  72.766 118.762  0.00  0.00    -0.241 OA
ENDBRANCH   3  22
TORSDOF 7
ENDMDL
MODEL 7
REMARK VINA RESULT:      -5.4      4.561      8.198
REMARK  7 active torsions:
REMARK  status: ('A' for Active; 'I' for Inactive)
REMARK    1  A    between atoms: C_2  and  C_3 
REMARK    2  A    between atoms: C_3  and  O_6 
REMARK    3  A    between atoms: C_3  and  C_4 
REMARK    4  A    between atoms: C_7  and  O_6 
REMARK    5  A    between atoms: C_9  and  C_10 
REMARK    6  A    between atoms: N_15  and  C_14 
REMARK    7  A    between atoms: N_20  and  C_19 
REMARK       I    between atoms: C_22  and  N_20 
ROOT
ATOM      1  C   LIG d   1      -1.411  76.455 113.880  0.00  0.00     0.161 C 
ATOM      2  C   LIG d   1      -2.735  76.596 114.330  0.00  0.00     0.016 C 
ATOM      3  C   LIG d   1      -3.282  75.838 115.390  0.00  0.00     0.038 C 
ATOM      4  C   LIG d   1      -2.492  74.988 116.178  0.00  0.00     0.028 C 
ATOM      5  C   LIG d   1      -1.275  74.437 115.442  0.00  0.00    -0.047 C 
ATOM      6  C   LIG d   1      -0.503  75.612 114.800  0.00  0.00     0.091 C 
ENDROOT
BRANCH   1   7
ATOM      7  O   LIG d   1      -0.830  77.754 113.656  0.00  0.00    -0.368 OA
BRANCH   7   8
ATOM      8  C   LIG d   1      -1.375  78.841 114.444  0.00  0.00     0.119 C 
BRANCH   8   9
ATOM      9  C   LIG d   1      -1.358  80.105 113.563  0.00  0.00     0.028 C 
ATOM     10  C   LIG d   1      -2.669  80.294 112.782  0.00  0.00     0.006 C 
ENDBRANCH   8   9
BRANCH   8  11
ATOM     11  C   LIG d   1      -0.475  79.168 115.640  0.00  0.00     0.028 C 
ATOM     12  C   LIG d   1       0.103  80.590 115.579  0.00  0.00     0.006 C 
ENDBRANCH   8  11
ENDBRANCH   7   8
ENDBRANCH   1   7
BRANCH   6  13
ATOM     13  N   LIG d   1       0.656  75.153 113.989  0.00  0.00    -0.311 N 
ATOM     14  C   LIG d   1       0.691  73.980 113.359  0.00  0.00     0.210 C 
ATOM     15  C   LIG d   1       1.988  73.695 112.596  0.00  0.00     0.109 C 
ATOM     16  O   LIG d   1      -0.242  73.163 113.333  0.00  0.00    -0.276 OA
ATOM     17  H   LIG d   1       1.444  75.768 113.931  0.00  0.00     0.149 HD
ENDBRANCH   6  13
BRANCH   5  18
ATOM     18  N   LIG d   1      -0.469  73.680 116.418  0.00  0.00     0.381 N 
ATOM     19  H   LIG d   1       0.265  74.260 116.773  0.00  0.00    -0.090 HD
ATOM     20  H   LIG d   1      -0.052  72.892 115.954  0.00  0.00    -0.090 HD
ATOM     21  H   LIG d   1      -1.046  73.366 117.167  0.00  0.00    -0.090 HD
ENDBRANCH   5  18
BRANCH   3  22
ATOM     22  C   LIG d   1      -4.643  75.897 115.647  0.00  0.00     0.382 C 
ATOM     23  O   LIG d   1      -5.261  74.862 115.995  0.00  0.00    -0.241 OA
ATOM     24  O   LIG d   1      -5.270  76.963 115.491  0.00  0.00    -0.241 OA
ENDBRANCH   3  22
TORSDOF 7
ENDMDL
MODEL 8
REMARK VINA RESULT:      -5.3     14.417     16.947
REMARK  7 active torsions:
REMARK  status: ('A' for Active; 'I' for Inactive)
REMARK    1  A    between atoms: C_2  and  C_3 
REMARK    2  A    between atoms: C_3  and  O_6 
REMARK    3  A    between atoms: C_3  and  C_4 
REMARK    4  A    between atoms: C_7  and  O_6 
REMARK    5  A    between atoms: C_9  and  C_10 
REMARK    6  A    between atoms: N_15  and  C_14 
REMARK    7  A    between atoms: N_20  and  C_19 
REMARK       I    between atoms: C_22  and  N_20 
ROOT
ATOM      1  C   LIG d   1      -4.202  90.804 117.070  0.00  0.00     0.161 C 
ATOM      2  C   LIG d   1      -5.118  90.214 116.182  0.00  0.00     0.016 C 
ATOM      3  C   LIG d   1      -6.248  90.889 115.667  0.00  0.00     0.038 C 
ATOM      4  C   LIG d   1      -6.457  92.259 115.887  0.00  0.00     0.028 C 
ATOM      5  C   LIG d   1      -5.835  92.766 117.184  0.00  0.00    -0.047 C 
ATOM      6  C   LIG d   1      -4.353  92.331 117.233  0.00  0.00     0.091 C 
ENDROOT
BRANCH   1   7
ATOM      7  O   LIG d   1      -2.856  90.473 116.674  0.00  0.00    -0.368 OA
BRANCH   7   8
ATOM      8  C   LIG d   1      -2.089  89.690 117.621  0.00  0.00     0.119 C 
BRANCH   8   9
ATOM      9  C   LIG d   1      -0.610  90.093 117.464  0.00  0.00     0.028 C 
ATOM     10  C   LIG d   1       0.038  90.484 118.802  0.00  0.00     0.006 C 
ENDBRANCH   8   9
BRANCH   8  11
ATOM     11  C   LIG d   1      -2.141  88.197 117.281  0.00  0.00     0.028 C 
ATOM     12  C   LIG d   1      -1.952  87.299 118.514  0.00  0.00     0.006 C 
ENDBRANCH   8  11
ENDBRANCH   7   8
ENDBRANCH   1   7
BRANCH   6  13
ATOM     13  N   LIG d   1      -3.692  92.714 118.508  0.00  0.00    -0.311 N 
ATOM     14  C   LIG d   1      -2.477  93.255 118.570  0.00  0.00     0.210 C 
ATOM     15  C   LIG d   1      -1.974  93.556 119.986  0.00  0.00     0.109 C 
ATOM     16  O   LIG d   1      -1.780  93.545 117.585  0.00  0.00    -0.276 OA
ATOM     17  H   LIG d   1      -4.199  92.542 119.354  0.00  0.00     0.149 HD
ENDBRANCH   6  13
BRANCH   5  18
ATOM     18  N   LIG d   1      -6.010  94.230 117.220  0.00  0.00     0.381 N 
ATOM     19  H   LIG d   1      -5.382  94.630 117.888  0.00  0.00    -0.090 HD
ATOM     20  H   LIG d   1      -6.950  94.439 117.506  0.00  0.00    -0.090 HD
ATOM     21  H   LIG d   1      -5.836  94.616 116.318  0.00  0.00    -0.090 HD
ENDBRANCH   5  18
BRANCH   3  22
ATOM     22  C   LIG d   1      -7.205  90.183 114.954  0.00  0.00     0.382 C 
ATOM     23  O   LIG d   1      -7.744  90.700 113.947  0.00  0.00    -0.241 OA
ATOM     24  O   LIG d   1      -7.568  89.053 115.332  0.00  0.00    -0.241 OA
ENDBRANCH   3  22
TORSDOF 7
ENDMDL
MODEL 9
REMARK VINA RESULT:      -5.2     14.374     16.841
REMARK  7 active torsions:
REMARK  status: ('A' for Active; 'I' for Inactive)
REMARK    1  A    between atoms: C_2  and  C_3 
REMARK    2  A    between atoms: C_3  and  O_6 
REMARK    3  A    between atoms: C_3  and  C_4 
REMARK    4  A    between atoms: C_7  and  O_6 
REMARK    5  A    between atoms: C_9  and  C_10 
REMARK    6  A    between atoms: N_15  and  C_14 
REMARK    7  A    between atoms: N_20  and  C_19 
REMARK       I    between atoms: C_22  and  N_20 
ROOT
ATOM      1  C   LIG d   1      -2.646  90.397 117.481  0.00  0.00     0.161 C 
ATOM      2  C   LIG d   1      -3.816  89.999 116.812  0.00  0.00     0.016 C 
ATOM      3  C   LIG d   1      -4.857  90.890 116.468  0.00  0.00     0.038 C 
ATOM      4  C   LIG d   1      -4.732  92.277 116.637  0.00  0.00     0.028 C 
ATOM      5  C   LIG d   1      -3.784  92.667 117.766  0.00  0.00    -0.047 C 
ATOM      6  C   LIG d   1      -2.442  91.923 117.574  0.00  0.00     0.091 C 
ENDROOT
BRANCH   1   7
ATOM      7  O   LIG d   1      -1.498  89.774 116.871  0.00  0.00    -0.368 OA
BRANCH   7   8
ATOM      8  C   LIG d   1      -0.784  88.814 117.689  0.00  0.00     0.119 C 
BRANCH   8   9
ATOM      9  C   LIG d   1       0.722  89.101 117.530  0.00  0.00     0.028 C 
ATOM     10  C   LIG d   1       1.084  89.567 116.110  0.00  0.00     0.006 C 
ENDBRANCH   8   9
BRANCH   8  11
ATOM     11  C   LIG d   1      -0.982  87.386 117.172  0.00  0.00     0.028 C 
ATOM     12  C   LIG d   1      -1.995  86.586 118.005  0.00  0.00     0.006 C 
ENDBRANCH   8  11
ENDBRANCH   7   8
ENDBRANCH   1   7
BRANCH   6  13
ATOM     13  N   LIG d   1      -1.487  92.183 118.683  0.00  0.00    -0.311 N 
ATOM     14  C   LIG d   1      -0.250  92.639 118.493  0.00  0.00     0.210 C 
ATOM     15  C   LIG d   1       0.576  92.818 119.770  0.00  0.00     0.109 C 
ATOM     16  O   LIG d   1       0.230  92.943 117.391  0.00  0.00    -0.276 OA
ATOM     17  H   LIG d   1      -1.805  91.993 119.613  0.00  0.00     0.149 HD
ENDBRANCH   6  13
BRANCH   5  18
ATOM     18  N   LIG d   1      -3.640  94.135 117.741  0.00  0.00     0.381 N 
ATOM     19  H   LIG d   1      -2.671  94.380 117.734  0.00  0.00    -0.090 HD
ATOM     20  H   LIG d   1      -4.055  94.516 118.573  0.00  0.00    -0.090 HD
ATOM     21  H   LIG d   1      -4.092  94.508 116.935  0.00  0.00    -0.090 HD
ENDBRANCH   5  18
BRANCH   3  22
ATOM     22  C   LIG d   1      -6.057  90.392 115.985  0.00  0.00     0.382 C 
ATOM     23  O   LIG d   1      -6.126  89.207 115.578  0.00  0.00    -0.241 OA
ATOM     24  O   LIG d   1      -7.062  91.125 115.909  0.00  0.00    -0.241 OA
ENDBRANCH   3  22
TORSDOF 7
ENDMDL
