MODEL 1
REMARK VINA RESULT:      -5.4      0.000      0.000
REMARK  7 active torsions:
REMARK  status: ('A' for Active; 'I' for Inactive)
REMARK    1  A    between atoms: C_2  and  C_3 
REMARK    2  A    between atoms: C_3  and  O_6 
REMARK    3  A    between atoms: C_3  and  C_4 
REMARK    4  A    between atoms: C_7  and  O_6 
REMARK    5  A    between atoms: C_9  and  C_10 
REMARK    6  A    between atoms: N_15  and  C_14 
REMARK    7  A    between atoms: N_20  and  C_19 
REMARK       I    between atoms: C_22  and  N_20 
ROOT
ATOM      1  C   LIG d   1      -3.172  76.577 116.106  0.00  0.00     0.161 C 
ATOM      2  C   LIG d   1      -4.094  77.511 116.607  0.00  0.00     0.016 C 
ATOM      3  C   LIG d   1      -3.900  78.910 116.537  0.00  0.00     0.038 C 
ATOM      4  C   LIG d   1      -2.834  79.476 115.822  0.00  0.00     0.028 C 
ATOM      5  C   LIG d   1      -1.613  78.567 115.734  0.00  0.00    -0.047 C 
ATOM      6  C   LIG d   1      -2.057  77.177 115.224  0.00  0.00     0.091 C 
ENDROOT
BRANCH   1   7
ATOM      7  O   LIG d   1      -3.869  75.536 115.393  0.00  0.00    -0.368 OA
BRANCH   7   8
ATOM      8  C   LIG d   1      -5.092  75.932 114.724  0.00  0.00     0.119 C 
BRANCH   8   9
ATOM      9  C   LIG d   1      -6.181  74.912 115.110  0.00  0.00     0.028 C 
ATOM     10  C   LIG d   1      -5.794  73.471 114.738  0.00  0.00     0.006 C 
ENDBRANCH   8   9
BRANCH   8  11
ATOM     11  C   LIG d   1      -4.956  75.822 113.202  0.00  0.00     0.028 C 
ATOM     12  C   LIG d   1      -6.180  76.371 112.453  0.00  0.00     0.006 C 
ENDBRANCH   8  11
ENDBRANCH   7   8
ENDBRANCH   1   7
BRANCH   6  13
ATOM     13  N   LIG d   1      -0.937  76.201 115.188  0.00  0.00    -0.311 N 
ATOM     14  C   LIG d   1      -0.741  75.346 114.186  0.00  0.00     0.210 C 
ATOM     15  C   LIG d   1       0.462  74.413 114.358  0.00  0.00     0.109 C 
ATOM     16  O   LIG d   1      -1.429  75.294 113.156  0.00  0.00    -0.276 OA
ATOM     17  H   LIG d   1      -0.311  76.196 115.970  0.00  0.00     0.149 HD
ENDBRANCH   6  13
BRANCH   5  18
ATOM     18  N   LIG d   1      -0.632  79.222 114.848  0.00  0.00     0.381 N 
ATOM     19  H   LIG d   1      -0.924  79.133 113.895  0.00  0.00    -0.090 HD
ATOM     20  H   LIG d   1       0.256  78.763 114.950  0.00  0.00    -0.090 HD
ATOM     21  H   LIG d   1      -0.546  80.185 115.088  0.00  0.00    -0.090 HD
ENDBRANCH   5  18
BRANCH   3  22
ATOM     22  C   LIG d   1      -4.757  79.757 117.223  0.00  0.00     0.382 C 
ATOM     23  O   LIG d   1      -5.977  79.785 116.931  0.00  0.00    -0.241 OA
ATOM     24  O   LIG d   1      -4.318  80.527 118.098  0.00  0.00    -0.241 OA
ENDBRANCH   3  22
TORSDOF 7
ENDMDL
MODEL 2
REMARK VINA RESULT:      -5.3      2.979      4.132
REMARK  7 active torsions:
REMARK  status: ('A' for Active; 'I' for Inactive)
REMARK    1  A    between atoms: C_2  and  C_3 
REMARK    2  A    between atoms: C_3  and  O_6 
REMARK    3  A    between atoms: C_3  and  C_4 
REMARK    4  A    between atoms: C_7  and  O_6 
REMARK    5  A    between atoms: C_9  and  C_10 
REMARK    6  A    between atoms: N_15  and  C_14 
REMARK    7  A    between atoms: N_20  and  C_19 
REMARK       I    between atoms: C_22  and  N_20 
ROOT
ATOM      1  C   LIG d   1      -6.437  77.427 117.009  0.00  0.00     0.161 C 
ATOM      2  C   LIG d   1      -7.710  77.785 117.482  0.00  0.00     0.016 C 
ATOM      3  C   LIG d   1      -7.974  78.992 118.170  0.00  0.00     0.038 C 
ATOM      4  C   LIG d   1      -7.005  79.999 118.299  0.00  0.00     0.028 C 
ATOM      5  C   LIG d   1      -5.575  79.470 118.280  0.00  0.00    -0.047 C 
ATOM      6  C   LIG d   1      -5.392  78.563 117.042  0.00  0.00     0.091 C 
ENDROOT
BRANCH   1   7
ATOM      7  O   LIG d   1      -6.545  76.885 115.678  0.00  0.00    -0.368 OA
BRANCH   7   8
ATOM      8  C   LIG d   1      -6.029  75.544 115.492  0.00  0.00     0.119 C 
BRANCH   8   9
ATOM      9  C   LIG d   1      -5.764  75.355 113.985  0.00  0.00     0.028 C 
ATOM     10  C   LIG d   1      -4.263  75.338 113.651  0.00  0.00     0.006 C 
ENDBRANCH   8   9
BRANCH   8  11
ATOM     11  C   LIG d   1      -7.077  74.488 115.855  0.00  0.00     0.028 C 
ATOM     12  C   LIG d   1      -6.603  73.055 115.565  0.00  0.00     0.006 C 
ENDBRANCH   8  11
ENDBRANCH   7   8
ENDBRANCH   1   7
BRANCH   6  13
ATOM     13  N   LIG d   1      -4.045  77.936 116.992  0.00  0.00    -0.311 N 
ATOM     14  C   LIG d   1      -3.208  78.077 115.966  0.00  0.00     0.210 C 
ATOM     15  C   LIG d   1      -1.878  77.330 116.109  0.00  0.00     0.109 C 
ATOM     16  O   LIG d   1      -3.428  78.775 114.965  0.00  0.00    -0.276 OA
ATOM     17  H   LIG d   1      -3.773  77.377 117.777  0.00  0.00     0.149 HD
ENDBRANCH   6  13
BRANCH   5  18
ATOM     18  N   LIG d   1      -4.669  80.634 118.283  0.00  0.00     0.381 N 
ATOM     19  H   LIG d   1      -5.043  81.353 118.869  0.00  0.00    -0.090 HD
ATOM     20  H   LIG d   1      -4.600  80.994 117.347  0.00  0.00    -0.090 HD
ATOM     21  H   LIG d   1      -3.768  80.363 118.610  0.00  0.00    -0.090 HD
ENDBRANCH   5  18
BRANCH   3  22
ATOM     22  C   LIG d   1      -9.207  79.184 118.773  0.00  0.00     0.382 C 
ATOM     23  O   LIG d   1      -9.283  79.319 120.018  0.00  0.00    -0.241 OA
ATOM     24  O   LIG d   1     -10.251  79.180 118.092  0.00  0.00    -0.241 OA
ENDBRANCH   3  22
TORSDOF 7
ENDMDL
MODEL 3
REMARK VINA RESULT:      -5.3      2.269      4.265
REMARK  7 active torsions:
REMARK  status: ('A' for Active; 'I' for Inactive)
REMARK    1  A    between atoms: C_2  and  C_3 
REMARK    2  A    between atoms: C_3  and  O_6 
REMARK    3  A    between atoms: C_3  and  C_4 
REMARK    4  A    between atoms: C_7  and  O_6 
REMARK    5  A    between atoms: C_9  and  C_10 
REMARK    6  A    between atoms: N_15  and  C_14 
REMARK    7  A    between atoms: N_20  and  C_19 
REMARK       I    between atoms: C_22  and  N_20 
ROOT
ATOM      1  C   LIG d   1      -2.807  76.867 114.681  0.00  0.00     0.161 C 
ATOM      2  C   LIG d   1      -2.477  75.783 115.511  0.00  0.00     0.016 C 
ATOM      3  C   LIG d   1      -1.537  75.868 116.565  0.00  0.00     0.038 C 
ATOM      4  C   LIG d   1      -0.972  77.090 116.957  0.00  0.00     0.028 C 
ATOM      5  C   LIG d   1      -0.892  78.111 115.828  0.00  0.00    -0.047 C 
ATOM      6  C   LIG d   1      -2.283  78.236 115.165  0.00  0.00     0.091 C 
ENDROOT
BRANCH   1   7
ATOM      7  O   LIG d   1      -4.234  76.917 114.487  0.00  0.00    -0.368 OA
BRANCH   7   8
ATOM      8  C   LIG d   1      -5.031  76.140 115.414  0.00  0.00     0.119 C 
BRANCH   8   9
ATOM      9  C   LIG d   1      -6.036  75.318 114.584  0.00  0.00     0.028 C 
ATOM     10  C   LIG d   1      -5.633  73.838 114.472  0.00  0.00     0.006 C 
ENDBRANCH   8   9
BRANCH   8  11
ATOM     11  C   LIG d   1      -5.886  77.044 116.307  0.00  0.00     0.028 C 
ATOM     12  C   LIG d   1      -7.295  76.480 116.551  0.00  0.00     0.006 C 
ENDBRANCH   8  11
ENDBRANCH   7   8
ENDBRANCH   1   7
BRANCH   6  13
ATOM     13  N   LIG d   1      -2.274  79.153 113.995  0.00  0.00    -0.311 N 
ATOM     14  C   LIG d   1      -2.687  80.418 114.052  0.00  0.00     0.210 C 
ATOM     15  C   LIG d   1      -2.612  81.183 112.727  0.00  0.00     0.109 C 
ATOM     16  O   LIG d   1      -3.078  80.988 115.081  0.00  0.00    -0.276 OA
ATOM     17  H   LIG d   1      -1.942  78.781 113.127  0.00  0.00     0.149 HD
ENDBRANCH   6  13
BRANCH   5  18
ATOM     18  N   LIG d   1      -0.413  79.380 116.407  0.00  0.00     0.381 N 
ATOM     19  H   LIG d   1       0.585  79.362 116.484  0.00  0.00    -0.090 HD
ATOM     20  H   LIG d   1      -0.797  79.482 117.330  0.00  0.00    -0.090 HD
ATOM     21  H   LIG d   1      -0.695  80.145 115.835  0.00  0.00    -0.090 HD
ENDBRANCH   5  18
BRANCH   3  22
ATOM     22  C   LIG d   1      -1.125  74.713 117.211  0.00  0.00     0.382 C 
ATOM     23  O   LIG d   1      -0.997  74.705 118.459  0.00  0.00    -0.241 OA
ATOM     24  O   LIG d   1      -0.836  73.692 116.559  0.00  0.00    -0.241 OA
ENDBRANCH   3  22
TORSDOF 7
ENDMDL
MODEL 4
REMARK VINA RESULT:      -5.2      2.084      5.006
REMARK  7 active torsions:
REMARK  status: ('A' for Active; 'I' for Inactive)
REMARK    1  A    between atoms: C_2  and  C_3 
REMARK    2  A    between atoms: C_3  and  O_6 
REMARK    3  A    between atoms: C_3  and  C_4 
REMARK    4  A    between atoms: C_7  and  O_6 
REMARK    5  A    between atoms: C_9  and  C_10 
REMARK    6  A    between atoms: N_15  and  C_14 
REMARK    7  A    between atoms: N_20  and  C_19 
REMARK       I    between atoms: C_22  and  N_20 
ROOT
ATOM      1  C   LIG d   1      -3.438  77.209 115.356  0.00  0.00     0.161 C 
ATOM      2  C   LIG d   1      -2.517  76.174 115.122  0.00  0.00     0.016 C 
ATOM      3  C   LIG d   1      -1.625  75.689 116.106  0.00  0.00     0.038 C 
ATOM      4  C   LIG d   1      -1.697  76.108 117.443  0.00  0.00     0.028 C 
ATOM      5  C   LIG d   1      -2.269  77.511 117.608  0.00  0.00    -0.047 C 
ATOM      6  C   LIG d   1      -3.607  77.602 116.839  0.00  0.00     0.091 C 
ENDROOT
BRANCH   1   7
ATOM      7  O   LIG d   1      -4.714  76.868 114.779  0.00  0.00    -0.368 OA
BRANCH   7   8
ATOM      8  C   LIG d   1      -5.039  75.457 114.741  0.00  0.00     0.119 C 
BRANCH   8   9
ATOM      9  C   LIG d   1      -5.329  75.088 113.273  0.00  0.00     0.028 C 
ATOM     10  C   LIG d   1      -5.991  76.240 112.498  0.00  0.00     0.006 C 
ENDBRANCH   8   9
BRANCH   8  11
ATOM     11  C   LIG d   1      -6.339  75.165 115.497  0.00  0.00     0.028 C 
ATOM     12  C   LIG d   1      -6.971  76.426 116.107  0.00  0.00     0.006 C 
ENDBRANCH   8  11
ENDBRANCH   7   8
ENDBRANCH   1   7
BRANCH   6  13
ATOM     13  N   LIG d   1      -4.193  78.967 116.879  0.00  0.00    -0.311 N 
ATOM     14  C   LIG d   1      -5.104  79.348 117.772  0.00  0.00     0.210 C 
ATOM     15  C   LIG d   1      -5.591  80.793 117.624  0.00  0.00     0.109 C 
ATOM     16  O   LIG d   1      -5.532  78.636 118.693  0.00  0.00    -0.276 OA
ATOM     17  H   LIG d   1      -3.879  79.618 116.186  0.00  0.00     0.149 HD
ENDBRANCH   6  13
BRANCH   5  18
ATOM     18  N   LIG d   1      -2.416  77.765 119.054  0.00  0.00     0.381 N 
ATOM     19  H   LIG d   1      -1.582  78.189 119.410  0.00  0.00    -0.090 HD
ATOM     20  H   LIG d   1      -2.551  76.889 119.526  0.00  0.00    -0.090 HD
ATOM     21  H   LIG d   1      -3.196  78.363 119.218  0.00  0.00    -0.090 HD
ENDBRANCH   5  18
BRANCH   3  22
ATOM     22  C   LIG d   1      -0.620  74.804 115.746  0.00  0.00     0.382 C 
ATOM     23  O   LIG d   1       0.149  75.082 114.795  0.00  0.00    -0.241 OA
ATOM     24  O   LIG d   1      -0.501  73.711 116.332  0.00  0.00    -0.241 OA
ENDBRANCH   3  22
TORSDOF 7
ENDMDL
MODEL 5
REMARK VINA RESULT:      -5.2     11.840     14.736
REMARK  7 active torsions:
REMARK  status: ('A' for Active; 'I' for Inactive)
REMARK    1  A    between atoms: C_2  and  C_3 
REMARK    2  A    between atoms: C_3  and  O_6 
REMARK    3  A    between atoms: C_3  and  C_4 
REMARK    4  A    between atoms: C_7  and  O_6 
REMARK    5  A    between atoms: C_9  and  C_10 
REMARK    6  A    between atoms: N_15  and  C_14 
REMARK    7  A    between atoms: N_20  and  C_19 
REMARK       I    between atoms: C_22  and  N_20 
ROOT
ATOM      1  C   LIG d   1      10.376  78.858 115.301  0.00  0.00     0.161 C 
ATOM      2  C   LIG d   1      10.085  77.599 114.748  0.00  0.00     0.016 C 
ATOM      3  C   LIG d   1       8.968  76.821 115.129  0.00  0.00     0.038 C 
ATOM      4  C   LIG d   1       7.975  77.320 115.986  0.00  0.00     0.028 C 
ATOM      5  C   LIG d   1       8.487  78.381 116.954  0.00  0.00    -0.047 C 
ATOM      6  C   LIG d   1       9.244  79.466 116.155  0.00  0.00     0.091 C 
ENDROOT
BRANCH   1   7
ATOM      7  O   LIG d   1      10.762  79.772 114.256  0.00  0.00    -0.368 OA
BRANCH   7   8
ATOM      8  C   LIG d   1      12.084  79.579 113.696  0.00  0.00     0.119 C 
BRANCH   8   9
ATOM      9  C   LIG d   1      13.105  80.082 114.735  0.00  0.00     0.028 C 
ATOM     10  C   LIG d   1      14.400  80.597 114.084  0.00  0.00     0.006 C 
ENDBRANCH   8   9
BRANCH   8  11
ATOM     11  C   LIG d   1      12.299  80.456 112.459  0.00  0.00     0.028 C 
ATOM     12  C   LIG d   1      11.064  81.299 112.104  0.00  0.00     0.006 C 
ENDBRANCH   8  11
ENDBRANCH   7   8
ENDBRANCH   1   7
BRANCH   6  13
ATOM     13  N   LIG d   1       9.850  80.499 117.035  0.00  0.00    -0.311 N 
ATOM     14  C   LIG d   1       9.551  81.794 116.959  0.00  0.00     0.210 C 
ATOM     15  C   LIG d   1      10.305  82.691 117.946  0.00  0.00     0.109 C 
ATOM     16  O   LIG d   1       8.709  82.281 116.190  0.00  0.00    -0.276 OA
ATOM     17  H   LIG d   1      10.521  80.186 117.710  0.00  0.00     0.149 HD
ENDBRANCH   6  13
BRANCH   5  18
ATOM     18  N   LIG d   1       7.324  78.911 117.691  0.00  0.00     0.381 N 
ATOM     19  H   LIG d   1       7.031  78.249 118.382  0.00  0.00    -0.090 HD
ATOM     20  H   LIG d   1       6.567  79.050 117.046  0.00  0.00    -0.090 HD
ATOM     21  H   LIG d   1       7.562  79.774 118.127  0.00  0.00    -0.090 HD
ENDBRANCH   5  18
BRANCH   3  22
ATOM     22  C   LIG d   1       8.856  75.513 114.682  0.00  0.00     0.382 C 
ATOM     23  O   LIG d   1       7.817  75.141 114.086  0.00  0.00    -0.241 OA
ATOM     24  O   LIG d   1       9.763  74.689 114.907  0.00  0.00    -0.241 OA
ENDBRANCH   3  22
TORSDOF 7
ENDMDL
MODEL 6
REMARK VINA RESULT:      -5.1      2.970      4.221
REMARK  7 active torsions:
REMARK  status: ('A' for Active; 'I' for Inactive)
REMARK    1  A    between atoms: C_2  and  C_3 
REMARK    2  A    between atoms: C_3  and  O_6 
REMARK    3  A    between atoms: C_3  and  C_4 
REMARK    4  A    between atoms: C_7  and  O_6 
REMARK    5  A    between atoms: C_9  and  C_10 
REMARK    6  A    between atoms: N_15  and  C_14 
REMARK    7  A    between atoms: N_20  and  C_19 
REMARK       I    between atoms: C_22  and  N_20 
ROOT
ATOM      1  C   LIG d   1      -2.073  78.268 114.930  0.00  0.00     0.161 C 
ATOM      2  C   LIG d   1      -2.277  79.105 113.820  0.00  0.00     0.016 C 
ATOM      3  C   LIG d   1      -2.312  80.516 113.905  0.00  0.00     0.038 C 
ATOM      4  C   LIG d   1      -1.992  81.195 115.090  0.00  0.00     0.028 C 
ATOM      5  C   LIG d   1      -2.275  80.384 116.349  0.00  0.00    -0.047 C 
ATOM      6  C   LIG d   1      -1.612  78.994 116.211  0.00  0.00     0.091 C 
ENDROOT
BRANCH   1   7
ATOM      7  O   LIG d   1      -1.146  77.219 114.587  0.00  0.00    -0.368 OA
BRANCH   7   8
ATOM      8  C   LIG d   1      -1.708  76.069 113.908  0.00  0.00     0.119 C 
BRANCH   8   9
ATOM      9  C   LIG d   1      -2.862  75.535 114.778  0.00  0.00     0.028 C 
ATOM     10  C   LIG d   1      -4.115  75.204 113.950  0.00  0.00     0.006 C 
ENDBRANCH   8   9
BRANCH   8  11
ATOM     11  C   LIG d   1      -0.697  74.922 113.826  0.00  0.00     0.028 C 
ATOM     12  C   LIG d   1       0.382  74.999 114.918  0.00  0.00     0.006 C 
ENDBRANCH   8  11
ENDBRANCH   7   8
ENDBRANCH   1   7
BRANCH   6  13
ATOM     13  N   LIG d   1      -1.911  78.106 117.364  0.00  0.00    -0.311 N 
ATOM     14  C   LIG d   1      -0.991  77.360 117.974  0.00  0.00     0.210 C 
ATOM     15  C   LIG d   1      -1.516  76.501 119.128  0.00  0.00     0.109 C 
ATOM     16  O   LIG d   1       0.216  77.353 117.688  0.00  0.00    -0.276 OA
ATOM     17  H   LIG d   1      -2.860  78.074 117.681  0.00  0.00     0.149 HD
ENDBRANCH   6  13
BRANCH   5  18
ATOM     18  N   LIG d   1      -1.769  81.155 117.500  0.00  0.00     0.381 N 
ATOM     19  H   LIG d   1      -2.002  80.684 118.352  0.00  0.00    -0.090 HD
ATOM     20  H   LIG d   1      -2.211  82.057 117.507  0.00  0.00    -0.090 HD
ATOM     21  H   LIG d   1      -0.781  81.261 117.431  0.00  0.00    -0.090 HD
ENDBRANCH   5  18
BRANCH   3  22
ATOM     22  C   LIG d   1      -2.708  81.261 112.805  0.00  0.00     0.382 C 
ATOM     23  O   LIG d   1      -1.882  82.000 112.218  0.00  0.00    -0.241 OA
ATOM     24  O   LIG d   1      -3.893  81.237 112.420  0.00  0.00    -0.241 OA
ENDBRANCH   3  22
TORSDOF 7
ENDMDL
MODEL 7
REMARK VINA RESULT:      -5.0      3.236      5.152
REMARK  7 active torsions:
REMARK  status: ('A' for Active; 'I' for Inactive)
REMARK    1  A    between atoms: C_2  and  C_3 
REMARK    2  A    between atoms: C_3  and  O_6 
REMARK    3  A    between atoms: C_3  and  C_4 
REMARK    4  A    between atoms: C_7  and  O_6 
REMARK    5  A    between atoms: C_9  and  C_10 
REMARK    6  A    between atoms: N_15  and  C_14 
REMARK    7  A    between atoms: N_20  and  C_19 
REMARK       I    between atoms: C_22  and  N_20 
ROOT
ATOM      1  C   LIG d   1      -2.558  80.501 115.371  0.00  0.00     0.161 C 
ATOM      2  C   LIG d   1      -2.115  81.806 115.097  0.00  0.00     0.016 C 
ATOM      3  C   LIG d   1      -1.437  82.163 113.909  0.00  0.00     0.038 C 
ATOM      4  C   LIG d   1      -1.288  81.266 112.841  0.00  0.00     0.028 C 
ATOM      5  C   LIG d   1      -1.272  79.804 113.276  0.00  0.00    -0.047 C 
ATOM      6  C   LIG d   1      -2.504  79.534 114.170  0.00  0.00     0.091 C 
ENDROOT
BRANCH   1   7
ATOM      7  O   LIG d   1      -3.890  80.543 115.921  0.00  0.00    -0.368 OA
BRANCH   7   8
ATOM      8  C   LIG d   1      -4.022  80.133 117.304  0.00  0.00     0.119 C 
BRANCH   8   9
ATOM      9  C   LIG d   1      -5.409  79.480 117.463  0.00  0.00     0.028 C 
ATOM     10  C   LIG d   1      -5.400  77.986 117.098  0.00  0.00     0.006 C 
ENDBRANCH   8   9
BRANCH   8  11
ATOM     11  C   LIG d   1      -4.032  81.341 118.245  0.00  0.00     0.028 C 
ATOM     12  C   LIG d   1      -2.686  81.555 118.955  0.00  0.00     0.006 C 
ENDBRANCH   8  11
ENDBRANCH   7   8
ENDBRANCH   1   7
BRANCH   6  13
ATOM     13  N   LIG d   1      -2.520  78.148 114.708  0.00  0.00    -0.311 N 
ATOM     14  C   LIG d   1      -3.186  77.147 114.135  0.00  0.00     0.210 C 
ATOM     15  C   LIG d   1      -3.086  75.803 114.863  0.00  0.00     0.109 C 
ATOM     16  O   LIG d   1      -3.823  77.237 113.075  0.00  0.00    -0.276 OA
ATOM     17  H   LIG d   1      -2.004  77.979 115.549  0.00  0.00     0.149 HD
ENDBRANCH   6  13
BRANCH   5  18
ATOM     18  N   LIG d   1      -1.251  78.976 112.055  0.00  0.00     0.381 N 
ATOM     19  H   LIG d   1      -2.187  78.770 111.770  0.00  0.00    -0.090 HD
ATOM     20  H   LIG d   1      -0.785  78.110 112.258  0.00  0.00    -0.090 HD
ATOM     21  H   LIG d   1      -0.772  79.457 111.326  0.00  0.00    -0.090 HD
ENDBRANCH   5  18
BRANCH   3  22
ATOM     22  C   LIG d   1      -0.863  83.421 113.797  0.00  0.00     0.382 C 
ATOM     23  O   LIG d   1      -0.317  83.952 114.794  0.00  0.00    -0.241 OA
ATOM     24  O   LIG d   1      -0.924  84.050 112.724  0.00  0.00    -0.241 OA
ENDBRANCH   3  22
TORSDOF 7
ENDMDL
MODEL 8
REMARK VINA RESULT:      -4.9      2.526      4.969
REMARK  7 active torsions:
REMARK  status: ('A' for Active; 'I' for Inactive)
REMARK    1  A    between atoms: C_2  and  C_3 
REMARK    2  A    between atoms: C_3  and  O_6 
REMARK    3  A    between atoms: C_3  and  C_4 
REMARK    4  A    between atoms: C_7  and  O_6 
REMARK    5  A    between atoms: C_9  and  C_10 
REMARK    6  A    between atoms: N_15  and  C_14 
REMARK    7  A    between atoms: N_20  and  C_19 
REMARK       I    between atoms: C_22  and  N_20 
ROOT
ATOM      1  C   LIG d   1      -1.554  77.857 115.349  0.00  0.00     0.161 C 
ATOM      2  C   LIG d   1      -2.724  77.525 114.646  0.00  0.00     0.016 C 
ATOM      3  C   LIG d   1      -3.159  76.195 114.441  0.00  0.00     0.038 C 
ATOM      4  C   LIG d   1      -2.528  75.106 115.060  0.00  0.00     0.028 C 
ATOM      5  C   LIG d   1      -1.054  75.351 115.362  0.00  0.00    -0.047 C 
ATOM      6  C   LIG d   1      -0.913  76.688 116.126  0.00  0.00     0.091 C 
ENDROOT
BRANCH   1   7
ATOM      7  O   LIG d   1      -1.813  78.964 116.234  0.00  0.00    -0.368 OA
BRANCH   7   8
ATOM      8  C   LIG d   1      -3.161  79.495 116.213  0.00  0.00     0.119 C 
BRANCH   8   9
ATOM      9  C   LIG d   1      -3.053  81.030 116.130  0.00  0.00     0.028 C 
ATOM     10  C   LIG d   1      -2.965  81.688 117.518  0.00  0.00     0.006 C 
ENDBRANCH   8   9
BRANCH   8  11
ATOM     11  C   LIG d   1      -3.893  79.210 117.527  0.00  0.00     0.028 C 
ATOM     12  C   LIG d   1      -5.181  78.396 117.328  0.00  0.00     0.006 C 
ENDBRANCH   8  11
ENDBRANCH   7   8
ENDBRANCH   1   7
BRANCH   6  13
ATOM     13  N   LIG d   1       0.505  77.045 116.387  0.00  0.00    -0.311 N 
ATOM     14  C   LIG d   1       1.150  76.718 117.506  0.00  0.00     0.210 C 
ATOM     15  C   LIG d   1       2.602  77.201 117.580  0.00  0.00     0.109 C 
ATOM     16  O   LIG d   1       0.667  76.045 118.429  0.00  0.00    -0.276 OA
ATOM     17  H   LIG d   1       0.983  77.564 115.676  0.00  0.00     0.149 HD
ENDBRANCH   6  13
BRANCH   5  18
ATOM     18  N   LIG d   1      -0.557  74.192 116.129  0.00  0.00     0.381 N 
ATOM     19  H   LIG d   1       0.432  74.105 116.008  0.00  0.00    -0.090 HD
ATOM     20  H   LIG d   1      -0.993  73.358 115.776  0.00  0.00    -0.090 HD
ATOM     21  H   LIG d   1      -0.772  74.305 117.095  0.00  0.00    -0.090 HD
ENDBRANCH   5  18
BRANCH   3  22
ATOM     22  C   LIG d   1      -4.213  75.942 113.577  0.00  0.00     0.382 C 
ATOM     23  O   LIG d   1      -4.755  74.811 113.564  0.00  0.00    -0.241 OA
ATOM     24  O   LIG d   1      -4.599  76.817 112.778  0.00  0.00    -0.241 OA
ENDBRANCH   3  22
TORSDOF 7
ENDMDL
MODEL 9
REMARK VINA RESULT:      -4.9     15.515     18.342
REMARK  7 active torsions:
REMARK  status: ('A' for Active; 'I' for Inactive)
REMARK    1  A    between atoms: C_2  and  C_3 
REMARK    2  A    between atoms: C_3  and  O_6 
REMARK    3  A    between atoms: C_3  and  C_4 
REMARK    4  A    between atoms: C_7  and  O_6 
REMARK    5  A    between atoms: C_9  and  C_10 
REMARK    6  A    between atoms: N_15  and  C_14 
REMARK    7  A    between atoms: N_20  and  C_19 
REMARK       I    between atoms: C_22  and  N_20 
ROOT
ATOM      1  C   LIG d   1     -16.436  64.720 115.606  0.00  0.00     0.161 C 
ATOM      2  C   LIG d   1     -17.540  64.701 114.739  0.00  0.00     0.016 C 
ATOM      3  C   LIG d   1     -18.877  64.848 115.177  0.00  0.00     0.038 C 
ATOM      4  C   LIG d   1     -19.189  65.177 116.504  0.00  0.00     0.028 C 
ATOM      5  C   LIG d   1     -18.142  64.707 117.508  0.00  0.00    -0.047 C 
ATOM      6  C   LIG d   1     -16.749  65.189 117.042  0.00  0.00     0.091 C 
ENDROOT
BRANCH   1   7
ATOM      7  O   LIG d   1     -15.381  65.520 115.037  0.00  0.00    -0.368 OA
BRANCH   7   8
ATOM      8  C   LIG d   1     -15.742  66.869 114.651  0.00  0.00     0.119 C 
BRANCH   8   9
ATOM      9  C   LIG d   1     -15.329  67.055 113.178  0.00  0.00     0.028 C 
ATOM     10  C   LIG d   1     -14.769  68.460 112.898  0.00  0.00     0.006 C 
ENDBRANCH   8   9
BRANCH   8  11
ATOM     11  C   LIG d   1     -14.934  67.908 115.433  0.00  0.00     0.028 C 
ATOM     12  C   LIG d   1     -15.777  68.655 116.479  0.00  0.00     0.006 C 
ENDBRANCH   8  11
ENDBRANCH   7   8
ENDBRANCH   1   7
BRANCH   6  13
ATOM     13  N   LIG d   1     -15.657  64.701 117.924  0.00  0.00    -0.311 N 
ATOM     14  C   LIG d   1     -15.149  65.415 118.927  0.00  0.00     0.210 C 
ATOM     15  C   LIG d   1     -14.015  64.732 119.698  0.00  0.00     0.109 C 
ATOM     16  O   LIG d   1     -15.552  66.536 119.271  0.00  0.00    -0.276 OA
ATOM     17  H   LIG d   1     -15.291  63.788 117.734  0.00  0.00     0.149 HD
ENDBRANCH   6  13
BRANCH   5  18
ATOM     18  N   LIG d   1     -18.524  65.236 118.831  0.00  0.00     0.381 N 
ATOM     19  H   LIG d   1     -18.057  66.105 118.996  0.00  0.00    -0.090 HD
ATOM     20  H   LIG d   1     -18.234  64.583 119.538  0.00  0.00    -0.090 HD
ATOM     21  H   LIG d   1     -19.511  65.367 118.874  0.00  0.00    -0.090 HD
ENDBRANCH   5  18
BRANCH   3  22
ATOM     22  C   LIG d   1     -19.919  64.625 114.290  0.00  0.00     0.382 C 
ATOM     23  O   LIG d   1     -20.019  65.322 113.252  0.00  0.00    -0.241 OA
ATOM     24  O   LIG d   1     -20.786  63.765 114.537  0.00  0.00    -0.241 OA
ENDBRANCH   3  22
TORSDOF 7
ENDMDL
