MODEL 1
REMARK VINA RESULT:      -5.0      0.000      0.000
REMARK  7 active torsions:
REMARK  status: ('A' for Active; 'I' for Inactive)
REMARK    1  A    between atoms: C_2  and  C_3 
REMARK    2  A    between atoms: C_3  and  O_6 
REMARK    3  A    between atoms: C_3  and  C_4 
REMARK    4  A    between atoms: C_7  and  O_6 
REMARK    5  A    between atoms: C_9  and  C_10 
REMARK    6  A    between atoms: N_15  and  C_14 
REMARK    7  A    between atoms: N_20  and  C_19 
REMARK       I    between atoms: C_22  and  N_20 
ROOT
ATOM      1  C   LIG d   1      -3.493  75.293 116.235  0.00  0.00     0.161 C 
ATOM      2  C   LIG d   1      -2.537  76.091 115.584  0.00  0.00     0.016 C 
ATOM      3  C   LIG d   1      -2.760  76.707 114.331  0.00  0.00     0.038 C 
ATOM      4  C   LIG d   1      -4.017  76.691 113.711  0.00  0.00     0.028 C 
ATOM      5  C   LIG d   1      -4.863  75.478 114.086  0.00  0.00    -0.047 C 
ATOM      6  C   LIG d   1      -4.909  75.356 115.626  0.00  0.00     0.091 C 
ENDROOT
BRANCH   1   7
ATOM      7  O   LIG d   1      -3.535  75.627 117.636  0.00  0.00    -0.368 OA
BRANCH   7   8
ATOM      8  C   LIG d   1      -3.123  76.972 117.984  0.00  0.00     0.119 C 
BRANCH   8   9
ATOM      9  C   LIG d   1      -2.403  76.898 119.345  0.00  0.00     0.028 C 
ATOM     10  C   LIG d   1      -1.548  75.627 119.488  0.00  0.00     0.006 C 
ENDBRANCH   8   9
BRANCH   8  11
ATOM     11  C   LIG d   1      -4.332  77.883 118.215  0.00  0.00     0.028 C 
ATOM     12  C   LIG d   1      -4.571  78.860 117.053  0.00  0.00     0.006 C 
ENDBRANCH   8  11
ENDBRANCH   7   8
ENDBRANCH   1   7
BRANCH   6  13
ATOM     13  N   LIG d   1      -5.647  74.147 116.077  0.00  0.00    -0.311 N 
ATOM     14  C   LIG d   1      -6.927  74.163 116.444  0.00  0.00     0.210 C 
ATOM     15  C   LIG d   1      -7.488  72.810 116.893  0.00  0.00     0.109 C 
ATOM     16  O   LIG d   1      -7.660  75.163 116.410  0.00  0.00    -0.276 OA
ATOM     17  H   LIG d   1      -5.136  73.286 116.105  0.00  0.00     0.149 HD
ENDBRANCH   6  13
BRANCH   5  18
ATOM     18  N   LIG d   1      -6.195  75.659 113.479  0.00  0.00     0.381 N 
ATOM     19  H   LIG d   1      -6.097  75.932 112.522  0.00  0.00    -0.090 HD
ATOM     20  H   LIG d   1      -6.678  76.392 113.968  0.00  0.00    -0.090 HD
ATOM     21  H   LIG d   1      -6.715  74.811 113.539  0.00  0.00    -0.090 HD
ENDBRANCH   5  18
BRANCH   3  22
ATOM     22  C   LIG d   1      -1.705  77.315 113.667  0.00  0.00     0.382 C 
ATOM     23  O   LIG d   1      -0.988  78.153 114.264  0.00  0.00    -0.241 OA
ATOM     24  O   LIG d   1      -1.489  77.068 112.465  0.00  0.00    -0.241 OA
ENDBRANCH   3  22
TORSDOF 7
ENDMDL
MODEL 2
REMARK VINA RESULT:      -5.0      2.940      4.550
REMARK  7 active torsions:
REMARK  status: ('A' for Active; 'I' for Inactive)
REMARK    1  A    between atoms: C_2  and  C_3 
REMARK    2  A    between atoms: C_3  and  O_6 
REMARK    3  A    between atoms: C_3  and  C_4 
REMARK    4  A    between atoms: C_7  and  O_6 
REMARK    5  A    between atoms: C_9  and  C_10 
REMARK    6  A    between atoms: N_15  and  C_14 
REMARK    7  A    between atoms: N_20  and  C_19 
REMARK       I    between atoms: C_22  and  N_20 
ROOT
ATOM      1  C   LIG d   1      -2.815  78.414 116.638  0.00  0.00     0.161 C 
ATOM      2  C   LIG d   1      -3.290  78.993 115.449  0.00  0.00     0.016 C 
ATOM      3  C   LIG d   1      -2.690  78.780 114.187  0.00  0.00     0.038 C 
ATOM      4  C   LIG d   1      -1.659  77.847 114.004  0.00  0.00     0.028 C 
ATOM      5  C   LIG d   1      -0.818  77.620 115.255  0.00  0.00    -0.047 C 
ATOM      6  C   LIG d   1      -1.758  77.307 116.441  0.00  0.00     0.091 C 
ENDROOT
BRANCH   1   7
ATOM      7  O   LIG d   1      -3.921  77.918 117.417  0.00  0.00    -0.368 OA
BRANCH   7   8
ATOM      8  C   LIG d   1      -5.040  77.384 116.667  0.00  0.00     0.119 C 
BRANCH   8   9
ATOM      9  C   LIG d   1      -6.329  77.952 117.290  0.00  0.00     0.028 C 
ATOM     10  C   LIG d   1      -6.210  79.448 117.627  0.00  0.00     0.006 C 
ENDBRANCH   8   9
BRANCH   8  11
ATOM     11  C   LIG d   1      -5.145  75.865 116.830  0.00  0.00     0.028 C 
ATOM     12  C   LIG d   1      -4.498  75.094 115.668  0.00  0.00     0.006 C 
ENDBRANCH   8  11
ENDBRANCH   7   8
ENDBRANCH   1   7
BRANCH   6  13
ATOM     13  N   LIG d   1      -1.022  77.154 117.724  0.00  0.00    -0.311 N 
ATOM     14  C   LIG d   1      -1.191  76.121 118.547  0.00  0.00     0.210 C 
ATOM     15  C   LIG d   1      -0.348  76.169 119.825  0.00  0.00     0.109 C 
ATOM     16  O   LIG d   1      -1.934  75.153 118.325  0.00  0.00    -0.276 OA
ATOM     17  H   LIG d   1      -0.376  77.879 117.967  0.00  0.00     0.149 HD
ENDBRANCH   6  13
BRANCH   5  18
ATOM     18  N   LIG d   1       0.129  76.528 114.964  0.00  0.00     0.381 N 
ATOM     19  H   LIG d   1       1.064  76.829 115.158  0.00  0.00    -0.090 HD
ATOM     20  H   LIG d   1       0.069  76.297 113.988  0.00  0.00    -0.090 HD
ATOM     21  H   LIG d   1      -0.091  75.729 115.516  0.00  0.00    -0.090 HD
ENDBRANCH   5  18
BRANCH   3  22
ATOM     22  C   LIG d   1      -3.097  79.535 113.097  0.00  0.00     0.382 C 
ATOM     23  O   LIG d   1      -3.110  80.787 113.172  0.00  0.00    -0.241 OA
ATOM     24  O   LIG d   1      -3.494  78.978 112.056  0.00  0.00    -0.241 OA
ENDBRANCH   3  22
TORSDOF 7
ENDMDL
MODEL 3
REMARK VINA RESULT:      -5.0      2.735      4.102
REMARK  7 active torsions:
REMARK  status: ('A' for Active; 'I' for Inactive)
REMARK    1  A    between atoms: C_2  and  C_3 
REMARK    2  A    between atoms: C_3  and  O_6 
REMARK    3  A    between atoms: C_3  and  C_4 
REMARK    4  A    between atoms: C_7  and  O_6 
REMARK    5  A    between atoms: C_9  and  C_10 
REMARK    6  A    between atoms: N_15  and  C_14 
REMARK    7  A    between atoms: N_20  and  C_19 
REMARK       I    between atoms: C_22  and  N_20 
ROOT
ATOM      1  C   LIG d   1      -3.469  78.317 115.596  0.00  0.00     0.161 C 
ATOM      2  C   LIG d   1      -3.416  79.266 114.562  0.00  0.00     0.016 C 
ATOM      3  C   LIG d   1      -2.341  79.363 113.649  0.00  0.00     0.038 C 
ATOM      4  C   LIG d   1      -1.309  78.414 113.615  0.00  0.00     0.028 C 
ATOM      5  C   LIG d   1      -1.062  77.739 114.960  0.00  0.00    -0.047 C 
ATOM      6  C   LIG d   1      -2.405  77.202 115.506  0.00  0.00     0.091 C 
ENDROOT
BRANCH   1   7
ATOM      7  O   LIG d   1      -4.790  77.744 115.667  0.00  0.00    -0.368 OA
BRANCH   7   8
ATOM      8  C   LIG d   1      -5.300  77.482 116.998  0.00  0.00     0.119 C 
BRANCH   8   9
ATOM      9  C   LIG d   1      -6.008  76.114 116.961  0.00  0.00     0.028 C 
ATOM     10  C   LIG d   1      -5.549  75.248 115.776  0.00  0.00     0.006 C 
ENDBRANCH   8   9
BRANCH   8  11
ATOM     11  C   LIG d   1      -6.386  78.490 117.386  0.00  0.00     0.028 C 
ATOM     12  C   LIG d   1      -5.853  79.927 117.496  0.00  0.00     0.006 C 
ENDBRANCH   8  11
ENDBRANCH   7   8
ENDBRANCH   1   7
BRANCH   6  13
ATOM     13  N   LIG d   1      -2.268  76.601 116.858  0.00  0.00    -0.311 N 
ATOM     14  C   LIG d   1      -2.105  75.296 117.066  0.00  0.00     0.210 C 
ATOM     15  C   LIG d   1      -2.005  74.884 118.538  0.00  0.00     0.109 C 
ATOM     16  O   LIG d   1      -2.001  74.444 116.171  0.00  0.00    -0.276 OA
ATOM     17  H   LIG d   1      -2.309  77.224 117.640  0.00  0.00     0.149 HD
ENDBRANCH   6  13
BRANCH   5  18
ATOM     18  N   LIG d   1      -0.059  76.679 114.749  0.00  0.00     0.381 N 
ATOM     19  H   LIG d   1       0.673  76.766 115.426  0.00  0.00    -0.090 HD
ATOM     20  H   LIG d   1       0.342  76.788 113.834  0.00  0.00    -0.090 HD
ATOM     21  H   LIG d   1      -0.488  75.783 114.827  0.00  0.00    -0.090 HD
ENDBRANCH   5  18
BRANCH   3  22
ATOM     22  C   LIG d   1      -2.271  80.444 112.782  0.00  0.00     0.382 C 
ATOM     23  O   LIG d   1      -3.237  81.239 112.693  0.00  0.00    -0.241 OA
ATOM     24  O   LIG d   1      -1.272  80.608 112.056  0.00  0.00    -0.241 OA
ENDBRANCH   3  22
TORSDOF 7
ENDMDL
MODEL 4
REMARK VINA RESULT:      -4.9      2.621      5.420
REMARK  7 active torsions:
REMARK  status: ('A' for Active; 'I' for Inactive)
REMARK    1  A    between atoms: C_2  and  C_3 
REMARK    2  A    between atoms: C_3  and  O_6 
REMARK    3  A    between atoms: C_3  and  C_4 
REMARK    4  A    between atoms: C_7  and  O_6 
REMARK    5  A    between atoms: C_9  and  C_10 
REMARK    6  A    between atoms: N_15  and  C_14 
REMARK    7  A    between atoms: N_20  and  C_19 
REMARK       I    between atoms: C_22  and  N_20 
ROOT
ATOM      1  C   LIG d   1      -5.040  76.433 117.150  0.00  0.00     0.161 C 
ATOM      2  C   LIG d   1      -5.983  77.365 117.611  0.00  0.00     0.016 C 
ATOM      3  C   LIG d   1      -5.867  78.759 117.401  0.00  0.00     0.038 C 
ATOM      4  C   LIG d   1      -4.870  79.304 116.578  0.00  0.00     0.028 C 
ATOM      5  C   LIG d   1      -3.609  78.450 116.509  0.00  0.00    -0.047 C 
ATOM      6  C   LIG d   1      -4.004  76.998 116.155  0.00  0.00     0.091 C 
ENDROOT
BRANCH   1   7
ATOM      7  O   LIG d   1      -5.716  75.296 116.576  0.00  0.00    -0.368 OA
BRANCH   7   8
ATOM      8  C   LIG d   1      -6.981  75.569 115.926  0.00  0.00     0.119 C 
BRANCH   8   9
ATOM      9  C   LIG d   1      -7.933  74.403 116.256  0.00  0.00     0.028 C 
ATOM     10  C   LIG d   1      -7.206  73.224 116.925  0.00  0.00     0.006 C 
ENDBRANCH   8   9
BRANCH   8  11
ATOM     11  C   LIG d   1      -6.838  75.555 114.401  0.00  0.00     0.028 C 
ATOM     12  C   LIG d   1      -5.595  74.785 113.926  0.00  0.00     0.006 C 
ENDBRANCH   8  11
ENDBRANCH   7   8
ENDBRANCH   1   7
BRANCH   6  13
ATOM     13  N   LIG d   1      -2.837  76.078 116.150  0.00  0.00    -0.311 N 
ATOM     14  C   LIG d   1      -2.140  75.786 115.053  0.00  0.00     0.210 C 
ATOM     15  C   LIG d   1      -0.986  74.799 115.264  0.00  0.00     0.109 C 
ATOM     16  O   LIG d   1      -2.346  76.274 113.932  0.00  0.00    -0.276 OA
ATOM     17  H   LIG d   1      -2.580  75.662 117.023  0.00  0.00     0.149 HD
ENDBRANCH   6  13
BRANCH   5  18
ATOM     18  N   LIG d   1      -2.710  79.063 115.512  0.00  0.00     0.381 N 
ATOM     19  H   LIG d   1      -2.579  80.032 115.726  0.00  0.00    -0.090 HD
ATOM     20  H   LIG d   1      -3.136  78.995 114.605  0.00  0.00    -0.090 HD
ATOM     21  H   LIG d   1      -1.831  78.594 115.511  0.00  0.00    -0.090 HD
ENDBRANCH   5  18
BRANCH   3  22
ATOM     22  C   LIG d   1      -6.733  79.626 118.050  0.00  0.00     0.382 C 
ATOM     23  O   LIG d   1      -7.083  79.394 119.232  0.00  0.00    -0.241 OA
ATOM     24  O   LIG d   1      -7.203  80.613 117.454  0.00  0.00    -0.241 OA
ENDBRANCH   3  22
TORSDOF 7
ENDMDL
MODEL 5
REMARK VINA RESULT:      -4.9      2.151      5.107
REMARK  7 active torsions:
REMARK  status: ('A' for Active; 'I' for Inactive)
REMARK    1  A    between atoms: C_2  and  C_3 
REMARK    2  A    between atoms: C_3  and  O_6 
REMARK    3  A    between atoms: C_3  and  C_4 
REMARK    4  A    between atoms: C_7  and  O_6 
REMARK    5  A    between atoms: C_9  and  C_10 
REMARK    6  A    between atoms: N_15  and  C_14 
REMARK    7  A    between atoms: N_20  and  C_19 
REMARK       I    between atoms: C_22  and  N_20 
ROOT
ATOM      1  C   LIG d   1      -4.643  77.422 115.413  0.00  0.00     0.161 C 
ATOM      2  C   LIG d   1      -5.674  76.605 115.907  0.00  0.00     0.016 C 
ATOM      3  C   LIG d   1      -5.512  75.228 116.182  0.00  0.00     0.038 C 
ATOM      4  C   LIG d   1      -4.257  74.603 116.123  0.00  0.00     0.028 C 
ATOM      5  C   LIG d   1      -3.294  75.268 115.145  0.00  0.00    -0.047 C 
ATOM      6  C   LIG d   1      -3.239  76.783 115.448  0.00  0.00     0.091 C 
ENDROOT
BRANCH   1   7
ATOM      7  O   LIG d   1      -4.638  78.681 116.114  0.00  0.00    -0.368 OA
BRANCH   7   8
ATOM      8  C   LIG d   1      -5.216  78.673 117.442  0.00  0.00     0.119 C 
BRANCH   8   9
ATOM      9  C   LIG d   1      -6.052  79.959 117.592  0.00  0.00     0.028 C 
ATOM     10  C   LIG d   1      -7.476  79.677 118.100  0.00  0.00     0.006 C 
ENDBRANCH   8   9
BRANCH   8  11
ATOM     11  C   LIG d   1      -4.132  78.766 118.521  0.00  0.00     0.028 C 
ATOM     12  C   LIG d   1      -3.835  77.413 119.186  0.00  0.00     0.006 C 
ENDBRANCH   8  11
ENDBRANCH   7   8
ENDBRANCH   1   7
BRANCH   6  13
ATOM     13  N   LIG d   1      -2.384  77.522 114.483  0.00  0.00    -0.311 N 
ATOM     14  C   LIG d   1      -2.659  77.619 113.183  0.00  0.00     0.210 C 
ATOM     15  C   LIG d   1      -1.636  78.410 112.363  0.00  0.00     0.109 C 
ATOM     16  O   LIG d   1      -3.670  77.151 112.638  0.00  0.00    -0.276 OA
ATOM     17  H   LIG d   1      -1.559  77.959 114.846  0.00  0.00     0.149 HD
ENDBRANCH   6  13
BRANCH   5  18
ATOM     18  N   LIG d   1      -1.985  74.602 115.286  0.00  0.00     0.381 N 
ATOM     19  H   LIG d   1      -1.558  74.502 114.387  0.00  0.00    -0.090 HD
ATOM     20  H   LIG d   1      -2.127  73.685 115.672  0.00  0.00    -0.090 HD
ATOM     21  H   LIG d   1      -1.395  75.135 115.886  0.00  0.00    -0.090 HD
ENDBRANCH   5  18
BRANCH   3  22
ATOM     22  C   LIG d   1      -6.621  74.452 116.482  0.00  0.00     0.382 C 
ATOM     23  O   LIG d   1      -7.637  74.981 116.992  0.00  0.00    -0.241 OA
ATOM     24  O   LIG d   1      -6.601  73.221 116.290  0.00  0.00    -0.241 OA
ENDBRANCH   3  22
TORSDOF 7
ENDMDL
MODEL 6
REMARK VINA RESULT:      -4.9     13.899     16.100
REMARK  7 active torsions:
REMARK  status: ('A' for Active; 'I' for Inactive)
REMARK    1  A    between atoms: C_2  and  C_3 
REMARK    2  A    between atoms: C_3  and  O_6 
REMARK    3  A    between atoms: C_3  and  C_4 
REMARK    4  A    between atoms: C_7  and  O_6 
REMARK    5  A    between atoms: C_9  and  C_10 
REMARK    6  A    between atoms: N_15  and  C_14 
REMARK    7  A    between atoms: N_20  and  C_19 
REMARK       I    between atoms: C_22  and  N_20 
ROOT
ATOM      1  C   LIG d   1      -4.243  91.580 117.325  0.00  0.00     0.161 C 
ATOM      2  C   LIG d   1      -3.684  92.375 118.339  0.00  0.00     0.016 C 
ATOM      3  C   LIG d   1      -4.407  93.372 119.033  0.00  0.00     0.038 C 
ATOM      4  C   LIG d   1      -5.790  93.539 118.863  0.00  0.00     0.028 C 
ATOM      5  C   LIG d   1      -6.288  93.102 117.490  0.00  0.00    -0.047 C 
ATOM      6  C   LIG d   1      -5.778  91.671 117.203  0.00  0.00     0.091 C 
ENDROOT
BRANCH   1   7
ATOM      7  O   LIG d   1      -3.835  90.208 117.499  0.00  0.00    -0.368 OA
BRANCH   7   8
ATOM      8  C   LIG d   1      -2.617  89.997 118.254  0.00  0.00     0.119 C 
BRANCH   8   9
ATOM      9  C   LIG d   1      -1.492  89.699 117.244  0.00  0.00     0.028 C 
ATOM     10  C   LIG d   1      -0.413  90.795 117.228  0.00  0.00     0.006 C 
ENDBRANCH   8   9
BRANCH   8  11
ATOM     11  C   LIG d   1      -2.716  88.745 119.131  0.00  0.00     0.028 C 
ATOM     12  C   LIG d   1      -1.432  87.900 119.110  0.00  0.00     0.006 C 
ENDBRANCH   8  11
ENDBRANCH   7   8
ENDBRANCH   1   7
BRANCH   6  13
ATOM     13  N   LIG d   1      -6.151  91.199 115.844  0.00  0.00    -0.311 N 
ATOM     14  C   LIG d   1      -7.209  90.427 115.600  0.00  0.00     0.210 C 
ATOM     15  C   LIG d   1      -7.400  90.038 114.131  0.00  0.00     0.109 C 
ATOM     16  O   LIG d   1      -8.025  90.055 116.457  0.00  0.00    -0.276 OA
ATOM     17  H   LIG d   1      -5.560  91.480 115.086  0.00  0.00     0.149 HD
ENDBRANCH   6  13
BRANCH   5  18
ATOM     18  N   LIG d   1      -7.760  93.200 117.498  0.00  0.00     0.381 N 
ATOM     19  H   LIG d   1      -8.040  94.059 117.929  0.00  0.00    -0.090 HD
ATOM     20  H   LIG d   1      -8.134  92.440 118.039  0.00  0.00    -0.090 HD
ATOM     21  H   LIG d   1      -8.110  93.159 116.566  0.00  0.00    -0.090 HD
ENDBRANCH   5  18
BRANCH   3  22
ATOM     22  C   LIG d   1      -3.738  94.242 119.880  0.00  0.00     0.382 C 
ATOM     23  O   LIG d   1      -4.259  95.341 120.190  0.00  0.00    -0.241 OA
ATOM     24  O   LIG d   1      -2.600  93.962 120.303  0.00  0.00    -0.241 OA
ENDBRANCH   3  22
TORSDOF 7
ENDMDL
MODEL 7
REMARK VINA RESULT:      -4.6     11.713     14.293
REMARK  7 active torsions:
REMARK  status: ('A' for Active; 'I' for Inactive)
REMARK    1  A    between atoms: C_2  and  C_3 
REMARK    2  A    between atoms: C_3  and  O_6 
REMARK    3  A    between atoms: C_3  and  C_4 
REMARK    4  A    between atoms: C_7  and  O_6 
REMARK    5  A    between atoms: C_9  and  C_10 
REMARK    6  A    between atoms: N_15  and  C_14 
REMARK    7  A    between atoms: N_20  and  C_19 
REMARK       I    between atoms: C_22  and  N_20 
ROOT
ATOM      1  C   LIG d   1       4.621  85.943 114.118  0.00  0.00     0.161 C 
ATOM      2  C   LIG d   1       4.226  87.050 113.348  0.00  0.00     0.016 C 
ATOM      3  C   LIG d   1       4.467  88.389 113.730  0.00  0.00     0.038 C 
ATOM      4  C   LIG d   1       5.259  88.712 114.843  0.00  0.00     0.028 C 
ATOM      5  C   LIG d   1       5.250  87.637 115.925  0.00  0.00    -0.047 C 
ATOM      6  C   LIG d   1       5.583  86.273 115.279  0.00  0.00     0.091 C 
ENDROOT
BRANCH   1   7
ATOM      7  O   LIG d   1       5.194  84.933 113.264  0.00  0.00    -0.368 OA
BRANCH   7   8
ATOM      8  C   LIG d   1       4.264  83.987 112.682  0.00  0.00     0.119 C 
BRANCH   8   9
ATOM      9  C   LIG d   1       3.334  83.499 113.810  0.00  0.00     0.028 C 
ATOM     10  C   LIG d   1       1.849  83.567 113.418  0.00  0.00     0.006 C 
ENDBRANCH   8   9
BRANCH   8  11
ATOM     11  C   LIG d   1       4.985  82.733 112.180  0.00  0.00     0.028 C 
ATOM     12  C   LIG d   1       4.978  81.590 113.207  0.00  0.00     0.006 C 
ENDBRANCH   8  11
ENDBRANCH   7   8
ENDBRANCH   1   7
BRANCH   6  13
ATOM     13  N   LIG d   1       5.513  85.152 116.253  0.00  0.00    -0.311 N 
ATOM     14  C   LIG d   1       6.576  84.671 116.894  0.00  0.00     0.210 C 
ATOM     15  C   LIG d   1       6.286  83.501 117.839  0.00  0.00     0.109 C 
ATOM     16  O   LIG d   1       7.727  85.122 116.793  0.00  0.00    -0.276 OA
ATOM     17  H   LIG d   1       4.612  84.747 116.418  0.00  0.00     0.149 HD
ENDBRANCH   6  13
BRANCH   5  18
ATOM     18  N   LIG d   1       6.221  88.039 116.960  0.00  0.00     0.381 N 
ATOM     19  H   LIG d   1       7.072  87.527 116.843  0.00  0.00    -0.090 HD
ATOM     20  H   LIG d   1       5.841  87.818 117.864  0.00  0.00    -0.090 HD
ATOM     21  H   LIG d   1       6.401  89.017 116.897  0.00  0.00    -0.090 HD
ENDBRANCH   5  18
BRANCH   3  22
ATOM     22  C   LIG d   1       3.880  89.424 113.018  0.00  0.00     0.382 C 
ATOM     23  O   LIG d   1       2.830  89.217 112.363  0.00  0.00    -0.241 OA
ATOM     24  O   LIG d   1       4.411  90.550 112.985  0.00  0.00    -0.241 OA
ENDBRANCH   3  22
TORSDOF 7
ENDMDL
MODEL 8
REMARK VINA RESULT:      -4.5     12.977     15.402
REMARK  7 active torsions:
REMARK  status: ('A' for Active; 'I' for Inactive)
REMARK    1  A    between atoms: C_2  and  C_3 
REMARK    2  A    between atoms: C_3  and  O_6 
REMARK    3  A    between atoms: C_3  and  C_4 
REMARK    4  A    between atoms: C_7  and  O_6 
REMARK    5  A    between atoms: C_9  and  C_10 
REMARK    6  A    between atoms: N_15  and  C_14 
REMARK    7  A    between atoms: N_20  and  C_19 
REMARK       I    between atoms: C_22  and  N_20 
ROOT
ATOM      1  C   LIG d   1      10.153  77.132 114.531  0.00  0.00     0.161 C 
ATOM      2  C   LIG d   1       9.647  76.030 115.240  0.00  0.00     0.016 C 
ATOM      3  C   LIG d   1      10.462  74.996 115.757  0.00  0.00     0.038 C 
ATOM      4  C   LIG d   1      11.862  75.073 115.730  0.00  0.00     0.028 C 
ATOM      5  C   LIG d   1      12.401  75.918 114.581  0.00  0.00    -0.047 C 
ATOM      6  C   LIG d   1      11.687  77.289 114.589  0.00  0.00     0.091 C 
ENDROOT
BRANCH   1   7
ATOM      7  O   LIG d   1       9.509  78.340 114.981  0.00  0.00    -0.368 OA
BRANCH   7   8
ATOM      8  C   LIG d   1       8.362  78.166 115.849  0.00  0.00     0.119 C 
BRANCH   8   9
ATOM      9  C   LIG d   1       7.170  78.887 115.191  0.00  0.00     0.028 C 
ATOM     10  C   LIG d   1       5.873  78.737 116.003  0.00  0.00     0.006 C 
ENDBRANCH   8   9
BRANCH   8  11
ATOM     11  C   LIG d   1       8.569  78.869 117.194  0.00  0.00     0.028 C 
ATOM     12  C   LIG d   1       9.586  78.148 118.093  0.00  0.00     0.006 C 
ENDBRANCH   8  11
ENDBRANCH   7   8
ENDBRANCH   1   7
BRANCH   6  13
ATOM     13  N   LIG d   1      12.095  78.147 113.445  0.00  0.00    -0.311 N 
ATOM     14  C   LIG d   1      12.279  79.462 113.545  0.00  0.00     0.210 C 
ATOM     15  C   LIG d   1      12.678  80.159 112.241  0.00  0.00     0.109 C 
ATOM     16  O   LIG d   1      12.180  80.113 114.596  0.00  0.00    -0.276 OA
ATOM     17  H   LIG d   1      12.228  77.696 112.561  0.00  0.00     0.149 HD
ENDBRANCH   6  13
BRANCH   5  18
ATOM     18  N   LIG d   1      13.862  76.025 114.753  0.00  0.00     0.381 N 
ATOM     19  H   LIG d   1      14.068  76.599 115.547  0.00  0.00    -0.090 HD
ATOM     20  H   LIG d   1      14.255  76.462 113.938  0.00  0.00    -0.090 HD
ATOM     21  H   LIG d   1      14.258  75.120 114.878  0.00  0.00    -0.090 HD
ENDBRANCH   5  18
BRANCH   3  22
ATOM     22  C   LIG d   1       9.874  73.852 116.273  0.00  0.00     0.382 C 
ATOM     23  O   LIG d   1       9.312  73.035 115.505  0.00  0.00    -0.241 OA
ATOM     24  O   LIG d   1       9.861  73.647 117.502  0.00  0.00    -0.241 OA
ENDBRANCH   3  22
TORSDOF 7
ENDMDL
MODEL 9
REMARK VINA RESULT:      -4.5      2.892      4.929
REMARK  7 active torsions:
REMARK  status: ('A' for Active; 'I' for Inactive)
REMARK    1  A    between atoms: C_2  and  C_3 
REMARK    2  A    between atoms: C_3  and  O_6 
REMARK    3  A    between atoms: C_3  and  C_4 
REMARK    4  A    between atoms: C_7  and  O_6 
REMARK    5  A    between atoms: C_9  and  C_10 
REMARK    6  A    between atoms: N_15  and  C_14 
REMARK    7  A    between atoms: N_20  and  C_19 
REMARK       I    between atoms: C_22  and  N_20 
ROOT
ATOM      1  C   LIG d   1      -4.040  77.478 116.833  0.00  0.00     0.161 C 
ATOM      2  C   LIG d   1      -4.948  77.055 115.848  0.00  0.00     0.016 C 
ATOM      3  C   LIG d   1      -4.899  75.779 115.241  0.00  0.00     0.038 C 
ATOM      4  C   LIG d   1      -4.025  74.778 115.690  0.00  0.00     0.028 C 
ATOM      5  C   LIG d   1      -2.756  75.326 116.335  0.00  0.00    -0.047 C 
ATOM      6  C   LIG d   1      -3.149  76.360 117.414  0.00  0.00     0.091 C 
ENDROOT
BRANCH   1   7
ATOM      7  O   LIG d   1      -4.747  78.155 117.891  0.00  0.00    -0.368 OA
BRANCH   7   8
ATOM      8  C   LIG d   1      -5.985  78.808 117.514  0.00  0.00     0.119 C 
BRANCH   8   9
ATOM      9  C   LIG d   1      -5.895  80.274 117.979  0.00  0.00     0.028 C 
ATOM     10  C   LIG d   1      -7.172  81.070 117.661  0.00  0.00     0.006 C 
ENDBRANCH   8   9
BRANCH   8  11
ATOM     11  C   LIG d   1      -7.179  78.216 118.268  0.00  0.00     0.028 C 
ATOM     12  C   LIG d   1      -6.809  77.721 119.675  0.00  0.00     0.006 C 
ENDBRANCH   8  11
ENDBRANCH   7   8
ENDBRANCH   1   7
BRANCH   6  13
ATOM     13  N   LIG d   1      -1.965  77.007 118.037  0.00  0.00    -0.311 N 
ATOM     14  C   LIG d   1      -1.361  76.538 119.127  0.00  0.00     0.210 C 
ATOM     15  C   LIG d   1      -0.170  77.368 119.616  0.00  0.00     0.109 C 
ATOM     16  O   LIG d   1      -1.680  75.495 119.718  0.00  0.00    -0.276 OA
ATOM     17  H   LIG d   1      -1.620  77.842 117.604  0.00  0.00     0.149 HD
ENDBRANCH   6  13
BRANCH   5  18
ATOM     18  N   LIG d   1      -2.002  74.180 116.879  0.00  0.00     0.381 N 
ATOM     19  H   LIG d   1      -1.133  74.085 116.392  0.00  0.00    -0.090 HD
ATOM     20  H   LIG d   1      -2.537  73.342 116.737  0.00  0.00    -0.090 HD
ATOM     21  H   LIG d   1      -1.834  74.314 117.852  0.00  0.00    -0.090 HD
ENDBRANCH   5  18
BRANCH   3  22
ATOM     22  C   LIG d   1      -5.705  75.507 114.146  0.00  0.00     0.382 C 
ATOM     23  O   LIG d   1      -5.353  74.642 113.308  0.00  0.00    -0.241 OA
ATOM     24  O   LIG d   1      -6.757  76.148 113.961  0.00  0.00    -0.241 OA
ENDBRANCH   3  22
TORSDOF 7
ENDMDL
