MODEL 1
REMARK VINA RESULT:      -5.6      0.000      0.000
REMARK  7 active torsions:
REMARK  status: ('A' for Active; 'I' for Inactive)
REMARK    1  A    between atoms: C_2  and  C_3 
REMARK    2  A    between atoms: C_3  and  O_6 
REMARK    3  A    between atoms: C_3  and  C_4 
REMARK    4  A    between atoms: C_7  and  O_6 
REMARK    5  A    between atoms: C_9  and  C_10 
REMARK    6  A    between atoms: N_15  and  C_14 
REMARK    7  A    between atoms: N_20  and  C_19 
REMARK       I    between atoms: C_22  and  N_20 
ROOT
ATOM      1  C   LIG d   1      -7.469  76.854 118.088  0.00  0.00     0.161 C 
ATOM      2  C   LIG d   1      -8.687  77.476 118.406  0.00  0.00     0.016 C 
ATOM      3  C   LIG d   1      -8.833  78.876 118.547  0.00  0.00     0.038 C 
ATOM      4  C   LIG d   1      -7.795  79.765 118.228  0.00  0.00     0.028 C 
ATOM      5  C   LIG d   1      -6.406  79.158 118.392  0.00  0.00    -0.047 C 
ATOM      6  C   LIG d   1      -6.352  77.815 117.628  0.00  0.00     0.091 C 
ENDROOT
BRANCH   1   7
ATOM      7  O   LIG d   1      -7.687  75.829 117.098  0.00  0.00    -0.368 OA
BRANCH   7   8
ATOM      8  C   LIG d   1      -7.903  74.489 117.605  0.00  0.00     0.119 C 
BRANCH   8   9
ATOM      9  C   LIG d   1      -6.938  73.550 116.856  0.00  0.00     0.028 C 
ATOM     10  C   LIG d   1      -6.024  74.307 115.877  0.00  0.00     0.006 C 
ENDBRANCH   8   9
BRANCH   8  11
ATOM     11  C   LIG d   1      -9.307  73.983 117.264  0.00  0.00     0.028 C 
ATOM     12  C   LIG d   1      -9.337  72.483 116.934  0.00  0.00     0.006 C 
ENDBRANCH   8  11
ENDBRANCH   7   8
ENDBRANCH   1   7
BRANCH   6  13
ATOM     13  N   LIG d   1      -5.054  77.113 117.806  0.00  0.00    -0.311 N 
ATOM     14  C   LIG d   1      -4.039  77.223 116.951  0.00  0.00     0.210 C 
ATOM     15  C   LIG d   1      -2.798  76.400 117.312  0.00  0.00     0.109 C 
ATOM     16  O   LIG d   1      -4.036  77.948 115.945  0.00  0.00    -0.276 OA
ATOM     17  H   LIG d   1      -4.958  76.528 118.613  0.00  0.00     0.149 HD
ENDBRANCH   6  13
BRANCH   5  18
ATOM     18  N   LIG d   1      -5.427  80.144 117.896  0.00  0.00     0.381 N 
ATOM     19  H   LIG d   1      -5.793  80.607 117.088  0.00  0.00    -0.090 HD
ATOM     20  H   LIG d   1      -4.587  79.662 117.630  0.00  0.00    -0.090 HD
ATOM     21  H   LIG d   1      -5.225  80.811 118.607  0.00  0.00    -0.090 HD
ENDBRANCH   5  18
BRANCH   3  22
ATOM     22  C   LIG d   1     -10.015  79.397 119.049  0.00  0.00     0.382 C 
ATOM     23  O   LIG d   1     -10.593  80.335 118.448  0.00  0.00    -0.241 OA
ATOM     24  O   LIG d   1     -10.489  78.971 120.119  0.00  0.00    -0.241 OA
ENDBRANCH   3  22
TORSDOF 7
ENDMDL
MODEL 2
REMARK VINA RESULT:      -5.5      3.201      5.682
REMARK  7 active torsions:
REMARK  status: ('A' for Active; 'I' for Inactive)
REMARK    1  A    between atoms: C_2  and  C_3 
REMARK    2  A    between atoms: C_3  and  O_6 
REMARK    3  A    between atoms: C_3  and  C_4 
REMARK    4  A    between atoms: C_7  and  O_6 
REMARK    5  A    between atoms: C_9  and  C_10 
REMARK    6  A    between atoms: N_15  and  C_14 
REMARK    7  A    between atoms: N_20  and  C_19 
REMARK       I    between atoms: C_22  and  N_20 
ROOT
ATOM      1  C   LIG d   1      -4.558  75.160 116.145  0.00  0.00     0.161 C 
ATOM      2  C   LIG d   1      -4.053  76.462 116.300  0.00  0.00     0.016 C 
ATOM      3  C   LIG d   1      -4.798  77.523 116.863  0.00  0.00     0.038 C 
ATOM      4  C   LIG d   1      -6.054  77.316 117.453  0.00  0.00     0.028 C 
ATOM      5  C   LIG d   1      -6.810  76.128 116.868  0.00  0.00    -0.047 C 
ATOM      6  C   LIG d   1      -5.886  74.889 116.883  0.00  0.00     0.091 C 
ENDROOT
BRANCH   1   7
ATOM      7  O   LIG d   1      -3.560  74.198 116.540  0.00  0.00    -0.368 OA
BRANCH   7   8
ATOM      8  C   LIG d   1      -2.238  74.727 116.812  0.00  0.00     0.119 C 
BRANCH   8   9
ATOM      9  C   LIG d   1      -1.339  74.363 115.615  0.00  0.00     0.028 C 
ATOM     10  C   LIG d   1      -0.537  75.568 115.095  0.00  0.00     0.006 C 
ENDBRANCH   8   9
BRANCH   8  11
ATOM     11  C   LIG d   1      -1.601  74.038 118.022  0.00  0.00     0.028 C 
ATOM     12  C   LIG d   1      -1.370  74.998 119.200  0.00  0.00     0.006 C 
ENDBRANCH   8  11
ENDBRANCH   7   8
ENDBRANCH   1   7
BRANCH   6  13
ATOM     13  N   LIG d   1      -6.518  73.702 116.250  0.00  0.00    -0.311 N 
ATOM     14  C   LIG d   1      -7.311  72.857 116.906  0.00  0.00     0.210 C 
ATOM     15  C   LIG d   1      -7.842  71.688 116.071  0.00  0.00     0.109 C 
ATOM     16  O   LIG d   1      -7.650  72.982 118.093  0.00  0.00    -0.276 OA
ATOM     17  H   LIG d   1      -6.321  73.543 115.282  0.00  0.00     0.149 HD
ENDBRANCH   6  13
BRANCH   5  18
ATOM     18  N   LIG d   1      -8.037  75.944 117.665  0.00  0.00     0.381 N 
ATOM     19  H   LIG d   1      -8.826  76.290 117.156  0.00  0.00    -0.090 HD
ATOM     20  H   LIG d   1      -7.954  76.472 118.516  0.00  0.00    -0.090 HD
ATOM     21  H   LIG d   1      -8.166  74.979 117.875  0.00  0.00    -0.090 HD
ENDBRANCH   5  18
BRANCH   3  22
ATOM     22  C   LIG d   1      -4.303  78.817 116.805  0.00  0.00     0.382 C 
ATOM     23  O   LIG d   1      -3.748  79.229 115.758  0.00  0.00    -0.241 OA
ATOM     24  O   LIG d   1      -4.364  79.562 117.801  0.00  0.00    -0.241 OA
ENDBRANCH   3  22
TORSDOF 7
ENDMDL
MODEL 3
REMARK VINA RESULT:      -5.4      3.638      6.259
REMARK  7 active torsions:
REMARK  status: ('A' for Active; 'I' for Inactive)
REMARK    1  A    between atoms: C_2  and  C_3 
REMARK    2  A    between atoms: C_3  and  O_6 
REMARK    3  A    between atoms: C_3  and  C_4 
REMARK    4  A    between atoms: C_7  and  O_6 
REMARK    5  A    between atoms: C_9  and  C_10 
REMARK    6  A    between atoms: N_15  and  C_14 
REMARK    7  A    between atoms: N_20  and  C_19 
REMARK       I    between atoms: C_22  and  N_20 
ROOT
ATOM      1  C   LIG d   1      -3.224  76.607 116.813  0.00  0.00     0.161 C 
ATOM      2  C   LIG d   1      -3.396  77.242 115.572  0.00  0.00     0.016 C 
ATOM      3  C   LIG d   1      -2.543  77.029 114.465  0.00  0.00     0.038 C 
ATOM      4  C   LIG d   1      -1.543  76.045 114.477  0.00  0.00     0.028 C 
ATOM      5  C   LIG d   1      -1.012  75.739 115.874  0.00  0.00    -0.047 C 
ATOM      6  C   LIG d   1      -2.206  75.448 116.812  0.00  0.00     0.091 C 
ENDROOT
BRANCH   1   7
ATOM      7  O   LIG d   1      -4.498  76.154 117.311  0.00  0.00    -0.368 OA
BRANCH   7   8
ATOM      8  C   LIG d   1      -5.567  76.063 116.337  0.00  0.00     0.119 C 
BRANCH   8   9
ATOM      9  C   LIG d   1      -6.895  76.294 117.083  0.00  0.00     0.028 C 
ATOM     10  C   LIG d   1      -7.607  74.978 117.437  0.00  0.00     0.006 C 
ENDBRANCH   8   9
BRANCH   8  11
ATOM     11  C   LIG d   1      -5.671  74.650 115.754  0.00  0.00     0.028 C 
ATOM     12  C   LIG d   1      -5.310  74.594 114.261  0.00  0.00     0.006 C 
ENDBRANCH   8  11
ENDBRANCH   7   8
ENDBRANCH   1   7
BRANCH   6  13
ATOM     13  N   LIG d   1      -1.780  75.221 118.217  0.00  0.00    -0.311 N 
ATOM     14  C   LIG d   1      -1.459  74.022 118.702  0.00  0.00     0.210 C 
ATOM     15  C   LIG d   1      -1.066  74.007 120.182  0.00  0.00     0.109 C 
ATOM     16  O   LIG d   1      -1.431  72.975 118.038  0.00  0.00    -0.276 OA
ATOM     17  H   LIG d   1      -1.744  76.021 118.818  0.00  0.00     0.149 HD
ENDBRANCH   6  13
BRANCH   5  18
ATOM     18  N   LIG d   1      -0.078  74.603 115.756  0.00  0.00     0.381 N 
ATOM     19  H   LIG d   1      -0.371  73.860 116.359  0.00  0.00    -0.090 HD
ATOM     20  H   LIG d   1       0.836  74.903 116.046  0.00  0.00    -0.090 HD
ATOM     21  H   LIG d   1      -0.048  74.283 114.813  0.00  0.00    -0.090 HD
ENDBRANCH   5  18
BRANCH   3  22
ATOM     22  C   LIG d   1      -2.661  77.833 113.341  0.00  0.00     0.382 C 
ATOM     23  O   LIG d   1      -1.948  78.859 113.227  0.00  0.00    -0.241 OA
ATOM     24  O   LIG d   1      -3.504  77.571 112.462  0.00  0.00    -0.241 OA
ENDBRANCH   3  22
TORSDOF 7
ENDMDL
MODEL 4
REMARK VINA RESULT:      -5.4      2.125      5.373
REMARK  7 active torsions:
REMARK  status: ('A' for Active; 'I' for Inactive)
REMARK    1  A    between atoms: C_2  and  C_3 
REMARK    2  A    between atoms: C_3  and  O_6 
REMARK    3  A    between atoms: C_3  and  C_4 
REMARK    4  A    between atoms: C_7  and  O_6 
REMARK    5  A    between atoms: C_9  and  C_10 
REMARK    6  A    between atoms: N_15  and  C_14 
REMARK    7  A    between atoms: N_20  and  C_19 
REMARK       I    between atoms: C_22  and  N_20 
ROOT
ATOM      1  C   LIG d   1      -6.084  75.874 116.176  0.00  0.00     0.161 C 
ATOM      2  C   LIG d   1      -4.931  75.283 115.633  0.00  0.00     0.016 C 
ATOM      3  C   LIG d   1      -3.661  75.341 116.251  0.00  0.00     0.038 C 
ATOM      4  C   LIG d   1      -3.487  75.870 117.539  0.00  0.00     0.028 C 
ATOM      5  C   LIG d   1      -4.524  76.926 117.905  0.00  0.00    -0.047 C 
ATOM      6  C   LIG d   1      -5.936  76.358 117.634  0.00  0.00     0.091 C 
ENDROOT
BRANCH   1   7
ATOM      7  O   LIG d   1      -7.199  74.968 116.060  0.00  0.00    -0.368 OA
BRANCH   7   8
ATOM      8  C   LIG d   1      -7.238  73.880 117.016  0.00  0.00     0.119 C 
BRANCH   8   9
ATOM      9  C   LIG d   1      -7.115  72.563 116.225  0.00  0.00     0.028 C 
ATOM     10  C   LIG d   1      -8.347  71.659 116.395  0.00  0.00     0.006 C 
ENDBRANCH   8   9
BRANCH   8  11
ATOM     11  C   LIG d   1      -8.596  73.805 117.720  0.00  0.00     0.028 C 
ATOM     12  C   LIG d   1      -9.581  74.879 117.231  0.00  0.00     0.006 C 
ENDBRANCH   8  11
ENDBRANCH   7   8
ENDBRANCH   1   7
BRANCH   6  13
ATOM     13  N   LIG d   1      -7.007  77.358 117.886  0.00  0.00    -0.311 N 
ATOM     14  C   LIG d   1      -7.718  77.402 119.012  0.00  0.00     0.210 C 
ATOM     15  C   LIG d   1      -8.787  78.498 119.059  0.00  0.00     0.109 C 
ATOM     16  O   LIG d   1      -7.544  76.657 119.988  0.00  0.00    -0.276 OA
ATOM     17  H   LIG d   1      -7.193  78.020 117.159  0.00  0.00     0.149 HD
ENDBRANCH   6  13
BRANCH   5  18
ATOM     18  N   LIG d   1      -4.309  77.290 119.319  0.00  0.00     0.381 N 
ATOM     19  H   LIG d   1      -3.852  76.540 119.796  0.00  0.00    -0.090 HD
ATOM     20  H   LIG d   1      -5.202  77.444 119.754  0.00  0.00    -0.090 HD
ATOM     21  H   LIG d   1      -3.756  78.117 119.377  0.00  0.00    -0.090 HD
ENDBRANCH   5  18
BRANCH   3  22
ATOM     22  C   LIG d   1      -2.540  74.903 115.562  0.00  0.00     0.382 C 
ATOM     23  O   LIG d   1      -1.822  73.996 116.046  0.00  0.00    -0.241 OA
ATOM     24  O   LIG d   1      -2.214  75.435 114.484  0.00  0.00    -0.241 OA
ENDBRANCH   3  22
TORSDOF 7
ENDMDL
MODEL 5
REMARK VINA RESULT:      -5.3      2.614      5.316
REMARK  7 active torsions:
REMARK  status: ('A' for Active; 'I' for Inactive)
REMARK    1  A    between atoms: C_2  and  C_3 
REMARK    2  A    between atoms: C_3  and  O_6 
REMARK    3  A    between atoms: C_3  and  C_4 
REMARK    4  A    between atoms: C_7  and  O_6 
REMARK    5  A    between atoms: C_9  and  C_10 
REMARK    6  A    between atoms: N_15  and  C_14 
REMARK    7  A    between atoms: N_20  and  C_19 
REMARK       I    between atoms: C_22  and  N_20 
ROOT
ATOM      1  C   LIG d   1      -5.582  74.857 116.632  0.00  0.00     0.161 C 
ATOM      2  C   LIG d   1      -6.345  73.710 116.360  0.00  0.00     0.016 C 
ATOM      3  C   LIG d   1      -7.679  73.541 116.799  0.00  0.00     0.038 C 
ATOM      4  C   LIG d   1      -8.394  74.579 117.414  0.00  0.00     0.028 C 
ATOM      5  C   LIG d   1      -7.504  75.571 118.156  0.00  0.00    -0.047 C 
ATOM      6  C   LIG d   1      -6.381  76.045 117.206  0.00  0.00     0.091 C 
ENDROOT
BRANCH   1   7
ATOM      7  O   LIG d   1      -4.867  75.260 115.447  0.00  0.00    -0.368 OA
BRANCH   7   8
ATOM      8  C   LIG d   1      -3.471  74.875 115.382  0.00  0.00     0.119 C 
BRANCH   8   9
ATOM      9  C   LIG d   1      -2.960  74.743 116.830  0.00  0.00     0.028 C 
ATOM     10  C   LIG d   1      -1.452  74.449 116.896  0.00  0.00     0.006 C 
ENDBRANCH   8   9
BRANCH   8  11
ATOM     11  C   LIG d   1      -2.618  75.977 114.749  0.00  0.00     0.028 C 
ATOM     12  C   LIG d   1      -3.070  77.389 115.156  0.00  0.00     0.006 C 
ENDBRANCH   8  11
ENDBRANCH   7   8
ENDBRANCH   1   7
BRANCH   6  13
ATOM     13  N   LIG d   1      -5.416  76.954 117.878  0.00  0.00    -0.311 N 
ATOM     14  C   LIG d   1      -5.510  78.282 117.838  0.00  0.00     0.210 C 
ATOM     15  C   LIG d   1      -4.399  79.031 118.582  0.00  0.00     0.109 C 
ATOM     16  O   LIG d   1      -6.425  78.910 117.285  0.00  0.00    -0.276 OA
ATOM     17  H   LIG d   1      -4.659  76.527 118.376  0.00  0.00     0.149 HD
ENDBRANCH   6  13
BRANCH   5  18
ATOM     18  N   LIG d   1      -8.363  76.672 118.631  0.00  0.00     0.381 N 
ATOM     19  H   LIG d   1      -8.182  76.850 119.598  0.00  0.00    -0.090 HD
ATOM     20  H   LIG d   1      -9.325  76.397 118.536  0.00  0.00    -0.090 HD
ATOM     21  H   LIG d   1      -8.191  77.494 118.095  0.00  0.00    -0.090 HD
ENDBRANCH   5  18
BRANCH   3  22
ATOM     22  C   LIG d   1      -8.298  72.308 116.658  0.00  0.00     0.382 C 
ATOM     23  O   LIG d   1      -9.352  72.060 117.291  0.00  0.00    -0.241 OA
ATOM     24  O   LIG d   1      -7.790  71.425 115.941  0.00  0.00    -0.241 OA
ENDBRANCH   3  22
TORSDOF 7
ENDMDL
MODEL 6
REMARK VINA RESULT:      -5.2      2.232      4.590
REMARK  7 active torsions:
REMARK  status: ('A' for Active; 'I' for Inactive)
REMARK    1  A    between atoms: C_2  and  C_3 
REMARK    2  A    between atoms: C_3  and  O_6 
REMARK    3  A    between atoms: C_3  and  C_4 
REMARK    4  A    between atoms: C_7  and  O_6 
REMARK    5  A    between atoms: C_9  and  C_10 
REMARK    6  A    between atoms: N_15  and  C_14 
REMARK    7  A    between atoms: N_20  and  C_19 
REMARK       I    between atoms: C_22  and  N_20 
ROOT
ATOM      1  C   LIG d   1      -5.896  76.070 117.511  0.00  0.00     0.161 C 
ATOM      2  C   LIG d   1      -6.589  74.871 117.277  0.00  0.00     0.016 C 
ATOM      3  C   LIG d   1      -7.986  74.734 117.447  0.00  0.00     0.038 C 
ATOM      4  C   LIG d   1      -8.812  75.835 117.720  0.00  0.00     0.028 C 
ATOM      5  C   LIG d   1      -8.096  76.960 118.460  0.00  0.00    -0.047 C 
ATOM      6  C   LIG d   1      -6.795  77.310 117.702  0.00  0.00     0.091 C 
ENDROOT
BRANCH   1   7
ATOM      7  O   LIG d   1      -4.944  76.300 116.454  0.00  0.00    -0.368 OA
BRANCH   7   8
ATOM      8  C   LIG d   1      -4.152  75.156 116.051  0.00  0.00     0.119 C 
BRANCH   8   9
ATOM      9  C   LIG d   1      -2.673  75.500 116.317  0.00  0.00     0.028 C 
ATOM     10  C   LIG d   1      -1.710  74.616 115.507  0.00  0.00     0.006 C 
ENDBRANCH   8   9
BRANCH   8  11
ATOM     11  C   LIG d   1      -4.247  74.916 114.541  0.00  0.00     0.028 C 
ATOM     12  C   LIG d   1      -5.368  75.731 113.878  0.00  0.00     0.006 C 
ENDBRANCH   8  11
ENDBRANCH   7   8
ENDBRANCH   1   7
BRANCH   6  13
ATOM     13  N   LIG d   1      -5.991  78.344 118.405  0.00  0.00    -0.311 N 
ATOM     14  C   LIG d   1      -6.132  79.652 118.193  0.00  0.00     0.210 C 
ATOM     15  C   LIG d   1      -5.190  80.544 119.007  0.00  0.00     0.109 C 
ATOM     16  O   LIG d   1      -6.970  80.158 117.432  0.00  0.00    -0.276 OA
ATOM     17  H   LIG d   1      -5.308  78.022 119.063  0.00  0.00     0.149 HD
ENDBRANCH   6  13
BRANCH   5  18
ATOM     18  N   LIG d   1      -9.032  78.096 118.557  0.00  0.00     0.381 N 
ATOM     19  H   LIG d   1      -9.928  77.828 118.201  0.00  0.00    -0.090 HD
ATOM     20  H   LIG d   1      -8.683  78.853 117.996  0.00  0.00    -0.090 HD
ATOM     21  H   LIG d   1      -9.117  78.387 119.506  0.00  0.00    -0.090 HD
ENDBRANCH   5  18
BRANCH   3  22
ATOM     22  C   LIG d   1      -8.566  73.476 117.383  0.00  0.00     0.382 C 
ATOM     23  O   LIG d   1      -7.907  72.464 117.723  0.00  0.00    -0.241 OA
ATOM     24  O   LIG d   1      -9.724  73.336 116.947  0.00  0.00    -0.241 OA
ENDBRANCH   3  22
TORSDOF 7
ENDMDL
MODEL 7
REMARK VINA RESULT:      -5.0      2.091      5.164
REMARK  7 active torsions:
REMARK  status: ('A' for Active; 'I' for Inactive)
REMARK    1  A    between atoms: C_2  and  C_3 
REMARK    2  A    between atoms: C_3  and  O_6 
REMARK    3  A    between atoms: C_3  and  C_4 
REMARK    4  A    between atoms: C_7  and  O_6 
REMARK    5  A    between atoms: C_9  and  C_10 
REMARK    6  A    between atoms: N_15  and  C_14 
REMARK    7  A    between atoms: N_20  and  C_19 
REMARK       I    between atoms: C_22  and  N_20 
ROOT
ATOM      1  C   LIG d   1      -6.987  76.294 117.958  0.00  0.00     0.161 C 
ATOM      2  C   LIG d   1      -7.637  75.050 117.918  0.00  0.00     0.016 C 
ATOM      3  C   LIG d   1      -7.260  74.002 117.047  0.00  0.00     0.038 C 
ATOM      4  C   LIG d   1      -6.103  74.075 116.257  0.00  0.00     0.028 C 
ATOM      5  C   LIG d   1      -5.708  75.503 115.892  0.00  0.00    -0.047 C 
ATOM      6  C   LIG d   1      -5.655  76.353 117.182  0.00  0.00     0.091 C 
ENDROOT
BRANCH   1   7
ATOM      7  O   LIG d   1      -6.788  76.698 119.327  0.00  0.00    -0.368 OA
BRANCH   7   8
ATOM      8  C   LIG d   1      -7.532  77.863 119.762  0.00  0.00     0.119 C 
BRANCH   8   9
ATOM      9  C   LIG d   1      -8.349  78.368 118.557  0.00  0.00     0.028 C 
ATOM     10  C   LIG d   1      -9.857  78.426 118.853  0.00  0.00     0.006 C 
ENDBRANCH   8   9
BRANCH   8  11
ATOM     11  C   LIG d   1      -6.595  79.018 120.128  0.00  0.00     0.028 C 
ATOM     12  C   LIG d   1      -6.765  80.238 119.210  0.00  0.00     0.006 C 
ENDBRANCH   8  11
ENDBRANCH   7   8
ENDBRANCH   1   7
BRANCH   6  13
ATOM     13  N   LIG d   1      -5.357  77.783 116.906  0.00  0.00    -0.311 N 
ATOM     14  C   LIG d   1      -4.134  78.305 116.982  0.00  0.00     0.210 C 
ATOM     15  C   LIG d   1      -4.052  79.804 116.678  0.00  0.00     0.109 C 
ATOM     16  O   LIG d   1      -3.106  77.662 117.240  0.00  0.00    -0.276 OA
ATOM     17  H   LIG d   1      -6.130  78.370 116.659  0.00  0.00     0.149 HD
ENDBRANCH   6  13
BRANCH   5  18
ATOM     18  N   LIG d   1      -4.414  75.440 115.187  0.00  0.00     0.381 N 
ATOM     19  H   LIG d   1      -3.674  75.306 115.847  0.00  0.00    -0.090 HD
ATOM     20  H   LIG d   1      -4.260  76.313 114.714  0.00  0.00    -0.090 HD
ATOM     21  H   LIG d   1      -4.421  74.693 114.528  0.00  0.00    -0.090 HD
ENDBRANCH   5  18
BRANCH   3  22
ATOM     22  C   LIG d   1      -8.067  72.880 116.931  0.00  0.00     0.382 C 
ATOM     23  O   LIG d   1      -7.647  71.866 116.324  0.00  0.00    -0.241 OA
ATOM     24  O   LIG d   1      -9.226  72.886 117.386  0.00  0.00    -0.241 OA
ENDBRANCH   3  22
TORSDOF 7
ENDMDL
MODEL 8
REMARK VINA RESULT:      -5.0      4.281      6.532
REMARK  7 active torsions:
REMARK  status: ('A' for Active; 'I' for Inactive)
REMARK    1  A    between atoms: C_2  and  C_3 
REMARK    2  A    between atoms: C_3  and  O_6 
REMARK    3  A    between atoms: C_3  and  C_4 
REMARK    4  A    between atoms: C_7  and  O_6 
REMARK    5  A    between atoms: C_9  and  C_10 
REMARK    6  A    between atoms: N_15  and  C_14 
REMARK    7  A    between atoms: N_20  and  C_19 
REMARK       I    between atoms: C_22  and  N_20 
ROOT
ATOM      1  C   LIG d   1      -2.205  79.037 116.139  0.00  0.00     0.161 C 
ATOM      2  C   LIG d   1      -2.545  80.324 115.692  0.00  0.00     0.016 C 
ATOM      3  C   LIG d   1      -2.656  80.670 114.326  0.00  0.00     0.038 C 
ATOM      4  C   LIG d   1      -2.581  79.707 113.309  0.00  0.00     0.028 C 
ATOM      5  C   LIG d   1      -1.740  78.492 113.686  0.00  0.00    -0.047 C 
ATOM      6  C   LIG d   1      -2.228  77.946 115.047  0.00  0.00     0.091 C 
ENDROOT
BRANCH   1   7
ATOM      7  O   LIG d   1      -3.054  78.661 117.240  0.00  0.00    -0.368 OA
BRANCH   7   8
ATOM      8  C   LIG d   1      -4.470  78.558 116.948  0.00  0.00     0.119 C 
BRANCH   8   9
ATOM      9  C   LIG d   1      -5.220  79.423 117.978  0.00  0.00     0.028 C 
ATOM     10  C   LIG d   1      -5.674  80.771 117.393  0.00  0.00     0.006 C 
ENDBRANCH   8   9
BRANCH   8  11
ATOM     11  C   LIG d   1      -4.981  77.131 117.167  0.00  0.00     0.028 C 
ATOM     12  C   LIG d   1      -5.671  76.547 115.923  0.00  0.00     0.006 C 
ENDBRANCH   8  11
ENDBRANCH   7   8
ENDBRANCH   1   7
BRANCH   6  13
ATOM     13  N   LIG d   1      -1.403  76.808 115.530  0.00  0.00    -0.311 N 
ATOM     14  C   LIG d   1      -1.719  75.532 115.318  0.00  0.00     0.210 C 
ATOM     15  C   LIG d   1      -0.743  74.516 115.919  0.00  0.00     0.109 C 
ATOM     16  O   LIG d   1      -2.698  75.145 114.661  0.00  0.00    -0.276 OA
ATOM     17  H   LIG d   1      -0.575  77.032 116.046  0.00  0.00     0.149 HD
ENDBRANCH   6  13
BRANCH   5  18
ATOM     18  N   LIG d   1      -1.860  77.510 112.592  0.00  0.00     0.381 N 
ATOM     19  H   LIG d   1      -2.750  77.607 112.146  0.00  0.00    -0.090 HD
ATOM     20  H   LIG d   1      -1.800  76.584 112.979  0.00  0.00    -0.090 HD
ATOM     21  H   LIG d   1      -1.130  77.648 111.928  0.00  0.00    -0.090 HD
ENDBRANCH   5  18
BRANCH   3  22
ATOM     22  C   LIG d   1      -2.806  82.000 113.963  0.00  0.00     0.382 C 
ATOM     23  O   LIG d   1      -3.607  82.735 114.590  0.00  0.00    -0.241 OA
ATOM     24  O   LIG d   1      -2.182  82.463 112.989  0.00  0.00    -0.241 OA
ENDBRANCH   3  22
TORSDOF 7
ENDMDL
MODEL 9
REMARK VINA RESULT:      -4.9      2.473      5.697
REMARK  7 active torsions:
REMARK  status: ('A' for Active; 'I' for Inactive)
REMARK    1  A    between atoms: C_2  and  C_3 
REMARK    2  A    between atoms: C_3  and  O_6 
REMARK    3  A    between atoms: C_3  and  C_4 
REMARK    4  A    between atoms: C_7  and  O_6 
REMARK    5  A    between atoms: C_9  and  C_10 
REMARK    6  A    between atoms: N_15  and  C_14 
REMARK    7  A    between atoms: N_20  and  C_19 
REMARK       I    between atoms: C_22  and  N_20 
ROOT
ATOM      1  C   LIG d   1      -4.749  76.169 116.518  0.00  0.00     0.161 C 
ATOM      2  C   LIG d   1      -3.733  75.300 116.087  0.00  0.00     0.016 C 
ATOM      3  C   LIG d   1      -2.373  75.677 115.994  0.00  0.00     0.038 C 
ATOM      4  C   LIG d   1      -1.912  76.912 116.474  0.00  0.00     0.028 C 
ATOM      5  C   LIG d   1      -2.974  78.006 116.449  0.00  0.00    -0.047 C 
ATOM      6  C   LIG d   1      -4.248  77.485 117.151  0.00  0.00     0.091 C 
ENDROOT
BRANCH   1   7
ATOM      7  O   LIG d   1      -5.629  75.479 117.427  0.00  0.00    -0.368 OA
BRANCH   7   8
ATOM      8  C   LIG d   1      -6.930  75.118 116.903  0.00  0.00     0.119 C 
BRANCH   8   9
ATOM      9  C   LIG d   1      -7.981  75.961 117.651  0.00  0.00     0.028 C 
ATOM     10  C   LIG d   1      -7.531  76.331 119.074  0.00  0.00     0.006 C 
ENDBRANCH   8   9
BRANCH   8  11
ATOM     11  C   LIG d   1      -7.275  73.661 117.225  0.00  0.00     0.028 C 
ATOM     12  C   LIG d   1      -8.788  73.388 117.205  0.00  0.00     0.006 C 
ENDBRANCH   8  11
ENDBRANCH   7   8
ENDBRANCH   1   7
BRANCH   6  13
ATOM     13  N   LIG d   1      -5.366  78.463 117.097  0.00  0.00    -0.311 N 
ATOM     14  C   LIG d   1      -5.622  79.337 118.068  0.00  0.00     0.210 C 
ATOM     15  C   LIG d   1      -6.833  80.242 117.821  0.00  0.00     0.109 C 
ATOM     16  O   LIG d   1      -4.943  79.471 119.097  0.00  0.00    -0.276 OA
ATOM     17  H   LIG d   1      -5.949  78.445 116.283  0.00  0.00     0.149 HD
ENDBRANCH   6  13
BRANCH   5  18
ATOM     18  N   LIG d   1      -2.400  79.198 117.102  0.00  0.00     0.381 N 
ATOM     19  H   LIG d   1      -2.858  79.358 117.976  0.00  0.00    -0.090 HD
ATOM     20  H   LIG d   1      -2.555  79.997 116.513  0.00  0.00    -0.090 HD
ATOM     21  H   LIG d   1      -1.423  79.069 117.249  0.00  0.00    -0.090 HD
ENDBRANCH   5  18
BRANCH   3  22
ATOM     22  C   LIG d   1      -1.466  74.828 115.379  0.00  0.00     0.382 C 
ATOM     23  O   LIG d   1      -0.941  75.155 114.287  0.00  0.00    -0.241 OA
ATOM     24  O   LIG d   1      -1.197  73.720 115.880  0.00  0.00    -0.241 OA
ENDBRANCH   3  22
TORSDOF 7
ENDMDL
