MODEL 1
REMARK VINA RESULT:      -5.0      0.000      0.000
REMARK  7 active torsions:
REMARK  status: ('A' for Active; 'I' for Inactive)
REMARK    1  A    between atoms: C_2  and  C_3 
REMARK    2  A    between atoms: C_3  and  O_6 
REMARK    3  A    between atoms: C_3  and  C_4 
REMARK    4  A    between atoms: C_7  and  O_6 
REMARK    5  A    between atoms: C_9  and  C_10 
REMARK    6  A    between atoms: N_15  and  C_14 
REMARK    7  A    between atoms: N_20  and  C_19 
REMARK       I    between atoms: C_22  and  N_20 
ROOT
ATOM      1  C   LIG d   1      -4.432  76.384 117.878  0.00  0.00     0.161 C 
ATOM      2  C   LIG d   1      -5.607  77.133 117.698  0.00  0.00     0.016 C 
ATOM      3  C   LIG d   1      -5.612  78.488 117.294  0.00  0.00     0.038 C 
ATOM      4  C   LIG d   1      -4.440  79.146 116.892  0.00  0.00     0.028 C 
ATOM      5  C   LIG d   1      -3.178  78.585 117.539  0.00  0.00    -0.047 C 
ATOM      6  C   LIG d   1      -3.150  77.052 117.337  0.00  0.00     0.091 C 
ENDROOT
BRANCH   1   7
ATOM      7  O   LIG d   1      -4.595  75.074 117.300  0.00  0.00    -0.368 OA
BRANCH   7   8
ATOM      8  C   LIG d   1      -5.803  74.863 116.529  0.00  0.00     0.119 C 
BRANCH   8   9
ATOM      9  C   LIG d   1      -6.470  73.578 117.056  0.00  0.00     0.028 C 
ATOM     10  C   LIG d   1      -6.168  72.355 116.173  0.00  0.00     0.006 C 
ENDBRANCH   8   9
BRANCH   8  11
ATOM     11  C   LIG d   1      -5.484  74.581 115.058  0.00  0.00     0.028 C 
ATOM     12  C   LIG d   1      -5.603  75.830 114.172  0.00  0.00     0.006 C 
ENDBRANCH   8  11
ENDBRANCH   7   8
ENDBRANCH   1   7
BRANCH   6  13
ATOM     13  N   LIG d   1      -1.991  76.413 118.012  0.00  0.00    -0.311 N 
ATOM     14  C   LIG d   1      -0.831  76.170 117.404  0.00  0.00     0.210 C 
ATOM     15  C   LIG d   1       0.226  75.485 118.277  0.00  0.00     0.109 C 
ATOM     16  O   LIG d   1      -0.566  76.486 116.235  0.00  0.00    -0.276 OA
ATOM     17  H   LIG d   1      -2.108  76.152 118.972  0.00  0.00     0.149 HD
ENDBRANCH   6  13
BRANCH   5  18
ATOM     18  N   LIG d   1      -2.022  79.269 116.929  0.00  0.00     0.381 N 
ATOM     19  H   LIG d   1      -1.699  78.749 116.138  0.00  0.00    -0.090 HD
ATOM     20  H   LIG d   1      -1.278  79.313 117.602  0.00  0.00    -0.090 HD
ATOM     21  H   LIG d   1      -2.280  80.189 116.648  0.00  0.00    -0.090 HD
ENDBRANCH   5  18
BRANCH   3  22
ATOM     22  C   LIG d   1      -6.794  79.211 117.326  0.00  0.00     0.382 C 
ATOM     23  O   LIG d   1      -7.896  78.610 117.334  0.00  0.00    -0.241 OA
ATOM     24  O   LIG d   1      -6.775  80.456 117.303  0.00  0.00    -0.241 OA
ENDBRANCH   3  22
TORSDOF 7
ENDMDL
MODEL 2
REMARK VINA RESULT:      -4.9     14.270     17.540
REMARK  7 active torsions:
REMARK  status: ('A' for Active; 'I' for Inactive)
REMARK    1  A    between atoms: C_2  and  C_3 
REMARK    2  A    between atoms: C_3  and  O_6 
REMARK    3  A    between atoms: C_3  and  C_4 
REMARK    4  A    between atoms: C_7  and  O_6 
REMARK    5  A    between atoms: C_9  and  C_10 
REMARK    6  A    between atoms: N_15  and  C_14 
REMARK    7  A    between atoms: N_20  and  C_19 
REMARK       I    between atoms: C_22  and  N_20 
ROOT
ATOM      1  C   LIG d   1      -5.923  92.508 118.623  0.00  0.00     0.161 C 
ATOM      2  C   LIG d   1      -5.186  91.449 118.066  0.00  0.00     0.016 C 
ATOM      3  C   LIG d   1      -5.230  91.107 116.695  0.00  0.00     0.038 C 
ATOM      4  C   LIG d   1      -5.903  91.901 115.754  0.00  0.00     0.028 C 
ATOM      5  C   LIG d   1      -7.069  92.684 116.346  0.00  0.00    -0.047 C 
ATOM      6  C   LIG d   1      -6.576  93.453 117.593  0.00  0.00     0.091 C 
ENDROOT
BRANCH   1   7
ATOM      7  O   LIG d   1      -5.093  93.255 119.534  0.00  0.00    -0.368 OA
BRANCH   7   8
ATOM      8  C   LIG d   1      -4.374  94.377 118.966  0.00  0.00     0.119 C 
BRANCH   8   9
ATOM      9  C   LIG d   1      -2.869  94.060 119.064  0.00  0.00     0.028 C 
ATOM     10  C   LIG d   1      -2.269  93.631 117.715  0.00  0.00     0.006 C 
ENDBRANCH   8   9
BRANCH   8  11
ATOM     11  C   LIG d   1      -4.576  95.647 119.797  0.00  0.00     0.028 C 
ATOM     12  C   LIG d   1      -4.188  96.925 119.036  0.00  0.00     0.006 C 
ENDBRANCH   8  11
ENDBRANCH   7   8
ENDBRANCH   1   7
BRANCH   6  13
ATOM     13  N   LIG d   1      -7.674  94.180 118.282  0.00  0.00    -0.311 N 
ATOM     14  C   LIG d   1      -7.936  95.471 118.085  0.00  0.00     0.210 C 
ATOM     15  C   LIG d   1      -9.099  96.028 118.912  0.00  0.00     0.109 C 
ATOM     16  O   LIG d   1      -7.336  96.199 117.281  0.00  0.00    -0.276 OA
ATOM     17  H   LIG d   1      -8.231  93.657 118.929  0.00  0.00     0.149 HD
ENDBRANCH   6  13
BRANCH   5  18
ATOM     18  N   LIG d   1      -7.593  93.571 115.290  0.00  0.00     0.381 N 
ATOM     19  H   LIG d   1      -7.318  93.226 114.391  0.00  0.00    -0.090 HD
ATOM     20  H   LIG d   1      -7.198  94.488 115.410  0.00  0.00    -0.090 HD
ATOM     21  H   LIG d   1      -8.586  93.619 115.346  0.00  0.00    -0.090 HD
ENDBRANCH   5  18
BRANCH   3  22
ATOM     22  C   LIG d   1      -4.628  89.936 116.259  0.00  0.00     0.382 C 
ATOM     23  O   LIG d   1      -4.988  89.412 115.178  0.00  0.00    -0.241 OA
ATOM     24  O   LIG d   1      -3.762  89.374 116.955  0.00  0.00    -0.241 OA
ENDBRANCH   3  22
TORSDOF 7
ENDMDL
MODEL 3
REMARK VINA RESULT:      -4.9      1.747      2.298
REMARK  7 active torsions:
REMARK  status: ('A' for Active; 'I' for Inactive)
REMARK    1  A    between atoms: C_2  and  C_3 
REMARK    2  A    between atoms: C_3  and  O_6 
REMARK    3  A    between atoms: C_3  and  C_4 
REMARK    4  A    between atoms: C_7  and  O_6 
REMARK    5  A    between atoms: C_9  and  C_10 
REMARK    6  A    between atoms: N_15  and  C_14 
REMARK    7  A    between atoms: N_20  and  C_19 
REMARK       I    between atoms: C_22  and  N_20 
ROOT
ATOM      1  C   LIG d   1      -4.619  77.851 116.807  0.00  0.00     0.161 C 
ATOM      2  C   LIG d   1      -5.965  78.230 116.943  0.00  0.00     0.016 C 
ATOM      3  C   LIG d   1      -6.382  79.384 117.645  0.00  0.00     0.038 C 
ATOM      4  C   LIG d   1      -5.464  80.325 118.135  0.00  0.00     0.028 C 
ATOM      5  C   LIG d   1      -4.099  79.728 118.461  0.00  0.00    -0.047 C 
ATOM      6  C   LIG d   1      -3.599  78.924 117.239  0.00  0.00     0.091 C 
ENDROOT
BRANCH   1   7
ATOM      7  O   LIG d   1      -4.364  77.433 115.452  0.00  0.00    -0.368 OA
BRANCH   7   8
ATOM      8  C   LIG d   1      -4.091  76.023 115.260  0.00  0.00     0.119 C 
BRANCH   8   9
ATOM      9  C   LIG d   1      -5.381  75.370 114.726  0.00  0.00     0.028 C 
ATOM     10  C   LIG d   1      -6.130  74.577 115.810  0.00  0.00     0.006 C 
ENDBRANCH   8   9
BRANCH   8  11
ATOM     11  C   LIG d   1      -3.805  75.324 116.593  0.00  0.00     0.028 C 
ATOM     12  C   LIG d   1      -2.447  74.605 116.609  0.00  0.00     0.006 C 
ENDBRANCH   8  11
ENDBRANCH   7   8
ENDBRANCH   1   7
BRANCH   6  13
ATOM     13  N   LIG d   1      -2.308  78.236 117.504  0.00  0.00    -0.311 N 
ATOM     14  C   LIG d   1      -1.245  78.342 116.708  0.00  0.00     0.210 C 
ATOM     15  C   LIG d   1      -0.021  77.535 117.154  0.00  0.00     0.109 C 
ATOM     16  O   LIG d   1      -1.188  79.053 115.694  0.00  0.00    -0.276 OA
ATOM     17  H   LIG d   1      -2.256  77.663 118.323  0.00  0.00     0.149 HD
ENDBRANCH   6  13
BRANCH   5  18
ATOM     18  N   LIG d   1      -3.202  80.840 118.829  0.00  0.00     0.381 N 
ATOM     19  H   LIG d   1      -2.815  80.676 119.736  0.00  0.00    -0.090 HD
ATOM     20  H   LIG d   1      -3.736  81.690 118.862  0.00  0.00    -0.090 HD
ATOM     21  H   LIG d   1      -2.471  80.924 118.157  0.00  0.00    -0.090 HD
ENDBRANCH   5  18
BRANCH   3  22
ATOM     22  C   LIG d   1      -7.730  79.585 117.899  0.00  0.00     0.382 C 
ATOM     23  O   LIG d   1      -8.345  78.811 118.672  0.00  0.00    -0.241 OA
ATOM     24  O   LIG d   1      -8.350  80.503 117.330  0.00  0.00    -0.241 OA
ENDBRANCH   3  22
TORSDOF 7
ENDMDL
MODEL 4
REMARK VINA RESULT:      -4.9      2.804      4.297
REMARK  7 active torsions:
REMARK  status: ('A' for Active; 'I' for Inactive)
REMARK    1  A    between atoms: C_2  and  C_3 
REMARK    2  A    between atoms: C_3  and  O_6 
REMARK    3  A    between atoms: C_3  and  C_4 
REMARK    4  A    between atoms: C_7  and  O_6 
REMARK    5  A    between atoms: C_9  and  C_10 
REMARK    6  A    between atoms: N_15  and  C_14 
REMARK    7  A    between atoms: N_20  and  C_19 
REMARK       I    between atoms: C_22  and  N_20 
ROOT
ATOM      1  C   LIG d   1      -3.262  76.930 117.265  0.00  0.00     0.161 C 
ATOM      2  C   LIG d   1      -4.069  76.166 116.405  0.00  0.00     0.016 C 
ATOM      3  C   LIG d   1      -4.056  76.306 114.999  0.00  0.00     0.038 C 
ATOM      4  C   LIG d   1      -3.120  77.119 114.342  0.00  0.00     0.028 C 
ATOM      5  C   LIG d   1      -2.628  78.285 115.194  0.00  0.00    -0.047 C 
ATOM      6  C   LIG d   1      -2.155  77.743 116.562  0.00  0.00     0.091 C 
ENDROOT
BRANCH   1   7
ATOM      7  O   LIG d   1      -2.692  76.082 118.282  0.00  0.00    -0.368 OA
BRANCH   7   8
ATOM      8  C   LIG d   1      -1.364  75.569 118.013  0.00  0.00     0.119 C 
BRANCH   8   9
ATOM      9  C   LIG d   1      -1.525  74.165 117.399  0.00  0.00     0.028 C 
ATOM     10  C   LIG d   1      -1.124  74.123 115.915  0.00  0.00     0.006 C 
ENDBRANCH   8   9
BRANCH   8  11
ATOM     11  C   LIG d   1      -0.575  75.358 119.308  0.00  0.00     0.028 C 
ATOM     12  C   LIG d   1      -1.034  74.115 120.089  0.00  0.00     0.006 C 
ENDBRANCH   8  11
ENDBRANCH   7   8
ENDBRANCH   1   7
BRANCH   6  13
ATOM     13  N   LIG d   1      -1.737  78.828 117.487  0.00  0.00    -0.311 N 
ATOM     14  C   LIG d   1      -0.475  79.236 117.616  0.00  0.00     0.210 C 
ATOM     15  C   LIG d   1      -0.258  80.354 118.640  0.00  0.00     0.109 C 
ATOM     16  O   LIG d   1       0.480  78.800 116.955  0.00  0.00    -0.276 OA
ATOM     17  H   LIG d   1      -2.453  79.258 118.039  0.00  0.00     0.149 HD
ENDBRANCH   6  13
BRANCH   5  18
ATOM     18  N   LIG d   1      -1.558  78.966 114.440  0.00  0.00     0.381 N 
ATOM     19  H   LIG d   1      -1.576  79.947 114.639  0.00  0.00    -0.090 HD
ATOM     20  H   LIG d   1      -1.723  78.841 113.457  0.00  0.00    -0.090 HD
ATOM     21  H   LIG d   1      -0.672  78.586 114.688  0.00  0.00    -0.090 HD
ENDBRANCH   5  18
BRANCH   3  22
ATOM     22  C   LIG d   1      -5.015  75.657 114.235  0.00  0.00     0.382 C 
ATOM     23  O   LIG d   1      -5.096  74.405 114.262  0.00  0.00    -0.241 OA
ATOM     24  O   LIG d   1      -5.770  76.305 113.486  0.00  0.00    -0.241 OA
ENDBRANCH   3  22
TORSDOF 7
ENDMDL
MODEL 5
REMARK VINA RESULT:      -4.8     12.642     15.072
REMARK  7 active torsions:
REMARK  status: ('A' for Active; 'I' for Inactive)
REMARK    1  A    between atoms: C_2  and  C_3 
REMARK    2  A    between atoms: C_3  and  O_6 
REMARK    3  A    between atoms: C_3  and  C_4 
REMARK    4  A    between atoms: C_7  and  O_6 
REMARK    5  A    between atoms: C_9  and  C_10 
REMARK    6  A    between atoms: N_15  and  C_14 
REMARK    7  A    between atoms: N_20  and  C_19 
REMARK       I    between atoms: C_22  and  N_20 
ROOT
ATOM      1  C   LIG d   1      -3.764  90.895 117.693  0.00  0.00     0.161 C 
ATOM      2  C   LIG d   1      -4.720  90.193 116.941  0.00  0.00     0.016 C 
ATOM      3  C   LIG d   1      -5.928  90.770 116.485  0.00  0.00     0.038 C 
ATOM      4  C   LIG d   1      -6.193  92.141 116.623  0.00  0.00     0.028 C 
ATOM      5  C   LIG d   1      -5.487  92.777 117.816  0.00  0.00    -0.047 C 
ATOM      6  C   LIG d   1      -3.984  92.421 117.758  0.00  0.00     0.091 C 
ENDROOT
BRANCH   1   7
ATOM      7  O   LIG d   1      -2.442  90.601 117.199  0.00  0.00    -0.368 OA
BRANCH   7   8
ATOM      8  C   LIG d   1      -1.602  89.800 118.066  0.00  0.00     0.119 C 
BRANCH   8   9
ATOM      9  C   LIG d   1      -0.176  89.825 117.481  0.00  0.00     0.028 C 
ATOM     10  C   LIG d   1       0.194  91.198 116.897  0.00  0.00     0.006 C 
ENDBRANCH   8   9
BRANCH   8  11
ATOM     11  C   LIG d   1      -2.023  88.327 118.045  0.00  0.00     0.028 C 
ATOM     12  C   LIG d   1      -2.370  87.787 119.442  0.00  0.00     0.006 C 
ENDBRANCH   8  11
ENDBRANCH   7   8
ENDBRANCH   1   7
BRANCH   6  13
ATOM     13  N   LIG d   1      -3.235  92.934 118.934  0.00  0.00    -0.311 N 
ATOM     14  C   LIG d   1      -2.118  93.653 118.834  0.00  0.00     0.210 C 
ATOM     15  C   LIG d   1      -1.493  94.065 120.171  0.00  0.00     0.109 C 
ATOM     16  O   LIG d   1      -1.603  94.015 117.766  0.00  0.00    -0.276 OA
ATOM     17  H   LIG d   1      -3.600  92.713 119.840  0.00  0.00     0.149 HD
ENDBRANCH   6  13
BRANCH   5  18
ATOM     18  N   LIG d   1      -5.740  94.230 117.759  0.00  0.00     0.381 N 
ATOM     19  H   LIG d   1      -5.962  94.499 116.822  0.00  0.00    -0.090 HD
ATOM     20  H   LIG d   1      -4.905  94.716 118.038  0.00  0.00    -0.090 HD
ATOM     21  H   LIG d   1      -6.491  94.469 118.369  0.00  0.00    -0.090 HD
ENDBRANCH   5  18
BRANCH   3  22
ATOM     22  C   LIG d   1      -6.904  89.964 115.919  0.00  0.00     0.382 C 
ATOM     23  O   LIG d   1      -7.680  89.308 116.654  0.00  0.00    -0.241 OA
ATOM     24  O   LIG d   1      -6.989  89.850 114.681  0.00  0.00    -0.241 OA
ENDBRANCH   3  22
TORSDOF 7
ENDMDL
MODEL 6
REMARK VINA RESULT:      -4.7     12.513     14.879
REMARK  7 active torsions:
REMARK  status: ('A' for Active; 'I' for Inactive)
REMARK    1  A    between atoms: C_2  and  C_3 
REMARK    2  A    between atoms: C_3  and  O_6 
REMARK    3  A    between atoms: C_3  and  C_4 
REMARK    4  A    between atoms: C_7  and  O_6 
REMARK    5  A    between atoms: C_9  and  C_10 
REMARK    6  A    between atoms: N_15  and  C_14 
REMARK    7  A    between atoms: N_20  and  C_19 
REMARK       I    between atoms: C_22  and  N_20 
ROOT
ATOM      1  C   LIG d   1      -5.894  91.112 118.447  0.00  0.00     0.161 C 
ATOM      2  C   LIG d   1      -6.548  92.349 118.322  0.00  0.00     0.016 C 
ATOM      3  C   LIG d   1      -5.887  93.594 118.435  0.00  0.00     0.038 C 
ATOM      4  C   LIG d   1      -4.491  93.685 118.531  0.00  0.00     0.028 C 
ATOM      5  C   LIG d   1      -3.845  92.459 119.166  0.00  0.00    -0.047 C 
ATOM      6  C   LIG d   1      -4.354  91.192 118.441  0.00  0.00     0.091 C 
ENDROOT
BRANCH   1   7
ATOM      7  O   LIG d   1      -6.354  90.211 117.420  0.00  0.00    -0.368 OA
BRANCH   7   8
ATOM      8  C   LIG d   1      -6.802  90.825 116.187  0.00  0.00     0.119 C 
BRANCH   8   9
ATOM      9  C   LIG d   1      -7.967  89.975 115.643  0.00  0.00     0.028 C 
ATOM     10  C   LIG d   1      -8.584  89.068 116.721  0.00  0.00     0.006 C 
ENDBRANCH   8   9
BRANCH   8  11
ATOM     11  C   LIG d   1      -5.717  90.763 115.108  0.00  0.00     0.028 C 
ATOM     12  C   LIG d   1      -4.862  89.488 115.194  0.00  0.00     0.006 C 
ENDBRANCH   8  11
ENDBRANCH   7   8
ENDBRANCH   1   7
BRANCH   6  13
ATOM     13  N   LIG d   1      -3.836  89.941 119.055  0.00  0.00    -0.311 N 
ATOM     14  C   LIG d   1      -2.744  89.311 118.625  0.00  0.00     0.210 C 
ATOM     15  C   LIG d   1      -2.397  88.027 119.386  0.00  0.00     0.109 C 
ATOM     16  O   LIG d   1      -2.012  89.710 117.707  0.00  0.00    -0.276 OA
ATOM     17  H   LIG d   1      -4.352  89.564 119.826  0.00  0.00     0.149 HD
ENDBRANCH   6  13
BRANCH   5  18
ATOM     18  N   LIG d   1      -2.383  92.628 119.077  0.00  0.00     0.381 N 
ATOM     19  H   LIG d   1      -2.104  93.443 119.587  0.00  0.00    -0.090 HD
ATOM     20  H   LIG d   1      -2.128  92.757 118.114  0.00  0.00    -0.090 HD
ATOM     21  H   LIG d   1      -1.923  91.824 119.445  0.00  0.00    -0.090 HD
ENDBRANCH   5  18
BRANCH   3  22
ATOM     22  C   LIG d   1      -6.629  94.763 118.492  0.00  0.00     0.382 C 
ATOM     23  O   LIG d   1      -7.831  94.762 118.132  0.00  0.00    -0.241 OA
ATOM     24  O   LIG d   1      -6.100  95.830 118.858  0.00  0.00    -0.241 OA
ENDBRANCH   3  22
TORSDOF 7
ENDMDL
MODEL 7
REMARK VINA RESULT:      -4.6     13.003     15.864
REMARK  7 active torsions:
REMARK  status: ('A' for Active; 'I' for Inactive)
REMARK    1  A    between atoms: C_2  and  C_3 
REMARK    2  A    between atoms: C_3  and  O_6 
REMARK    3  A    between atoms: C_3  and  C_4 
REMARK    4  A    between atoms: C_7  and  O_6 
REMARK    5  A    between atoms: C_9  and  C_10 
REMARK    6  A    between atoms: N_15  and  C_14 
REMARK    7  A    between atoms: N_20  and  C_19 
REMARK       I    between atoms: C_22  and  N_20 
ROOT
ATOM      1  C   LIG d   1      -3.710  92.284 117.631  0.00  0.00     0.161 C 
ATOM      2  C   LIG d   1      -4.867  92.980 117.244  0.00  0.00     0.016 C 
ATOM      3  C   LIG d   1      -5.851  92.438 116.385  0.00  0.00     0.038 C 
ATOM      4  C   LIG d   1      -5.818  91.097 115.973  0.00  0.00     0.028 C 
ATOM      5  C   LIG d   1      -4.411  90.511 115.930  0.00  0.00    -0.047 C 
ATOM      6  C   LIG d   1      -3.713  90.781 117.282  0.00  0.00     0.091 C 
ENDROOT
BRANCH   1   7
ATOM      7  O   LIG d   1      -3.477  92.470 119.042  0.00  0.00    -0.368 OA
BRANCH   7   8
ATOM      8  C   LIG d   1      -2.397  93.369 119.396  0.00  0.00     0.119 C 
BRANCH   8   9
ATOM      9  C   LIG d   1      -3.026  94.730 119.752  0.00  0.00     0.028 C 
ATOM     10  C   LIG d   1      -1.988  95.864 119.786  0.00  0.00     0.006 C 
ENDBRANCH   8   9
BRANCH   8  11
ATOM     11  C   LIG d   1      -1.486  93.644 118.197  0.00  0.00     0.028 C 
ATOM     12  C   LIG d   1      -0.108  92.976 118.330  0.00  0.00     0.006 C 
ENDBRANCH   8  11
ENDBRANCH   7   8
ENDBRANCH   1   7
BRANCH   6  13
ATOM     13  N   LIG d   1      -2.302  90.314 117.294  0.00  0.00    -0.311 N 
ATOM     14  C   LIG d   1      -1.921  89.143 117.802  0.00  0.00     0.210 C 
ATOM     15  C   LIG d   1      -0.416  88.866 117.732  0.00  0.00     0.109 C 
ATOM     16  O   LIG d   1      -2.691  88.293 118.274  0.00  0.00    -0.276 OA
ATOM     17  H   LIG d   1      -1.615  90.928 116.903  0.00  0.00     0.149 HD
ENDBRANCH   6  13
BRANCH   5  18
ATOM     18  N   LIG d   1      -4.536  89.075 115.620  0.00  0.00     0.381 N 
ATOM     19  H   LIG d   1      -4.941  88.594 116.398  0.00  0.00    -0.090 HD
ATOM     20  H   LIG d   1      -3.619  88.696 115.458  0.00  0.00    -0.090 HD
ATOM     21  H   LIG d   1      -5.103  88.948 114.810  0.00  0.00    -0.090 HD
ENDBRANCH   5  18
BRANCH   3  22
ATOM     22  C   LIG d   1      -6.861  93.252 115.897  0.00  0.00     0.382 C 
ATOM     23  O   LIG d   1      -7.082  93.306 114.663  0.00  0.00    -0.241 OA
ATOM     24  O   LIG d   1      -7.525  93.968 116.670  0.00  0.00    -0.241 OA
ENDBRANCH   3  22
TORSDOF 7
ENDMDL
MODEL 8
REMARK VINA RESULT:      -4.5     10.858     12.807
REMARK  7 active torsions:
REMARK  status: ('A' for Active; 'I' for Inactive)
REMARK    1  A    between atoms: C_2  and  C_3 
REMARK    2  A    between atoms: C_3  and  O_6 
REMARK    3  A    between atoms: C_3  and  C_4 
REMARK    4  A    between atoms: C_7  and  O_6 
REMARK    5  A    between atoms: C_9  and  C_10 
REMARK    6  A    between atoms: N_15  and  C_14 
REMARK    7  A    between atoms: N_20  and  C_19 
REMARK       I    between atoms: C_22  and  N_20 
ROOT
ATOM      1  C   LIG d   1       1.592  87.237 115.396  0.00  0.00     0.161 C 
ATOM      2  C   LIG d   1       0.623  87.224 116.412  0.00  0.00     0.016 C 
ATOM      3  C   LIG d   1       0.599  88.155 117.476  0.00  0.00     0.038 C 
ATOM      4  C   LIG d   1       1.461  89.261 117.513  0.00  0.00     0.028 C 
ATOM      5  C   LIG d   1       2.777  89.028 116.780  0.00  0.00    -0.047 C 
ATOM      6  C   LIG d   1       2.474  88.503 115.358  0.00  0.00     0.091 C 
ENDROOT
BRANCH   1   7
ATOM      7  O   LIG d   1       0.962  87.027 114.117  0.00  0.00    -0.368 OA
BRANCH   7   8
ATOM      8  C   LIG d   1       0.976  85.668 113.614  0.00  0.00     0.119 C 
BRANCH   8   9
ATOM      9  C   LIG d   1       2.112  85.570 112.577  0.00  0.00     0.028 C 
ATOM     10  C   LIG d   1       3.343  84.829 113.123  0.00  0.00     0.006 C 
ENDBRANCH   8   9
BRANCH   8  11
ATOM     11  C   LIG d   1      -0.307  85.346 112.842  0.00  0.00     0.028 C 
ATOM     12  C   LIG d   1      -0.300  83.932 112.240  0.00  0.00     0.006 C 
ENDBRANCH   8  11
ENDBRANCH   7   8
ENDBRANCH   1   7
BRANCH   6  13
ATOM     13  N   LIG d   1       3.708  88.169 114.601  0.00  0.00    -0.311 N 
ATOM     14  C   LIG d   1       3.986  88.663 113.396  0.00  0.00     0.210 C 
ATOM     15  C   LIG d   1       5.302  88.174 112.784  0.00  0.00     0.109 C 
ATOM     16  O   LIG d   1       3.282  89.485 112.790  0.00  0.00    -0.276 OA
ATOM     17  H   LIG d   1       4.350  87.533 115.033  0.00  0.00     0.149 HD
ENDBRANCH   6  13
BRANCH   5  18
ATOM     18  N   LIG d   1       3.519  90.304 116.778  0.00  0.00     0.381 N 
ATOM     19  H   LIG d   1       2.909  91.049 116.507  0.00  0.00    -0.090 HD
ATOM     20  H   LIG d   1       4.264  90.245 116.107  0.00  0.00    -0.090 HD
ATOM     21  H   LIG d   1       3.891  90.482 117.685  0.00  0.00    -0.090 HD
ENDBRANCH   5  18
BRANCH   3  22
ATOM     22  C   LIG d   1      -0.269  87.961 118.540  0.00  0.00     0.382 C 
ATOM     23  O   LIG d   1       0.174  87.931 119.713  0.00  0.00    -0.241 OA
ATOM     24  O   LIG d   1      -1.483  87.770 118.338  0.00  0.00    -0.241 OA
ENDBRANCH   3  22
TORSDOF 7
ENDMDL
MODEL 9
REMARK VINA RESULT:      -4.5     12.180     16.024
REMARK  7 active torsions:
REMARK  status: ('A' for Active; 'I' for Inactive)
REMARK    1  A    between atoms: C_2  and  C_3 
REMARK    2  A    between atoms: C_3  and  O_6 
REMARK    3  A    between atoms: C_3  and  C_4 
REMARK    4  A    between atoms: C_7  and  O_6 
REMARK    5  A    between atoms: C_9  and  C_10 
REMARK    6  A    between atoms: N_15  and  C_14 
REMARK    7  A    between atoms: N_20  and  C_19 
REMARK       I    between atoms: C_22  and  N_20 
ROOT
ATOM      1  C   LIG d   1      10.512  78.331 114.693  0.00  0.00     0.161 C 
ATOM      2  C   LIG d   1       9.154  78.406 115.045  0.00  0.00     0.016 C 
ATOM      3  C   LIG d   1       8.377  77.277 115.396  0.00  0.00     0.038 C 
ATOM      4  C   LIG d   1       8.949  76.008 115.566  0.00  0.00     0.028 C 
ATOM      5  C   LIG d   1      10.208  75.794 114.732  0.00  0.00    -0.047 C 
ATOM      6  C   LIG d   1      11.180  76.970 114.980  0.00  0.00     0.091 C 
ENDROOT
BRANCH   1   7
ATOM      7  O   LIG d   1      11.242  79.394 115.335  0.00  0.00    -0.368 OA
BRANCH   7   8
ATOM      8  C   LIG d   1      11.764  80.427 114.463  0.00  0.00     0.119 C 
BRANCH   8   9
ATOM      9  C   LIG d   1      11.329  80.082 113.026  0.00  0.00     0.028 C 
ATOM     10  C   LIG d   1      12.519  80.004 112.055  0.00  0.00     0.006 C 
ENDBRANCH   8   9
BRANCH   8  11
ATOM     11  C   LIG d   1      13.295  80.414 114.438  0.00  0.00     0.028 C 
ATOM     12  C   LIG d   1      13.913  80.265 115.837  0.00  0.00     0.006 C 
ENDBRANCH   8  11
ENDBRANCH   7   8
ENDBRANCH   1   7
BRANCH   6  13
ATOM     13  N   LIG d   1      12.402  76.883 114.139  0.00  0.00    -0.311 N 
ATOM     14  C   LIG d   1      13.625  76.714 114.638  0.00  0.00     0.210 C 
ATOM     15  C   LIG d   1      14.748  76.670 113.597  0.00  0.00     0.109 C 
ATOM     16  O   LIG d   1      13.884  76.564 115.842  0.00  0.00    -0.276 OA
ATOM     17  H   LIG d   1      12.281  76.963 113.148  0.00  0.00     0.149 HD
ENDBRANCH   6  13
BRANCH   5  18
ATOM     18  N   LIG d   1      10.776  74.486 115.110  0.00  0.00     0.381 N 
ATOM     19  H   LIG d   1      10.798  73.883 114.311  0.00  0.00    -0.090 HD
ATOM     20  H   LIG d   1      10.187  74.064 115.806  0.00  0.00    -0.090 HD
ATOM     21  H   LIG d   1      11.697  74.605 115.471  0.00  0.00    -0.090 HD
ENDBRANCH   5  18
BRANCH   3  22
ATOM     22  C   LIG d   1       7.005  77.406 115.542  0.00  0.00     0.382 C 
ATOM     23  O   LIG d   1       6.333  77.997 114.662  0.00  0.00    -0.241 OA
ATOM     24  O   LIG d   1       6.435  76.978 116.563  0.00  0.00    -0.241 OA
ENDBRANCH   3  22
TORSDOF 7
ENDMDL
