MODEL 1
REMARK VINA RESULT:      -5.7      0.000      0.000
REMARK  7 active torsions:
REMARK  status: ('A' for Active; 'I' for Inactive)
REMARK    1  A    between atoms: C_2  and  C_3 
REMARK    2  A    between atoms: C_3  and  O_6 
REMARK    3  A    between atoms: C_3  and  C_4 
REMARK    4  A    between atoms: C_7  and  O_6 
REMARK    5  A    between atoms: C_9  and  C_10 
REMARK    6  A    between atoms: N_15  and  C_14 
REMARK    7  A    between atoms: N_20  and  C_19 
REMARK       I    between atoms: C_22  and  N_20 
ROOT
ATOM      1  C   LIG d   1      -8.130  75.309 116.873  0.00  0.00     0.161 C 
ATOM      2  C   LIG d   1      -7.134  75.066 115.913  0.00  0.00     0.016 C 
ATOM      3  C   LIG d   1      -5.999  75.892 115.744  0.00  0.00     0.038 C 
ATOM      4  C   LIG d   1      -5.704  76.938 116.631  0.00  0.00     0.028 C 
ATOM      5  C   LIG d   1      -6.939  77.528 117.303  0.00  0.00    -0.047 C 
ATOM      6  C   LIG d   1      -7.770  76.381 117.922  0.00  0.00     0.091 C 
ENDROOT
BRANCH   1   7
ATOM      7  O   LIG d   1      -8.494  74.075 117.523  0.00  0.00    -0.368 OA
BRANCH   7   8
ATOM      8  C   LIG d   1      -9.460  73.249 116.828  0.00  0.00     0.119 C 
BRANCH   8   9
ATOM      9  C   LIG d   1     -10.737  73.205 117.690  0.00  0.00     0.028 C 
ATOM     10  C   LIG d   1     -11.705  74.353 117.363  0.00  0.00     0.006 C 
ENDBRANCH   8   9
BRANCH   8  11
ATOM     11  C   LIG d   1      -8.985  71.796 116.732  0.00  0.00     0.028 C 
ATOM     12  C   LIG d   1      -9.308  70.979 117.993  0.00  0.00     0.006 C 
ENDBRANCH   8  11
ENDBRANCH   7   8
ENDBRANCH   1   7
BRANCH   6  13
ATOM     13  N   LIG d   1      -9.039  76.863 118.527  0.00  0.00    -0.311 N 
ATOM     14  C   LIG d   1      -9.570  76.340 119.631  0.00  0.00     0.210 C 
ATOM     15  C   LIG d   1     -10.894  76.972 120.073  0.00  0.00     0.109 C 
ATOM     16  O   LIG d   1      -9.055  75.435 120.303  0.00  0.00    -0.276 OA
ATOM     17  H   LIG d   1      -9.508  77.617 118.063  0.00  0.00     0.149 HD
ENDBRANCH   6  13
BRANCH   5  18
ATOM     18  N   LIG d   1      -6.477  78.512 118.300  0.00  0.00     0.381 N 
ATOM     19  H   LIG d   1      -6.693  79.438 117.988  0.00  0.00    -0.090 HD
ATOM     20  H   LIG d   1      -5.480  78.435 118.394  0.00  0.00    -0.090 HD
ATOM     21  H   LIG d   1      -6.915  78.339 119.178  0.00  0.00    -0.090 HD
ENDBRANCH   5  18
BRANCH   3  22
ATOM     22  C   LIG d   1      -5.164  75.698 114.654  0.00  0.00     0.382 C 
ATOM     23  O   LIG d   1      -4.221  74.873 114.725  0.00  0.00    -0.241 OA
ATOM     24  O   LIG d   1      -5.315  76.369 113.615  0.00  0.00    -0.241 OA
ENDBRANCH   3  22
TORSDOF 7
ENDMDL
MODEL 2
REMARK VINA RESULT:      -5.6      2.194      4.838
REMARK  7 active torsions:
REMARK  status: ('A' for Active; 'I' for Inactive)
REMARK    1  A    between atoms: C_2  and  C_3 
REMARK    2  A    between atoms: C_3  and  O_6 
REMARK    3  A    between atoms: C_3  and  C_4 
REMARK    4  A    between atoms: C_7  and  O_6 
REMARK    5  A    between atoms: C_9  and  C_10 
REMARK    6  A    between atoms: N_15  and  C_14 
REMARK    7  A    between atoms: N_20  and  C_19 
REMARK       I    between atoms: C_22  and  N_20 
ROOT
ATOM      1  C   LIG d   1      -8.587  76.302 117.945  0.00  0.00     0.161 C 
ATOM      2  C   LIG d   1      -9.605  77.196 118.317  0.00  0.00     0.016 C 
ATOM      3  C   LIG d   1      -9.432  78.598 118.358  0.00  0.00     0.038 C 
ATOM      4  C   LIG d   1      -8.266  79.216 117.881  0.00  0.00     0.028 C 
ATOM      5  C   LIG d   1      -7.030  78.327 117.971  0.00  0.00    -0.047 C 
ATOM      6  C   LIG d   1      -7.344  76.963 117.315  0.00  0.00     0.091 C 
ENDROOT
BRANCH   1   7
ATOM      7  O   LIG d   1      -9.120  75.294 117.063  0.00  0.00    -0.368 OA
BRANCH   7   8
ATOM      8  C   LIG d   1      -9.065  73.930 117.547  0.00  0.00     0.119 C 
BRANCH   8   9
ATOM      9  C   LIG d   1      -8.272  73.104 116.515  0.00  0.00     0.028 C 
ATOM     10  C   LIG d   1      -8.739  71.641 116.450  0.00  0.00     0.006 C 
ENDBRANCH   8   9
BRANCH   8  11
ATOM     11  C   LIG d   1     -10.459  73.297 117.586  0.00  0.00     0.028 C 
ATOM     12  C   LIG d   1     -11.580  74.304 117.285  0.00  0.00     0.006 C 
ENDBRANCH   8  11
ENDBRANCH   7   8
ENDBRANCH   1   7
BRANCH   6  13
ATOM     13  N   LIG d   1      -6.215  76.004 117.434  0.00  0.00    -0.311 N 
ATOM     14  C   LIG d   1      -5.279  75.854 116.498  0.00  0.00     0.210 C 
ATOM     15  C   LIG d   1      -4.215  74.796 116.811  0.00  0.00     0.109 C 
ATOM     16  O   LIG d   1      -5.210  76.518 115.454  0.00  0.00    -0.276 OA
ATOM     17  H   LIG d   1      -6.176  75.446 118.264  0.00  0.00     0.149 HD
ENDBRANCH   6  13
BRANCH   5  18
ATOM     18  N   LIG d   1      -5.919  79.042 117.314  0.00  0.00     0.381 N 
ATOM     19  H   LIG d   1      -5.960  78.897 116.325  0.00  0.00    -0.090 HD
ATOM     20  H   LIG d   1      -5.048  78.670 117.652  0.00  0.00    -0.090 HD
ATOM     21  H   LIG d   1      -5.973  80.016 117.517  0.00  0.00    -0.090 HD
ENDBRANCH   5  18
BRANCH   3  22
ATOM     22  C   LIG d   1     -10.418  79.396 118.918  0.00  0.00     0.382 C 
ATOM     23  O   LIG d   1     -11.035  79.006 119.939  0.00  0.00    -0.241 OA
ATOM     24  O   LIG d   1     -10.728  80.481 118.391  0.00  0.00    -0.241 OA
ENDBRANCH   3  22
TORSDOF 7
ENDMDL
MODEL 3
REMARK VINA RESULT:      -5.4      1.769      2.457
REMARK  7 active torsions:
REMARK  status: ('A' for Active; 'I' for Inactive)
REMARK    1  A    between atoms: C_2  and  C_3 
REMARK    2  A    between atoms: C_3  and  O_6 
REMARK    3  A    between atoms: C_3  and  C_4 
REMARK    4  A    between atoms: C_7  and  O_6 
REMARK    5  A    between atoms: C_9  and  C_10 
REMARK    6  A    between atoms: N_15  and  C_14 
REMARK    7  A    between atoms: N_20  and  C_19 
REMARK       I    between atoms: C_22  and  N_20 
ROOT
ATOM      1  C   LIG d   1      -8.201  76.365 116.629  0.00  0.00     0.161 C 
ATOM      2  C   LIG d   1      -7.253  75.430 116.180  0.00  0.00     0.016 C 
ATOM      3  C   LIG d   1      -5.867  75.544 116.435  0.00  0.00     0.038 C 
ATOM      4  C   LIG d   1      -5.349  76.527 117.290  0.00  0.00     0.028 C 
ATOM      5  C   LIG d   1      -6.206  77.787 117.355  0.00  0.00    -0.047 C 
ATOM      6  C   LIG d   1      -7.667  77.384 117.658  0.00  0.00     0.091 C 
ENDROOT
BRANCH   1   7
ATOM      7  O   LIG d   1      -9.354  75.678 117.156  0.00  0.00    -0.368 OA
BRANCH   7   8
ATOM      8  C   LIG d   1      -9.082  74.556 118.031  0.00  0.00     0.119 C 
BRANCH   8   9
ATOM      9  C   LIG d   1     -10.059  73.426 117.653  0.00  0.00     0.028 C 
ATOM     10  C   LIG d   1      -9.367  72.277 116.901  0.00  0.00     0.006 C 
ENDBRANCH   8   9
BRANCH   8  11
ATOM     11  C   LIG d   1      -9.400  74.897 119.490  0.00  0.00     0.028 C 
ATOM     12  C   LIG d   1     -10.471  75.991 119.626  0.00  0.00     0.006 C 
ENDBRANCH   8  11
ENDBRANCH   7   8
ENDBRANCH   1   7
BRANCH   6  13
ATOM     13  N   LIG d   1      -8.589  78.550 117.655  0.00  0.00    -0.311 N 
ATOM     14  C   LIG d   1      -8.924  79.222 118.756  0.00  0.00     0.210 C 
ATOM     15  C   LIG d   1      -9.903  80.379 118.534  0.00  0.00     0.109 C 
ATOM     16  O   LIG d   1      -8.478  78.990 119.889  0.00  0.00    -0.276 OA
ATOM     17  H   LIG d   1      -8.973  78.826 116.773  0.00  0.00     0.149 HD
ENDBRANCH   6  13
BRANCH   5  18
ATOM     18  N   LIG d   1      -5.625  78.669 118.385  0.00  0.00     0.381 N 
ATOM     19  H   LIG d   1      -5.904  78.358 119.294  0.00  0.00    -0.090 HD
ATOM     20  H   LIG d   1      -5.974  79.601 118.249  0.00  0.00    -0.090 HD
ATOM     21  H   LIG d   1      -4.631  78.665 118.316  0.00  0.00    -0.090 HD
ENDBRANCH   5  18
BRANCH   3  22
ATOM     22  C   LIG d   1      -4.979  74.691 115.797  0.00  0.00     0.382 C 
ATOM     23  O   LIG d   1      -4.081  74.114 116.457  0.00  0.00    -0.241 OA
ATOM     24  O   LIG d   1      -5.038  74.524 114.564  0.00  0.00    -0.241 OA
ENDBRANCH   3  22
TORSDOF 7
ENDMDL
MODEL 4
REMARK VINA RESULT:      -5.3     16.184     18.551
REMARK  7 active torsions:
REMARK  status: ('A' for Active; 'I' for Inactive)
REMARK    1  A    between atoms: C_2  and  C_3 
REMARK    2  A    between atoms: C_3  and  O_6 
REMARK    3  A    between atoms: C_3  and  C_4 
REMARK    4  A    between atoms: C_7  and  O_6 
REMARK    5  A    between atoms: C_9  and  C_10 
REMARK    6  A    between atoms: N_15  and  C_14 
REMARK    7  A    between atoms: N_20  and  C_19 
REMARK       I    between atoms: C_22  and  N_20 
ROOT
ATOM      1  C   LIG d   1      -6.218  93.278 117.993  0.00  0.00     0.161 C 
ATOM      2  C   LIG d   1      -6.964  92.409 117.180  0.00  0.00     0.016 C 
ATOM      3  C   LIG d   1      -6.398  91.317 116.483  0.00  0.00     0.038 C 
ATOM      4  C   LIG d   1      -5.063  90.928 116.674  0.00  0.00     0.028 C 
ATOM      5  C   LIG d   1      -4.151  92.077 117.092  0.00  0.00    -0.047 C 
ATOM      6  C   LIG d   1      -4.783  92.804 118.301  0.00  0.00     0.091 C 
ENDROOT
BRANCH   1   7
ATOM      7  O   LIG d   1      -6.934  93.537 119.217  0.00  0.00    -0.368 OA
BRANCH   7   8
ATOM      8  C   LIG d   1      -7.509  94.860 119.352  0.00  0.00     0.119 C 
BRANCH   8   9
ATOM      9  C   LIG d   1      -9.013  94.745 119.034  0.00  0.00     0.028 C 
ATOM     10  C   LIG d   1      -9.880  94.703 120.304  0.00  0.00     0.006 C 
ENDBRANCH   8   9
BRANCH   8  11
ATOM     11  C   LIG d   1      -6.946  95.822 118.302  0.00  0.00     0.028 C 
ATOM     12  C   LIG d   1      -6.059  96.919 118.914  0.00  0.00     0.006 C 
ENDBRANCH   8  11
ENDBRANCH   7   8
ENDBRANCH   1   7
BRANCH   6  13
ATOM     13  N   LIG d   1      -3.997  93.993 118.721  0.00  0.00    -0.311 N 
ATOM     14  C   LIG d   1      -3.078  93.961 119.684  0.00  0.00     0.210 C 
ATOM     15  C   LIG d   1      -2.398  95.303 119.974  0.00  0.00     0.109 C 
ATOM     16  O   LIG d   1      -2.738  92.943 120.305  0.00  0.00    -0.276 OA
ATOM     17  H   LIG d   1      -4.186  94.855 118.248  0.00  0.00     0.149 HD
ENDBRANCH   6  13
BRANCH   5  18
ATOM     18  N   LIG d   1      -2.824  91.506 117.389  0.00  0.00     0.381 N 
ATOM     19  H   LIG d   1      -2.348  91.294 116.535  0.00  0.00    -0.090 HD
ATOM     20  H   LIG d   1      -2.945  90.652 117.904  0.00  0.00    -0.090 HD
ATOM     21  H   LIG d   1      -2.287  92.152 117.925  0.00  0.00    -0.090 HD
ENDBRANCH   5  18
BRANCH   3  22
ATOM     22  C   LIG d   1      -7.159  90.625 115.553  0.00  0.00     0.382 C 
ATOM     23  O   LIG d   1      -7.738  91.247 114.630  0.00  0.00    -0.241 OA
ATOM     24  O   LIG d   1      -7.310  89.393 115.652  0.00  0.00    -0.241 OA
ENDBRANCH   3  22
TORSDOF 7
ENDMDL
MODEL 5
REMARK VINA RESULT:      -5.2      2.830      5.084
REMARK  7 active torsions:
REMARK  status: ('A' for Active; 'I' for Inactive)
REMARK    1  A    between atoms: C_2  and  C_3 
REMARK    2  A    between atoms: C_3  and  O_6 
REMARK    3  A    between atoms: C_3  and  C_4 
REMARK    4  A    between atoms: C_7  and  O_6 
REMARK    5  A    between atoms: C_9  and  C_10 
REMARK    6  A    between atoms: N_15  and  C_14 
REMARK    7  A    between atoms: N_20  and  C_19 
REMARK       I    between atoms: C_22  and  N_20 
ROOT
ATOM      1  C   LIG d   1      -8.132  77.281 117.462  0.00  0.00     0.161 C 
ATOM      2  C   LIG d   1      -7.877  78.652 117.629  0.00  0.00     0.016 C 
ATOM      3  C   LIG d   1      -8.772  79.538 118.273  0.00  0.00     0.038 C 
ATOM      4  C   LIG d   1      -9.923  79.079 118.931  0.00  0.00     0.028 C 
ATOM      5  C   LIG d   1     -10.474  77.780 118.354  0.00  0.00    -0.047 C 
ATOM      6  C   LIG d   1      -9.331  76.743 118.272  0.00  0.00     0.091 C 
ENDROOT
BRANCH   1   7
ATOM      7  O   LIG d   1      -6.944  76.523 117.763  0.00  0.00    -0.368 OA
BRANCH   7   8
ATOM      8  C   LIG d   1      -6.003  76.354 116.674  0.00  0.00     0.119 C 
BRANCH   8   9
ATOM      9  C   LIG d   1      -6.726  75.580 115.554  0.00  0.00     0.028 C 
ATOM     10  C   LIG d   1      -6.799  74.070 115.837  0.00  0.00     0.006 C 
ENDBRANCH   8   9
BRANCH   8  11
ATOM     11  C   LIG d   1      -4.827  75.464 117.087  0.00  0.00     0.028 C 
ATOM     12  C   LIG d   1      -3.475  76.191 117.010  0.00  0.00     0.006 C 
ENDBRANCH   8  11
ENDBRANCH   7   8
ENDBRANCH   1   7
BRANCH   6  13
ATOM     13  N   LIG d   1      -9.765  75.470 117.640  0.00  0.00    -0.311 N 
ATOM     14  C   LIG d   1      -9.710  74.290 118.255  0.00  0.00     0.210 C 
ATOM     15  C   LIG d   1     -10.188  73.100 117.417  0.00  0.00     0.109 C 
ATOM     16  O   LIG d   1      -9.341  74.120 119.427  0.00  0.00    -0.276 OA
ATOM     17  H   LIG d   1     -10.107  75.520 116.700  0.00  0.00     0.149 HD
ENDBRANCH   6  13
BRANCH   5  18
ATOM     18  N   LIG d   1     -11.588  77.345 119.219  0.00  0.00     0.381 N 
ATOM     19  H   LIG d   1     -12.196  76.737 118.708  0.00  0.00    -0.090 HD
ATOM     20  H   LIG d   1     -12.114  78.153 119.502  0.00  0.00    -0.090 HD
ATOM     21  H   LIG d   1     -11.232  76.873 120.021  0.00  0.00    -0.090 HD
ENDBRANCH   5  18
BRANCH   3  22
ATOM     22  C   LIG d   1      -8.540  80.904 118.227  0.00  0.00     0.382 C 
ATOM     23  O   LIG d   1      -8.196  81.445 117.149  0.00  0.00    -0.241 OA
ATOM     24  O   LIG d   1      -8.626  81.594 119.260  0.00  0.00    -0.241 OA
ENDBRANCH   3  22
TORSDOF 7
ENDMDL
MODEL 6
REMARK VINA RESULT:      -5.1     11.757     13.736
REMARK  7 active torsions:
REMARK  status: ('A' for Active; 'I' for Inactive)
REMARK    1  A    between atoms: C_2  and  C_3 
REMARK    2  A    between atoms: C_3  and  O_6 
REMARK    3  A    between atoms: C_3  and  C_4 
REMARK    4  A    between atoms: C_7  and  O_6 
REMARK    5  A    between atoms: C_9  and  C_10 
REMARK    6  A    between atoms: N_15  and  C_14 
REMARK    7  A    between atoms: N_20  and  C_19 
REMARK       I    between atoms: C_22  and  N_20 
ROOT
ATOM      1  C   LIG d   1     -15.968  65.534 116.156  0.00  0.00     0.161 C 
ATOM      2  C   LIG d   1     -15.648  66.698 115.438  0.00  0.00     0.016 C 
ATOM      3  C   LIG d   1     -15.891  66.850 114.053  0.00  0.00     0.038 C 
ATOM      4  C   LIG d   1     -16.613  65.898 113.319  0.00  0.00     0.028 C 
ATOM      5  C   LIG d   1     -16.511  64.487 113.890  0.00  0.00    -0.047 C 
ATOM      6  C   LIG d   1     -16.857  64.529 115.396  0.00  0.00     0.091 C 
ENDROOT
BRANCH   1   7
ATOM      7  O   LIG d   1     -16.575  65.889 117.415  0.00  0.00    -0.368 OA
BRANCH   7   8
ATOM      8  C   LIG d   1     -15.688  65.934 118.560  0.00  0.00     0.119 C 
BRANCH   8   9
ATOM      9  C   LIG d   1     -15.986  64.695 119.426  0.00  0.00     0.028 C 
ATOM     10  C   LIG d   1     -14.929  63.591 119.252  0.00  0.00     0.006 C 
ENDBRANCH   8   9
BRANCH   8  11
ATOM     11  C   LIG d   1     -15.996  67.138 119.455  0.00  0.00     0.028 C 
ATOM     12  C   LIG d   1     -17.189  67.966 118.951  0.00  0.00     0.006 C 
ENDBRANCH   8  11
ENDBRANCH   7   8
ENDBRANCH   1   7
BRANCH   6  13
ATOM     13  N   LIG d   1     -16.700  63.204 116.051  0.00  0.00    -0.311 N 
ATOM     14  C   LIG d   1     -17.658  62.623 116.770  0.00  0.00     0.210 C 
ATOM     15  C   LIG d   1     -17.282  61.267 117.374  0.00  0.00     0.109 C 
ATOM     16  O   LIG d   1     -18.796  63.088 116.938  0.00  0.00    -0.276 OA
ATOM     17  H   LIG d   1     -15.818  62.742 115.940  0.00  0.00     0.149 HD
ENDBRANCH   6  13
BRANCH   5  18
ATOM     18  N   LIG d   1     -17.420  63.624 113.111  0.00  0.00     0.381 N 
ATOM     19  H   LIG d   1     -16.895  62.907 112.652  0.00  0.00    -0.090 HD
ATOM     20  H   LIG d   1     -17.875  64.181 112.409  0.00  0.00    -0.090 HD
ATOM     21  H   LIG d   1     -18.100  63.215 113.713  0.00  0.00    -0.090 HD
ENDBRANCH   5  18
BRANCH   3  22
ATOM     22  C   LIG d   1     -15.373  67.946 113.380  0.00  0.00     0.382 C 
ATOM     23  O   LIG d   1     -15.049  68.977 114.018  0.00  0.00    -0.241 OA
ATOM     24  O   LIG d   1     -15.268  67.934 112.139  0.00  0.00    -0.241 OA
ENDBRANCH   3  22
TORSDOF 7
ENDMDL
MODEL 7
REMARK VINA RESULT:      -5.0     12.044     15.049
REMARK  7 active torsions:
REMARK  status: ('A' for Active; 'I' for Inactive)
REMARK    1  A    between atoms: C_2  and  C_3 
REMARK    2  A    between atoms: C_3  and  O_6 
REMARK    3  A    between atoms: C_3  and  C_4 
REMARK    4  A    between atoms: C_7  and  O_6 
REMARK    5  A    between atoms: C_9  and  C_10 
REMARK    6  A    between atoms: N_15  and  C_14 
REMARK    7  A    between atoms: N_20  and  C_19 
REMARK       I    between atoms: C_22  and  N_20 
ROOT
ATOM      1  C   LIG d   1     -16.597  64.024 116.360  0.00  0.00     0.161 C 
ATOM      2  C   LIG d   1     -16.046  65.290 116.618  0.00  0.00     0.016 C 
ATOM      3  C   LIG d   1     -15.847  66.270 115.618  0.00  0.00     0.038 C 
ATOM      4  C   LIG d   1     -16.328  66.105 114.311  0.00  0.00     0.028 C 
ATOM      5  C   LIG d   1     -16.438  64.644 113.886  0.00  0.00    -0.047 C 
ATOM      6  C   LIG d   1     -17.231  63.867 114.962  0.00  0.00     0.091 C 
ENDROOT
BRANCH   1   7
ATOM      7  O   LIG d   1     -17.555  63.691 117.384  0.00  0.00    -0.368 OA
BRANCH   7   8
ATOM      8  C   LIG d   1     -17.214  62.569 118.235  0.00  0.00     0.119 C 
BRANCH   8   9
ATOM      9  C   LIG d   1     -15.822  62.067 117.804  0.00  0.00     0.028 C 
ATOM     10  C   LIG d   1     -14.848  61.951 118.988  0.00  0.00     0.006 C 
ENDBRANCH   8   9
BRANCH   8  11
ATOM     11  C   LIG d   1     -18.160  61.387 118.006  0.00  0.00     0.028 C 
ATOM     12  C   LIG d   1     -19.556  61.824 117.533  0.00  0.00     0.006 C 
ENDBRANCH   8  11
ENDBRANCH   7   8
ENDBRANCH   1   7
BRANCH   6  13
ATOM     13  N   LIG d   1     -17.312  62.413 114.666  0.00  0.00    -0.311 N 
ATOM     14  C   LIG d   1     -18.324  61.854 114.005  0.00  0.00     0.210 C 
ATOM     15  C   LIG d   1     -18.220  60.337 113.825  0.00  0.00     0.109 C 
ATOM     16  O   LIG d   1     -19.283  62.476 113.523  0.00  0.00    -0.276 OA
ATOM     17  H   LIG d   1     -16.560  61.838 114.993  0.00  0.00     0.149 HD
ENDBRANCH   6  13
BRANCH   5  18
ATOM     18  N   LIG d   1     -17.080  64.613 112.559  0.00  0.00     0.381 N 
ATOM     19  H   LIG d   1     -16.581  63.990 111.955  0.00  0.00    -0.090 HD
ATOM     20  H   LIG d   1     -17.046  65.534 112.159  0.00  0.00    -0.090 HD
ATOM     21  H   LIG d   1     -18.027  64.315 112.645  0.00  0.00    -0.090 HD
ENDBRANCH   5  18
BRANCH   3  22
ATOM     22  C   LIG d   1     -15.123  67.416 115.914  0.00  0.00     0.382 C 
ATOM     23  O   LIG d   1     -15.400  68.497 115.341  0.00  0.00    -0.241 OA
ATOM     24  O   LIG d   1     -14.169  67.371 116.712  0.00  0.00    -0.241 OA
ENDBRANCH   3  22
TORSDOF 7
ENDMDL
MODEL 8
REMARK VINA RESULT:      -4.9      2.474      5.393
REMARK  7 active torsions:
REMARK  status: ('A' for Active; 'I' for Inactive)
REMARK    1  A    between atoms: C_2  and  C_3 
REMARK    2  A    between atoms: C_3  and  O_6 
REMARK    3  A    between atoms: C_3  and  C_4 
REMARK    4  A    between atoms: C_7  and  O_6 
REMARK    5  A    between atoms: C_9  and  C_10 
REMARK    6  A    between atoms: N_15  and  C_14 
REMARK    7  A    between atoms: N_20  and  C_19 
REMARK       I    between atoms: C_22  and  N_20 
ROOT
ATOM      1  C   LIG d   1      -7.665  76.726 117.384  0.00  0.00     0.161 C 
ATOM      2  C   LIG d   1      -8.467  75.582 117.243  0.00  0.00     0.016 C 
ATOM      3  C   LIG d   1      -9.831  75.537 117.610  0.00  0.00     0.038 C 
ATOM      4  C   LIG d   1     -10.530  76.688 118.005  0.00  0.00     0.028 C 
ATOM      5  C   LIG d   1      -9.640  77.749 118.642  0.00  0.00    -0.047 C 
ATOM      6  C   LIG d   1      -8.438  78.022 117.708  0.00  0.00     0.091 C 
ENDROOT
BRANCH   1   7
ATOM      7  O   LIG d   1      -6.859  76.907 116.202  0.00  0.00    -0.368 OA
BRANCH   7   8
ATOM      8  C   LIG d   1      -5.441  76.648 116.352  0.00  0.00     0.119 C 
BRANCH   8   9
ATOM      9  C   LIG d   1      -5.127  75.341 115.599  0.00  0.00     0.028 C 
ATOM     10  C   LIG d   1      -4.205  74.408 116.401  0.00  0.00     0.006 C 
ENDBRANCH   8   9
BRANCH   8  11
ATOM     11  C   LIG d   1      -5.077  76.371 117.814  0.00  0.00     0.028 C 
ATOM     12  C   LIG d   1      -4.207  77.478 118.431  0.00  0.00     0.006 C 
ENDBRANCH   8  11
ENDBRANCH   7   8
ENDBRANCH   1   7
BRANCH   6  13
ATOM     13  N   LIG d   1      -7.472  78.987 118.295  0.00  0.00    -0.311 N 
ATOM     14  C   LIG d   1      -7.510  80.297 118.058  0.00  0.00     0.210 C 
ATOM     15  C   LIG d   1      -6.409  81.111 118.746  0.00  0.00     0.109 C 
ATOM     16  O   LIG d   1      -8.371  80.867 117.370  0.00  0.00    -0.276 OA
ATOM     17  H   LIG d   1      -6.759  78.614 118.890  0.00  0.00     0.149 HD
ENDBRANCH   6  13
BRANCH   5  18
ATOM     18  N   LIG d   1     -10.471  78.945 118.878  0.00  0.00     0.381 N 
ATOM     19  H   LIG d   1      -9.884  79.741 119.029  0.00  0.00    -0.090 HD
ATOM     20  H   LIG d   1     -11.023  78.799 119.705  0.00  0.00    -0.090 HD
ATOM     21  H   LIG d   1     -11.067  79.106 118.096  0.00  0.00    -0.090 HD
ENDBRANCH   5  18
BRANCH   3  22
ATOM     22  C   LIG d   1     -10.501  74.323 117.622  0.00  0.00     0.382 C 
ATOM     23  O   LIG d   1     -11.694  74.262 117.240  0.00  0.00    -0.241 OA
ATOM     24  O   LIG d   1      -9.941  73.297 118.052  0.00  0.00    -0.241 OA
ENDBRANCH   3  22
TORSDOF 7
ENDMDL
MODEL 9
REMARK VINA RESULT:      -4.7      3.981      6.627
REMARK  7 active torsions:
REMARK  status: ('A' for Active; 'I' for Inactive)
REMARK    1  A    between atoms: C_2  and  C_3 
REMARK    2  A    between atoms: C_3  and  O_6 
REMARK    3  A    between atoms: C_3  and  C_4 
REMARK    4  A    between atoms: C_7  and  O_6 
REMARK    5  A    between atoms: C_9  and  C_10 
REMARK    6  A    between atoms: N_15  and  C_14 
REMARK    7  A    between atoms: N_20  and  C_19 
REMARK       I    between atoms: C_22  and  N_20 
ROOT
ATOM      1  C   LIG d   1      -3.757  75.813 116.038  0.00  0.00     0.161 C 
ATOM      2  C   LIG d   1      -3.627  75.067 117.221  0.00  0.00     0.016 C 
ATOM      3  C   LIG d   1      -2.381  74.763 117.817  0.00  0.00     0.038 C 
ATOM      4  C   LIG d   1      -1.180  75.317 117.347  0.00  0.00     0.028 C 
ATOM      5  C   LIG d   1      -1.212  75.662 115.862  0.00  0.00    -0.047 C 
ATOM      6  C   LIG d   1      -2.466  76.518 115.573  0.00  0.00     0.091 C 
ENDROOT
BRANCH   1   7
ATOM      7  O   LIG d   1      -4.827  76.768 116.177  0.00  0.00    -0.368 OA
BRANCH   7   8
ATOM      8  C   LIG d   1      -6.070  76.257 116.720  0.00  0.00     0.119 C 
BRANCH   8   9
ATOM      9  C   LIG d   1      -6.812  75.535 115.579  0.00  0.00     0.028 C 
ATOM     10  C   LIG d   1      -6.903  74.017 115.807  0.00  0.00     0.006 C 
ENDBRANCH   8   9
BRANCH   8  11
ATOM     11  C   LIG d   1      -6.999  77.396 117.151  0.00  0.00     0.028 C 
ATOM     12  C   LIG d   1      -8.468  76.957 117.263  0.00  0.00     0.006 C 
ENDBRANCH   8  11
ENDBRANCH   7   8
ENDBRANCH   1   7
BRANCH   6  13
ATOM     13  N   LIG d   1      -2.619  76.829 114.128  0.00  0.00    -0.311 N 
ATOM     14  C   LIG d   1      -2.103  77.914 113.553  0.00  0.00     0.210 C 
ATOM     15  C   LIG d   1      -2.395  78.053 112.055  0.00  0.00     0.109 C 
ATOM     16  O   LIG d   1      -1.404  78.758 114.134  0.00  0.00    -0.276 OA
ATOM     17  H   LIG d   1      -3.145  76.181 113.575  0.00  0.00     0.149 HD
ENDBRANCH   6  13
BRANCH   5  18
ATOM     18  N   LIG d   1       0.049  76.355 115.539  0.00  0.00     0.381 N 
ATOM     19  H   LIG d   1      -0.029  77.325 115.767  0.00  0.00    -0.090 HD
ATOM     20  H   LIG d   1       0.219  76.276 114.551  0.00  0.00    -0.090 HD
ATOM     21  H   LIG d   1       0.803  75.946 116.046  0.00  0.00    -0.090 HD
ENDBRANCH   5  18
BRANCH   3  22
ATOM     22  C   LIG d   1      -2.324  73.864 118.871  0.00  0.00     0.382 C 
ATOM     23  O   LIG d   1      -2.118  72.647 118.646  0.00  0.00    -0.241 OA
ATOM     24  O   LIG d   1      -2.520  74.248 120.040  0.00  0.00    -0.241 OA
ENDBRANCH   3  22
TORSDOF 7
ENDMDL
