MODEL 1
REMARK VINA RESULT:      -6.2      0.000      0.000
REMARK  7 active torsions:
REMARK  status: ('A' for Active; 'I' for Inactive)
REMARK    1  A    between atoms: C_2  and  C_3 
REMARK    2  A    between atoms: C_3  and  O_6 
REMARK    3  A    between atoms: C_3  and  C_4 
REMARK    4  A    between atoms: C_7  and  O_6 
REMARK    5  A    between atoms: C_9  and  C_10 
REMARK    6  A    between atoms: N_15  and  C_14 
REMARK    7  A    between atoms: N_20  and  C_19 
REMARK       I    between atoms: C_22  and  N_20 
ROOT
ATOM      1  C   LIG d   1      -7.649  75.291 116.760  0.00  0.00     0.161 C 
ATOM      2  C   LIG d   1      -6.583  75.057 115.876  0.00  0.00     0.016 C 
ATOM      3  C   LIG d   1      -5.597  76.024 115.572  0.00  0.00     0.038 C 
ATOM      4  C   LIG d   1      -5.525  77.248 116.253  0.00  0.00     0.028 C 
ATOM      5  C   LIG d   1      -6.872  77.725 116.787  0.00  0.00    -0.047 C 
ATOM      6  C   LIG d   1      -7.524  76.582 117.597  0.00  0.00     0.091 C 
ENDROOT
BRANCH   1   7
ATOM      7  O   LIG d   1      -7.828  74.151 117.623  0.00  0.00    -0.368 OA
BRANCH   7   8
ATOM      8  C   LIG d   1      -9.182  73.649 117.743  0.00  0.00     0.119 C 
BRANCH   8   9
ATOM      9  C   LIG d   1      -9.312  72.997 119.134  0.00  0.00     0.028 C 
ATOM     10  C   LIG d   1      -9.552  74.031 120.246  0.00  0.00     0.006 C 
ENDBRANCH   8   9
BRANCH   8  11
ATOM     11  C   LIG d   1      -9.450  72.522 116.741  0.00  0.00     0.028 C 
ATOM     12  C   LIG d   1      -9.587  71.147 117.413  0.00  0.00     0.006 C 
ENDBRANCH   8  11
ENDBRANCH   7   8
ENDBRANCH   1   7
BRANCH   6  13
ATOM     13  N   LIG d   1      -8.883  76.936 118.084  0.00  0.00    -0.311 N 
ATOM     14  C   LIG d   1      -9.116  77.469 119.282  0.00  0.00     0.210 C 
ATOM     15  C   LIG d   1     -10.592  77.739 119.593  0.00  0.00     0.109 C 
ATOM     16  O   LIG d   1      -8.239  77.774 120.103  0.00  0.00    -0.276 OA
ATOM     17  H   LIG d   1      -9.650  76.751 117.468  0.00  0.00     0.149 HD
ENDBRANCH   6  13
BRANCH   5  18
ATOM     18  N   LIG d   1      -6.629  78.938 117.590  0.00  0.00     0.381 N 
ATOM     19  H   LIG d   1      -6.450  78.684 118.542  0.00  0.00    -0.090 HD
ATOM     20  H   LIG d   1      -7.452  79.514 117.567  0.00  0.00    -0.090 HD
ATOM     21  H   LIG d   1      -5.851  79.441 117.222  0.00  0.00    -0.090 HD
ENDBRANCH   5  18
BRANCH   3  22
ATOM     22  C   LIG d   1      -4.693  75.785 114.549  0.00  0.00     0.382 C 
ATOM     23  O   LIG d   1      -5.047  75.928 113.354  0.00  0.00    -0.241 OA
ATOM     24  O   LIG d   1      -3.541  75.386 114.804  0.00  0.00    -0.241 OA
ENDBRANCH   3  22
TORSDOF 7
ENDMDL
MODEL 2
REMARK VINA RESULT:      -5.9      2.224      5.241
REMARK  7 active torsions:
REMARK  status: ('A' for Active; 'I' for Inactive)
REMARK    1  A    between atoms: C_2  and  C_3 
REMARK    2  A    between atoms: C_3  and  O_6 
REMARK    3  A    between atoms: C_3  and  C_4 
REMARK    4  A    between atoms: C_7  and  O_6 
REMARK    5  A    between atoms: C_9  and  C_10 
REMARK    6  A    between atoms: N_15  and  C_14 
REMARK    7  A    between atoms: N_20  and  C_19 
REMARK       I    between atoms: C_22  and  N_20 
ROOT
ATOM      1  C   LIG d   1      -7.742  75.328 116.728  0.00  0.00     0.161 C 
ATOM      2  C   LIG d   1      -7.558  76.719 116.798  0.00  0.00     0.016 C 
ATOM      3  C   LIG d   1      -8.148  77.532 117.793  0.00  0.00     0.038 C 
ATOM      4  C   LIG d   1      -8.844  76.986 118.881  0.00  0.00     0.028 C 
ATOM      5  C   LIG d   1      -9.479  75.633 118.576  0.00  0.00    -0.047 C 
ATOM      6  C   LIG d   1      -8.406  74.700 117.971  0.00  0.00     0.091 C 
ENDROOT
BRANCH   1   7
ATOM      7  O   LIG d   1      -6.483  74.682 116.452  0.00  0.00    -0.368 OA
BRANCH   7   8
ATOM      8  C   LIG d   1      -5.361  75.560 116.189  0.00  0.00     0.119 C 
BRANCH   8   9
ATOM      9  C   LIG d   1      -4.765  75.154 114.828  0.00  0.00     0.028 C 
ATOM     10  C   LIG d   1      -5.537  75.762 113.645  0.00  0.00     0.006 C 
ENDBRANCH   8   9
BRANCH   8  11
ATOM     11  C   LIG d   1      -4.235  75.344 117.205  0.00  0.00     0.028 C 
ATOM     12  C   LIG d   1      -4.049  76.541 118.151  0.00  0.00     0.006 C 
ENDBRANCH   8  11
ENDBRANCH   7   8
ENDBRANCH   1   7
BRANCH   6  13
ATOM     13  N   LIG d   1      -8.964  73.383 117.565  0.00  0.00    -0.311 N 
ATOM     14  C   LIG d   1      -9.081  72.349 118.397  0.00  0.00     0.210 C 
ATOM     15  C   LIG d   1      -9.663  71.078 117.770  0.00  0.00     0.109 C 
ATOM     16  O   LIG d   1      -8.788  72.374 119.601  0.00  0.00    -0.276 OA
ATOM     17  H   LIG d   1      -9.256  73.285 116.613  0.00  0.00     0.149 HD
ENDBRANCH   6  13
BRANCH   5  18
ATOM     18  N   LIG d   1     -10.052  75.116 119.834  0.00  0.00     0.381 N 
ATOM     19  H   LIG d   1     -10.594  74.296 119.647  0.00  0.00    -0.090 HD
ATOM     20  H   LIG d   1     -10.660  75.814 120.225  0.00  0.00    -0.090 HD
ATOM     21  H   LIG d   1      -9.323  74.902 120.478  0.00  0.00    -0.090 HD
ENDBRANCH   5  18
BRANCH   3  22
ATOM     22  C   LIG d   1      -8.078  78.913 117.682  0.00  0.00     0.382 C 
ATOM     23  O   LIG d   1      -8.952  79.630 118.225  0.00  0.00    -0.241 OA
ATOM     24  O   LIG d   1      -7.176  79.448 117.009  0.00  0.00    -0.241 OA
ENDBRANCH   3  22
TORSDOF 7
ENDMDL
MODEL 3
REMARK VINA RESULT:      -5.7      2.224      5.022
REMARK  7 active torsions:
REMARK  status: ('A' for Active; 'I' for Inactive)
REMARK    1  A    between atoms: C_2  and  C_3 
REMARK    2  A    between atoms: C_3  and  O_6 
REMARK    3  A    between atoms: C_3  and  C_4 
REMARK    4  A    between atoms: C_7  and  O_6 
REMARK    5  A    between atoms: C_9  and  C_10 
REMARK    6  A    between atoms: N_15  and  C_14 
REMARK    7  A    between atoms: N_20  and  C_19 
REMARK       I    between atoms: C_22  and  N_20 
ROOT
ATOM      1  C   LIG d   1      -7.055  76.664 117.021  0.00  0.00     0.161 C 
ATOM      2  C   LIG d   1      -6.904  78.056 117.143  0.00  0.00     0.016 C 
ATOM      3  C   LIG d   1      -7.902  78.902 117.678  0.00  0.00     0.038 C 
ATOM      4  C   LIG d   1      -9.067  78.393 118.270  0.00  0.00     0.028 C 
ATOM      5  C   LIG d   1      -9.486  77.036 117.713  0.00  0.00    -0.047 C 
ATOM      6  C   LIG d   1      -8.274  76.078 117.763  0.00  0.00     0.091 C 
ENDROOT
BRANCH   1   7
ATOM      7  O   LIG d   1      -5.846  76.003 117.442  0.00  0.00    -0.368 OA
BRANCH   7   8
ATOM      8  C   LIG d   1      -5.253  75.088 116.488  0.00  0.00     0.119 C 
BRANCH   8   9
ATOM      9  C   LIG d   1      -3.726  75.295 116.535  0.00  0.00     0.028 C 
ATOM     10  C   LIG d   1      -3.135  74.989 117.921  0.00  0.00     0.006 C 
ENDBRANCH   8   9
BRANCH   8  11
ATOM     11  C   LIG d   1      -5.665  75.435 115.054  0.00  0.00     0.028 C 
ATOM     12  C   LIG d   1      -4.491  75.944 114.203  0.00  0.00     0.006 C 
ENDBRANCH   8  11
ENDBRANCH   7   8
ENDBRANCH   1   7
BRANCH   6  13
ATOM     13  N   LIG d   1      -8.574  74.753 117.159  0.00  0.00    -0.311 N 
ATOM     14  C   LIG d   1      -9.047  73.721 117.855  0.00  0.00     0.210 C 
ATOM     15  C   LIG d   1      -9.267  72.441 117.042  0.00  0.00     0.109 C 
ATOM     16  O   LIG d   1      -9.335  73.753 119.060  0.00  0.00    -0.276 OA
ATOM     17  H   LIG d   1      -8.398  74.649 116.179  0.00  0.00     0.149 HD
ENDBRANCH   6  13
BRANCH   5  18
ATOM     18  N   LIG d   1     -10.631  76.561 118.512  0.00  0.00     0.381 N 
ATOM     19  H   LIG d   1     -10.302  76.109 119.341  0.00  0.00    -0.090 HD
ATOM     20  H   LIG d   1     -11.149  75.890 117.972  0.00  0.00    -0.090 HD
ATOM     21  H   LIG d   1     -11.220  77.328 118.754  0.00  0.00    -0.090 HD
ENDBRANCH   5  18
BRANCH   3  22
ATOM     22  C   LIG d   1      -7.757  80.278 117.588  0.00  0.00     0.382 C 
ATOM     23  O   LIG d   1      -8.530  81.033 118.225  0.00  0.00    -0.241 OA
ATOM     24  O   LIG d   1      -6.890  80.774 116.843  0.00  0.00    -0.241 OA
ENDBRANCH   3  22
TORSDOF 7
ENDMDL
MODEL 4
REMARK VINA RESULT:      -5.6      1.999      4.955
REMARK  7 active torsions:
REMARK  status: ('A' for Active; 'I' for Inactive)
REMARK    1  A    between atoms: C_2  and  C_3 
REMARK    2  A    between atoms: C_3  and  O_6 
REMARK    3  A    between atoms: C_3  and  C_4 
REMARK    4  A    between atoms: C_7  and  O_6 
REMARK    5  A    between atoms: C_9  and  C_10 
REMARK    6  A    between atoms: N_15  and  C_14 
REMARK    7  A    between atoms: N_20  and  C_19 
REMARK       I    between atoms: C_22  and  N_20 
ROOT
ATOM      1  C   LIG d   1      -6.805  75.838 117.243  0.00  0.00     0.161 C 
ATOM      2  C   LIG d   1      -7.190  74.538 116.873  0.00  0.00     0.016 C 
ATOM      3  C   LIG d   1      -8.428  73.960 117.237  0.00  0.00     0.038 C 
ATOM      4  C   LIG d   1      -9.435  74.703 117.872  0.00  0.00     0.028 C 
ATOM      5  C   LIG d   1      -8.898  75.860 118.709  0.00  0.00    -0.047 C 
ATOM      6  C   LIG d   1      -7.935  76.702 117.841  0.00  0.00     0.091 C 
ENDROOT
BRANCH   1   7
ATOM      7  O   LIG d   1      -6.203  76.508 116.118  0.00  0.00    -0.368 OA
BRANCH   7   8
ATOM      8  C   LIG d   1      -4.774  76.731 116.198  0.00  0.00     0.119 C 
BRANCH   8   9
ATOM      9  C   LIG d   1      -4.117  75.937 115.052  0.00  0.00     0.028 C 
ATOM     10  C   LIG d   1      -5.121  75.551 113.954  0.00  0.00     0.006 C 
ENDBRANCH   8   9
BRANCH   8  11
ATOM     11  C   LIG d   1      -4.190  76.144 117.486  0.00  0.00     0.028 C 
ATOM     12  C   LIG d   1      -3.267  74.942 117.228  0.00  0.00     0.006 C 
ENDBRANCH   8  11
ENDBRANCH   7   8
ENDBRANCH   1   7
BRANCH   6  13
ATOM     13  N   LIG d   1      -7.300  77.805 118.607  0.00  0.00    -0.311 N 
ATOM     14  C   LIG d   1      -7.202  79.053 118.151  0.00  0.00     0.210 C 
ATOM     15  C   LIG d   1      -6.493  80.032 119.092  0.00  0.00     0.109 C 
ATOM     16  O   LIG d   1      -7.663  79.449 117.070  0.00  0.00    -0.276 OA
ATOM     17  H   LIG d   1      -6.926  77.579 119.508  0.00  0.00     0.149 HD
ENDBRANCH   6  13
BRANCH   5  18
ATOM     18  N   LIG d   1     -10.056  76.629 119.200  0.00  0.00     0.381 N 
ATOM     19  H   LIG d   1     -10.295  77.341 118.538  0.00  0.00    -0.090 HD
ATOM     20  H   LIG d   1      -9.807  77.075 120.066  0.00  0.00    -0.090 HD
ATOM     21  H   LIG d   1     -10.833  76.023 119.342  0.00  0.00    -0.090 HD
ENDBRANCH   5  18
BRANCH   3  22
ATOM     22  C   LIG d   1      -8.653  72.613 117.000  0.00  0.00     0.382 C 
ATOM     23  O   LIG d   1      -7.752  71.907 116.487  0.00  0.00    -0.241 OA
ATOM     24  O   LIG d   1      -9.762  72.104 117.252  0.00  0.00    -0.241 OA
ENDBRANCH   3  22
TORSDOF 7
ENDMDL
MODEL 5
REMARK VINA RESULT:      -5.5      2.336      5.247
REMARK  7 active torsions:
REMARK  status: ('A' for Active; 'I' for Inactive)
REMARK    1  A    between atoms: C_2  and  C_3 
REMARK    2  A    between atoms: C_3  and  O_6 
REMARK    3  A    between atoms: C_3  and  C_4 
REMARK    4  A    between atoms: C_7  and  O_6 
REMARK    5  A    between atoms: C_9  and  C_10 
REMARK    6  A    between atoms: N_15  and  C_14 
REMARK    7  A    between atoms: N_20  and  C_19 
REMARK       I    between atoms: C_22  and  N_20 
ROOT
ATOM      1  C   LIG d   1      -7.000  77.263 117.069  0.00  0.00     0.161 C 
ATOM      2  C   LIG d   1      -6.797  78.649 117.174  0.00  0.00     0.016 C 
ATOM      3  C   LIG d   1      -7.732  79.530 117.766  0.00  0.00     0.038 C 
ATOM      4  C   LIG d   1      -8.873  79.060 118.434  0.00  0.00     0.028 C 
ATOM      5  C   LIG d   1      -9.369  77.716 117.913  0.00  0.00    -0.047 C 
ATOM      6  C   LIG d   1      -8.187  76.719 117.891  0.00  0.00     0.091 C 
ENDROOT
BRANCH   1   7
ATOM      7  O   LIG d   1      -5.788  76.565 117.417  0.00  0.00    -0.368 OA
BRANCH   7   8
ATOM      8  C   LIG d   1      -4.784  76.473 116.377  0.00  0.00     0.119 C 
BRANCH   8   9
ATOM      9  C   LIG d   1      -5.070  75.191 115.570  0.00  0.00     0.028 C 
ATOM     10  C   LIG d   1      -5.113  75.449 114.055  0.00  0.00     0.006 C 
ENDBRANCH   8   9
BRANCH   8  11
ATOM     11  C   LIG d   1      -3.385  76.276 116.968  0.00  0.00     0.028 C 
ATOM     12  C   LIG d   1      -3.051  74.800 117.232  0.00  0.00     0.006 C 
ENDBRANCH   8  11
ENDBRANCH   7   8
ENDBRANCH   1   7
BRANCH   6  13
ATOM     13  N   LIG d   1      -8.567  75.403 117.315  0.00  0.00    -0.311 N 
ATOM     14  C   LIG d   1      -9.056  74.399 118.041  0.00  0.00     0.210 C 
ATOM     15  C   LIG d   1      -9.363  73.121 117.254  0.00  0.00     0.109 C 
ATOM     16  O   LIG d   1      -9.294  74.456 119.257  0.00  0.00    -0.276 OA
ATOM     17  H   LIG d   1      -8.435  75.280 116.330  0.00  0.00     0.149 HD
ENDBRANCH   6  13
BRANCH   5  18
ATOM     18  N   LIG d   1     -10.475  77.281 118.786  0.00  0.00     0.381 N 
ATOM     19  H   LIG d   1     -10.172  76.523 119.365  0.00  0.00    -0.090 HD
ATOM     20  H   LIG d   1     -11.233  76.955 118.212  0.00  0.00    -0.090 HD
ATOM     21  H   LIG d   1     -10.781  78.041 119.353  0.00  0.00    -0.090 HD
ENDBRANCH   5  18
BRANCH   3  22
ATOM     22  C   LIG d   1      -7.548  80.900 117.659  0.00  0.00     0.382 C 
ATOM     23  O   LIG d   1      -7.281  81.579 118.679  0.00  0.00    -0.241 OA
ATOM     24  O   LIG d   1      -7.691  81.472 116.561  0.00  0.00    -0.241 OA
ENDBRANCH   3  22
TORSDOF 7
ENDMDL
MODEL 6
REMARK VINA RESULT:      -5.5      1.727      2.117
REMARK  7 active torsions:
REMARK  status: ('A' for Active; 'I' for Inactive)
REMARK    1  A    between atoms: C_2  and  C_3 
REMARK    2  A    between atoms: C_3  and  O_6 
REMARK    3  A    between atoms: C_3  and  C_4 
REMARK    4  A    between atoms: C_7  and  O_6 
REMARK    5  A    between atoms: C_9  and  C_10 
REMARK    6  A    between atoms: N_15  and  C_14 
REMARK    7  A    between atoms: N_20  and  C_19 
REMARK       I    between atoms: C_22  and  N_20 
ROOT
ATOM      1  C   LIG d   1      -7.068  76.575 116.822  0.00  0.00     0.161 C 
ATOM      2  C   LIG d   1      -6.445  76.048 115.678  0.00  0.00     0.016 C 
ATOM      3  C   LIG d   1      -5.097  76.308 115.337  0.00  0.00     0.038 C 
ATOM      4  C   LIG d   1      -4.232  76.995 116.202  0.00  0.00     0.028 C 
ATOM      5  C   LIG d   1      -4.950  77.973 117.126  0.00  0.00    -0.047 C 
ATOM      6  C   LIG d   1      -6.109  77.235 117.835  0.00  0.00     0.091 C 
ENDROOT
BRANCH   1   7
ATOM      7  O   LIG d   1      -7.851  75.552 117.467  0.00  0.00    -0.368 OA
BRANCH   7   8
ATOM      8  C   LIG d   1      -9.165  75.308 116.908  0.00  0.00     0.119 C 
BRANCH   8   9
ATOM      9  C   LIG d   1     -10.193  76.005 117.821  0.00  0.00     0.028 C 
ATOM     10  C   LIG d   1      -9.771  75.988 119.300  0.00  0.00     0.006 C 
ENDBRANCH   8   9
BRANCH   8  11
ATOM     11  C   LIG d   1      -9.524  73.820 116.957  0.00  0.00     0.028 C 
ATOM     12  C   LIG d   1      -8.432  72.965 117.619  0.00  0.00     0.006 C 
ENDBRANCH   8  11
ENDBRANCH   7   8
ENDBRANCH   1   7
BRANCH   6  13
ATOM     13  N   LIG d   1      -6.916  78.141 118.694  0.00  0.00    -0.311 N 
ATOM     14  C   LIG d   1      -7.521  79.237 118.239  0.00  0.00     0.210 C 
ATOM     15  C   LIG d   1      -8.285  80.040 119.296  0.00  0.00     0.109 C 
ATOM     16  O   LIG d   1      -7.523  79.603 117.054  0.00  0.00    -0.276 OA
ATOM     17  H   LIG d   1      -6.993  77.901 119.663  0.00  0.00     0.149 HD
ENDBRANCH   6  13
BRANCH   5  18
ATOM     18  N   LIG d   1      -3.950  78.516 118.064  0.00  0.00     0.381 N 
ATOM     19  H   LIG d   1      -3.424  79.240 117.617  0.00  0.00    -0.090 HD
ATOM     20  H   LIG d   1      -3.317  77.781 118.325  0.00  0.00    -0.090 HD
ATOM     21  H   LIG d   1      -4.404  78.877 118.875  0.00  0.00    -0.090 HD
ENDBRANCH   5  18
BRANCH   3  22
ATOM     22  C   LIG d   1      -4.614  75.913 114.099  0.00  0.00     0.382 C 
ATOM     23  O   LIG d   1      -3.844  76.667 113.456  0.00  0.00    -0.241 OA
ATOM     24  O   LIG d   1      -4.972  74.831 113.597  0.00  0.00    -0.241 OA
ENDBRANCH   3  22
TORSDOF 7
ENDMDL
MODEL 7
REMARK VINA RESULT:      -5.4      2.244      4.483
REMARK  7 active torsions:
REMARK  status: ('A' for Active; 'I' for Inactive)
REMARK    1  A    between atoms: C_2  and  C_3 
REMARK    2  A    between atoms: C_3  and  O_6 
REMARK    3  A    between atoms: C_3  and  C_4 
REMARK    4  A    between atoms: C_7  and  O_6 
REMARK    5  A    between atoms: C_9  and  C_10 
REMARK    6  A    between atoms: N_15  and  C_14 
REMARK    7  A    between atoms: N_20  and  C_19 
REMARK       I    between atoms: C_22  and  N_20 
ROOT
ATOM      1  C   LIG d   1      -6.808  77.317 117.194  0.00  0.00     0.161 C 
ATOM      2  C   LIG d   1      -5.765  77.277 116.254  0.00  0.00     0.016 C 
ATOM      3  C   LIG d   1      -5.366  76.098 115.584  0.00  0.00     0.038 C 
ATOM      4  C   LIG d   1      -6.087  74.900 115.698  0.00  0.00     0.028 C 
ATOM      5  C   LIG d   1      -6.837  74.768 117.019  0.00  0.00    -0.047 C 
ATOM      6  C   LIG d   1      -7.679  76.044 117.248  0.00  0.00     0.091 C 
ENDROOT
BRANCH   1   7
ATOM      7  O   LIG d   1      -7.631  78.477 116.962  0.00  0.00    -0.368 OA
BRANCH   7   8
ATOM      8  C   LIG d   1      -7.871  79.328 118.110  0.00  0.00     0.119 C 
BRANCH   8   9
ATOM      9  C   LIG d   1      -9.337  79.798 118.039  0.00  0.00     0.028 C 
ATOM     10  C   LIG d   1      -9.979  79.930 119.430  0.00  0.00     0.006 C 
ENDBRANCH   8   9
BRANCH   8  11
ATOM     11  C   LIG d   1      -7.032  80.607 118.040  0.00  0.00     0.028 C 
ATOM     12  C   LIG d   1      -7.624  81.658 117.088  0.00  0.00     0.006 C 
ENDBRANCH   8  11
ENDBRANCH   7   8
ENDBRANCH   1   7
BRANCH   6  13
ATOM     13  N   LIG d   1      -8.379  76.033 118.559  0.00  0.00    -0.311 N 
ATOM     14  C   LIG d   1      -9.698  76.172 118.687  0.00  0.00     0.210 C 
ATOM     15  C   LIG d   1     -10.213  76.153 120.130  0.00  0.00     0.109 C 
ATOM     16  O   LIG d   1     -10.493  76.278 117.741  0.00  0.00    -0.276 OA
ATOM     17  H   LIG d   1      -7.813  75.921 119.378  0.00  0.00     0.149 HD
ENDBRANCH   6  13
BRANCH   5  18
ATOM     18  N   LIG d   1      -7.654  73.542 116.947  0.00  0.00     0.381 N 
ATOM     19  H   LIG d   1      -7.070  72.757 116.740  0.00  0.00    -0.090 HD
ATOM     20  H   LIG d   1      -8.324  73.641 116.204  0.00  0.00    -0.090 HD
ATOM     21  H   LIG d   1      -8.126  73.395 117.812  0.00  0.00    -0.090 HD
ENDBRANCH   5  18
BRANCH   3  22
ATOM     22  C   LIG d   1      -4.209  76.100 114.820  0.00  0.00     0.382 C 
ATOM     23  O   LIG d   1      -4.264  76.383 113.599  0.00  0.00    -0.241 OA
ATOM     24  O   LIG d   1      -3.117  75.779 115.327  0.00  0.00    -0.241 OA
ENDBRANCH   3  22
TORSDOF 7
ENDMDL
MODEL 8
REMARK VINA RESULT:      -5.4      4.106      6.402
REMARK  7 active torsions:
REMARK  status: ('A' for Active; 'I' for Inactive)
REMARK    1  A    between atoms: C_2  and  C_3 
REMARK    2  A    between atoms: C_3  and  O_6 
REMARK    3  A    between atoms: C_3  and  C_4 
REMARK    4  A    between atoms: C_7  and  O_6 
REMARK    5  A    between atoms: C_9  and  C_10 
REMARK    6  A    between atoms: N_15  and  C_14 
REMARK    7  A    between atoms: N_20  and  C_19 
REMARK       I    between atoms: C_22  and  N_20 
ROOT
ATOM      1  C   LIG d   1      -2.733  77.617 116.517  0.00  0.00     0.161 C 
ATOM      2  C   LIG d   1      -2.945  78.398 115.368  0.00  0.00     0.016 C 
ATOM      3  C   LIG d   1      -2.143  78.308 114.207  0.00  0.00     0.038 C 
ATOM      4  C   LIG d   1      -1.162  77.317 114.059  0.00  0.00     0.028 C 
ATOM      5  C   LIG d   1      -0.578  76.840 115.384  0.00  0.00    -0.047 C 
ATOM      6  C   LIG d   1      -1.736  76.454 116.332  0.00  0.00     0.091 C 
ENDROOT
BRANCH   1   7
ATOM      7  O   LIG d   1      -3.993  77.124 117.012  0.00  0.00    -0.368 OA
BRANCH   7   8
ATOM      8  C   LIG d   1      -5.095  77.132 116.071  0.00  0.00     0.119 C 
BRANCH   8   9
ATOM      9  C   LIG d   1      -6.346  77.618 116.828  0.00  0.00     0.028 C 
ATOM     10  C   LIG d   1      -7.118  76.464 117.489  0.00  0.00     0.006 C 
ENDBRANCH   8   9
BRANCH   8  11
ATOM     11  C   LIG d   1      -5.433  75.716 115.597  0.00  0.00     0.028 C 
ATOM     12  C   LIG d   1      -4.999  75.454 114.146  0.00  0.00     0.006 C 
ENDBRANCH   8  11
ENDBRANCH   7   8
ENDBRANCH   1   7
BRANCH   6  13
ATOM     13  N   LIG d   1      -1.256  76.055 117.681  0.00  0.00    -0.311 N 
ATOM     14  C   LIG d   1      -0.946  74.802 118.008  0.00  0.00     0.210 C 
ATOM     15  C   LIG d   1      -0.490  74.605 119.458  0.00  0.00     0.109 C 
ATOM     16  O   LIG d   1      -0.975  73.839 117.227  0.00  0.00    -0.276 OA
ATOM     17  H   LIG d   1      -1.173  76.779 118.368  0.00  0.00     0.149 HD
ENDBRANCH   6  13
BRANCH   5  18
ATOM     18  N   LIG d   1       0.330  75.714 115.092  0.00  0.00     0.381 N 
ATOM     19  H   LIG d   1       1.089  76.030 114.522  0.00  0.00    -0.090 HD
ATOM     20  H   LIG d   1      -0.177  75.012 114.581  0.00  0.00    -0.090 HD
ATOM     21  H   LIG d   1       0.680  75.329 115.942  0.00  0.00    -0.090 HD
ENDBRANCH   5  18
BRANCH   3  22
ATOM     22  C   LIG d   1      -2.294  79.242 113.194  0.00  0.00     0.382 C 
ATOM     23  O   LIG d   1      -1.664  79.108 112.117  0.00  0.00    -0.241 OA
ATOM     24  O   LIG d   1      -3.019  80.242 113.359  0.00  0.00    -0.241 OA
ENDBRANCH   3  22
TORSDOF 7
ENDMDL
MODEL 9
REMARK VINA RESULT:      -5.1      5.226      6.985
REMARK  7 active torsions:
REMARK  status: ('A' for Active; 'I' for Inactive)
REMARK    1  A    between atoms: C_2  and  C_3 
REMARK    2  A    between atoms: C_3  and  O_6 
REMARK    3  A    between atoms: C_3  and  C_4 
REMARK    4  A    between atoms: C_7  and  O_6 
REMARK    5  A    between atoms: C_9  and  C_10 
REMARK    6  A    between atoms: N_15  and  C_14 
REMARK    7  A    between atoms: N_20  and  C_19 
REMARK       I    between atoms: C_22  and  N_20 
ROOT
ATOM      1  C   LIG d   1      -2.607  77.239 116.920  0.00  0.00     0.161 C 
ATOM      2  C   LIG d   1      -3.590  76.459 116.288  0.00  0.00     0.016 C 
ATOM      3  C   LIG d   1      -3.854  76.513 114.900  0.00  0.00     0.038 C 
ATOM      4  C   LIG d   1      -3.044  77.246 114.020  0.00  0.00     0.028 C 
ATOM      5  C   LIG d   1      -2.361  78.440 114.678  0.00  0.00    -0.047 C 
ATOM      6  C   LIG d   1      -1.640  77.962 115.960  0.00  0.00     0.091 C 
ENDROOT
BRANCH   1   7
ATOM      7  O   LIG d   1      -1.870  76.431 117.859  0.00  0.00    -0.368 OA
BRANCH   7   8
ATOM      8  C   LIG d   1      -1.899  75.001 117.629  0.00  0.00     0.119 C 
BRANCH   8   9
ATOM      9  C   LIG d   1      -2.053  74.315 119.000  0.00  0.00     0.028 C 
ATOM     10  C   LIG d   1      -0.721  73.757 119.530  0.00  0.00     0.006 C 
ENDBRANCH   8   9
BRANCH   8  11
ATOM     11  C   LIG d   1      -0.564  74.499 117.072  0.00  0.00     0.028 C 
ATOM     12  C   LIG d   1      -0.568  74.369 115.540  0.00  0.00     0.006 C 
ENDBRANCH   8  11
ENDBRANCH   7   8
ENDBRANCH   1   7
BRANCH   6  13
ATOM     13  N   LIG d   1      -1.015  79.083 116.710  0.00  0.00    -0.311 N 
ATOM     14  C   LIG d   1       0.258  79.085 117.099  0.00  0.00     0.210 C 
ATOM     15  C   LIG d   1       0.695  80.329 117.878  0.00  0.00     0.109 C 
ATOM     16  O   LIG d   1       1.076  78.188 116.846  0.00  0.00    -0.276 OA
ATOM     17  H   LIG d   1      -1.600  79.866 116.931  0.00  0.00     0.149 HD
ENDBRANCH   6  13
BRANCH   5  18
ATOM     18  N   LIG d   1      -1.443  79.032 113.686  0.00  0.00     0.381 N 
ATOM     19  H   LIG d   1      -1.967  79.392 112.913  0.00  0.00    -0.090 HD
ATOM     20  H   LIG d   1      -0.829  78.314 113.343  0.00  0.00    -0.090 HD
ATOM     21  H   LIG d   1      -0.911  79.762 114.105  0.00  0.00    -0.090 HD
ENDBRANCH   5  18
BRANCH   3  22
ATOM     22  C   LIG d   1      -4.963  75.859 114.386  0.00  0.00     0.382 C 
ATOM     23  O   LIG d   1      -4.813  74.843 113.665  0.00  0.00    -0.241 OA
ATOM     24  O   LIG d   1      -6.109  76.299 114.596  0.00  0.00    -0.241 OA
ENDBRANCH   3  22
TORSDOF 7
ENDMDL
