MODEL 1
REMARK VINA RESULT:      -5.9      0.000      0.000
REMARK  7 active torsions:
REMARK  status: ('A' for Active; 'I' for Inactive)
REMARK    1  A    between atoms: C_2  and  C_3 
REMARK    2  A    between atoms: C_3  and  O_6 
REMARK    3  A    between atoms: C_3  and  C_4 
REMARK    4  A    between atoms: C_7  and  O_6 
REMARK    5  A    between atoms: C_9  and  C_10 
REMARK    6  A    between atoms: N_15  and  C_14 
REMARK    7  A    between atoms: N_20  and  C_19 
REMARK       I    between atoms: C_22  and  N_20 
ROOT
ATOM      1  C   LIG d   1      -8.179  75.458 118.249  0.00  0.00     0.161 C 
ATOM      2  C   LIG d   1      -9.437  75.872 118.715  0.00  0.00     0.016 C 
ATOM      3  C   LIG d   1      -9.804  77.230 118.865  0.00  0.00     0.038 C 
ATOM      4  C   LIG d   1      -8.983  78.273 118.412  0.00  0.00     0.028 C 
ATOM      5  C   LIG d   1      -7.501  77.917 118.401  0.00  0.00    -0.047 C 
ATOM      6  C   LIG d   1      -7.311  76.582 117.645  0.00  0.00     0.091 C 
ENDROOT
BRANCH   1   7
ATOM      7  O   LIG d   1      -8.338  74.384 117.301  0.00  0.00    -0.368 OA
BRANCH   7   8
ATOM      8  C   LIG d   1      -8.392  73.047 117.856  0.00  0.00     0.119 C 
BRANCH   8   9
ATOM      9  C   LIG d   1      -7.445  72.162 117.023  0.00  0.00     0.028 C 
ATOM     10  C   LIG d   1      -6.483  72.988 116.152  0.00  0.00     0.006 C 
ENDBRANCH   8   9
BRANCH   8  11
ATOM     11  C   LIG d   1      -9.782  72.428 117.684  0.00  0.00     0.028 C 
ATOM     12  C   LIG d   1      -9.748  70.892 117.630  0.00  0.00     0.006 C 
ENDBRANCH   8  11
ENDBRANCH   7   8
ENDBRANCH   1   7
BRANCH   6  13
ATOM     13  N   LIG d   1      -5.899  76.118 117.659  0.00  0.00    -0.311 N 
ATOM     14  C   LIG d   1      -5.024  76.402 116.697  0.00  0.00     0.210 C 
ATOM     15  C   LIG d   1      -3.626  75.808 116.898  0.00  0.00     0.109 C 
ATOM     16  O   LIG d   1      -5.263  77.116 115.711  0.00  0.00    -0.276 OA
ATOM     17  H   LIG d   1      -5.611  75.558 118.438  0.00  0.00     0.149 HD
ENDBRANCH   6  13
BRANCH   5  18
ATOM     18  N   LIG d   1      -6.777  79.042 117.778  0.00  0.00     0.381 N 
ATOM     19  H   LIG d   1      -7.422  79.767 117.535  0.00  0.00    -0.090 HD
ATOM     20  H   LIG d   1      -6.334  78.718 116.936  0.00  0.00    -0.090 HD
ATOM     21  H   LIG d   1      -6.090  79.395 118.408  0.00  0.00    -0.090 HD
ENDBRANCH   5  18
BRANCH   3  22
ATOM     22  C   LIG d   1     -10.987  77.555 119.511  0.00  0.00     0.382 C 
ATOM     23  O   LIG d   1     -12.034  76.910 119.263  0.00  0.00    -0.241 OA
ATOM     24  O   LIG d   1     -11.030  78.514 120.305  0.00  0.00    -0.241 OA
ENDBRANCH   3  22
TORSDOF 7
ENDMDL
MODEL 2
REMARK VINA RESULT:      -5.6      1.718      4.539
REMARK  7 active torsions:
REMARK  status: ('A' for Active; 'I' for Inactive)
REMARK    1  A    between atoms: C_2  and  C_3 
REMARK    2  A    between atoms: C_3  and  O_6 
REMARK    3  A    between atoms: C_3  and  C_4 
REMARK    4  A    between atoms: C_7  and  O_6 
REMARK    5  A    between atoms: C_9  and  C_10 
REMARK    6  A    between atoms: N_15  and  C_14 
REMARK    7  A    between atoms: N_20  and  C_19 
REMARK       I    between atoms: C_22  and  N_20 
ROOT
ATOM      1  C   LIG d   1      -8.279  75.482 116.568  0.00  0.00     0.161 C 
ATOM      2  C   LIG d   1      -7.467  75.487 115.422  0.00  0.00     0.016 C 
ATOM      3  C   LIG d   1      -6.092  75.817 115.443  0.00  0.00     0.038 C 
ATOM      4  C   LIG d   1      -5.397  76.021 116.645  0.00  0.00     0.028 C 
ATOM      5  C   LIG d   1      -6.283  76.521 117.780  0.00  0.00    -0.047 C 
ATOM      6  C   LIG d   1      -7.513  75.592 117.903  0.00  0.00     0.091 C 
ENDROOT
BRANCH   1   7
ATOM      7  O   LIG d   1      -9.118  74.310 116.567  0.00  0.00    -0.368 OA
BRANCH   7   8
ATOM      8  C   LIG d   1      -8.646  73.188 117.353  0.00  0.00     0.119 C 
BRANCH   8   9
ATOM      9  C   LIG d   1      -7.988  72.188 116.382  0.00  0.00     0.028 C 
ATOM     10  C   LIG d   1      -6.454  72.182 116.497  0.00  0.00     0.006 C 
ENDBRANCH   8   9
BRANCH   8  11
ATOM     11  C   LIG d   1      -9.811  72.426 117.992  0.00  0.00     0.028 C 
ATOM     12  C   LIG d   1      -9.786  70.922 117.673  0.00  0.00     0.006 C 
ENDBRANCH   8  11
ENDBRANCH   7   8
ENDBRANCH   1   7
BRANCH   6  13
ATOM     13  N   LIG d   1      -8.475  76.059 118.936  0.00  0.00    -0.311 N 
ATOM     14  C   LIG d   1      -8.954  77.301 118.983  0.00  0.00     0.210 C 
ATOM     15  C   LIG d   1      -9.918  77.578 120.141  0.00  0.00     0.109 C 
ATOM     16  O   LIG d   1      -8.698  78.190 118.158  0.00  0.00    -0.276 OA
ATOM     17  H   LIG d   1      -8.761  75.393 119.627  0.00  0.00     0.149 HD
ENDBRANCH   6  13
BRANCH   5  18
ATOM     18  N   LIG d   1      -5.461  76.557 119.004  0.00  0.00     0.381 N 
ATOM     19  H   LIG d   1      -5.363  75.633 119.374  0.00  0.00    -0.090 HD
ATOM     20  H   LIG d   1      -5.927  77.124 119.692  0.00  0.00    -0.090 HD
ATOM     21  H   LIG d   1      -4.564  76.939 118.801  0.00  0.00    -0.090 HD
ENDBRANCH   5  18
BRANCH   3  22
ATOM     22  C   LIG d   1      -5.408  75.987 114.249  0.00  0.00     0.382 C 
ATOM     23  O   LIG d   1      -6.007  76.433 113.241  0.00  0.00    -0.241 OA
ATOM     24  O   LIG d   1      -4.210  75.659 114.156  0.00  0.00    -0.241 OA
ENDBRANCH   3  22
TORSDOF 7
ENDMDL
MODEL 3
REMARK VINA RESULT:      -5.6      2.303      4.605
REMARK  7 active torsions:
REMARK  status: ('A' for Active; 'I' for Inactive)
REMARK    1  A    between atoms: C_2  and  C_3 
REMARK    2  A    between atoms: C_3  and  O_6 
REMARK    3  A    between atoms: C_3  and  C_4 
REMARK    4  A    between atoms: C_7  and  O_6 
REMARK    5  A    between atoms: C_9  and  C_10 
REMARK    6  A    between atoms: N_15  and  C_14 
REMARK    7  A    between atoms: N_20  and  C_19 
REMARK       I    between atoms: C_22  and  N_20 
ROOT
ATOM      1  C   LIG d   1      -7.291  74.911 117.950  0.00  0.00     0.161 C 
ATOM      2  C   LIG d   1      -7.686  73.637 117.508  0.00  0.00     0.016 C 
ATOM      3  C   LIG d   1      -9.037  73.233 117.406  0.00  0.00     0.038 C 
ATOM      4  C   LIG d   1     -10.096  74.132 117.596  0.00  0.00     0.028 C 
ATOM      5  C   LIG d   1      -9.751  75.286 118.531  0.00  0.00    -0.047 C 
ATOM      6  C   LIG d   1      -8.435  75.942 118.055  0.00  0.00     0.091 C 
ENDROOT
BRANCH   1   7
ATOM      7  O   LIG d   1      -6.238  75.416 117.106  0.00  0.00    -0.368 OA
BRANCH   7   8
ATOM      8  C   LIG d   1      -5.559  74.439 116.280  0.00  0.00     0.119 C 
BRANCH   8   9
ATOM      9  C   LIG d   1      -4.074  74.437 116.691  0.00  0.00     0.028 C 
ATOM     10  C   LIG d   1      -3.172  75.100 115.637  0.00  0.00     0.006 C 
ENDBRANCH   8   9
BRANCH   8  11
ATOM     11  C   LIG d   1      -5.570  74.851 114.805  0.00  0.00     0.028 C 
ATOM     12  C   LIG d   1      -6.683  75.859 114.477  0.00  0.00     0.006 C 
ENDBRANCH   8  11
ENDBRANCH   7   8
ENDBRANCH   1   7
BRANCH   6  13
ATOM     13  N   LIG d   1      -7.981  77.026 118.964  0.00  0.00    -0.311 N 
ATOM     14  C   LIG d   1      -7.490  78.187 118.532  0.00  0.00     0.210 C 
ATOM     15  C   LIG d   1      -7.062  79.159 119.636  0.00  0.00     0.109 C 
ATOM     16  O   LIG d   1      -7.399  78.517 117.340  0.00  0.00    -0.276 OA
ATOM     17  H   LIG d   1      -8.049  76.855 119.948  0.00  0.00     0.149 HD
ENDBRANCH   6  13
BRANCH   5  18
ATOM     18  N   LIG d   1     -10.895  76.217 118.530  0.00  0.00     0.381 N 
ATOM     19  H   LIG d   1     -11.709  75.754 118.881  0.00  0.00    -0.090 HD
ATOM     20  H   LIG d   1     -11.079  76.506 117.585  0.00  0.00    -0.090 HD
ATOM     21  H   LIG d   1     -10.687  77.013 119.094  0.00  0.00    -0.090 HD
ENDBRANCH   5  18
BRANCH   3  22
ATOM     22  C   LIG d   1      -9.339  71.904 117.149  0.00  0.00     0.382 C 
ATOM     23  O   LIG d   1     -10.190  71.307 117.852  0.00  0.00    -0.241 OA
ATOM     24  O   LIG d   1      -8.738  71.281 116.253  0.00  0.00    -0.241 OA
ENDBRANCH   3  22
TORSDOF 7
ENDMDL
MODEL 4
REMARK VINA RESULT:      -5.6      2.103      5.075
REMARK  7 active torsions:
REMARK  status: ('A' for Active; 'I' for Inactive)
REMARK    1  A    between atoms: C_2  and  C_3 
REMARK    2  A    between atoms: C_3  and  O_6 
REMARK    3  A    between atoms: C_3  and  C_4 
REMARK    4  A    between atoms: C_7  and  O_6 
REMARK    5  A    between atoms: C_9  and  C_10 
REMARK    6  A    between atoms: N_15  and  C_14 
REMARK    7  A    between atoms: N_20  and  C_19 
REMARK       I    between atoms: C_22  and  N_20 
ROOT
ATOM      1  C   LIG d   1      -7.251  76.008 116.766  0.00  0.00     0.161 C 
ATOM      2  C   LIG d   1      -6.228  75.486 115.958  0.00  0.00     0.016 C 
ATOM      3  C   LIG d   1      -4.997  76.147 115.738  0.00  0.00     0.038 C 
ATOM      4  C   LIG d   1      -4.645  77.311 116.437  0.00  0.00     0.028 C 
ATOM      5  C   LIG d   1      -5.847  78.139 116.877  0.00  0.00    -0.047 C 
ATOM      6  C   LIG d   1      -6.842  77.222 117.625  0.00  0.00     0.091 C 
ENDROOT
BRANCH   1   7
ATOM      7  O   LIG d   1      -7.795  74.965 117.599  0.00  0.00    -0.368 OA
BRANCH   7   8
ATOM      8  C   LIG d   1      -8.889  74.202 117.033  0.00  0.00     0.119 C 
BRANCH   8   9
ATOM      9  C   LIG d   1     -10.172  75.041 117.196  0.00  0.00     0.028 C 
ATOM     10  C   LIG d   1     -10.442  75.421 118.661  0.00  0.00     0.006 C 
ENDBRANCH   8   9
BRANCH   8  11
ATOM     11  C   LIG d   1      -9.142  72.917 117.827  0.00  0.00     0.028 C 
ATOM     12  C   LIG d   1      -9.745  71.795 116.968  0.00  0.00     0.006 C 
ENDBRANCH   8  11
ENDBRANCH   7   8
ENDBRANCH   1   7
BRANCH   6  13
ATOM     13  N   LIG d   1      -8.086  77.936 118.017  0.00  0.00    -0.311 N 
ATOM     14  C   LIG d   1      -8.262  78.500 119.210  0.00  0.00     0.210 C 
ATOM     15  C   LIG d   1      -9.626  79.167 119.415  0.00  0.00     0.109 C 
ATOM     16  O   LIG d   1      -7.406  78.539 120.107  0.00  0.00    -0.276 OA
ATOM     17  H   LIG d   1      -8.820  77.979 117.338  0.00  0.00     0.149 HD
ENDBRANCH   6  13
BRANCH   5  18
ATOM     18  N   LIG d   1      -5.343  79.247 117.711  0.00  0.00     0.381 N 
ATOM     19  H   LIG d   1      -5.790  80.102 117.446  0.00  0.00    -0.090 HD
ATOM     20  H   LIG d   1      -4.355  79.347 117.557  0.00  0.00    -0.090 HD
ATOM     21  H   LIG d   1      -5.519  79.057 118.673  0.00  0.00    -0.090 HD
ENDBRANCH   5  18
BRANCH   3  22
ATOM     22  C   LIG d   1      -4.119  75.664 114.779  0.00  0.00     0.382 C 
ATOM     23  O   LIG d   1      -3.864  76.350 113.760  0.00  0.00    -0.241 OA
ATOM     24  O   LIG d   1      -3.614  74.531 114.898  0.00  0.00    -0.241 OA
ENDBRANCH   3  22
TORSDOF 7
ENDMDL
MODEL 5
REMARK VINA RESULT:      -5.6      1.921      5.058
REMARK  7 active torsions:
REMARK  status: ('A' for Active; 'I' for Inactive)
REMARK    1  A    between atoms: C_2  and  C_3 
REMARK    2  A    between atoms: C_3  and  O_6 
REMARK    3  A    between atoms: C_3  and  C_4 
REMARK    4  A    between atoms: C_7  and  O_6 
REMARK    5  A    between atoms: C_9  and  C_10 
REMARK    6  A    between atoms: N_15  and  C_14 
REMARK    7  A    between atoms: N_20  and  C_19 
REMARK       I    between atoms: C_22  and  N_20 
ROOT
ATOM      1  C   LIG d   1      -7.126  75.758 116.740  0.00  0.00     0.161 C 
ATOM      2  C   LIG d   1      -6.081  75.512 115.834  0.00  0.00     0.016 C 
ATOM      3  C   LIG d   1      -5.011  76.410 115.617  0.00  0.00     0.038 C 
ATOM      4  C   LIG d   1      -4.832  77.555 116.408  0.00  0.00     0.028 C 
ATOM      5  C   LIG d   1      -6.133  78.099 116.988  0.00  0.00    -0.047 C 
ATOM      6  C   LIG d   1      -6.889  76.949 117.692  0.00  0.00     0.091 C 
ENDROOT
BRANCH   1   7
ATOM      7  O   LIG d   1      -7.410  74.563 117.494  0.00  0.00    -0.368 OA
BRANCH   7   8
ATOM      8  C   LIG d   1      -8.281  73.598 116.854  0.00  0.00     0.119 C 
BRANCH   8   9
ATOM      9  C   LIG d   1      -9.655  73.683 117.547  0.00  0.00     0.028 C 
ATOM     10  C   LIG d   1     -10.517  74.834 117.001  0.00  0.00     0.006 C 
ENDBRANCH   8   9
BRANCH   8  11
ATOM     11  C   LIG d   1      -7.795  72.165 117.091  0.00  0.00     0.028 C 
ATOM     12  C   LIG d   1      -6.612  71.780 116.189  0.00  0.00     0.006 C 
ENDBRANCH   8  11
ENDBRANCH   7   8
ENDBRANCH   1   7
BRANCH   6  13
ATOM     13  N   LIG d   1      -8.213  77.377 118.214  0.00  0.00    -0.311 N 
ATOM     14  C   LIG d   1      -8.672  77.034 119.416  0.00  0.00     0.210 C 
ATOM     15  C   LIG d   1     -10.069  77.566 119.751  0.00  0.00     0.109 C 
ATOM     16  O   LIG d   1      -8.042  76.366 120.250  0.00  0.00    -0.276 OA
ATOM     17  H   LIG d   1      -8.777  77.948 117.615  0.00  0.00     0.149 HD
ENDBRANCH   6  13
BRANCH   5  18
ATOM     18  N   LIG d   1      -5.785  79.206 117.900  0.00  0.00     0.381 N 
ATOM     19  H   LIG d   1      -5.057  79.761 117.497  0.00  0.00    -0.090 HD
ATOM     20  H   LIG d   1      -5.447  78.821 118.764  0.00  0.00    -0.090 HD
ATOM     21  H   LIG d   1      -6.587  79.771 118.071  0.00  0.00    -0.090 HD
ENDBRANCH   5  18
BRANCH   3  22
ATOM     22  C   LIG d   1      -4.127  76.187 114.572  0.00  0.00     0.382 C 
ATOM     23  O   LIG d   1      -4.212  76.869 113.523  0.00  0.00    -0.241 OA
ATOM     24  O   LIG d   1      -3.274  75.282 114.648  0.00  0.00    -0.241 OA
ENDBRANCH   3  22
TORSDOF 7
ENDMDL
MODEL 6
REMARK VINA RESULT:      -5.4      2.369      4.092
REMARK  7 active torsions:
REMARK  status: ('A' for Active; 'I' for Inactive)
REMARK    1  A    between atoms: C_2  and  C_3 
REMARK    2  A    between atoms: C_3  and  O_6 
REMARK    3  A    between atoms: C_3  and  C_4 
REMARK    4  A    between atoms: C_7  and  O_6 
REMARK    5  A    between atoms: C_9  and  C_10 
REMARK    6  A    between atoms: N_15  and  C_14 
REMARK    7  A    between atoms: N_20  and  C_19 
REMARK       I    between atoms: C_22  and  N_20 
ROOT
ATOM      1  C   LIG d   1      -7.775  76.322 117.453  0.00  0.00     0.161 C 
ATOM      2  C   LIG d   1      -7.448  77.674 117.653  0.00  0.00     0.016 C 
ATOM      3  C   LIG d   1      -8.267  78.576 118.370  0.00  0.00     0.038 C 
ATOM      4  C   LIG d   1      -9.405  78.147 119.071  0.00  0.00     0.028 C 
ATOM      5  C   LIG d   1     -10.044  76.895 118.479  0.00  0.00    -0.047 C 
ATOM      6  C   LIG d   1      -8.957  75.811 118.304  0.00  0.00     0.091 C 
ENDROOT
BRANCH   1   7
ATOM      7  O   LIG d   1      -6.611  75.501 117.668  0.00  0.00    -0.368 OA
BRANCH   7   8
ATOM      8  C   LIG d   1      -5.860  75.138 116.483  0.00  0.00     0.119 C 
BRANCH   8   9
ATOM      9  C   LIG d   1      -6.842  75.134 115.295  0.00  0.00     0.028 C 
ATOM     10  C   LIG d   1      -6.316  75.939 114.096  0.00  0.00     0.006 C 
ENDBRANCH   8   9
BRANCH   8  11
ATOM     11  C   LIG d   1      -5.331  73.704 116.576  0.00  0.00     0.028 C 
ATOM     12  C   LIG d   1      -6.251  72.683 115.888  0.00  0.00     0.006 C 
ENDBRANCH   8  11
ENDBRANCH   7   8
ENDBRANCH   1   7
BRANCH   6  13
ATOM     13  N   LIG d   1      -9.481  74.582 117.653  0.00  0.00    -0.311 N 
ATOM     14  C   LIG d   1      -9.089  73.353 117.983  0.00  0.00     0.210 C 
ATOM     15  C   LIG d   1      -9.740  72.227 117.174  0.00  0.00     0.109 C 
ATOM     16  O   LIG d   1      -8.288  73.086 118.892  0.00  0.00    -0.276 OA
ATOM     17  H   LIG d   1     -10.159  74.705 116.926  0.00  0.00     0.149 HD
ENDBRANCH   6  13
BRANCH   5  18
ATOM     18  N   LIG d   1     -11.133  76.481 119.385  0.00  0.00     0.381 N 
ATOM     19  H   LIG d   1     -11.253  77.165 120.105  0.00  0.00    -0.090 HD
ATOM     20  H   LIG d   1     -10.883  75.609 119.816  0.00  0.00    -0.090 HD
ATOM     21  H   LIG d   1     -11.981  76.375 118.872  0.00  0.00    -0.090 HD
ENDBRANCH   5  18
BRANCH   3  22
ATOM     22  C   LIG d   1      -7.973  79.930 118.359  0.00  0.00     0.382 C 
ATOM     23  O   LIG d   1      -6.818  80.318 118.056  0.00  0.00    -0.241 OA
ATOM     24  O   LIG d   1      -8.834  80.767 118.690  0.00  0.00    -0.241 OA
ENDBRANCH   3  22
TORSDOF 7
ENDMDL
MODEL 7
REMARK VINA RESULT:      -5.3      1.641      2.122
REMARK  7 active torsions:
REMARK  status: ('A' for Active; 'I' for Inactive)
REMARK    1  A    between atoms: C_2  and  C_3 
REMARK    2  A    between atoms: C_3  and  O_6 
REMARK    3  A    between atoms: C_3  and  C_4 
REMARK    4  A    between atoms: C_7  and  O_6 
REMARK    5  A    between atoms: C_9  and  C_10 
REMARK    6  A    between atoms: N_15  and  C_14 
REMARK    7  A    between atoms: N_20  and  C_19 
REMARK       I    between atoms: C_22  and  N_20 
ROOT
ATOM      1  C   LIG d   1      -7.322  77.036 117.859  0.00  0.00     0.161 C 
ATOM      2  C   LIG d   1      -8.406  77.785 118.346  0.00  0.00     0.016 C 
ATOM      3  C   LIG d   1      -8.386  79.193 118.471  0.00  0.00     0.038 C 
ATOM      4  C   LIG d   1      -7.327  79.966 117.972  0.00  0.00     0.028 C 
ATOM      5  C   LIG d   1      -5.998  79.220 117.933  0.00  0.00    -0.047 C 
ATOM      6  C   LIG d   1      -6.201  77.871 117.206  0.00  0.00     0.091 C 
ENDROOT
BRANCH   1   7
ATOM      7  O   LIG d   1      -7.796  76.030 116.942  0.00  0.00    -0.368 OA
BRANCH   7   8
ATOM      8  C   LIG d   1      -8.163  74.757 117.527  0.00  0.00     0.119 C 
BRANCH   8   9
ATOM      9  C   LIG d   1      -7.139  73.712 117.043  0.00  0.00     0.028 C 
ATOM     10  C   LIG d   1      -6.458  74.124 115.727  0.00  0.00     0.006 C 
ENDBRANCH   8   9
BRANCH   8  11
ATOM     11  C   LIG d   1      -9.517  74.271 117.000  0.00  0.00     0.028 C 
ATOM     12  C   LIG d   1      -9.840  72.830 117.426  0.00  0.00     0.006 C 
ENDBRANCH   8  11
ENDBRANCH   7   8
ENDBRANCH   1   7
BRANCH   6  13
ATOM     13  N   LIG d   1      -4.968  77.041 117.198  0.00  0.00    -0.311 N 
ATOM     14  C   LIG d   1      -4.100  77.028 116.188  0.00  0.00     0.210 C 
ATOM     15  C   LIG d   1      -2.906  76.086 116.374  0.00  0.00     0.109 C 
ATOM     16  O   LIG d   1      -4.188  77.731 115.170  0.00  0.00    -0.276 OA
ATOM     17  H   LIG d   1      -4.802  76.463 117.998  0.00  0.00     0.149 HD
ENDBRANCH   6  13
BRANCH   5  18
ATOM     18  N   LIG d   1      -5.015  80.095 117.266  0.00  0.00     0.381 N 
ATOM     19  H   LIG d   1      -4.534  80.646 117.948  0.00  0.00    -0.090 HD
ATOM     20  H   LIG d   1      -5.502  80.716 116.644  0.00  0.00    -0.090 HD
ATOM     21  H   LIG d   1      -4.362  79.544 116.753  0.00  0.00    -0.090 HD
ENDBRANCH   5  18
BRANCH   3  22
ATOM     22  C   LIG d   1      -9.416  79.839 119.137  0.00  0.00     0.382 C 
ATOM     23  O   LIG d   1      -9.155  80.681 120.030  0.00  0.00    -0.241 OA
ATOM     24  O   LIG d   1     -10.604  79.557 118.889  0.00  0.00    -0.241 OA
ENDBRANCH   3  22
TORSDOF 7
ENDMDL
MODEL 8
REMARK VINA RESULT:      -5.3      2.251      4.301
REMARK  7 active torsions:
REMARK  status: ('A' for Active; 'I' for Inactive)
REMARK    1  A    between atoms: C_2  and  C_3 
REMARK    2  A    between atoms: C_3  and  O_6 
REMARK    3  A    between atoms: C_3  and  C_4 
REMARK    4  A    between atoms: C_7  and  O_6 
REMARK    5  A    between atoms: C_9  and  C_10 
REMARK    6  A    between atoms: N_15  and  C_14 
REMARK    7  A    between atoms: N_20  and  C_19 
REMARK       I    between atoms: C_22  and  N_20 
ROOT
ATOM      1  C   LIG d   1      -7.530  76.870 117.858  0.00  0.00     0.161 C 
ATOM      2  C   LIG d   1      -7.321  78.253 117.991  0.00  0.00     0.016 C 
ATOM      3  C   LIG d   1      -6.212  78.929 117.432  0.00  0.00     0.038 C 
ATOM      4  C   LIG d   1      -5.312  78.289 116.567  0.00  0.00     0.028 C 
ATOM      5  C   LIG d   1      -5.200  76.788 116.812  0.00  0.00    -0.047 C 
ATOM      6  C   LIG d   1      -6.619  76.175 116.825  0.00  0.00     0.091 C 
ENDROOT
BRANCH   1   7
ATOM      7  O   LIG d   1      -8.916  76.613 117.556  0.00  0.00    -0.368 OA
BRANCH   7   8
ATOM      8  C   LIG d   1      -9.681  75.947 118.592  0.00  0.00     0.119 C 
BRANCH   8   9
ATOM      9  C   LIG d   1      -9.952  74.508 118.114  0.00  0.00     0.028 C 
ATOM     10  C   LIG d   1     -10.232  74.434 116.603  0.00  0.00     0.006 C 
ENDBRANCH   8   9
BRANCH   8  11
ATOM     11  C   LIG d   1     -11.063  76.585 118.761  0.00  0.00     0.028 C 
ATOM     12  C   LIG d   1     -11.092  77.663 119.856  0.00  0.00     0.006 C 
ENDBRANCH   8  11
ENDBRANCH   7   8
ENDBRANCH   1   7
BRANCH   6  13
ATOM     13  N   LIG d   1      -6.606  74.723 117.142  0.00  0.00    -0.311 N 
ATOM     14  C   LIG d   1      -6.422  73.774 116.226  0.00  0.00     0.210 C 
ATOM     15  C   LIG d   1      -6.464  72.340 116.763  0.00  0.00     0.109 C 
ATOM     16  O   LIG d   1      -6.195  73.984 115.025  0.00  0.00    -0.276 OA
ATOM     17  H   LIG d   1      -6.751  74.464 118.099  0.00  0.00     0.149 HD
ENDBRANCH   6  13
BRANCH   5  18
ATOM     18  N   LIG d   1      -4.337  76.227 115.756  0.00  0.00     0.381 N 
ATOM     19  H   LIG d   1      -4.507  76.702 114.892  0.00  0.00    -0.090 HD
ATOM     20  H   LIG d   1      -4.565  75.256 115.631  0.00  0.00    -0.090 HD
ATOM     21  H   LIG d   1      -3.379  76.321 116.012  0.00  0.00    -0.090 HD
ENDBRANCH   5  18
BRANCH   3  22
ATOM     22  C   LIG d   1      -5.974  80.253 117.769  0.00  0.00     0.382 C 
ATOM     23  O   LIG d   1      -5.144  80.531 118.668  0.00  0.00    -0.241 OA
ATOM     24  O   LIG d   1      -6.610  81.170 117.215  0.00  0.00    -0.241 OA
ENDBRANCH   3  22
TORSDOF 7
ENDMDL
MODEL 9
REMARK VINA RESULT:      -5.2     16.125     18.306
REMARK  7 active torsions:
REMARK  status: ('A' for Active; 'I' for Inactive)
REMARK    1  A    between atoms: C_2  and  C_3 
REMARK    2  A    between atoms: C_3  and  O_6 
REMARK    3  A    between atoms: C_3  and  C_4 
REMARK    4  A    between atoms: C_7  and  O_6 
REMARK    5  A    between atoms: C_9  and  C_10 
REMARK    6  A    between atoms: N_15  and  C_14 
REMARK    7  A    between atoms: N_20  and  C_19 
REMARK       I    between atoms: C_22  and  N_20 
ROOT
ATOM      1  C   LIG d   1      -6.159  93.163 119.565  0.00  0.00     0.161 C 
ATOM      2  C   LIG d   1      -7.456  93.660 119.353  0.00  0.00     0.016 C 
ATOM      3  C   LIG d   1      -7.735  95.023 119.103  0.00  0.00     0.038 C 
ATOM      4  C   LIG d   1      -6.715  95.963 118.896  0.00  0.00     0.028 C 
ATOM      5  C   LIG d   1      -5.410  95.606 119.599  0.00  0.00    -0.047 C 
ATOM      6  C   LIG d   1      -5.024  94.154 119.233  0.00  0.00     0.091 C 
ENDROOT
BRANCH   1   7
ATOM      7  O   LIG d   1      -5.981  91.934 118.833  0.00  0.00    -0.368 OA
BRANCH   7   8
ATOM      8  C   LIG d   1      -5.687  92.070 117.421  0.00  0.00     0.119 C 
BRANCH   8   9
ATOM      9  C   LIG d   1      -6.826  91.385 116.643  0.00  0.00     0.028 C 
ATOM     10  C   LIG d   1      -7.392  92.276 115.524  0.00  0.00     0.006 C 
ENDBRANCH   8   9
BRANCH   8  11
ATOM     11  C   LIG d   1      -4.417  91.303 117.040  0.00  0.00     0.028 C 
ATOM     12  C   LIG d   1      -3.881  90.431 118.187  0.00  0.00     0.006 C 
ENDBRANCH   8  11
ENDBRANCH   7   8
ENDBRANCH   1   7
BRANCH   6  13
ATOM     13  N   LIG d   1      -3.803  93.696 119.946  0.00  0.00    -0.311 N 
ATOM     14  C   LIG d   1      -2.587  93.715 119.404  0.00  0.00     0.210 C 
ATOM     15  C   LIG d   1      -1.469  93.178 120.303  0.00  0.00     0.109 C 
ATOM     16  O   LIG d   1      -2.323  94.154 118.274  0.00  0.00    -0.276 OA
ATOM     17  H   LIG d   1      -3.922  93.352 120.879  0.00  0.00     0.149 HD
ENDBRANCH   6  13
BRANCH   5  18
ATOM     18  N   LIG d   1      -4.396  96.595 119.187  0.00  0.00     0.381 N 
ATOM     19  H   LIG d   1      -4.847  97.410 118.823  0.00  0.00    -0.090 HD
ATOM     20  H   LIG d   1      -3.830  96.196 118.459  0.00  0.00    -0.090 HD
ATOM     21  H   LIG d   1      -3.825  96.842 119.965  0.00  0.00    -0.090 HD
ENDBRANCH   5  18
BRANCH   3  22
ATOM     22  C   LIG d   1      -9.050  95.465 119.096  0.00  0.00     0.382 C 
ATOM     23  O   LIG d   1      -9.297  96.695 119.068  0.00  0.00    -0.241 OA
ATOM     24  O   LIG d   1      -9.990  94.651 119.163  0.00  0.00    -0.241 OA
ENDBRANCH   3  22
TORSDOF 7
ENDMDL
