MODEL 1
REMARK VINA RESULT:      -5.7      0.000      0.000
REMARK  7 active torsions:
REMARK  status: ('A' for Active; 'I' for Inactive)
REMARK    1  A    between atoms: C_2  and  C_3 
REMARK    2  A    between atoms: C_3  and  O_6 
REMARK    3  A    between atoms: C_3  and  C_4 
REMARK    4  A    between atoms: C_7  and  O_6 
REMARK    5  A    between atoms: C_9  and  C_10 
REMARK    6  A    between atoms: N_15  and  C_14 
REMARK    7  A    between atoms: N_20  and  C_19 
REMARK       I    between atoms: C_22  and  N_20 
ROOT
ATOM      1  C   LIG d   1      -4.318  89.840 117.059  0.00  0.00     0.161 C 
ATOM      2  C   LIG d   1      -3.800  88.923 116.130  0.00  0.00     0.016 C 
ATOM      3  C   LIG d   1      -4.518  88.471 114.999  0.00  0.00     0.038 C 
ATOM      4  C   LIG d   1      -5.755  89.024 114.637  0.00  0.00     0.028 C 
ATOM      5  C   LIG d   1      -6.538  89.584 115.820  0.00  0.00    -0.047 C 
ATOM      6  C   LIG d   1      -5.622  90.538 116.620  0.00  0.00     0.091 C 
ENDROOT
BRANCH   1   7
ATOM      7  O   LIG d   1      -3.314  90.819 117.392  0.00  0.00    -0.368 OA
BRANCH   7   8
ATOM      8  C   LIG d   1      -2.843  90.808 118.763  0.00  0.00     0.119 C 
BRANCH   8   9
ATOM      9  C   LIG d   1      -2.324  92.223 119.085  0.00  0.00     0.028 C 
ATOM     10  C   LIG d   1      -2.462  93.184 117.892  0.00  0.00     0.006 C 
ENDBRANCH   8   9
BRANCH   8  11
ATOM     11  C   LIG d   1      -1.633  89.884 118.930  0.00  0.00     0.028 C 
ATOM     12  C   LIG d   1      -0.633  89.997 117.768  0.00  0.00     0.006 C 
ENDBRANCH   8  11
ENDBRANCH   7   8
ENDBRANCH   1   7
BRANCH   6  13
ATOM     13  N   LIG d   1      -6.283  91.065 117.843  0.00  0.00    -0.311 N 
ATOM     14  C   LIG d   1      -6.273  92.353 118.185  0.00  0.00     0.210 C 
ATOM     15  C   LIG d   1      -6.997  92.680 119.494  0.00  0.00     0.109 C 
ATOM     16  O   LIG d   1      -5.760  93.259 117.511  0.00  0.00    -0.276 OA
ATOM     17  H   LIG d   1      -6.750  90.403 118.431  0.00  0.00     0.149 HD
ENDBRANCH   6  13
BRANCH   5  18
ATOM     18  N   LIG d   1      -7.740  90.251 115.284  0.00  0.00     0.381 N 
ATOM     19  H   LIG d   1      -7.654  91.242 115.391  0.00  0.00    -0.090 HD
ATOM     20  H   LIG d   1      -8.542  89.945 115.807  0.00  0.00    -0.090 HD
ATOM     21  H   LIG d   1      -7.855  90.022 114.321  0.00  0.00    -0.090 HD
ENDBRANCH   5  18
BRANCH   3  22
ATOM     22  C   LIG d   1      -4.016  87.425 114.239  0.00  0.00     0.382 C 
ATOM     23  O   LIG d   1      -3.548  86.408 114.805  0.00  0.00    -0.241 OA
ATOM     24  O   LIG d   1      -3.985  87.505 112.997  0.00  0.00    -0.241 OA
ENDBRANCH   3  22
TORSDOF 7
ENDMDL
MODEL 2
REMARK VINA RESULT:      -5.3      2.419      4.405
REMARK  7 active torsions:
REMARK  status: ('A' for Active; 'I' for Inactive)
REMARK    1  A    between atoms: C_2  and  C_3 
REMARK    2  A    between atoms: C_3  and  O_6 
REMARK    3  A    between atoms: C_3  and  C_4 
REMARK    4  A    between atoms: C_7  and  O_6 
REMARK    5  A    between atoms: C_9  and  C_10 
REMARK    6  A    between atoms: N_15  and  C_14 
REMARK    7  A    between atoms: N_20  and  C_19 
REMARK       I    between atoms: C_22  and  N_20 
ROOT
ATOM      1  C   LIG d   1      -4.219  91.075 116.974  0.00  0.00     0.161 C 
ATOM      2  C   LIG d   1      -5.326  91.553 116.254  0.00  0.00     0.016 C 
ATOM      3  C   LIG d   1      -5.932  90.841 115.194  0.00  0.00     0.038 C 
ATOM      4  C   LIG d   1      -5.563  89.524 114.879  0.00  0.00     0.028 C 
ATOM      5  C   LIG d   1      -4.119  89.196 115.245  0.00  0.00    -0.047 C 
ATOM      6  C   LIG d   1      -3.873  89.593 116.718  0.00  0.00     0.091 C 
ENDROOT
BRANCH   1   7
ATOM      7  O   LIG d   1      -4.415  91.308 118.383  0.00  0.00    -0.368 OA
BRANCH   7   8
ATOM      8  C   LIG d   1      -4.404  92.693 118.808  0.00  0.00     0.119 C 
BRANCH   8   9
ATOM      9  C   LIG d   1      -2.942  93.071 119.115  0.00  0.00     0.028 C 
ATOM     10  C   LIG d   1      -2.393  94.131 118.146  0.00  0.00     0.006 C 
ENDBRANCH   8   9
BRANCH   8  11
ATOM     11  C   LIG d   1      -5.157  92.877 120.129  0.00  0.00     0.028 C 
ATOM     12  C   LIG d   1      -6.373  91.946 120.256  0.00  0.00     0.006 C 
ENDBRANCH   8  11
ENDBRANCH   7   8
ENDBRANCH   1   7
BRANCH   6  13
ATOM     13  N   LIG d   1      -2.461  89.383 117.133  0.00  0.00    -0.311 N 
ATOM     14  C   LIG d   1      -2.032  88.279 117.743  0.00  0.00     0.210 C 
ATOM     15  C   LIG d   1      -0.543  88.276 118.102  0.00  0.00     0.109 C 
ATOM     16  O   LIG d   1      -2.737  87.290 117.992  0.00  0.00    -0.276 OA
ATOM     17  H   LIG d   1      -1.814  90.123 116.942  0.00  0.00     0.149 HD
ENDBRANCH   6  13
BRANCH   5  18
ATOM     18  N   LIG d   1      -3.911  87.758 114.991  0.00  0.00     0.381 N 
ATOM     19  H   LIG d   1      -3.840  87.267 115.859  0.00  0.00    -0.090 HD
ATOM     20  H   LIG d   1      -3.048  87.638 114.490  0.00  0.00    -0.090 HD
ATOM     21  H   LIG d   1      -4.668  87.393 114.455  0.00  0.00    -0.090 HD
ENDBRANCH   5  18
BRANCH   3  22
ATOM     22  C   LIG d   1      -6.893  91.461 114.409  0.00  0.00     0.382 C 
ATOM     23  O   LIG d   1      -7.269  90.926 113.338  0.00  0.00    -0.241 OA
ATOM     24  O   LIG d   1      -7.356  92.570 114.737  0.00  0.00    -0.241 OA
ENDBRANCH   3  22
TORSDOF 7
ENDMDL
MODEL 3
REMARK VINA RESULT:      -5.1      2.854      6.527
REMARK  7 active torsions:
REMARK  status: ('A' for Active; 'I' for Inactive)
REMARK    1  A    between atoms: C_2  and  C_3 
REMARK    2  A    between atoms: C_3  and  O_6 
REMARK    3  A    between atoms: C_3  and  C_4 
REMARK    4  A    between atoms: C_7  and  O_6 
REMARK    5  A    between atoms: C_9  and  C_10 
REMARK    6  A    between atoms: N_15  and  C_14 
REMARK    7  A    between atoms: N_20  and  C_19 
REMARK       I    between atoms: C_22  and  N_20 
ROOT
ATOM      1  C   LIG d   1      -5.299  92.642 117.702  0.00  0.00     0.161 C 
ATOM      2  C   LIG d   1      -6.552  93.274 117.766  0.00  0.00     0.016 C 
ATOM      3  C   LIG d   1      -6.770  94.505 118.426  0.00  0.00     0.038 C 
ATOM      4  C   LIG d   1      -5.711  95.268 118.941  0.00  0.00     0.028 C 
ATOM      5  C   LIG d   1      -4.501  94.431 119.343  0.00  0.00    -0.047 C 
ATOM      6  C   LIG d   1      -4.111  93.513 118.162  0.00  0.00     0.091 C 
ENDROOT
BRANCH   1   7
ATOM      7  O   LIG d   1      -5.069  92.146 116.369  0.00  0.00    -0.368 OA
BRANCH   7   8
ATOM      8  C   LIG d   1      -5.600  90.829 116.078  0.00  0.00     0.119 C 
BRANCH   8   9
ATOM      9  C   LIG d   1      -4.423  89.836 116.124  0.00  0.00     0.028 C 
ATOM     10  C   LIG d   1      -4.595  88.676 115.129  0.00  0.00     0.006 C 
ENDBRANCH   8   9
BRANCH   8  11
ATOM     11  C   LIG d   1      -6.142  90.750 114.648  0.00  0.00     0.028 C 
ATOM     12  C   LIG d   1      -6.827  92.050 114.197  0.00  0.00     0.006 C 
ENDBRANCH   8  11
ENDBRANCH   7   8
ENDBRANCH   1   7
BRANCH   6  13
ATOM     13  N   LIG d   1      -2.989  92.600 118.501  0.00  0.00    -0.311 N 
ATOM     14  C   LIG d   1      -1.720  92.848 118.181  0.00  0.00     0.210 C 
ATOM     15  C   LIG d   1      -0.722  91.766 118.607  0.00  0.00     0.109 C 
ATOM     16  O   LIG d   1      -1.322  93.876 117.613  0.00  0.00    -0.276 OA
ATOM     17  H   LIG d   1      -3.218  91.756 118.989  0.00  0.00     0.149 HD
ENDBRANCH   6  13
BRANCH   5  18
ATOM     18  N   LIG d   1      -3.425  95.361 119.733  0.00  0.00     0.381 N 
ATOM     19  H   LIG d   1      -2.544  94.888 119.710  0.00  0.00    -0.090 HD
ATOM     20  H   LIG d   1      -3.590  95.675 120.673  0.00  0.00    -0.090 HD
ATOM     21  H   LIG d   1      -3.408  96.141 119.113  0.00  0.00    -0.090 HD
ENDBRANCH   5  18
BRANCH   3  22
ATOM     22  C   LIG d   1      -8.064  94.966 118.611  0.00  0.00     0.382 C 
ATOM     23  O   LIG d   1      -8.973  94.167 118.940  0.00  0.00    -0.241 OA
ATOM     24  O   LIG d   1      -8.343  96.163 118.410  0.00  0.00    -0.241 OA
ENDBRANCH   3  22
TORSDOF 7
ENDMDL
MODEL 4
REMARK VINA RESULT:      -4.9     17.758     20.334
REMARK  7 active torsions:
REMARK  status: ('A' for Active; 'I' for Inactive)
REMARK    1  A    between atoms: C_2  and  C_3 
REMARK    2  A    between atoms: C_3  and  O_6 
REMARK    3  A    between atoms: C_3  and  C_4 
REMARK    4  A    between atoms: C_7  and  O_6 
REMARK    5  A    between atoms: C_9  and  C_10 
REMARK    6  A    between atoms: N_15  and  C_14 
REMARK    7  A    between atoms: N_20  and  C_19 
REMARK       I    between atoms: C_22  and  N_20 
ROOT
ATOM      1  C   LIG d   1      11.426  79.315 114.178  0.00  0.00     0.161 C 
ATOM      2  C   LIG d   1      10.141  79.651 114.635  0.00  0.00     0.016 C 
ATOM      3  C   LIG d   1       9.223  78.703 115.144  0.00  0.00     0.038 C 
ATOM      4  C   LIG d   1       9.587  77.367 115.371  0.00  0.00     0.028 C 
ATOM      5  C   LIG d   1      10.704  76.879 114.456  0.00  0.00    -0.047 C 
ATOM      6  C   LIG d   1      11.880  77.881 114.522  0.00  0.00     0.091 C 
ENDROOT
BRANCH   1   7
ATOM      7  O   LIG d   1      12.385  80.274 114.666  0.00  0.00    -0.368 OA
BRANCH   7   8
ATOM      8  C   LIG d   1      12.936  80.013 115.980  0.00  0.00     0.119 C 
BRANCH   8   9
ATOM      9  C   LIG d   1      12.461  81.144 116.914  0.00  0.00     0.028 C 
ATOM     10  C   LIG d   1      11.447  80.654 117.961  0.00  0.00     0.006 C 
ENDBRANCH   8   9
BRANCH   8  11
ATOM     11  C   LIG d   1      14.464  80.108 115.973  0.00  0.00     0.028 C 
ATOM     12  C   LIG d   1      15.038  80.366 114.570  0.00  0.00     0.006 C 
ENDBRANCH   8  11
ENDBRANCH   7   8
ENDBRANCH   1   7
BRANCH   6  13
ATOM     13  N   LIG d   1      12.982  77.523 113.591  0.00  0.00    -0.311 N 
ATOM     14  C   LIG d   1      14.077  76.865 113.969  0.00  0.00     0.210 C 
ATOM     15  C   LIG d   1      15.098  76.615 112.855  0.00  0.00     0.109 C 
ATOM     16  O   LIG d   1      14.284  76.437 115.115  0.00  0.00    -0.276 OA
ATOM     17  H   LIG d   1      12.882  77.804 112.635  0.00  0.00     0.149 HD
ENDBRANCH   6  13
BRANCH   5  18
ATOM     18  N   LIG d   1      11.077  75.521 114.892  0.00  0.00     0.381 N 
ATOM     19  H   LIG d   1      11.611  75.571 115.737  0.00  0.00    -0.090 HD
ATOM     20  H   LIG d   1      11.647  75.096 114.183  0.00  0.00    -0.090 HD
ATOM     21  H   LIG d   1      10.257  74.974 115.041  0.00  0.00    -0.090 HD
ENDBRANCH   5  18
BRANCH   3  22
ATOM     22  C   LIG d   1       7.913  79.081 115.393  0.00  0.00     0.382 C 
ATOM     23  O   LIG d   1       6.987  78.656 114.660  0.00  0.00    -0.241 OA
ATOM     24  O   LIG d   1       7.649  79.877 116.314  0.00  0.00    -0.241 OA
ENDBRANCH   3  22
TORSDOF 7
ENDMDL
MODEL 5
REMARK VINA RESULT:      -4.7      2.055      3.230
REMARK  7 active torsions:
REMARK  status: ('A' for Active; 'I' for Inactive)
REMARK    1  A    between atoms: C_2  and  C_3 
REMARK    2  A    between atoms: C_3  and  O_6 
REMARK    3  A    between atoms: C_3  and  C_4 
REMARK    4  A    between atoms: C_7  and  O_6 
REMARK    5  A    between atoms: C_9  and  C_10 
REMARK    6  A    between atoms: N_15  and  C_14 
REMARK    7  A    between atoms: N_20  and  C_19 
REMARK       I    between atoms: C_22  and  N_20 
ROOT
ATOM      1  C   LIG d   1      -3.224  90.673 117.583  0.00  0.00     0.161 C 
ATOM      2  C   LIG d   1      -3.894  89.717 116.802  0.00  0.00     0.016 C 
ATOM      3  C   LIG d   1      -5.130  89.963 116.161  0.00  0.00     0.038 C 
ATOM      4  C   LIG d   1      -5.709  91.240 116.134  0.00  0.00     0.028 C 
ATOM      5  C   LIG d   1      -5.324  92.106 117.329  0.00  0.00    -0.047 C 
ATOM      6  C   LIG d   1      -3.785  92.106 117.473  0.00  0.00     0.091 C 
ENDROOT
BRANCH   1   7
ATOM      7  O   LIG d   1      -1.817  90.661 117.270  0.00  0.00    -0.368 OA
BRANCH   7   8
ATOM      8  C   LIG d   1      -0.979  89.851 118.131  0.00  0.00     0.119 C 
BRANCH   8   9
ATOM      9  C   LIG d   1      -1.535  89.970 119.563  0.00  0.00     0.028 C 
ATOM     10  C   LIG d   1      -1.538  88.623 120.305  0.00  0.00     0.006 C 
ENDBRANCH   8   9
BRANCH   8  11
ATOM     11  C   LIG d   1       0.447  90.405 118.202  0.00  0.00     0.028 C 
ATOM     12  C   LIG d   1       0.619  91.467 119.299  0.00  0.00     0.006 C 
ENDBRANCH   8  11
ENDBRANCH   7   8
ENDBRANCH   1   7
BRANCH   6  13
ATOM     13  N   LIG d   1      -3.328  92.862 118.669  0.00  0.00    -0.311 N 
ATOM     14  C   LIG d   1      -2.299  93.707 118.653  0.00  0.00     0.210 C 
ATOM     15  C   LIG d   1      -1.982  94.366 119.999  0.00  0.00     0.109 C 
ATOM     16  O   LIG d   1      -1.638  93.997 117.644  0.00  0.00    -0.276 OA
ATOM     17  H   LIG d   1      -3.828  92.710 119.523  0.00  0.00     0.149 HD
ENDBRANCH   6  13
BRANCH   5  18
ATOM     18  N   LIG d   1      -5.884  93.452 117.103  0.00  0.00     0.381 N 
ATOM     19  H   LIG d   1      -6.265  93.808 117.957  0.00  0.00    -0.090 HD
ATOM     20  H   LIG d   1      -6.627  93.386 116.430  0.00  0.00    -0.090 HD
ATOM     21  H   LIG d   1      -5.174  94.064 116.766  0.00  0.00    -0.090 HD
ENDBRANCH   5  18
BRANCH   3  22
ATOM     22  C   LIG d   1      -5.819  88.914 115.572  0.00  0.00     0.382 C 
ATOM     23  O   LIG d   1      -5.300  88.276 114.624  0.00  0.00    -0.241 OA
ATOM     24  O   LIG d   1      -6.972  88.626 115.947  0.00  0.00    -0.241 OA
ENDBRANCH   3  22
TORSDOF 7
ENDMDL
MODEL 6
REMARK VINA RESULT:      -4.6      5.680      8.596
REMARK  7 active torsions:
REMARK  status: ('A' for Active; 'I' for Inactive)
REMARK    1  A    between atoms: C_2  and  C_3 
REMARK    2  A    between atoms: C_3  and  O_6 
REMARK    3  A    between atoms: C_3  and  C_4 
REMARK    4  A    between atoms: C_7  and  O_6 
REMARK    5  A    between atoms: C_9  and  C_10 
REMARK    6  A    between atoms: N_15  and  C_14 
REMARK    7  A    between atoms: N_20  and  C_19 
REMARK       I    between atoms: C_22  and  N_20 
ROOT
ATOM      1  C   LIG d   1       1.966  88.006 115.674  0.00  0.00     0.161 C 
ATOM      2  C   LIG d   1       0.860  87.796 116.515  0.00  0.00     0.016 C 
ATOM      3  C   LIG d   1       0.360  88.776 117.402  0.00  0.00     0.038 C 
ATOM      4  C   LIG d   1       0.841  90.094 117.398  0.00  0.00     0.028 C 
ATOM      5  C   LIG d   1       2.287  90.209 116.927  0.00  0.00    -0.047 C 
ATOM      6  C   LIG d   1       2.434  89.472 115.576  0.00  0.00     0.091 C 
ENDROOT
BRANCH   1   7
ATOM      7  O   LIG d   1       1.688  87.479 114.361  0.00  0.00    -0.368 OA
BRANCH   7   8
ATOM      8  C   LIG d   1       1.591  86.037 114.260  0.00  0.00     0.119 C 
BRANCH   8   9
ATOM      9  C   LIG d   1       2.750  85.557 113.366  0.00  0.00     0.028 C 
ATOM     10  C   LIG d   1       3.022  86.513 112.193  0.00  0.00     0.006 C 
ENDBRANCH   8   9
BRANCH   8  11
ATOM     11  C   LIG d   1       0.313  85.615 113.528  0.00  0.00     0.028 C 
ATOM     12  C   LIG d   1      -0.759  85.055 114.477  0.00  0.00     0.006 C 
ENDBRANCH   8  11
ENDBRANCH   7   8
ENDBRANCH   1   7
BRANCH   6  13
ATOM     13  N   LIG d   1       3.837  89.465 115.084  0.00  0.00    -0.311 N 
ATOM     14  C   LIG d   1       4.170  89.690 113.815  0.00  0.00     0.210 C 
ATOM     15  C   LIG d   1       5.671  89.615 113.517  0.00  0.00     0.109 C 
ATOM     16  O   LIG d   1       3.368  89.975 112.913  0.00  0.00    -0.276 OA
ATOM     17  H   LIG d   1       4.554  89.272 115.756  0.00  0.00     0.149 HD
ENDBRANCH   6  13
BRANCH   5  18
ATOM     18  N   LIG d   1       2.614  91.645 116.841  0.00  0.00     0.381 N 
ATOM     19  H   LIG d   1       2.613  92.048 117.756  0.00  0.00    -0.090 HD
ATOM     20  H   LIG d   1       1.910  92.107 116.292  0.00  0.00    -0.090 HD
ATOM     21  H   LIG d   1       3.508  91.766 116.418  0.00  0.00    -0.090 HD
ENDBRANCH   5  18
BRANCH   3  22
ATOM     22  C   LIG d   1      -0.607  88.431 118.334  0.00  0.00     0.382 C 
ATOM     23  O   LIG d   1      -0.333  88.448 119.558  0.00  0.00    -0.241 OA
ATOM     24  O   LIG d   1      -1.737  88.060 117.963  0.00  0.00    -0.241 OA
ENDBRANCH   3  22
TORSDOF 7
ENDMDL
MODEL 7
REMARK VINA RESULT:      -4.6      8.725     10.615
REMARK  7 active torsions:
REMARK  status: ('A' for Active; 'I' for Inactive)
REMARK    1  A    between atoms: C_2  and  C_3 
REMARK    2  A    between atoms: C_3  and  O_6 
REMARK    3  A    between atoms: C_3  and  C_4 
REMARK    4  A    between atoms: C_7  and  O_6 
REMARK    5  A    between atoms: C_9  and  C_10 
REMARK    6  A    between atoms: N_15  and  C_14 
REMARK    7  A    between atoms: N_20  and  C_19 
REMARK       I    between atoms: C_22  and  N_20 
ROOT
ATOM      1  C   LIG d   1       2.849  85.538 113.948  0.00  0.00     0.161 C 
ATOM      2  C   LIG d   1       3.233  86.700 113.258  0.00  0.00     0.016 C 
ATOM      3  C   LIG d   1       3.882  87.794 113.876  0.00  0.00     0.038 C 
ATOM      4  C   LIG d   1       4.329  87.736 115.205  0.00  0.00     0.028 C 
ATOM      5  C   LIG d   1       3.517  86.784 116.076  0.00  0.00    -0.047 C 
ATOM      6  C   LIG d   1       3.428  85.411 115.372  0.00  0.00     0.091 C 
ENDROOT
BRANCH   1   7
ATOM      7  O   LIG d   1       3.181  84.374 113.166  0.00  0.00    -0.368 OA
BRANCH   7   8
ATOM      8  C   LIG d   1       2.116  83.830 112.349  0.00  0.00     0.119 C 
BRANCH   8   9
ATOM      9  C   LIG d   1       0.782  84.173 113.039  0.00  0.00     0.028 C 
ATOM     10  C   LIG d   1      -0.264  84.724 112.055  0.00  0.00     0.006 C 
ENDBRANCH   8   9
BRANCH   8  11
ATOM     11  C   LIG d   1       2.170  82.300 112.309  0.00  0.00     0.028 C 
ATOM     12  C   LIG d   1       1.388  81.645 113.458  0.00  0.00     0.006 C 
ENDBRANCH   8  11
ENDBRANCH   7   8
ENDBRANCH   1   7
BRANCH   6  13
ATOM     13  N   LIG d   1       2.579  84.445 116.118  0.00  0.00    -0.311 N 
ATOM     14  C   LIG d   1       2.964  83.204 116.411  0.00  0.00     0.210 C 
ATOM     15  C   LIG d   1       1.929  82.368 117.169  0.00  0.00     0.109 C 
ATOM     16  O   LIG d   1       4.078  82.728 116.143  0.00  0.00    -0.276 OA
ATOM     17  H   LIG d   1       1.672  84.760 116.401  0.00  0.00     0.149 HD
ENDBRANCH   6  13
BRANCH   5  18
ATOM     18  N   LIG d   1       4.174  86.716 117.395  0.00  0.00     0.381 N 
ATOM     19  H   LIG d   1       5.145  86.942 117.302  0.00  0.00    -0.090 HD
ATOM     20  H   LIG d   1       4.102  85.778 117.747  0.00  0.00    -0.090 HD
ATOM     21  H   LIG d   1       3.738  87.351 118.027  0.00  0.00    -0.090 HD
ENDBRANCH   5  18
BRANCH   3  22
ATOM     22  C   LIG d   1       4.054  88.977 113.175  0.00  0.00     0.382 C 
ATOM     23  O   LIG d   1       5.119  89.184 112.546  0.00  0.00    -0.241 OA
ATOM     24  O   LIG d   1       3.175  89.860 113.199  0.00  0.00    -0.241 OA
ENDBRANCH   3  22
TORSDOF 7
ENDMDL
MODEL 8
REMARK VINA RESULT:      -4.6     19.244     21.470
REMARK  7 active torsions:
REMARK  status: ('A' for Active; 'I' for Inactive)
REMARK    1  A    between atoms: C_2  and  C_3 
REMARK    2  A    between atoms: C_3  and  O_6 
REMARK    3  A    between atoms: C_3  and  C_4 
REMARK    4  A    between atoms: C_7  and  O_6 
REMARK    5  A    between atoms: C_9  and  C_10 
REMARK    6  A    between atoms: N_15  and  C_14 
REMARK    7  A    between atoms: N_20  and  C_19 
REMARK       I    between atoms: C_22  and  N_20 
ROOT
ATOM      1  C   LIG d   1     -23.722  83.553 113.627  0.00  0.00     0.161 C 
ATOM      2  C   LIG d   1     -22.802  84.583 113.880  0.00  0.00     0.016 C 
ATOM      3  C   LIG d   1     -23.182  85.923 114.123  0.00  0.00     0.038 C 
ATOM      4  C   LIG d   1     -24.525  86.297 114.280  0.00  0.00     0.028 C 
ATOM      5  C   LIG d   1     -25.497  85.389 113.534  0.00  0.00    -0.047 C 
ATOM      6  C   LIG d   1     -25.195  83.919 113.904  0.00  0.00     0.091 C 
ENDROOT
BRANCH   1   7
ATOM      7  O   LIG d   1     -23.351  82.373 114.368  0.00  0.00    -0.368 OA
BRANCH   7   8
ATOM      8  C   LIG d   1     -23.558  82.429 115.801  0.00  0.00     0.119 C 
BRANCH   8   9
ATOM      9  C   LIG d   1     -22.195  82.183 116.475  0.00  0.00     0.028 C 
ATOM     10  C   LIG d   1     -22.168  82.662 117.937  0.00  0.00     0.006 C 
ENDBRANCH   8   9
BRANCH   8  11
ATOM     11  C   LIG d   1     -24.460  81.287 116.278  0.00  0.00     0.028 C 
ATOM     12  C   LIG d   1     -24.388  80.051 115.368  0.00  0.00     0.006 C 
ENDBRANCH   8  11
ENDBRANCH   7   8
ENDBRANCH   1   7
BRANCH   6  13
ATOM     13  N   LIG d   1     -26.046  82.959 113.153  0.00  0.00    -0.311 N 
ATOM     14  C   LIG d   1     -27.155  82.415 113.652  0.00  0.00     0.210 C 
ATOM     15  C   LIG d   1     -27.872  81.436 112.718  0.00  0.00     0.109 C 
ATOM     16  O   LIG d   1     -27.629  82.676 114.768  0.00  0.00    -0.276 OA
ATOM     17  H   LIG d   1     -25.751  82.716 112.227  0.00  0.00     0.149 HD
ENDBRANCH   6  13
BRANCH   5  18
ATOM     18  N   LIG d   1     -26.864  85.807 113.895  0.00  0.00     0.381 N 
ATOM     19  H   LIG d   1     -27.436  85.841 113.074  0.00  0.00    -0.090 HD
ATOM     20  H   LIG d   1     -26.828  86.730 114.292  0.00  0.00    -0.090 HD
ATOM     21  H   LIG d   1     -27.253  85.169 114.554  0.00  0.00    -0.090 HD
ENDBRANCH   5  18
BRANCH   3  22
ATOM     22  C   LIG d   1     -22.213  86.914 114.172  0.00  0.00     0.382 C 
ATOM     23  O   LIG d   1     -21.173  86.809 113.477  0.00  0.00    -0.241 OA
ATOM     24  O   LIG d   1     -22.345  87.890 114.935  0.00  0.00    -0.241 OA
ENDBRANCH   3  22
TORSDOF 7
ENDMDL
MODEL 9
REMARK VINA RESULT:      -4.5     16.326     18.903
REMARK  7 active torsions:
REMARK  status: ('A' for Active; 'I' for Inactive)
REMARK    1  A    between atoms: C_2  and  C_3 
REMARK    2  A    between atoms: C_3  and  O_6 
REMARK    3  A    between atoms: C_3  and  C_4 
REMARK    4  A    between atoms: C_7  and  O_6 
REMARK    5  A    between atoms: C_9  and  C_10 
REMARK    6  A    between atoms: N_15  and  C_14 
REMARK    7  A    between atoms: N_20  and  C_19 
REMARK       I    between atoms: C_22  and  N_20 
ROOT
ATOM      1  C   LIG d   1      11.023  80.772 115.553  0.00  0.00     0.161 C 
ATOM      2  C   LIG d   1       9.680  80.440 115.795  0.00  0.00     0.016 C 
ATOM      3  C   LIG d   1       9.097  79.213 115.399  0.00  0.00     0.038 C 
ATOM      4  C   LIG d   1       9.864  78.167 114.864  0.00  0.00     0.028 C 
ATOM      5  C   LIG d   1      11.118  78.645 114.140  0.00  0.00    -0.047 C 
ATOM      6  C   LIG d   1      11.902  79.599 115.070  0.00  0.00     0.091 C 
ENDROOT
BRANCH   1   7
ATOM      7  O   LIG d   1      11.596  81.377 116.728  0.00  0.00    -0.368 OA
BRANCH   7   8
ATOM      8  C   LIG d   1      10.671  81.693 117.798  0.00  0.00     0.119 C 
BRANCH   8   9
ATOM      9  C   LIG d   1      10.705  83.220 118.002  0.00  0.00     0.028 C 
ATOM     10  C   LIG d   1       9.427  83.909 117.494  0.00  0.00     0.006 C 
ENDBRANCH   8   9
BRANCH   8  11
ATOM     11  C   LIG d   1      11.134  81.096 119.130  0.00  0.00     0.028 C 
ATOM     12  C   LIG d   1      10.121  80.102 119.721  0.00  0.00     0.006 C 
ENDBRANCH   8  11
ENDBRANCH   7   8
ENDBRANCH   1   7
BRANCH   6  13
ATOM     13  N   LIG d   1      13.100  80.178 114.408  0.00  0.00    -0.311 N 
ATOM     14  C   LIG d   1      14.322  79.658 114.518  0.00  0.00     0.210 C 
ATOM     15  C   LIG d   1      15.419  80.423 113.772  0.00  0.00     0.109 C 
ATOM     16  O   LIG d   1      14.595  78.619 115.137  0.00  0.00    -0.276 OA
ATOM     17  H   LIG d   1      12.964  81.005 113.860  0.00  0.00     0.149 HD
ENDBRANCH   6  13
BRANCH   5  18
ATOM     18  N   LIG d   1      11.892  77.450 113.753  0.00  0.00     0.381 N 
ATOM     19  H   LIG d   1      11.540  76.647 114.237  0.00  0.00    -0.090 HD
ATOM     20  H   LIG d   1      12.852  77.583 114.020  0.00  0.00    -0.090 HD
ATOM     21  H   LIG d   1      11.830  77.307 112.769  0.00  0.00    -0.090 HD
ENDBRANCH   5  18
BRANCH   3  22
ATOM     22  C   LIG d   1       7.726  79.039 115.500  0.00  0.00     0.382 C 
ATOM     23  O   LIG d   1       7.145  78.196 114.774  0.00  0.00    -0.241 OA
ATOM     24  O   LIG d   1       7.055  79.746 116.276  0.00  0.00    -0.241 OA
ENDBRANCH   3  22
TORSDOF 7
ENDMDL
