MODEL 1
REMARK VINA RESULT:      -5.7      0.000      0.000
REMARK  7 active torsions:
REMARK  status: ('A' for Active; 'I' for Inactive)
REMARK    1  A    between atoms: C_2  and  C_3 
REMARK    2  A    between atoms: C_3  and  O_6 
REMARK    3  A    between atoms: C_3  and  C_4 
REMARK    4  A    between atoms: C_7  and  O_6 
REMARK    5  A    between atoms: C_9  and  C_10 
REMARK    6  A    between atoms: N_15  and  C_14 
REMARK    7  A    between atoms: N_20  and  C_19 
REMARK       I    between atoms: C_22  and  N_20 
ROOT
ATOM      1  C   LIG d   1      -7.655  75.129 117.509  0.00  0.00     0.161 C 
ATOM      2  C   LIG d   1      -8.879  75.807 117.634  0.00  0.00     0.016 C 
ATOM      3  C   LIG d   1      -8.983  77.213 117.741  0.00  0.00     0.038 C 
ATOM      4  C   LIG d   1      -7.871  78.053 117.578  0.00  0.00     0.028 C 
ATOM      5  C   LIG d   1      -6.551  77.390 117.955  0.00  0.00    -0.047 C 
ATOM      6  C   LIG d   1      -6.441  76.035 117.218  0.00  0.00     0.091 C 
ENDROOT
BRANCH   1   7
ATOM      7  O   LIG d   1      -7.765  74.101 116.504  0.00  0.00    -0.368 OA
BRANCH   7   8
ATOM      8  C   LIG d   1      -7.878  72.742 116.993  0.00  0.00     0.119 C 
BRANCH   8   9
ATOM      9  C   LIG d   1      -6.649  71.964 116.484  0.00  0.00     0.028 C 
ATOM     10  C   LIG d   1      -6.106  72.525 115.160  0.00  0.00     0.006 C 
ENDBRANCH   8   9
BRANCH   8  11
ATOM     11  C   LIG d   1      -9.090  72.030 116.383  0.00  0.00     0.028 C 
ATOM     12  C   LIG d   1      -9.478  70.754 117.148  0.00  0.00     0.006 C 
ENDBRANCH   8  11
ENDBRANCH   7   8
ENDBRANCH   1   7
BRANCH   6  13
ATOM     13  N   LIG d   1      -5.216  75.282 117.596  0.00  0.00    -0.311 N 
ATOM     14  C   LIG d   1      -4.083  75.327 116.897  0.00  0.00     0.210 C 
ATOM     15  C   LIG d   1      -2.948  74.459 117.450  0.00  0.00     0.109 C 
ATOM     16  O   LIG d   1      -3.900  76.028 115.891  0.00  0.00    -0.276 OA
ATOM     17  H   LIG d   1      -5.267  74.712 118.417  0.00  0.00     0.149 HD
ENDBRANCH   6  13
BRANCH   5  18
ATOM     18  N   LIG d   1      -5.466  78.327 117.608  0.00  0.00     0.381 N 
ATOM     19  H   LIG d   1      -4.581  77.921 117.837  0.00  0.00    -0.090 HD
ATOM     20  H   LIG d   1      -5.577  79.167 118.147  0.00  0.00    -0.090 HD
ATOM     21  H   LIG d   1      -5.499  78.541 116.635  0.00  0.00    -0.090 HD
ENDBRANCH   5  18
BRANCH   3  22
ATOM     22  C   LIG d   1     -10.204  77.790 118.054  0.00  0.00     0.382 C 
ATOM     23  O   LIG d   1     -10.327  79.038 118.052  0.00  0.00    -0.241 OA
ATOM     24  O   LIG d   1     -11.173  77.079 118.381  0.00  0.00    -0.241 OA
ENDBRANCH   3  22
TORSDOF 7
ENDMDL
MODEL 2
REMARK VINA RESULT:      -5.2     15.478     17.403
REMARK  7 active torsions:
REMARK  status: ('A' for Active; 'I' for Inactive)
REMARK    1  A    between atoms: C_2  and  C_3 
REMARK    2  A    between atoms: C_3  and  O_6 
REMARK    3  A    between atoms: C_3  and  C_4 
REMARK    4  A    between atoms: C_7  and  O_6 
REMARK    5  A    between atoms: C_9  and  C_10 
REMARK    6  A    between atoms: N_15  and  C_14 
REMARK    7  A    between atoms: N_20  and  C_19 
REMARK       I    between atoms: C_22  and  N_20 
ROOT
ATOM      1  C   LIG d   1      -5.764  91.824 119.366  0.00  0.00     0.161 C 
ATOM      2  C   LIG d   1      -7.017  92.457 119.409  0.00  0.00     0.016 C 
ATOM      3  C   LIG d   1      -7.178  93.858 119.510  0.00  0.00     0.038 C 
ATOM      4  C   LIG d   1      -6.089  94.737 119.422  0.00  0.00     0.028 C 
ATOM      5  C   LIG d   1      -4.774  94.121 119.885  0.00  0.00    -0.047 C 
ATOM      6  C   LIG d   1      -4.566  92.774 119.156  0.00  0.00     0.091 C 
ENDROOT
BRANCH   1   7
ATOM      7  O   LIG d   1      -5.770  90.796 118.355  0.00  0.00    -0.368 OA
BRANCH   7   8
ATOM      8  C   LIG d   1      -6.158  91.213 117.023  0.00  0.00     0.119 C 
BRANCH   8   9
ATOM      9  C   LIG d   1      -7.242  90.236 116.529  0.00  0.00     0.028 C 
ATOM     10  C   LIG d   1      -7.532  90.391 115.027  0.00  0.00     0.006 C 
ENDBRANCH   8   9
BRANCH   8  11
ATOM     11  C   LIG d   1      -4.999  91.067 116.034  0.00  0.00     0.028 C 
ATOM     12  C   LIG d   1      -4.046  89.918 116.397  0.00  0.00     0.006 C 
ENDBRANCH   8  11
ENDBRANCH   7   8
ENDBRANCH   1   7
BRANCH   6  13
ATOM     13  N   LIG d   1      -3.343  92.064 119.613  0.00  0.00    -0.311 N 
ATOM     14  C   LIG d   1      -2.221  92.001 118.898  0.00  0.00     0.210 C 
ATOM     15  C   LIG d   1      -1.086  91.203 119.546  0.00  0.00     0.109 C 
ATOM     16  O   LIG d   1      -2.048  92.558 117.804  0.00  0.00    -0.276 OA
ATOM     17  H   LIG d   1      -3.386  91.611 120.505  0.00  0.00     0.149 HD
ENDBRANCH   6  13
BRANCH   5  18
ATOM     18  N   LIG d   1      -3.703  95.098 119.610  0.00  0.00     0.381 N 
ATOM     19  H   LIG d   1      -2.930  94.639 119.172  0.00  0.00    -0.090 HD
ATOM     20  H   LIG d   1      -3.386  95.487 120.481  0.00  0.00    -0.090 HD
ATOM     21  H   LIG d   1      -4.046  95.823 119.019  0.00  0.00    -0.090 HD
ENDBRANCH   5  18
BRANCH   3  22
ATOM     22  C   LIG d   1      -8.438  94.389 119.742  0.00  0.00     0.382 C 
ATOM     23  O   LIG d   1      -9.459  93.779 119.343  0.00  0.00    -0.241 OA
ATOM     24  O   LIG d   1      -8.564  95.493 120.305  0.00  0.00    -0.241 OA
ENDBRANCH   3  22
TORSDOF 7
ENDMDL
MODEL 3
REMARK VINA RESULT:      -5.1     15.385     18.249
REMARK  7 active torsions:
REMARK  status: ('A' for Active; 'I' for Inactive)
REMARK    1  A    between atoms: C_2  and  C_3 
REMARK    2  A    between atoms: C_3  and  O_6 
REMARK    3  A    between atoms: C_3  and  C_4 
REMARK    4  A    between atoms: C_7  and  O_6 
REMARK    5  A    between atoms: C_9  and  C_10 
REMARK    6  A    between atoms: N_15  and  C_14 
REMARK    7  A    between atoms: N_20  and  C_19 
REMARK       I    between atoms: C_22  and  N_20 
ROOT
ATOM      1  C   LIG d   1      -5.655  91.603 118.899  0.00  0.00     0.161 C 
ATOM      2  C   LIG d   1      -4.872  90.818 118.036  0.00  0.00     0.016 C 
ATOM      3  C   LIG d   1      -5.090  90.739 116.642  0.00  0.00     0.038 C 
ATOM      4  C   LIG d   1      -6.019  91.563 115.989  0.00  0.00     0.028 C 
ATOM      5  C   LIG d   1      -7.174  92.000 116.883  0.00  0.00    -0.047 C 
ATOM      6  C   LIG d   1      -6.601  92.595 118.190  0.00  0.00     0.091 C 
ENDROOT
BRANCH   1   7
ATOM      7  O   LIG d   1      -4.805  92.300 119.831  0.00  0.00    -0.368 OA
BRANCH   7   8
ATOM      8  C   LIG d   1      -4.218  93.537 119.356  0.00  0.00     0.119 C 
BRANCH   8   9
ATOM      9  C   LIG d   1      -2.687  93.383 119.440  0.00  0.00     0.028 C 
ATOM     10  C   LIG d   1      -2.044  93.151 118.062  0.00  0.00     0.006 C 
ENDBRANCH   8   9
BRANCH   8  11
ATOM     11  C   LIG d   1      -4.559  94.708 120.282  0.00  0.00     0.028 C 
ATOM     12  C   LIG d   1      -3.903  96.026 119.842  0.00  0.00     0.006 C 
ENDBRANCH   8  11
ENDBRANCH   7   8
ENDBRANCH   1   7
BRANCH   6  13
ATOM     13  N   LIG d   1      -7.665  92.970 119.157  0.00  0.00    -0.311 N 
ATOM     14  C   LIG d   1      -8.199  94.189 119.223  0.00  0.00     0.210 C 
ATOM     15  C   LIG d   1      -9.268  94.369 120.305  0.00  0.00     0.109 C 
ATOM     16  O   LIG d   1      -7.911  95.129 118.467  0.00  0.00    -0.276 OA
ATOM     17  H   LIG d   1      -7.981  92.259 119.787  0.00  0.00     0.149 HD
ENDBRANCH   6  13
BRANCH   5  18
ATOM     18  N   LIG d   1      -7.990  92.963 116.119  0.00  0.00     0.381 N 
ATOM     19  H   LIG d   1      -7.441  93.363 115.383  0.00  0.00    -0.090 HD
ATOM     20  H   LIG d   1      -8.280  93.703 116.733  0.00  0.00    -0.090 HD
ATOM     21  H   LIG d   1      -8.788  92.506 115.737  0.00  0.00    -0.090 HD
ENDBRANCH   5  18
BRANCH   3  22
ATOM     22  C   LIG d   1      -4.403  89.798 115.891  0.00  0.00     0.382 C 
ATOM     23  O   LIG d   1      -4.957  89.257 114.903  0.00  0.00    -0.241 OA
ATOM     24  O   LIG d   1      -3.251  89.450 116.214  0.00  0.00    -0.241 OA
ENDBRANCH   3  22
TORSDOF 7
ENDMDL
MODEL 4
REMARK VINA RESULT:      -5.1      2.199      4.478
REMARK  7 active torsions:
REMARK  status: ('A' for Active; 'I' for Inactive)
REMARK    1  A    between atoms: C_2  and  C_3 
REMARK    2  A    between atoms: C_3  and  O_6 
REMARK    3  A    between atoms: C_3  and  C_4 
REMARK    4  A    between atoms: C_7  and  O_6 
REMARK    5  A    between atoms: C_9  and  C_10 
REMARK    6  A    between atoms: N_15  and  C_14 
REMARK    7  A    between atoms: N_20  and  C_19 
REMARK       I    between atoms: C_22  and  N_20 
ROOT
ATOM      1  C   LIG d   1      -6.940  76.102 116.713  0.00  0.00     0.161 C 
ATOM      2  C   LIG d   1      -6.581  75.634 115.438  0.00  0.00     0.016 C 
ATOM      3  C   LIG d   1      -5.278  75.760 114.902  0.00  0.00     0.038 C 
ATOM      4  C   LIG d   1      -4.203  76.230 115.670  0.00  0.00     0.028 C 
ATOM      5  C   LIG d   1      -4.624  77.179 116.786  0.00  0.00    -0.047 C 
ATOM      6  C   LIG d   1      -5.754  76.518 117.608  0.00  0.00     0.091 C 
ENDROOT
BRANCH   1   7
ATOM      7  O   LIG d   1      -7.753  75.119 117.383  0.00  0.00    -0.368 OA
BRANCH   7   8
ATOM      8  C   LIG d   1      -7.864  73.831 116.729  0.00  0.00     0.119 C 
BRANCH   8   9
ATOM      9  C   LIG d   1      -9.318  73.349 116.898  0.00  0.00     0.028 C 
ATOM     10  C   LIG d   1      -9.455  71.826 116.731  0.00  0.00     0.006 C 
ENDBRANCH   8   9
BRANCH   8  11
ATOM     11  C   LIG d   1      -7.003  72.775 117.429  0.00  0.00     0.028 C 
ATOM     12  C   LIG d   1      -5.897  72.212 116.522  0.00  0.00     0.006 C 
ENDBRANCH   8  11
ENDBRANCH   7   8
ENDBRANCH   1   7
BRANCH   6  13
ATOM     13  N   LIG d   1      -6.283  77.414 118.668  0.00  0.00    -0.311 N 
ATOM     14  C   LIG d   1      -6.744  78.641 118.429  0.00  0.00     0.210 C 
ATOM     15  C   LIG d   1      -7.224  79.404 119.668  0.00  0.00     0.109 C 
ATOM     16  O   LIG d   1      -6.830  79.157 117.305  0.00  0.00    -0.276 OA
ATOM     17  H   LIG d   1      -6.279  77.063 119.606  0.00  0.00     0.149 HD
ENDBRANCH   6  13
BRANCH   5  18
ATOM     18  N   LIG d   1      -3.426  77.482 117.590  0.00  0.00     0.381 N 
ATOM     19  H   LIG d   1      -2.625  77.545 116.994  0.00  0.00    -0.090 HD
ATOM     20  H   LIG d   1      -3.274  76.734 118.243  0.00  0.00    -0.090 HD
ATOM     21  H   LIG d   1      -3.552  78.340 118.081  0.00  0.00    -0.090 HD
ENDBRANCH   5  18
BRANCH   3  22
ATOM     22  C   LIG d   1      -5.051  75.449 113.570  0.00  0.00     0.382 C 
ATOM     23  O   LIG d   1      -5.362  76.270 112.673  0.00  0.00    -0.241 OA
ATOM     24  O   LIG d   1      -4.580  74.341 113.251  0.00  0.00    -0.241 OA
ENDBRANCH   3  22
TORSDOF 7
ENDMDL
MODEL 5
REMARK VINA RESULT:      -5.0      2.252      4.581
REMARK  7 active torsions:
REMARK  status: ('A' for Active; 'I' for Inactive)
REMARK    1  A    between atoms: C_2  and  C_3 
REMARK    2  A    between atoms: C_3  and  O_6 
REMARK    3  A    between atoms: C_3  and  C_4 
REMARK    4  A    between atoms: C_7  and  O_6 
REMARK    5  A    between atoms: C_9  and  C_10 
REMARK    6  A    between atoms: N_15  and  C_14 
REMARK    7  A    between atoms: N_20  and  C_19 
REMARK       I    between atoms: C_22  and  N_20 
ROOT
ATOM      1  C   LIG d   1      -5.850  75.056 117.460  0.00  0.00     0.161 C 
ATOM      2  C   LIG d   1      -6.681  73.981 117.104  0.00  0.00     0.016 C 
ATOM      3  C   LIG d   1      -8.085  74.088 116.988  0.00  0.00     0.038 C 
ATOM      4  C   LIG d   1      -8.744  75.324 117.073  0.00  0.00     0.028 C 
ATOM      5  C   LIG d   1      -8.004  76.347 117.928  0.00  0.00    -0.047 C 
ATOM      6  C   LIG d   1      -6.538  76.437 117.448  0.00  0.00     0.091 C 
ENDROOT
BRANCH   1   7
ATOM      7  O   LIG d   1      -4.681  75.071 116.616  0.00  0.00    -0.368 OA
BRANCH   7   8
ATOM      8  C   LIG d   1      -4.733  75.958 115.472  0.00  0.00     0.119 C 
BRANCH   8   9
ATOM      9  C   LIG d   1      -4.873  75.081 114.213  0.00  0.00     0.028 C 
ATOM     10  C   LIG d   1      -5.577  75.818 113.060  0.00  0.00     0.006 C 
ENDBRANCH   8   9
BRANCH   8  11
ATOM     11  C   LIG d   1      -3.414  76.715 115.294  0.00  0.00     0.028 C 
ATOM     12  C   LIG d   1      -2.256  75.801 114.863  0.00  0.00     0.006 C 
ENDBRANCH   8  11
ENDBRANCH   7   8
ENDBRANCH   1   7
BRANCH   6  13
ATOM     13  N   LIG d   1      -5.722  77.353 118.286  0.00  0.00    -0.311 N 
ATOM     14  C   LIG d   1      -5.515  78.634 117.984  0.00  0.00     0.210 C 
ATOM     15  C   LIG d   1      -4.627  79.396 118.973  0.00  0.00     0.109 C 
ATOM     16  O   LIG d   1      -6.010  79.220 117.009  0.00  0.00    -0.276 OA
ATOM     17  H   LIG d   1      -5.309  76.969 119.113  0.00  0.00     0.149 HD
ENDBRANCH   6  13
BRANCH   5  18
ATOM     18  N   LIG d   1      -8.728  77.627 117.818  0.00  0.00     0.381 N 
ATOM     19  H   LIG d   1      -9.396  77.576 117.075  0.00  0.00    -0.090 HD
ATOM     20  H   LIG d   1      -8.070  78.355 117.601  0.00  0.00    -0.090 HD
ATOM     21  H   LIG d   1      -9.191  77.833 118.676  0.00  0.00    -0.090 HD
ENDBRANCH   5  18
BRANCH   3  22
ATOM     22  C   LIG d   1      -8.851  72.944 116.823  0.00  0.00     0.382 C 
ATOM     23  O   LIG d   1      -9.876  72.769 117.526  0.00  0.00    -0.241 OA
ATOM     24  O   LIG d   1      -8.506  72.064 116.012  0.00  0.00    -0.241 OA
ENDBRANCH   3  22
TORSDOF 7
ENDMDL
MODEL 6
REMARK VINA RESULT:      -5.0     15.012     17.253
REMARK  7 active torsions:
REMARK  status: ('A' for Active; 'I' for Inactive)
REMARK    1  A    between atoms: C_2  and  C_3 
REMARK    2  A    between atoms: C_3  and  O_6 
REMARK    3  A    between atoms: C_3  and  C_4 
REMARK    4  A    between atoms: C_7  and  O_6 
REMARK    5  A    between atoms: C_9  and  C_10 
REMARK    6  A    between atoms: N_15  and  C_14 
REMARK    7  A    between atoms: N_20  and  C_19 
REMARK       I    between atoms: C_22  and  N_20 
ROOT
ATOM      1  C   LIG d   1      -4.812  91.990 117.775  0.00  0.00     0.161 C 
ATOM      2  C   LIG d   1      -5.961  92.798 117.738  0.00  0.00     0.016 C 
ATOM      3  C   LIG d   1      -6.999  92.631 116.793  0.00  0.00     0.038 C 
ATOM      4  C   LIG d   1      -7.031  91.541 115.910  0.00  0.00     0.028 C 
ATOM      5  C   LIG d   1      -5.648  90.993 115.576  0.00  0.00    -0.047 C 
ATOM      6  C   LIG d   1      -4.882  90.727 116.892  0.00  0.00     0.091 C 
ENDROOT
BRANCH   1   7
ATOM      7  O   LIG d   1      -4.511  91.631 119.139  0.00  0.00    -0.368 OA
BRANCH   7   8
ATOM      8  C   LIG d   1      -3.495  92.427 119.797  0.00  0.00     0.119 C 
BRANCH   8   9
ATOM      9  C   LIG d   1      -4.171  93.715 120.305  0.00  0.00     0.028 C 
ATOM     10  C   LIG d   1      -3.311  94.965 120.061  0.00  0.00     0.006 C 
ENDBRANCH   8   9
BRANCH   8  11
ATOM     11  C   LIG d   1      -2.425  92.894 118.806  0.00  0.00     0.028 C 
ATOM     12  C   LIG d   1      -1.070  92.202 119.022  0.00  0.00     0.006 C 
ENDBRANCH   8  11
ENDBRANCH   7   8
ENDBRANCH   1   7
BRANCH   6  13
ATOM     13  N   LIG d   1      -3.488  90.267 116.654  0.00  0.00    -0.311 N 
ATOM     14  C   LIG d   1      -2.857  89.400 117.443  0.00  0.00     0.210 C 
ATOM     15  C   LIG d   1      -1.419  89.076 117.029  0.00  0.00     0.109 C 
ATOM     16  O   LIG d   1      -3.364  88.842 118.428  0.00  0.00    -0.276 OA
ATOM     17  H   LIG d   1      -3.013  90.646 115.858  0.00  0.00     0.149 HD
ENDBRANCH   6  13
BRANCH   5  18
ATOM     18  N   LIG d   1      -5.835  89.778 114.760  0.00  0.00     0.381 N 
ATOM     19  H   LIG d   1      -6.748  89.401 114.919  0.00  0.00    -0.090 HD
ATOM     20  H   LIG d   1      -5.157  89.091 115.039  0.00  0.00    -0.090 HD
ATOM     21  H   LIG d   1      -5.721  89.995 113.794  0.00  0.00    -0.090 HD
ENDBRANCH   5  18
BRANCH   3  22
ATOM     22  C   LIG d   1      -8.001  93.585 116.698  0.00  0.00     0.382 C 
ATOM     23  O   LIG d   1      -8.035  94.542 117.509  0.00  0.00    -0.241 OA
ATOM     24  O   LIG d   1      -8.898  93.476 115.840  0.00  0.00    -0.241 OA
ENDBRANCH   3  22
TORSDOF 7
ENDMDL
MODEL 7
REMARK VINA RESULT:      -4.9      2.074      4.623
REMARK  7 active torsions:
REMARK  status: ('A' for Active; 'I' for Inactive)
REMARK    1  A    between atoms: C_2  and  C_3 
REMARK    2  A    between atoms: C_3  and  O_6 
REMARK    3  A    between atoms: C_3  and  C_4 
REMARK    4  A    between atoms: C_7  and  O_6 
REMARK    5  A    between atoms: C_9  and  C_10 
REMARK    6  A    between atoms: N_15  and  C_14 
REMARK    7  A    between atoms: N_20  and  C_19 
REMARK       I    between atoms: C_22  and  N_20 
ROOT
ATOM      1  C   LIG d   1      -6.109  76.122 117.335  0.00  0.00     0.161 C 
ATOM      2  C   LIG d   1      -6.786  74.942 116.986  0.00  0.00     0.016 C 
ATOM      3  C   LIG d   1      -8.195  74.818 117.005  0.00  0.00     0.038 C 
ATOM      4  C   LIG d   1      -9.033  75.920 117.231  0.00  0.00     0.028 C 
ATOM      5  C   LIG d   1      -8.387  77.008 118.081  0.00  0.00    -0.047 C 
ATOM      6  C   LIG d   1      -7.010  77.367 117.476  0.00  0.00     0.091 C 
ENDROOT
BRANCH   1   7
ATOM      7  O   LIG d   1      -5.050  76.376 116.390  0.00  0.00    -0.368 OA
BRANCH   7   8
ATOM      8  C   LIG d   1      -4.350  75.210 115.890  0.00  0.00     0.119 C 
BRANCH   8   9
ATOM      9  C   LIG d   1      -2.954  75.193 116.542  0.00  0.00     0.028 C 
ATOM     10  C   LIG d   1      -2.206  76.524 116.360  0.00  0.00     0.006 C 
ENDBRANCH   8   9
BRANCH   8  11
ATOM     11  C   LIG d   1      -4.094  75.318 114.384  0.00  0.00     0.028 C 
ATOM     12  C   LIG d   1      -5.358  75.680 113.588  0.00  0.00     0.006 C 
ENDBRANCH   8  11
ENDBRANCH   7   8
ENDBRANCH   1   7
BRANCH   6  13
ATOM     13  N   LIG d   1      -6.274  78.365 118.295  0.00  0.00    -0.311 N 
ATOM     14  C   LIG d   1      -6.425  79.681 118.158  0.00  0.00     0.210 C 
ATOM     15  C   LIG d   1      -5.555  80.532 119.088  0.00  0.00     0.109 C 
ATOM     16  O   LIG d   1      -7.220  80.224 117.377  0.00  0.00    -0.276 OA
ATOM     17  H   LIG d   1      -5.630  78.011 118.976  0.00  0.00     0.149 HD
ENDBRANCH   6  13
BRANCH   5  18
ATOM     18  N   LIG d   1      -9.317  78.153 118.122  0.00  0.00     0.381 N 
ATOM     19  H   LIG d   1     -10.062  77.961 118.761  0.00  0.00    -0.090 HD
ATOM     20  H   LIG d   1      -9.711  78.284 117.207  0.00  0.00    -0.090 HD
ATOM     21  H   LIG d   1      -8.832  78.976 118.404  0.00  0.00    -0.090 HD
ENDBRANCH   5  18
BRANCH   3  22
ATOM     22  C   LIG d   1      -8.777  73.571 116.836  0.00  0.00     0.382 C 
ATOM     23  O   LIG d   1      -9.880  73.316 117.376  0.00  0.00    -0.241 OA
ATOM     24  O   LIG d   1      -8.192  72.683 116.187  0.00  0.00    -0.241 OA
ENDBRANCH   3  22
TORSDOF 7
ENDMDL
MODEL 8
REMARK VINA RESULT:      -4.8      3.921      6.608
REMARK  7 active torsions:
REMARK  status: ('A' for Active; 'I' for Inactive)
REMARK    1  A    between atoms: C_2  and  C_3 
REMARK    2  A    between atoms: C_3  and  O_6 
REMARK    3  A    between atoms: C_3  and  C_4 
REMARK    4  A    between atoms: C_7  and  O_6 
REMARK    5  A    between atoms: C_9  and  C_10 
REMARK    6  A    between atoms: N_15  and  C_14 
REMARK    7  A    between atoms: N_20  and  C_19 
REMARK       I    between atoms: C_22  and  N_20 
ROOT
ATOM      1  C   LIG d   1      -2.618  75.207 116.287  0.00  0.00     0.161 C 
ATOM      2  C   LIG d   1      -2.101  74.438 117.342  0.00  0.00     0.016 C 
ATOM      3  C   LIG d   1      -0.869  74.715 117.977  0.00  0.00     0.038 C 
ATOM      4  C   LIG d   1      -0.136  75.878 117.698  0.00  0.00     0.028 C 
ATOM      5  C   LIG d   1      -0.366  76.415 116.289  0.00  0.00    -0.047 C 
ATOM      6  C   LIG d   1      -1.887  76.544 116.044  0.00  0.00     0.091 C 
ENDROOT
BRANCH   1   7
ATOM      7  O   LIG d   1      -4.026  75.437 116.493  0.00  0.00    -0.368 OA
BRANCH   7   8
ATOM      8  C   LIG d   1      -4.926  74.519 115.825  0.00  0.00     0.119 C 
BRANCH   8   9
ATOM      9  C   LIG d   1      -5.874  75.357 114.946  0.00  0.00     0.028 C 
ATOM     10  C   LIG d   1      -5.332  75.555 113.520  0.00  0.00     0.006 C 
ENDBRANCH   8   9
BRANCH   8  11
ATOM     11  C   LIG d   1      -5.832  73.798 116.827  0.00  0.00     0.028 C 
ATOM     12  C   LIG d   1      -7.110  73.240 116.180  0.00  0.00     0.006 C 
ENDBRANCH   8  11
ENDBRANCH   7   8
ENDBRANCH   1   7
BRANCH   6  13
ATOM     13  N   LIG d   1      -2.202  76.984 114.659  0.00  0.00    -0.311 N 
ATOM     14  C   LIG d   1      -2.363  78.260 114.314  0.00  0.00     0.210 C 
ATOM     15  C   LIG d   1      -2.703  78.493 112.839  0.00  0.00     0.109 C 
ATOM     16  O   LIG d   1      -2.225  79.224 115.083  0.00  0.00    -0.276 OA
ATOM     17  H   LIG d   1      -2.301  76.269 113.965  0.00  0.00     0.149 HD
ENDBRANCH   6  13
BRANCH   5  18
ATOM     18  N   LIG d   1       0.348  77.701 116.181  0.00  0.00     0.381 N 
ATOM     19  H   LIG d   1      -0.291  78.422 115.910  0.00  0.00    -0.090 HD
ATOM     20  H   LIG d   1       1.054  77.622 115.469  0.00  0.00    -0.090 HD
ATOM     21  H   LIG d   1       0.771  77.932 117.053  0.00  0.00    -0.090 HD
ENDBRANCH   5  18
BRANCH   3  22
ATOM     22  C   LIG d   1      -0.337  73.801 118.875  0.00  0.00     0.382 C 
ATOM     23  O   LIG d   1       0.676  74.103 119.551  0.00  0.00    -0.241 OA
ATOM     24  O   LIG d   1      -0.831  72.663 118.985  0.00  0.00    -0.241 OA
ENDBRANCH   3  22
TORSDOF 7
ENDMDL
MODEL 9
REMARK VINA RESULT:      -4.8      2.240      4.811
REMARK  7 active torsions:
REMARK  status: ('A' for Active; 'I' for Inactive)
REMARK    1  A    between atoms: C_2  and  C_3 
REMARK    2  A    between atoms: C_3  and  O_6 
REMARK    3  A    between atoms: C_3  and  C_4 
REMARK    4  A    between atoms: C_7  and  O_6 
REMARK    5  A    between atoms: C_9  and  C_10 
REMARK    6  A    between atoms: N_15  and  C_14 
REMARK    7  A    between atoms: N_20  and  C_19 
REMARK       I    between atoms: C_22  and  N_20 
ROOT
ATOM      1  C   LIG d   1      -6.364  76.287 115.863  0.00  0.00     0.161 C 
ATOM      2  C   LIG d   1      -7.681  76.076 116.303  0.00  0.00     0.016 C 
ATOM      3  C   LIG d   1      -8.113  74.883 116.926  0.00  0.00     0.038 C 
ATOM      4  C   LIG d   1      -7.214  73.869 117.290  0.00  0.00     0.028 C 
ATOM      5  C   LIG d   1      -5.966  73.823 116.414  0.00  0.00    -0.047 C 
ATOM      6  C   LIG d   1      -5.344  75.237 116.352  0.00  0.00     0.091 C 
ENDROOT
BRANCH   1   7
ATOM      7  O   LIG d   1      -5.933  77.612 116.229  0.00  0.00    -0.368 OA
BRANCH   7   8
ATOM      8  C   LIG d   1      -5.997  77.937 117.639  0.00  0.00     0.119 C 
BRANCH   8   9
ATOM      9  C   LIG d   1      -6.767  79.265 117.774  0.00  0.00     0.028 C 
ATOM     10  C   LIG d   1      -8.182  79.068 118.343  0.00  0.00     0.006 C 
ENDBRANCH   8   9
BRANCH   8  11
ATOM     11  C   LIG d   1      -4.603  78.217 118.211  0.00  0.00     0.028 C 
ATOM     12  C   LIG d   1      -3.667  78.890 117.195  0.00  0.00     0.006 C 
ENDBRANCH   8  11
ENDBRANCH   7   8
ENDBRANCH   1   7
BRANCH   6  13
ATOM     13  N   LIG d   1      -4.166  75.299 115.447  0.00  0.00    -0.311 N 
ATOM     14  C   LIG d   1      -2.916  75.451 115.881  0.00  0.00     0.210 C 
ATOM     15  C   LIG d   1      -1.853  75.510 114.779  0.00  0.00     0.109 C 
ATOM     16  O   LIG d   1      -2.583  75.510 117.074  0.00  0.00    -0.276 OA
ATOM     17  H   LIG d   1      -4.342  75.227 114.464  0.00  0.00     0.149 HD
ENDBRANCH   6  13
BRANCH   5  18
ATOM     18  N   LIG d   1      -5.055  72.815 116.989  0.00  0.00     0.381 N 
ATOM     19  H   LIG d   1      -5.194  71.935 116.533  0.00  0.00    -0.090 HD
ATOM     20  H   LIG d   1      -5.268  72.703 117.964  0.00  0.00    -0.090 HD
ATOM     21  H   LIG d   1      -4.109  73.109 116.879  0.00  0.00    -0.090 HD
ENDBRANCH   5  18
BRANCH   3  22
ATOM     22  C   LIG d   1      -9.465  74.677 117.155  0.00  0.00     0.382 C 
ATOM     23  O   LIG d   1     -10.238  75.658 117.267  0.00  0.00    -0.241 OA
ATOM     24  O   LIG d   1      -9.913  73.523 117.294  0.00  0.00    -0.241 OA
ENDBRANCH   3  22
TORSDOF 7
ENDMDL
