MODEL 1
REMARK VINA RESULT:      -5.3      0.000      0.000
REMARK  7 active torsions:
REMARK  status: ('A' for Active; 'I' for Inactive)
REMARK    1  A    between atoms: C_2  and  C_3 
REMARK    2  A    between atoms: C_3  and  O_6 
REMARK    3  A    between atoms: C_3  and  C_4 
REMARK    4  A    between atoms: C_7  and  O_6 
REMARK    5  A    between atoms: C_9  and  C_10 
REMARK    6  A    between atoms: N_15  and  C_14 
REMARK    7  A    between atoms: N_20  and  C_19 
REMARK       I    between atoms: C_22  and  N_20 
ROOT
ATOM      1  C   LIG d   1      -2.312  77.508 116.386  0.00  0.00     0.161 C 
ATOM      2  C   LIG d   1      -2.752  78.342 115.344  0.00  0.00     0.016 C 
ATOM      3  C   LIG d   1      -2.141  78.384 114.070  0.00  0.00     0.038 C 
ATOM      4  C   LIG d   1      -1.134  77.480 113.700  0.00  0.00     0.028 C 
ATOM      5  C   LIG d   1      -0.319  76.964 114.881  0.00  0.00    -0.047 C 
ATOM      6  C   LIG d   1      -1.286  76.435 115.965  0.00  0.00     0.091 C 
ENDROOT
BRANCH   1   7
ATOM      7  O   LIG d   1      -3.444  76.893 117.031  0.00  0.00    -0.368 OA
BRANCH   7   8
ATOM      8  C   LIG d   1      -4.631  76.728 116.216  0.00  0.00     0.119 C 
BRANCH   8   9
ATOM      9  C   LIG d   1      -5.843  77.132 117.077  0.00  0.00     0.028 C 
ATOM     10  C   LIG d   1      -5.678  78.525 117.707  0.00  0.00     0.006 C 
ENDBRANCH   8   9
BRANCH   8  11
ATOM     11  C   LIG d   1      -4.860  75.257 115.857  0.00  0.00     0.028 C 
ATOM     12  C   LIG d   1      -5.669  75.079 114.562  0.00  0.00     0.006 C 
ENDBRANCH   8  11
ENDBRANCH   7   8
ENDBRANCH   1   7
BRANCH   6  13
ATOM     13  N   LIG d   1      -0.574  75.989 117.191  0.00  0.00    -0.311 N 
ATOM     14  C   LIG d   1      -0.474  74.713 117.558  0.00  0.00     0.210 C 
ATOM     15  C   LIG d   1       0.285  74.473 118.866  0.00  0.00     0.109 C 
ATOM     16  O   LIG d   1      -0.915  73.753 116.907  0.00  0.00    -0.276 OA
ATOM     17  H   LIG d   1      -0.159  76.700 117.762  0.00  0.00     0.149 HD
ENDBRANCH   6  13
BRANCH   5  18
ATOM     18  N   LIG d   1       0.600  75.929 114.371  0.00  0.00     0.381 N 
ATOM     19  H   LIG d   1       1.302  76.353 113.797  0.00  0.00    -0.090 HD
ATOM     20  H   LIG d   1       0.079  75.282 113.806  0.00  0.00    -0.090 HD
ATOM     21  H   LIG d   1       1.028  75.448 115.132  0.00  0.00    -0.090 HD
ENDBRANCH   5  18
BRANCH   3  22
ATOM     22  C   LIG d   1      -2.509  79.367 113.163  0.00  0.00     0.382 C 
ATOM     23  O   LIG d   1      -1.876  80.449 113.120  0.00  0.00    -0.241 OA
ATOM     24  O   LIG d   1      -3.494  79.202 112.419  0.00  0.00    -0.241 OA
ENDBRANCH   3  22
TORSDOF 7
ENDMDL
MODEL 2
REMARK VINA RESULT:      -5.1      2.383      4.931
REMARK  7 active torsions:
REMARK  status: ('A' for Active; 'I' for Inactive)
REMARK    1  A    between atoms: C_2  and  C_3 
REMARK    2  A    between atoms: C_3  and  O_6 
REMARK    3  A    between atoms: C_3  and  C_4 
REMARK    4  A    between atoms: C_7  and  O_6 
REMARK    5  A    between atoms: C_9  and  C_10 
REMARK    6  A    between atoms: N_15  and  C_14 
REMARK    7  A    between atoms: N_20  and  C_19 
REMARK       I    between atoms: C_22  and  N_20 
ROOT
ATOM      1  C   LIG d   1      -3.061  77.871 115.389  0.00  0.00     0.161 C 
ATOM      2  C   LIG d   1      -1.753  78.268 115.714  0.00  0.00     0.016 C 
ATOM      3  C   LIG d   1      -0.822  77.422 116.360  0.00  0.00     0.038 C 
ATOM      4  C   LIG d   1      -1.088  76.064 116.589  0.00  0.00     0.028 C 
ATOM      5  C   LIG d   1      -2.574  75.754 116.735  0.00  0.00    -0.047 C 
ATOM      6  C   LIG d   1      -3.333  76.359 115.531  0.00  0.00     0.091 C 
ENDROOT
BRANCH   1   7
ATOM      7  O   LIG d   1      -3.390  78.316 114.058  0.00  0.00    -0.368 OA
BRANCH   7   8
ATOM      8  C   LIG d   1      -2.353  79.043 113.355  0.00  0.00     0.119 C 
BRANCH   8   9
ATOM      9  C   LIG d   1      -2.950  80.395 112.918  0.00  0.00     0.028 C 
ATOM     10  C   LIG d   1      -1.870  81.458 112.659  0.00  0.00     0.006 C 
ENDBRANCH   8   9
BRANCH   8  11
ATOM     11  C   LIG d   1      -1.958  78.335 112.055  0.00  0.00     0.028 C 
ATOM     12  C   LIG d   1      -1.086  77.093 112.295  0.00  0.00     0.006 C 
ENDBRANCH   8  11
ENDBRANCH   7   8
ENDBRANCH   1   7
BRANCH   6  13
ATOM     13  N   LIG d   1      -4.803  76.174 115.638  0.00  0.00    -0.311 N 
ATOM     14  C   LIG d   1      -5.552  75.672 114.657  0.00  0.00     0.210 C 
ATOM     15  C   LIG d   1      -7.050  75.585 114.967  0.00  0.00     0.109 C 
ATOM     16  O   LIG d   1      -5.113  75.260 113.573  0.00  0.00    -0.276 OA
ATOM     17  H   LIG d   1      -5.237  76.452 116.496  0.00  0.00     0.149 HD
ENDBRANCH   6  13
BRANCH   5  18
ATOM     18  N   LIG d   1      -2.716  74.289 116.831  0.00  0.00     0.381 N 
ATOM     19  H   LIG d   1      -3.626  74.059 117.178  0.00  0.00    -0.090 HD
ATOM     20  H   LIG d   1      -2.034  73.938 117.480  0.00  0.00    -0.090 HD
ATOM     21  H   LIG d   1      -2.579  73.873 115.937  0.00  0.00    -0.090 HD
ENDBRANCH   5  18
BRANCH   3  22
ATOM     22  C   LIG d   1       0.377  77.945 116.819  0.00  0.00     0.382 C 
ATOM     23  O   LIG d   1       1.185  77.212 117.439  0.00  0.00    -0.241 OA
ATOM     24  O   LIG d   1       0.642  79.152 116.660  0.00  0.00    -0.241 OA
ENDBRANCH   3  22
TORSDOF 7
ENDMDL
MODEL 3
REMARK VINA RESULT:      -5.0      1.786      4.771
REMARK  7 active torsions:
REMARK  status: ('A' for Active; 'I' for Inactive)
REMARK    1  A    between atoms: C_2  and  C_3 
REMARK    2  A    between atoms: C_3  and  O_6 
REMARK    3  A    between atoms: C_3  and  C_4 
REMARK    4  A    between atoms: C_7  and  O_6 
REMARK    5  A    between atoms: C_9  and  C_10 
REMARK    6  A    between atoms: N_15  and  C_14 
REMARK    7  A    between atoms: N_20  and  C_19 
REMARK       I    between atoms: C_22  and  N_20 
ROOT
ATOM      1  C   LIG d   1      -3.172  76.220 116.554  0.00  0.00     0.161 C 
ATOM      2  C   LIG d   1      -2.676  75.680 117.752  0.00  0.00     0.016 C 
ATOM      3  C   LIG d   1      -1.302  75.656 118.085  0.00  0.00     0.038 C 
ATOM      4  C   LIG d   1      -0.338  76.310 117.304  0.00  0.00     0.028 C 
ATOM      5  C   LIG d   1      -0.729  76.430 115.835  0.00  0.00    -0.047 C 
ATOM      6  C   LIG d   1      -2.147  77.038 115.740  0.00  0.00     0.091 C 
ENDROOT
BRANCH   1   7
ATOM      7  O   LIG d   1      -4.345  77.013 116.823  0.00  0.00    -0.368 OA
BRANCH   7   8
ATOM      8  C   LIG d   1      -5.552  76.625 116.122  0.00  0.00     0.119 C 
BRANCH   8   9
ATOM      9  C   LIG d   1      -6.722  76.735 117.119  0.00  0.00     0.028 C 
ATOM     10  C   LIG d   1      -7.846  75.729 116.817  0.00  0.00     0.006 C 
ENDBRANCH   8   9
BRANCH   8  11
ATOM     11  C   LIG d   1      -5.507  75.151 115.710  0.00  0.00     0.028 C 
ATOM     12  C   LIG d   1      -5.509  74.958 114.185  0.00  0.00     0.006 C 
ENDBRANCH   8  11
ENDBRANCH   7   8
ENDBRANCH   1   7
BRANCH   6  13
ATOM     13  N   LIG d   1      -2.640  77.113 114.340  0.00  0.00    -0.311 N 
ATOM     14  C   LIG d   1      -2.550  78.208 113.589  0.00  0.00     0.210 C 
ATOM     15  C   LIG d   1      -3.138  78.076 112.180  0.00  0.00     0.109 C 
ATOM     16  O   LIG d   1      -2.011  79.267 113.943  0.00  0.00    -0.276 OA
ATOM     17  H   LIG d   1      -3.064  76.288 113.962  0.00  0.00     0.149 HD
ENDBRANCH   6  13
BRANCH   5  18
ATOM     18  N   LIG d   1       0.298  77.252 115.166  0.00  0.00     0.381 N 
ATOM     19  H   LIG d   1       1.023  76.663 114.808  0.00  0.00    -0.090 HD
ATOM     20  H   LIG d   1       0.704  77.877 115.840  0.00  0.00    -0.090 HD
ATOM     21  H   LIG d   1      -0.113  77.774 114.424  0.00  0.00    -0.090 HD
ENDBRANCH   5  18
BRANCH   3  22
ATOM     22  C   LIG d   1      -0.876  74.936 119.191  0.00  0.00     0.382 C 
ATOM     23  O   LIG d   1      -1.621  74.829 120.194  0.00  0.00    -0.241 OA
ATOM     24  O   LIG d   1       0.262  74.429 119.214  0.00  0.00    -0.241 OA
ENDBRANCH   3  22
TORSDOF 7
ENDMDL
MODEL 4
REMARK VINA RESULT:      -5.0      2.516      3.842
REMARK  7 active torsions:
REMARK  status: ('A' for Active; 'I' for Inactive)
REMARK    1  A    between atoms: C_2  and  C_3 
REMARK    2  A    between atoms: C_3  and  O_6 
REMARK    3  A    between atoms: C_3  and  C_4 
REMARK    4  A    between atoms: C_7  and  O_6 
REMARK    5  A    between atoms: C_9  and  C_10 
REMARK    6  A    between atoms: N_15  and  C_14 
REMARK    7  A    between atoms: N_20  and  C_19 
REMARK       I    between atoms: C_22  and  N_20 
ROOT
ATOM      1  C   LIG d   1      -2.185  77.268 116.596  0.00  0.00     0.161 C 
ATOM      2  C   LIG d   1      -3.220  76.637 115.886  0.00  0.00     0.016 C 
ATOM      3  C   LIG d   1      -3.405  76.776 114.491  0.00  0.00     0.038 C 
ATOM      4  C   LIG d   1      -2.470  77.440 113.682  0.00  0.00     0.028 C 
ATOM      5  C   LIG d   1      -1.684  78.516 114.423  0.00  0.00    -0.047 C 
ATOM      6  C   LIG d   1      -1.091  77.905 115.714  0.00  0.00     0.091 C 
ENDROOT
BRANCH   1   7
ATOM      7  O   LIG d   1      -1.597  76.341 117.530  0.00  0.00    -0.368 OA
BRANCH   7   8
ATOM      8  C   LIG d   1      -1.650  74.941 117.159  0.00  0.00     0.119 C 
BRANCH   8   9
ATOM      9  C   LIG d   1      -1.822  74.125 118.454  0.00  0.00     0.028 C 
ATOM     10  C   LIG d   1      -1.857  75.014 119.709  0.00  0.00     0.006 C 
ENDBRANCH   8   9
BRANCH   8  11
ATOM     11  C   LIG d   1      -0.322  74.474 116.558  0.00  0.00     0.028 C 
ATOM     12  C   LIG d   1      -0.401  74.251 115.039  0.00  0.00     0.006 C 
ENDBRANCH   8  11
ENDBRANCH   7   8
ENDBRANCH   1   7
BRANCH   6  13
ATOM     13  N   LIG d   1      -0.377  78.913 116.541  0.00  0.00    -0.311 N 
ATOM     14  C   LIG d   1       0.843  78.719 117.039  0.00  0.00     0.210 C 
ATOM     15  C   LIG d   1       1.388  79.877 117.881  0.00  0.00     0.109 C 
ATOM     16  O   LIG d   1       1.539  77.713 116.838  0.00  0.00    -0.276 OA
ATOM     17  H   LIG d   1      -0.855  79.772 116.728  0.00  0.00     0.149 HD
ENDBRANCH   6  13
BRANCH   5  18
ATOM     18  N   LIG d   1      -0.654  79.030 113.501  0.00  0.00     0.381 N 
ATOM     19  H   LIG d   1      -0.433  78.333 112.817  0.00  0.00    -0.090 HD
ATOM     20  H   LIG d   1       0.179  79.233 114.024  0.00  0.00    -0.090 HD
ATOM     21  H   LIG d   1      -0.981  79.856 113.050  0.00  0.00    -0.090 HD
ENDBRANCH   5  18
BRANCH   3  22
ATOM     22  C   LIG d   1      -4.556  76.281 113.898  0.00  0.00     0.382 C 
ATOM     23  O   LIG d   1      -5.177  75.330 114.430  0.00  0.00    -0.241 OA
ATOM     24  O   LIG d   1      -4.957  76.745 112.813  0.00  0.00    -0.241 OA
ENDBRANCH   3  22
TORSDOF 7
ENDMDL
MODEL 5
REMARK VINA RESULT:      -4.9      2.860      4.432
REMARK  7 active torsions:
REMARK  status: ('A' for Active; 'I' for Inactive)
REMARK    1  A    between atoms: C_2  and  C_3 
REMARK    2  A    between atoms: C_3  and  O_6 
REMARK    3  A    between atoms: C_3  and  C_4 
REMARK    4  A    between atoms: C_7  and  O_6 
REMARK    5  A    between atoms: C_9  and  C_10 
REMARK    6  A    between atoms: N_15  and  C_14 
REMARK    7  A    between atoms: N_20  and  C_19 
REMARK       I    between atoms: C_22  and  N_20 
ROOT
ATOM      1  C   LIG d   1      -3.857  75.918 115.874  0.00  0.00     0.161 C 
ATOM      2  C   LIG d   1      -2.790  75.200 115.309  0.00  0.00     0.016 C 
ATOM      3  C   LIG d   1      -1.431  75.518 115.533  0.00  0.00     0.038 C 
ATOM      4  C   LIG d   1      -1.042  76.492 116.466  0.00  0.00     0.028 C 
ATOM      5  C   LIG d   1      -2.090  77.580 116.678  0.00  0.00    -0.047 C 
ATOM      6  C   LIG d   1      -3.451  76.913 116.981  0.00  0.00     0.091 C 
ENDROOT
BRANCH   1   7
ATOM      7  O   LIG d   1      -4.857  75.003 116.364  0.00  0.00    -0.368 OA
BRANCH   7   8
ATOM      8  C   LIG d   1      -5.976  74.749 115.479  0.00  0.00     0.119 C 
BRANCH   8   9
ATOM      9  C   LIG d   1      -6.317  76.074 114.770  0.00  0.00     0.028 C 
ATOM     10  C   LIG d   1      -6.392  75.919 113.242  0.00  0.00     0.006 C 
ENDBRANCH   8   9
BRANCH   8  11
ATOM     11  C   LIG d   1      -7.235  74.374 116.267  0.00  0.00     0.028 C 
ATOM     12  C   LIG d   1      -8.074  75.599 116.665  0.00  0.00     0.006 C 
ENDBRANCH   8  11
ENDBRANCH   7   8
ENDBRANCH   1   7
BRANCH   6  13
ATOM     13  N   LIG d   1      -4.549  77.905 117.120  0.00  0.00    -0.311 N 
ATOM     14  C   LIG d   1      -4.979  78.364 118.294  0.00  0.00     0.210 C 
ATOM     15  C   LIG d   1      -6.135  79.366 118.212  0.00  0.00     0.109 C 
ATOM     16  O   LIG d   1      -4.490  78.062 119.393  0.00  0.00    -0.276 OA
ATOM     17  H   LIG d   1      -4.981  78.227 116.276  0.00  0.00     0.149 HD
ENDBRANCH   6  13
BRANCH   5  18
ATOM     18  N   LIG d   1      -1.615  78.448 117.772  0.00  0.00     0.381 N 
ATOM     19  H   LIG d   1      -1.220  77.888 118.501  0.00  0.00    -0.090 HD
ATOM     20  H   LIG d   1      -2.397  78.952 118.150  0.00  0.00    -0.090 HD
ATOM     21  H   LIG d   1      -0.933  79.088 117.428  0.00  0.00    -0.090 HD
ENDBRANCH   5  18
BRANCH   3  22
ATOM     22  C   LIG d   1      -0.445  74.887 114.790  0.00  0.00     0.382 C 
ATOM     23  O   LIG d   1       0.358  75.567 114.108  0.00  0.00    -0.241 OA
ATOM     24  O   LIG d   1      -0.377  73.644 114.759  0.00  0.00    -0.241 OA
ENDBRANCH   3  22
TORSDOF 7
ENDMDL
MODEL 6
REMARK VINA RESULT:      -4.9      2.842      5.291
REMARK  7 active torsions:
REMARK  status: ('A' for Active; 'I' for Inactive)
REMARK    1  A    between atoms: C_2  and  C_3 
REMARK    2  A    between atoms: C_3  and  O_6 
REMARK    3  A    between atoms: C_3  and  C_4 
REMARK    4  A    between atoms: C_7  and  O_6 
REMARK    5  A    between atoms: C_9  and  C_10 
REMARK    6  A    between atoms: N_15  and  C_14 
REMARK    7  A    between atoms: N_20  and  C_19 
REMARK       I    between atoms: C_22  and  N_20 
ROOT
ATOM      1  C   LIG d   1      -2.018  75.133 118.671  0.00  0.00     0.161 C 
ATOM      2  C   LIG d   1      -0.724  75.119 119.218  0.00  0.00     0.016 C 
ATOM      3  C   LIG d   1       0.448  74.991 118.438  0.00  0.00     0.038 C 
ATOM      4  C   LIG d   1       0.413  75.020 117.036  0.00  0.00     0.028 C 
ATOM      5  C   LIG d   1      -0.906  74.526 116.453  0.00  0.00    -0.047 C 
ATOM      6  C   LIG d   1      -2.070  75.278 117.136  0.00  0.00     0.091 C 
ENDROOT
BRANCH   1   7
ATOM      7  O   LIG d   1      -2.803  76.167 119.299  0.00  0.00    -0.368 OA
BRANCH   7   8
ATOM      8  C   LIG d   1      -2.984  77.383 118.533  0.00  0.00     0.119 C 
BRANCH   8   9
ATOM      9  C   LIG d   1      -2.022  78.440 119.108  0.00  0.00     0.028 C 
ATOM     10  C   LIG d   1      -0.910  78.823 118.116  0.00  0.00     0.006 C 
ENDBRANCH   8   9
BRANCH   8  11
ATOM     11  C   LIG d   1      -4.388  77.962 118.731  0.00  0.00     0.028 C 
ATOM     12  C   LIG d   1      -5.016  78.464 117.421  0.00  0.00     0.006 C 
ENDBRANCH   8  11
ENDBRANCH   7   8
ENDBRANCH   1   7
BRANCH   6  13
ATOM     13  N   LIG d   1      -3.401  74.795 116.683  0.00  0.00    -0.311 N 
ATOM     14  C   LIG d   1      -4.075  75.342 115.673  0.00  0.00     0.210 C 
ATOM     15  C   LIG d   1      -5.437  74.704 115.383  0.00  0.00     0.109 C 
ATOM     16  O   LIG d   1      -3.660  76.275 114.969  0.00  0.00    -0.276 OA
ATOM     17  H   LIG d   1      -3.798  74.021 117.179  0.00  0.00     0.149 HD
ENDBRANCH   6  13
BRANCH   5  18
ATOM     18  N   LIG d   1      -0.856  74.740 114.994  0.00  0.00     0.381 N 
ATOM     19  H   LIG d   1      -1.529  74.154 114.542  0.00  0.00    -0.090 HD
ATOM     20  H   LIG d   1       0.057  74.487 114.659  0.00  0.00    -0.090 HD
ATOM     21  H   LIG d   1      -1.041  75.696 114.783  0.00  0.00    -0.090 HD
ENDBRANCH   5  18
BRANCH   3  22
ATOM     22  C   LIG d   1       1.670  74.791 119.063  0.00  0.00     0.382 C 
ATOM     23  O   LIG d   1       2.732  75.125 118.484  0.00  0.00    -0.241 OA
ATOM     24  O   LIG d   1       1.727  74.241 120.179  0.00  0.00    -0.241 OA
ENDBRANCH   3  22
TORSDOF 7
ENDMDL
MODEL 7
REMARK VINA RESULT:      -4.8      1.874      4.787
REMARK  7 active torsions:
REMARK  status: ('A' for Active; 'I' for Inactive)
REMARK    1  A    between atoms: C_2  and  C_3 
REMARK    2  A    between atoms: C_3  and  O_6 
REMARK    3  A    between atoms: C_3  and  C_4 
REMARK    4  A    between atoms: C_7  and  O_6 
REMARK    5  A    between atoms: C_9  and  C_10 
REMARK    6  A    between atoms: N_15  and  C_14 
REMARK    7  A    between atoms: N_20  and  C_19 
REMARK       I    between atoms: C_22  and  N_20 
ROOT
ATOM      1  C   LIG d   1      -1.620  75.355 115.741  0.00  0.00     0.161 C 
ATOM      2  C   LIG d   1      -0.822  74.906 116.806  0.00  0.00     0.016 C 
ATOM      3  C   LIG d   1       0.309  75.609 117.281  0.00  0.00     0.038 C 
ATOM      4  C   LIG d   1       0.631  76.894 116.819  0.00  0.00     0.028 C 
ATOM      5  C   LIG d   1       0.151  77.165 115.397  0.00  0.00    -0.047 C 
ATOM      6  C   LIG d   1      -1.350  76.808 115.298  0.00  0.00     0.091 C 
ENDROOT
BRANCH   1   7
ATOM      7  O   LIG d   1      -3.013  75.181 116.067  0.00  0.00    -0.368 OA
BRANCH   7   8
ATOM      8  C   LIG d   1      -3.742  76.385 116.411  0.00  0.00     0.119 C 
BRANCH   8   9
ATOM      9  C   LIG d   1      -3.772  76.485 117.948  0.00  0.00     0.028 C 
ATOM     10  C   LIG d   1      -2.943  77.668 118.476  0.00  0.00     0.006 C 
ENDBRANCH   8   9
BRANCH   8  11
ATOM     11  C   LIG d   1      -5.209  76.290 115.982  0.00  0.00     0.028 C 
ATOM     12  C   LIG d   1      -5.384  75.649 114.596  0.00  0.00     0.006 C 
ENDBRANCH   8  11
ENDBRANCH   7   8
ENDBRANCH   1   7
BRANCH   6  13
ATOM     13  N   LIG d   1      -1.879  76.963 113.918  0.00  0.00    -0.311 N 
ATOM     14  C   LIG d   1      -2.567  78.029 113.512  0.00  0.00     0.210 C 
ATOM     15  C   LIG d   1      -3.038  77.979 112.055  0.00  0.00     0.109 C 
ATOM     16  O   LIG d   1      -2.805  79.026 114.211  0.00  0.00    -0.276 OA
ATOM     17  H   LIG d   1      -1.705  76.215 113.276  0.00  0.00     0.149 HD
ENDBRANCH   6  13
BRANCH   5  18
ATOM     18  N   LIG d   1       0.430  78.581 115.094  0.00  0.00     0.381 N 
ATOM     19  H   LIG d   1       0.337  78.742 114.111  0.00  0.00    -0.090 HD
ATOM     20  H   LIG d   1       1.377  78.790 115.359  0.00  0.00    -0.090 HD
ATOM     21  H   LIG d   1      -0.200  79.167 115.596  0.00  0.00    -0.090 HD
ENDBRANCH   5  18
BRANCH   3  22
ATOM     22  C   LIG d   1       1.154  75.010 118.203  0.00  0.00     0.382 C 
ATOM     23  O   LIG d   1       2.378  75.286 118.203  0.00  0.00    -0.241 OA
ATOM     24  O   LIG d   1       0.716  74.163 119.004  0.00  0.00    -0.241 OA
ENDBRANCH   3  22
TORSDOF 7
ENDMDL
MODEL 8
REMARK VINA RESULT:      -4.7     10.186     12.529
REMARK  7 active torsions:
REMARK  status: ('A' for Active; 'I' for Inactive)
REMARK    1  A    between atoms: C_2  and  C_3 
REMARK    2  A    between atoms: C_3  and  O_6 
REMARK    3  A    between atoms: C_3  and  C_4 
REMARK    4  A    between atoms: C_7  and  O_6 
REMARK    5  A    between atoms: C_9  and  C_10 
REMARK    6  A    between atoms: N_15  and  C_14 
REMARK    7  A    between atoms: N_20  and  C_19 
REMARK       I    between atoms: C_22  and  N_20 
ROOT
ATOM      1  C   LIG d   1       2.540  87.037 114.837  0.00  0.00     0.161 C 
ATOM      2  C   LIG d   1       1.399  86.770 115.611  0.00  0.00     0.016 C 
ATOM      3  C   LIG d   1       0.955  87.608 116.659  0.00  0.00     0.038 C 
ATOM      4  C   LIG d   1       1.542  88.858 116.907  0.00  0.00     0.028 C 
ATOM      5  C   LIG d   1       3.004  88.937 116.482  0.00  0.00    -0.047 C 
ATOM      6  C   LIG d   1       3.128  88.452 115.020  0.00  0.00     0.091 C 
ENDROOT
BRANCH   1   7
ATOM      7  O   LIG d   1       2.257  86.789 113.446  0.00  0.00    -0.368 OA
BRANCH   7   8
ATOM      8  C   LIG d   1       1.736  85.475 113.127  0.00  0.00     0.119 C 
BRANCH   8   9
ATOM      9  C   LIG d   1       2.797  84.750 112.277  0.00  0.00     0.028 C 
ATOM     10  C   LIG d   1       4.056  85.604 112.057  0.00  0.00     0.006 C 
ENDBRANCH   8   9
BRANCH   8  11
ATOM     11  C   LIG d   1       0.495  85.569 112.233  0.00  0.00     0.028 C 
ATOM     12  C   LIG d   1      -0.817  85.403 113.016  0.00  0.00     0.006 C 
ENDBRANCH   8  11
ENDBRANCH   7   8
ENDBRANCH   1   7
BRANCH   6  13
ATOM     13  N   LIG d   1       4.538  88.417 114.552  0.00  0.00    -0.311 N 
ATOM     14  C   LIG d   1       4.936  88.917 113.383  0.00  0.00     0.210 C 
ATOM     15  C   LIG d   1       6.430  88.759 113.087  0.00  0.00     0.109 C 
ATOM     16  O   LIG d   1       4.198  89.505 112.578  0.00  0.00    -0.276 OA
ATOM     17  H   LIG d   1       5.209  87.986 115.157  0.00  0.00     0.149 HD
ENDBRANCH   6  13
BRANCH   5  18
ATOM     18  N   LIG d   1       3.449  90.331 116.670  0.00  0.00     0.381 N 
ATOM     19  H   LIG d   1       2.757  90.841 117.181  0.00  0.00    -0.090 HD
ATOM     20  H   LIG d   1       3.556  90.761 115.768  0.00  0.00    -0.090 HD
ATOM     21  H   LIG d   1       4.316  90.349 117.160  0.00  0.00    -0.090 HD
ENDBRANCH   5  18
BRANCH   3  22
ATOM     22  C   LIG d   1      -0.061  87.179 117.499  0.00  0.00     0.382 C 
ATOM     23  O   LIG d   1      -1.166  87.775 117.501  0.00  0.00    -0.241 OA
ATOM     24  O   LIG d   1       0.126  86.232 118.286  0.00  0.00    -0.241 OA
ENDBRANCH   3  22
TORSDOF 7
ENDMDL
MODEL 9
REMARK VINA RESULT:      -4.6      2.814      3.813
REMARK  7 active torsions:
REMARK  status: ('A' for Active; 'I' for Inactive)
REMARK    1  A    between atoms: C_2  and  C_3 
REMARK    2  A    between atoms: C_3  and  O_6 
REMARK    3  A    between atoms: C_3  and  C_4 
REMARK    4  A    between atoms: C_7  and  O_6 
REMARK    5  A    between atoms: C_9  and  C_10 
REMARK    6  A    between atoms: N_15  and  C_14 
REMARK    7  A    between atoms: N_20  and  C_19 
REMARK       I    between atoms: C_22  and  N_20 
ROOT
ATOM      1  C   LIG d   1      -3.323  76.248 116.190  0.00  0.00     0.161 C 
ATOM      2  C   LIG d   1      -2.613  75.480 115.252  0.00  0.00     0.016 C 
ATOM      3  C   LIG d   1      -1.236  75.180 115.375  0.00  0.00     0.038 C 
ATOM      4  C   LIG d   1      -0.507  75.504 116.529  0.00  0.00     0.028 C 
ATOM      5  C   LIG d   1      -1.057  76.716 117.273  0.00  0.00    -0.047 C 
ATOM      6  C   LIG d   1      -2.571  76.515 117.510  0.00  0.00     0.091 C 
ENDROOT
BRANCH   1   7
ATOM      7  O   LIG d   1      -4.600  75.635 116.456  0.00  0.00    -0.368 OA
BRANCH   7   8
ATOM      8  C   LIG d   1      -5.748  76.252 115.824  0.00  0.00     0.119 C 
BRANCH   8   9
ATOM      9  C   LIG d   1      -6.888  76.280 116.860  0.00  0.00     0.028 C 
ATOM     10  C   LIG d   1      -6.774  77.471 117.826  0.00  0.00     0.006 C 
ENDBRANCH   8   9
BRANCH   8  11
ATOM     11  C   LIG d   1      -6.273  75.398 114.666  0.00  0.00     0.028 C 
ATOM     12  C   LIG d   1      -6.072  76.065 113.295  0.00  0.00     0.006 C 
ENDBRANCH   8  11
ENDBRANCH   7   8
ENDBRANCH   1   7
BRANCH   6  13
ATOM     13  N   LIG d   1      -3.204  77.693 118.159  0.00  0.00    -0.311 N 
ATOM     14  C   LIG d   1      -3.405  77.787 119.472  0.00  0.00     0.210 C 
ATOM     15  C   LIG d   1      -4.091  79.077 119.930  0.00  0.00     0.109 C 
ATOM     16  O   LIG d   1      -3.050  76.939 120.304  0.00  0.00    -0.276 OA
ATOM     17  H   LIG d   1      -3.495  78.441 117.561  0.00  0.00     0.149 HD
ENDBRANCH   6  13
BRANCH   5  18
ATOM     18  N   LIG d   1      -0.289  76.856 118.525  0.00  0.00     0.381 N 
ATOM     19  H   LIG d   1      -0.893  76.719 119.310  0.00  0.00    -0.090 HD
ATOM     20  H   LIG d   1       0.085  77.788 118.574  0.00  0.00    -0.090 HD
ATOM     21  H   LIG d   1       0.453  76.191 118.546  0.00  0.00    -0.090 HD
ENDBRANCH   5  18
BRANCH   3  22
ATOM     22  C   LIG d   1      -0.566  74.585 114.317  0.00  0.00     0.382 C 
ATOM     23  O   LIG d   1      -0.427  73.338 114.285  0.00  0.00    -0.241 OA
ATOM     24  O   LIG d   1      -0.059  75.282 113.418  0.00  0.00    -0.241 OA
ENDBRANCH   3  22
TORSDOF 7
ENDMDL
