MODEL 1
REMARK VINA RESULT:      -5.3      0.000      0.000
REMARK  7 active torsions:
REMARK  status: ('A' for Active; 'I' for Inactive)
REMARK    1  A    between atoms: C_2  and  C_3 
REMARK    2  A    between atoms: C_3  and  O_6 
REMARK    3  A    between atoms: C_3  and  C_4 
REMARK    4  A    between atoms: C_7  and  O_6 
REMARK    5  A    between atoms: C_9  and  C_10 
REMARK    6  A    between atoms: N_15  and  C_14 
REMARK    7  A    between atoms: N_20  and  C_19 
REMARK       I    between atoms: C_22  and  N_20 
ROOT
ATOM      1  C   LIG d   1      -6.671  77.389 117.430  0.00  0.00     0.161 C 
ATOM      2  C   LIG d   1      -7.982  77.738 117.794  0.00  0.00     0.016 C 
ATOM      3  C   LIG d   1      -8.417  79.075 117.949  0.00  0.00     0.038 C 
ATOM      4  C   LIG d   1      -7.605  80.164 117.600  0.00  0.00     0.028 C 
ATOM      5  C   LIG d   1      -6.113  79.867 117.711  0.00  0.00    -0.047 C 
ATOM      6  C   LIG d   1      -5.802  78.565 116.938  0.00  0.00     0.091 C 
ENDROOT
BRANCH   1   7
ATOM      7  O   LIG d   1      -6.701  76.340 116.442  0.00  0.00    -0.368 OA
BRANCH   7   8
ATOM      8  C   LIG d   1      -6.179  75.055 116.860  0.00  0.00     0.119 C 
BRANCH   8   9
ATOM      9  C   LIG d   1      -5.550  74.386 115.623  0.00  0.00     0.028 C 
ATOM     10  C   LIG d   1      -5.350  75.373 114.460  0.00  0.00     0.006 C 
ENDBRANCH   8   9
BRANCH   8  11
ATOM     11  C   LIG d   1      -7.303  74.114 117.304  0.00  0.00     0.028 C 
ATOM     12  C   LIG d   1      -7.187  72.714 116.682  0.00  0.00     0.006 C 
ENDBRANCH   8  11
ENDBRANCH   7   8
ENDBRANCH   1   7
BRANCH   6  13
ATOM     13  N   LIG d   1      -4.378  78.157 117.065  0.00  0.00    -0.311 N 
ATOM     14  C   LIG d   1      -3.520  78.162 116.047  0.00  0.00     0.210 C 
ATOM     15  C   LIG d   1      -2.106  77.685 116.391  0.00  0.00     0.109 C 
ATOM     16  O   LIG d   1      -3.787  78.548 114.899  0.00  0.00    -0.276 OA
ATOM     17  H   LIG d   1      -4.069  77.859 117.970  0.00  0.00     0.149 HD
ENDBRANCH   6  13
BRANCH   5  18
ATOM     18  N   LIG d   1      -5.385  81.038 117.188  0.00  0.00     0.381 N 
ATOM     19  H   LIG d   1      -4.429  80.796 117.019  0.00  0.00    -0.090 HD
ATOM     20  H   LIG d   1      -5.408  81.770 117.876  0.00  0.00    -0.090 HD
ATOM     21  H   LIG d   1      -5.809  81.354 116.343  0.00  0.00    -0.090 HD
ENDBRANCH   5  18
BRANCH   3  22
ATOM     22  C   LIG d   1      -9.665  79.332 118.496  0.00  0.00     0.382 C 
ATOM     23  O   LIG d   1     -10.558  78.451 118.462  0.00  0.00    -0.241 OA
ATOM     24  O   LIG d   1      -9.923  80.449 118.982  0.00  0.00    -0.241 OA
ENDBRANCH   3  22
TORSDOF 7
ENDMDL
MODEL 2
REMARK VINA RESULT:      -5.0     11.185     13.929
REMARK  7 active torsions:
REMARK  status: ('A' for Active; 'I' for Inactive)
REMARK    1  A    between atoms: C_2  and  C_3 
REMARK    2  A    between atoms: C_3  and  O_6 
REMARK    3  A    between atoms: C_3  and  C_4 
REMARK    4  A    between atoms: C_7  and  O_6 
REMARK    5  A    between atoms: C_9  and  C_10 
REMARK    6  A    between atoms: N_15  and  C_14 
REMARK    7  A    between atoms: N_20  and  C_19 
REMARK       I    between atoms: C_22  and  N_20 
ROOT
ATOM      1  C   LIG d   1       1.517  87.621 115.316  0.00  0.00     0.161 C 
ATOM      2  C   LIG d   1       1.798  88.980 115.531  0.00  0.00     0.016 C 
ATOM      3  C   LIG d   1       2.481  89.462 116.671  0.00  0.00     0.038 C 
ATOM      4  C   LIG d   1       3.066  88.596 117.606  0.00  0.00     0.028 C 
ATOM      5  C   LIG d   1       2.373  87.241 117.693  0.00  0.00    -0.047 C 
ATOM      6  C   LIG d   1       2.244  86.651 116.270  0.00  0.00     0.091 C 
ENDROOT
BRANCH   1   7
ATOM      7  O   LIG d   1       1.793  87.276 113.944  0.00  0.00    -0.368 OA
BRANCH   7   8
ATOM      8  C   LIG d   1       3.174  86.970 113.629  0.00  0.00     0.119 C 
BRANCH   8   9
ATOM      9  C   LIG d   1       3.641  87.982 112.565  0.00  0.00     0.028 C 
ATOM     10  C   LIG d   1       4.702  88.955 113.106  0.00  0.00     0.006 C 
ENDBRANCH   8   9
BRANCH   8  11
ATOM     11  C   LIG d   1       3.304  85.595 112.967  0.00  0.00     0.028 C 
ATOM     12  C   LIG d   1       1.944  84.982 112.596  0.00  0.00     0.006 C 
ENDBRANCH   8  11
ENDBRANCH   7   8
ENDBRANCH   1   7
BRANCH   6  13
ATOM     13  N   LIG d   1       1.502  85.363 116.255  0.00  0.00    -0.311 N 
ATOM     14  C   LIG d   1       2.099  84.173 116.250  0.00  0.00     0.210 C 
ATOM     15  C   LIG d   1       1.148  82.973 116.214  0.00  0.00     0.109 C 
ATOM     16  O   LIG d   1       3.325  83.996 116.306  0.00  0.00    -0.276 OA
ATOM     17  H   LIG d   1       0.502  85.414 116.241  0.00  0.00     0.149 HD
ENDBRANCH   6  13
BRANCH   5  18
ATOM     18  N   LIG d   1       3.167  86.391 118.601  0.00  0.00     0.381 N 
ATOM     19  H   LIG d   1       4.121  86.692 118.598  0.00  0.00    -0.090 HD
ATOM     20  H   LIG d   1       3.133  85.443 118.271  0.00  0.00    -0.090 HD
ATOM     21  H   LIG d   1       2.798  86.443 119.525  0.00  0.00    -0.090 HD
ENDBRANCH   5  18
BRANCH   3  22
ATOM     22  C   LIG d   1       2.550  90.827 116.904  0.00  0.00     0.382 C 
ATOM     23  O   LIG d   1       1.628  91.403 117.531  0.00  0.00    -0.241 OA
ATOM     24  O   LIG d   1       3.500  91.498 116.458  0.00  0.00    -0.241 OA
ENDBRANCH   3  22
TORSDOF 7
ENDMDL
MODEL 3
REMARK VINA RESULT:      -5.0      1.835      2.650
REMARK  7 active torsions:
REMARK  status: ('A' for Active; 'I' for Inactive)
REMARK    1  A    between atoms: C_2  and  C_3 
REMARK    2  A    between atoms: C_3  and  O_6 
REMARK    3  A    between atoms: C_3  and  C_4 
REMARK    4  A    between atoms: C_7  and  O_6 
REMARK    5  A    between atoms: C_9  and  C_10 
REMARK    6  A    between atoms: N_15  and  C_14 
REMARK    7  A    between atoms: N_20  and  C_19 
REMARK       I    between atoms: C_22  and  N_20 
ROOT
ATOM      1  C   LIG d   1      -6.375  79.324 117.634  0.00  0.00     0.161 C 
ATOM      2  C   LIG d   1      -7.708  78.988 117.925  0.00  0.00     0.016 C 
ATOM      3  C   LIG d   1      -8.661  79.921 118.393  0.00  0.00     0.038 C 
ATOM      4  C   LIG d   1      -8.384  81.294 118.460  0.00  0.00     0.028 C 
ATOM      5  C   LIG d   1      -6.904  81.604 118.659  0.00  0.00    -0.047 C 
ATOM      6  C   LIG d   1      -6.084  80.839 117.595  0.00  0.00     0.091 C 
ENDROOT
BRANCH   1   7
ATOM      7  O   LIG d   1      -5.974  78.704 116.397  0.00  0.00    -0.368 OA
BRANCH   7   8
ATOM      8  C   LIG d   1      -5.312  77.421 116.512  0.00  0.00     0.119 C 
BRANCH   8   9
ATOM      9  C   LIG d   1      -3.793  77.674 116.438  0.00  0.00     0.028 C 
ATOM     10  C   LIG d   1      -3.368  78.305 115.101  0.00  0.00     0.006 C 
ENDBRANCH   8   9
BRANCH   8  11
ATOM     11  C   LIG d   1      -5.631  76.520 115.315  0.00  0.00     0.028 C 
ATOM     12  C   LIG d   1      -5.493  75.024 115.642  0.00  0.00     0.006 C 
ENDBRANCH   8  11
ENDBRANCH   7   8
ENDBRANCH   1   7
BRANCH   6  13
ATOM     13  N   LIG d   1      -4.619  81.020 117.771  0.00  0.00    -0.311 N 
ATOM     14  C   LIG d   1      -3.830  81.550 116.839  0.00  0.00     0.210 C 
ATOM     15  C   LIG d   1      -2.347  81.627 117.215  0.00  0.00     0.109 C 
ATOM     16  O   LIG d   1      -4.221  81.994 115.748  0.00  0.00    -0.276 OA
ATOM     17  H   LIG d   1      -4.223  80.716 118.638  0.00  0.00     0.149 HD
ENDBRANCH   6  13
BRANCH   5  18
ATOM     18  N   LIG d   1      -6.740  83.068 118.572  0.00  0.00     0.381 N 
ATOM     19  H   LIG d   1      -6.153  83.387 119.317  0.00  0.00    -0.090 HD
ATOM     20  H   LIG d   1      -7.640  83.502 118.672  0.00  0.00    -0.090 HD
ATOM     21  H   LIG d   1      -6.339  83.315 117.694  0.00  0.00    -0.090 HD
ENDBRANCH   5  18
BRANCH   3  22
ATOM     22  C   LIG d   1      -9.897  79.476 118.839  0.00  0.00     0.382 C 
ATOM     23  O   LIG d   1     -10.443  78.489 118.290  0.00  0.00    -0.241 OA
ATOM     24  O   LIG d   1     -10.492  80.076 119.754  0.00  0.00    -0.241 OA
ENDBRANCH   3  22
TORSDOF 7
ENDMDL
MODEL 4
REMARK VINA RESULT:      -4.9     11.366     13.909
REMARK  7 active torsions:
REMARK  status: ('A' for Active; 'I' for Inactive)
REMARK    1  A    between atoms: C_2  and  C_3 
REMARK    2  A    between atoms: C_3  and  O_6 
REMARK    3  A    between atoms: C_3  and  C_4 
REMARK    4  A    between atoms: C_7  and  O_6 
REMARK    5  A    between atoms: C_9  and  C_10 
REMARK    6  A    between atoms: N_15  and  C_14 
REMARK    7  A    between atoms: N_20  and  C_19 
REMARK       I    between atoms: C_22  and  N_20 
ROOT
ATOM      1  C   LIG d   1       2.281  87.593 115.643  0.00  0.00     0.161 C 
ATOM      2  C   LIG d   1       2.284  88.729 116.469  0.00  0.00     0.016 C 
ATOM      3  C   LIG d   1       3.050  89.886 116.199  0.00  0.00     0.038 C 
ATOM      4  C   LIG d   1       3.755  90.044 114.996  0.00  0.00     0.028 C 
ATOM      5  C   LIG d   1       4.185  88.723 114.367  0.00  0.00    -0.047 C 
ATOM      6  C   LIG d   1       2.956  87.790 114.269  0.00  0.00     0.091 C 
ENDROOT
BRANCH   1   7
ATOM      7  O   LIG d   1       0.931  87.115 115.473  0.00  0.00    -0.368 OA
BRANCH   7   8
ATOM      8  C   LIG d   1       0.581  85.919 116.212  0.00  0.00     0.119 C 
BRANCH   8   9
ATOM      9  C   LIG d   1       1.893  85.279 116.706  0.00  0.00     0.028 C 
ATOM     10  C   LIG d   1       2.105  83.864 116.141  0.00  0.00     0.006 C 
ENDBRANCH   8   9
BRANCH   8  11
ATOM     11  C   LIG d   1      -0.063  84.870 115.301  0.00  0.00     0.028 C 
ATOM     12  C   LIG d   1      -0.860  85.494 114.144  0.00  0.00     0.006 C 
ENDBRANCH   8  11
ENDBRANCH   7   8
ENDBRANCH   1   7
BRANCH   6  13
ATOM     13  N   LIG d   1       3.306  86.445 113.743  0.00  0.00    -0.311 N 
ATOM     14  C   LIG d   1       2.679  85.874 112.716  0.00  0.00     0.210 C 
ATOM     15  C   LIG d   1       3.184  84.475 112.347  0.00  0.00     0.109 C 
ATOM     16  O   LIG d   1       1.773  86.405 112.056  0.00  0.00    -0.276 OA
ATOM     17  H   LIG d   1       4.050  85.956 114.200  0.00  0.00     0.149 HD
ENDBRANCH   6  13
BRANCH   5  18
ATOM     18  N   LIG d   1       4.785  89.028 113.055  0.00  0.00     0.381 N 
ATOM     19  H   LIG d   1       5.098  89.978 113.038  0.00  0.00    -0.090 HD
ATOM     20  H   LIG d   1       4.086  88.913 112.343  0.00  0.00    -0.090 HD
ATOM     21  H   LIG d   1       5.552  88.416 112.880  0.00  0.00    -0.090 HD
ENDBRANCH   5  18
BRANCH   3  22
ATOM     22  C   LIG d   1       3.150  90.883 117.156  0.00  0.00     0.382 C 
ATOM     23  O   LIG d   1       3.590  92.015 116.839  0.00  0.00    -0.241 OA
ATOM     24  O   LIG d   1       2.846  90.653 118.342  0.00  0.00    -0.241 OA
ENDBRANCH   3  22
TORSDOF 7
ENDMDL
MODEL 5
REMARK VINA RESULT:      -4.9     14.475     16.575
REMARK  7 active torsions:
REMARK  status: ('A' for Active; 'I' for Inactive)
REMARK    1  A    between atoms: C_2  and  C_3 
REMARK    2  A    between atoms: C_3  and  O_6 
REMARK    3  A    between atoms: C_3  and  C_4 
REMARK    4  A    between atoms: C_7  and  O_6 
REMARK    5  A    between atoms: C_9  and  C_10 
REMARK    6  A    between atoms: N_15  and  C_14 
REMARK    7  A    between atoms: N_20  and  C_19 
REMARK       I    between atoms: C_22  and  N_20 
ROOT
ATOM      1  C   LIG d   1     -15.785  65.848 117.221  0.00  0.00     0.161 C 
ATOM      2  C   LIG d   1     -15.665  66.719 116.125  0.00  0.00     0.016 C 
ATOM      3  C   LIG d   1     -15.946  66.338 114.793  0.00  0.00     0.038 C 
ATOM      4  C   LIG d   1     -16.516  65.094 114.483  0.00  0.00     0.028 C 
ATOM      5  C   LIG d   1     -16.181  64.005 115.496  0.00  0.00    -0.047 C 
ATOM      6  C   LIG d   1     -16.511  64.521 116.915  0.00  0.00     0.091 C 
ENDROOT
BRANCH   1   7
ATOM      7  O   LIG d   1     -16.425  66.528 118.318  0.00  0.00    -0.368 OA
BRANCH   7   8
ATOM      8  C   LIG d   1     -17.277  67.645 117.966  0.00  0.00     0.119 C 
BRANCH   8   9
ATOM      9  C   LIG d   1     -17.011  68.770 118.984  0.00  0.00     0.028 C 
ATOM     10  C   LIG d   1     -18.283  69.193 119.738  0.00  0.00     0.006 C 
ENDBRANCH   8   9
BRANCH   8  11
ATOM     11  C   LIG d   1     -18.758  67.291 118.131  0.00  0.00     0.028 C 
ATOM     12  C   LIG d   1     -19.430  66.907 116.803  0.00  0.00     0.006 C 
ENDBRANCH   8  11
ENDBRANCH   7   8
ENDBRANCH   1   7
BRANCH   6  13
ATOM     13  N   LIG d   1     -16.134  63.548 117.974  0.00  0.00    -0.311 N 
ATOM     14  C   LIG d   1     -16.936  63.218 118.985  0.00  0.00     0.210 C 
ATOM     15  C   LIG d   1     -16.345  62.212 119.977  0.00  0.00     0.109 C 
ATOM     16  O   LIG d   1     -18.092  63.639 119.137  0.00  0.00    -0.276 OA
ATOM     17  H   LIG d   1     -15.224  63.135 117.911  0.00  0.00     0.149 HD
ENDBRANCH   6  13
BRANCH   5  18
ATOM     18  N   LIG d   1     -16.949  62.801 115.126  0.00  0.00     0.381 N 
ATOM     19  H   LIG d   1     -17.040  62.749 114.131  0.00  0.00    -0.090 HD
ATOM     20  H   LIG d   1     -17.869  62.867 115.524  0.00  0.00    -0.090 HD
ATOM     21  H   LIG d   1     -16.489  61.985 115.467  0.00  0.00    -0.090 HD
ENDBRANCH   5  18
BRANCH   3  22
ATOM     22  C   LIG d   1     -15.620  67.191 113.750  0.00  0.00     0.382 C 
ATOM     23  O   LIG d   1     -15.344  66.723 112.620  0.00  0.00    -0.241 OA
ATOM     24  O   LIG d   1     -15.556  68.421 113.937  0.00  0.00    -0.241 OA
ENDBRANCH   3  22
TORSDOF 7
ENDMDL
MODEL 6
REMARK VINA RESULT:      -4.8      8.082     11.063
REMARK  7 active torsions:
REMARK  status: ('A' for Active; 'I' for Inactive)
REMARK    1  A    between atoms: C_2  and  C_3 
REMARK    2  A    between atoms: C_3  and  O_6 
REMARK    3  A    between atoms: C_3  and  C_4 
REMARK    4  A    between atoms: C_7  and  O_6 
REMARK    5  A    between atoms: C_9  and  C_10 
REMARK    6  A    between atoms: N_15  and  C_14 
REMARK    7  A    between atoms: N_20  and  C_19 
REMARK       I    between atoms: C_22  and  N_20 
ROOT
ATOM      1  C   LIG d   1      -0.329  85.143 113.810  0.00  0.00     0.161 C 
ATOM      2  C   LIG d   1      -1.340  84.182 113.977  0.00  0.00     0.016 C 
ATOM      3  C   LIG d   1      -1.218  82.841 113.547  0.00  0.00     0.038 C 
ATOM      4  C   LIG d   1      -0.009  82.328 113.053  0.00  0.00     0.028 C 
ATOM      5  C   LIG d   1       0.876  83.384 112.401  0.00  0.00    -0.047 C 
ATOM      6  C   LIG d   1       1.038  84.574 113.375  0.00  0.00     0.091 C 
ENDROOT
BRANCH   1   7
ATOM      7  O   LIG d   1      -0.187  85.918 115.018  0.00  0.00    -0.368 OA
BRANCH   7   8
ATOM      8  C   LIG d   1       0.895  85.531 115.899  0.00  0.00     0.119 C 
BRANCH   8   9
ATOM      9  C   LIG d   1       0.272  84.808 117.109  0.00  0.00     0.028 C 
ATOM     10  C   LIG d   1       0.422  83.280 117.020  0.00  0.00     0.006 C 
ENDBRANCH   8   9
BRANCH   8  11
ATOM     11  C   LIG d   1       1.604  86.758 116.482  0.00  0.00     0.028 C 
ATOM     12  C   LIG d   1       2.450  86.425 117.721  0.00  0.00     0.006 C 
ENDBRANCH   8  11
ENDBRANCH   7   8
ENDBRANCH   1   7
BRANCH   6  13
ATOM     13  N   LIG d   1       1.821  85.689 112.782  0.00  0.00    -0.311 N 
ATOM     14  C   LIG d   1       3.143  85.798 112.894  0.00  0.00     0.210 C 
ATOM     15  C   LIG d   1       3.750  87.035 112.225  0.00  0.00     0.109 C 
ATOM     16  O   LIG d   1       3.875  84.970 113.457  0.00  0.00    -0.276 OA
ATOM     17  H   LIG d   1       1.309  86.390 112.281  0.00  0.00     0.149 HD
ENDBRANCH   6  13
BRANCH   5  18
ATOM     18  N   LIG d   1       2.157  82.741 112.056  0.00  0.00     0.381 N 
ATOM     19  H   LIG d   1       2.444  82.137 112.800  0.00  0.00    -0.090 HD
ATOM     20  H   LIG d   1       2.858  83.453 111.940  0.00  0.00    -0.090 HD
ATOM     21  H   LIG d   1       2.061  82.219 111.212  0.00  0.00    -0.090 HD
ENDBRANCH   5  18
BRANCH   3  22
ATOM     22  C   LIG d   1      -2.326  82.007 113.572  0.00  0.00     0.382 C 
ATOM     23  O   LIG d   1      -3.064  81.916 112.562  0.00  0.00    -0.241 OA
ATOM     24  O   LIG d   1      -2.621  81.380 114.607  0.00  0.00    -0.241 OA
ENDBRANCH   3  22
TORSDOF 7
ENDMDL
MODEL 7
REMARK VINA RESULT:      -4.8     13.305     16.232
REMARK  7 active torsions:
REMARK  status: ('A' for Active; 'I' for Inactive)
REMARK    1  A    between atoms: C_2  and  C_3 
REMARK    2  A    between atoms: C_3  and  O_6 
REMARK    3  A    between atoms: C_3  and  C_4 
REMARK    4  A    between atoms: C_7  and  O_6 
REMARK    5  A    between atoms: C_9  and  C_10 
REMARK    6  A    between atoms: N_15  and  C_14 
REMARK    7  A    between atoms: N_20  and  C_19 
REMARK       I    between atoms: C_22  and  N_20 
ROOT
ATOM      1  C   LIG d   1     -16.532  65.472 115.425  0.00  0.00     0.161 C 
ATOM      2  C   LIG d   1     -16.150  66.169 114.267  0.00  0.00     0.016 C 
ATOM      3  C   LIG d   1     -15.440  67.391 114.293  0.00  0.00     0.038 C 
ATOM      4  C   LIG d   1     -14.930  67.927 115.485  0.00  0.00     0.028 C 
ATOM      5  C   LIG d   1     -15.725  67.521 116.721  0.00  0.00    -0.047 C 
ATOM      6  C   LIG d   1     -15.887  65.984 116.731  0.00  0.00     0.091 C 
ENDROOT
BRANCH   1   7
ATOM      7  O   LIG d   1     -16.272  64.064 115.257  0.00  0.00    -0.368 OA
BRANCH   7   8
ATOM      8  C   LIG d   1     -17.436  63.209 115.152  0.00  0.00     0.119 C 
BRANCH   8   9
ATOM      9  C   LIG d   1     -17.528  62.730 113.690  0.00  0.00     0.028 C 
ATOM     10  C   LIG d   1     -17.774  61.215 113.583  0.00  0.00     0.006 C 
ENDBRANCH   8   9
BRANCH   8  11
ATOM     11  C   LIG d   1     -18.728  63.992 115.404  0.00  0.00     0.028 C 
ATOM     12  C   LIG d   1     -19.516  63.469 116.615  0.00  0.00     0.006 C 
ENDBRANCH   8  11
ENDBRANCH   7   8
ENDBRANCH   1   7
BRANCH   6  13
ATOM     13  N   LIG d   1     -16.726  65.509 117.862  0.00  0.00    -0.311 N 
ATOM     14  C   LIG d   1     -16.360  64.527 118.684  0.00  0.00     0.210 C 
ATOM     15  C   LIG d   1     -17.380  64.180 119.773  0.00  0.00     0.109 C 
ATOM     16  O   LIG d   1     -15.273  63.932 118.635  0.00  0.00    -0.276 OA
ATOM     17  H   LIG d   1     -17.611  65.958 117.994  0.00  0.00     0.149 HD
ENDBRANCH   6  13
BRANCH   5  18
ATOM     18  N   LIG d   1     -15.006  68.034 117.902  0.00  0.00     0.381 N 
ATOM     19  H   LIG d   1     -15.120  67.402 118.670  0.00  0.00    -0.090 HD
ATOM     20  H   LIG d   1     -15.399  68.921 118.163  0.00  0.00    -0.090 HD
ATOM     21  H   LIG d   1     -14.038  68.140 117.692  0.00  0.00    -0.090 HD
ENDBRANCH   5  18
BRANCH   3  22
ATOM     22  C   LIG d   1     -15.270  68.112 113.121  0.00  0.00     0.382 C 
ATOM     23  O   LIG d   1     -15.795  67.709 112.055  0.00  0.00    -0.241 OA
ATOM     24  O   LIG d   1     -14.561  69.136 113.107  0.00  0.00    -0.241 OA
ENDBRANCH   3  22
TORSDOF 7
ENDMDL
MODEL 8
REMARK VINA RESULT:      -4.8     14.282     17.283
REMARK  7 active torsions:
REMARK  status: ('A' for Active; 'I' for Inactive)
REMARK    1  A    between atoms: C_2  and  C_3 
REMARK    2  A    between atoms: C_3  and  O_6 
REMARK    3  A    between atoms: C_3  and  C_4 
REMARK    4  A    between atoms: C_7  and  O_6 
REMARK    5  A    between atoms: C_9  and  C_10 
REMARK    6  A    between atoms: N_15  and  C_14 
REMARK    7  A    between atoms: N_20  and  C_19 
REMARK       I    between atoms: C_22  and  N_20 
ROOT
ATOM      1  C   LIG d   1     -16.410  64.579 115.992  0.00  0.00     0.161 C 
ATOM      2  C   LIG d   1     -15.922  65.875 116.230  0.00  0.00     0.016 C 
ATOM      3  C   LIG d   1     -15.724  66.832 115.208  0.00  0.00     0.038 C 
ATOM      4  C   LIG d   1     -16.146  66.606 113.889  0.00  0.00     0.028 C 
ATOM      5  C   LIG d   1     -16.177  65.130 113.508  0.00  0.00    -0.047 C 
ATOM      6  C   LIG d   1     -16.980  64.352 114.576  0.00  0.00     0.091 C 
ENDROOT
BRANCH   1   7
ATOM      7  O   LIG d   1     -17.393  64.237 116.989  0.00  0.00    -0.368 OA
BRANCH   7   8
ATOM      8  C   LIG d   1     -18.766  64.568 116.669  0.00  0.00     0.119 C 
BRANCH   8   9
ATOM      9  C   LIG d   1     -19.167  65.773 117.542  0.00  0.00     0.028 C 
ATOM     10  C   LIG d   1     -19.503  67.019 116.705  0.00  0.00     0.006 C 
ENDBRANCH   8   9
BRANCH   8  11
ATOM     11  C   LIG d   1     -19.720  63.440 117.073  0.00  0.00     0.028 C 
ATOM     12  C   LIG d   1     -19.002  62.097 117.278  0.00  0.00     0.006 C 
ENDBRANCH   8  11
ENDBRANCH   7   8
ENDBRANCH   1   7
BRANCH   6  13
ATOM     13  N   LIG d   1     -16.988  62.888 114.324  0.00  0.00    -0.311 N 
ATOM     14  C   LIG d   1     -17.971  62.261 113.680  0.00  0.00     0.210 C 
ATOM     15  C   LIG d   1     -17.792  60.745 113.545  0.00  0.00     0.109 C 
ATOM     16  O   LIG d   1     -18.958  62.820 113.178  0.00  0.00    -0.276 OA
ATOM     17  H   LIG d   1     -16.210  62.361 114.670  0.00  0.00     0.149 HD
ENDBRANCH   6  13
BRANCH   5  18
ATOM     18  N   LIG d   1     -16.765  65.030 112.158  0.00  0.00     0.381 N 
ATOM     19  H   LIG d   1     -17.600  65.579 112.111  0.00  0.00    -0.090 HD
ATOM     20  H   LIG d   1     -17.007  64.072 111.978  0.00  0.00    -0.090 HD
ATOM     21  H   LIG d   1     -16.111  65.349 111.477  0.00  0.00    -0.090 HD
ENDBRANCH   5  18
BRANCH   3  22
ATOM     22  C   LIG d   1     -15.061  68.015 115.493  0.00  0.00     0.382 C 
ATOM     23  O   LIG d   1     -14.742  68.795 114.564  0.00  0.00    -0.241 OA
ATOM     24  O   LIG d   1     -14.739  68.292 116.664  0.00  0.00    -0.241 OA
ENDBRANCH   3  22
TORSDOF 7
ENDMDL
MODEL 9
REMARK VINA RESULT:      -4.8     11.034     13.912
REMARK  7 active torsions:
REMARK  status: ('A' for Active; 'I' for Inactive)
REMARK    1  A    between atoms: C_2  and  C_3 
REMARK    2  A    between atoms: C_3  and  O_6 
REMARK    3  A    between atoms: C_3  and  C_4 
REMARK    4  A    between atoms: C_7  and  O_6 
REMARK    5  A    between atoms: C_9  and  C_10 
REMARK    6  A    between atoms: N_15  and  C_14 
REMARK    7  A    between atoms: N_20  and  C_19 
REMARK       I    between atoms: C_22  and  N_20 
ROOT
ATOM      1  C   LIG d   1       2.045  87.146 115.328  0.00  0.00     0.161 C 
ATOM      2  C   LIG d   1       0.798  86.502 115.294  0.00  0.00     0.016 C 
ATOM      3  C   LIG d   1       0.414  85.603 114.272  0.00  0.00     0.038 C 
ATOM      4  C   LIG d   1       1.315  85.169 113.289  0.00  0.00     0.028 C 
ATOM      5  C   LIG d   1       2.421  86.177 112.994  0.00  0.00    -0.047 C 
ATOM      6  C   LIG d   1       3.083  86.600 114.325  0.00  0.00     0.091 C 
ENDROOT
BRANCH   1   7
ATOM      7  O   LIG d   1       2.577  87.112 116.667  0.00  0.00    -0.368 OA
BRANCH   7   8
ATOM      8  C   LIG d   1       2.606  88.376 117.374  0.00  0.00     0.119 C 
BRANCH   8   9
ATOM      9  C   LIG d   1       2.259  89.482 116.359  0.00  0.00     0.028 C 
ATOM     10  C   LIG d   1       3.217  90.682 116.448  0.00  0.00     0.006 C 
ENDBRANCH   8   9
BRANCH   8  11
ATOM     11  C   LIG d   1       4.018  88.706 117.867  0.00  0.00     0.028 C 
ATOM     12  C   LIG d   1       5.020  87.570 117.610  0.00  0.00     0.006 C 
ENDBRANCH   8  11
ENDBRANCH   7   8
ENDBRANCH   1   7
BRANCH   6  13
ATOM     13  N   LIG d   1       4.119  87.648 114.134  0.00  0.00    -0.311 N 
ATOM     14  C   LIG d   1       3.988  88.662 113.281  0.00  0.00     0.210 C 
ATOM     15  C   LIG d   1       5.183  89.619 113.225  0.00  0.00     0.109 C 
ATOM     16  O   LIG d   1       2.982  88.878 112.588  0.00  0.00    -0.276 OA
ATOM     17  H   LIG d   1       4.955  87.568 114.680  0.00  0.00     0.149 HD
ENDBRANCH   6  13
BRANCH   5  18
ATOM     18  N   LIG d   1       3.365  85.541 112.055  0.00  0.00     0.381 N 
ATOM     19  H   LIG d   1       4.077  86.194 111.797  0.00  0.00    -0.090 HD
ATOM     20  H   LIG d   1       2.866  85.272 111.225  0.00  0.00    -0.090 HD
ATOM     21  H   LIG d   1       3.777  84.738 112.478  0.00  0.00    -0.090 HD
ENDBRANCH   5  18
BRANCH   3  22
ATOM     22  C   LIG d   1      -0.898  85.159 114.204  0.00  0.00     0.382 C 
ATOM     23  O   LIG d   1      -1.690  85.667 113.374  0.00  0.00    -0.241 OA
ATOM     24  O   LIG d   1      -1.312  84.289 114.993  0.00  0.00    -0.241 OA
ENDBRANCH   3  22
TORSDOF 7
ENDMDL
