MODEL 1
REMARK VINA RESULT:      -6.3      0.000      0.000
REMARK  7 active torsions:
REMARK  status: ('A' for Active; 'I' for Inactive)
REMARK    1  A    between atoms: C_2  and  C_3 
REMARK    2  A    between atoms: C_3  and  O_6 
REMARK    3  A    between atoms: C_3  and  C_4 
REMARK    4  A    between atoms: C_7  and  O_6 
REMARK    5  A    between atoms: C_9  and  C_10 
REMARK    6  A    between atoms: N_15  and  C_14 
REMARK    7  A    between atoms: N_20  and  C_19 
REMARK       I    between atoms: C_22  and  N_20 
ROOT
ATOM      1  C   LIG d   1      -7.719  75.206 116.091  0.00  0.00     0.161 C 
ATOM      2  C   LIG d   1      -6.716  74.844 115.177  0.00  0.00     0.016 C 
ATOM      3  C   LIG d   1      -5.509  75.565 115.021  0.00  0.00     0.038 C 
ATOM      4  C   LIG d   1      -5.156  76.615 115.881  0.00  0.00     0.028 C 
ATOM      5  C   LIG d   1      -6.358  77.332 116.486  0.00  0.00    -0.047 C 
ATOM      6  C   LIG d   1      -7.303  76.283 117.115  0.00  0.00     0.091 C 
ENDROOT
BRANCH   1   7
ATOM      7  O   LIG d   1      -8.208  74.032 116.770  0.00  0.00    -0.368 OA
BRANCH   7   8
ATOM      8  C   LIG d   1      -8.933  73.080 115.954  0.00  0.00     0.119 C 
BRANCH   8   9
ATOM      9  C   LIG d   1     -10.348  72.944 116.548  0.00  0.00     0.028 C 
ATOM     10  C   LIG d   1     -10.943  74.300 116.964  0.00  0.00     0.006 C 
ENDBRANCH   8   9
BRANCH   8  11
ATOM     11  C   LIG d   1      -8.317  71.681 116.050  0.00  0.00     0.028 C 
ATOM     12  C   LIG d   1      -9.315  70.622 116.544  0.00  0.00     0.006 C 
ENDBRANCH   8  11
ENDBRANCH   7   8
ENDBRANCH   1   7
BRANCH   6  13
ATOM     13  N   LIG d   1      -8.546  76.893 117.656  0.00  0.00    -0.311 N 
ATOM     14  C   LIG d   1      -8.685  77.269 118.926  0.00  0.00     0.210 C 
ATOM     15  C   LIG d   1     -10.055  77.856 119.280  0.00  0.00     0.109 C 
ATOM     16  O   LIG d   1      -7.793  77.201 119.786  0.00  0.00    -0.276 OA
ATOM     17  H   LIG d   1      -9.310  77.013 117.020  0.00  0.00     0.149 HD
ENDBRANCH   6  13
BRANCH   5  18
ATOM     18  N   LIG d   1      -5.846  78.310 117.465  0.00  0.00     0.381 N 
ATOM     19  H   LIG d   1      -4.904  78.557 117.237  0.00  0.00    -0.090 HD
ATOM     20  H   LIG d   1      -5.850  77.889 118.378  0.00  0.00    -0.090 HD
ATOM     21  H   LIG d   1      -6.420  79.124 117.465  0.00  0.00    -0.090 HD
ENDBRANCH   5  18
BRANCH   3  22
ATOM     22  C   LIG d   1      -4.658  75.260 113.969  0.00  0.00     0.382 C 
ATOM     23  O   LIG d   1      -3.479  74.902 114.200  0.00  0.00    -0.241 OA
ATOM     24  O   LIG d   1      -5.043  75.382 112.790  0.00  0.00    -0.241 OA
ENDBRANCH   3  22
TORSDOF 7
ENDMDL
MODEL 2
REMARK VINA RESULT:      -6.1      1.727      4.928
REMARK  7 active torsions:
REMARK  status: ('A' for Active; 'I' for Inactive)
REMARK    1  A    between atoms: C_2  and  C_3 
REMARK    2  A    between atoms: C_3  and  O_6 
REMARK    3  A    between atoms: C_3  and  C_4 
REMARK    4  A    between atoms: C_7  and  O_6 
REMARK    5  A    between atoms: C_9  and  C_10 
REMARK    6  A    between atoms: N_15  and  C_14 
REMARK    7  A    between atoms: N_20  and  C_19 
REMARK       I    between atoms: C_22  and  N_20 
ROOT
ATOM      1  C   LIG d   1      -7.815  75.959 117.310  0.00  0.00     0.161 C 
ATOM      2  C   LIG d   1      -8.856  76.724 117.862  0.00  0.00     0.016 C 
ATOM      3  C   LIG d   1      -8.761  78.115 118.093  0.00  0.00     0.038 C 
ATOM      4  C   LIG d   1      -7.666  78.868 117.645  0.00  0.00     0.028 C 
ATOM      5  C   LIG d   1      -6.377  78.059 117.539  0.00  0.00    -0.047 C 
ATOM      6  C   LIG d   1      -6.654  76.782 116.713  0.00  0.00     0.091 C 
ENDROOT
BRANCH   1   7
ATOM      7  O   LIG d   1      -8.345  75.051 116.324  0.00  0.00    -0.368 OA
BRANCH   7   8
ATOM      8  C   LIG d   1      -8.301  73.644 116.664  0.00  0.00     0.119 C 
BRANCH   8   9
ATOM      9  C   LIG d   1      -7.241  72.982 115.762  0.00  0.00     0.028 C 
ATOM     10  C   LIG d   1      -6.916  71.543 116.197  0.00  0.00     0.006 C 
ENDBRANCH   8   9
BRANCH   8  11
ATOM     11  C   LIG d   1      -9.620  72.946 116.319  0.00  0.00     0.028 C 
ATOM     12  C   LIG d   1     -10.853  73.784 116.693  0.00  0.00     0.006 C 
ENDBRANCH   8  11
ENDBRANCH   7   8
ENDBRANCH   1   7
BRANCH   6  13
ATOM     13  N   LIG d   1      -5.467  75.892 116.632  0.00  0.00    -0.311 N 
ATOM     14  C   LIG d   1      -4.605  75.909 115.616  0.00  0.00     0.210 C 
ATOM     15  C   LIG d   1      -3.462  74.895 115.720  0.00  0.00     0.109 C 
ATOM     16  O   LIG d   1      -4.662  76.691 114.654  0.00  0.00    -0.276 OA
ATOM     17  H   LIG d   1      -5.327  75.248 117.385  0.00  0.00     0.149 HD
ENDBRANCH   6  13
BRANCH   5  18
ATOM     18  N   LIG d   1      -5.353  78.930 116.931  0.00  0.00     0.381 N 
ATOM     19  H   LIG d   1      -4.441  78.600 117.174  0.00  0.00    -0.090 HD
ATOM     20  H   LIG d   1      -5.459  79.860 117.296  0.00  0.00    -0.090 HD
ATOM     21  H   LIG d   1      -5.458  78.940 115.941  0.00  0.00    -0.090 HD
ENDBRANCH   5  18
BRANCH   3  22
ATOM     22  C   LIG d   1      -9.753  78.761 118.815  0.00  0.00     0.382 C 
ATOM     23  O   LIG d   1     -10.250  78.212 119.828  0.00  0.00    -0.241 OA
ATOM     24  O   LIG d   1     -10.190  79.866 118.440  0.00  0.00    -0.241 OA
ENDBRANCH   3  22
TORSDOF 7
ENDMDL
MODEL 3
REMARK VINA RESULT:      -5.9      1.358      2.056
REMARK  7 active torsions:
REMARK  status: ('A' for Active; 'I' for Inactive)
REMARK    1  A    between atoms: C_2  and  C_3 
REMARK    2  A    between atoms: C_3  and  O_6 
REMARK    3  A    between atoms: C_3  and  C_4 
REMARK    4  A    between atoms: C_7  and  O_6 
REMARK    5  A    between atoms: C_9  and  C_10 
REMARK    6  A    between atoms: N_15  and  C_14 
REMARK    7  A    between atoms: N_20  and  C_19 
REMARK       I    between atoms: C_22  and  N_20 
ROOT
ATOM      1  C   LIG d   1      -6.656  75.889 115.539  0.00  0.00     0.161 C 
ATOM      2  C   LIG d   1      -5.495  75.279 115.036  0.00  0.00     0.016 C 
ATOM      3  C   LIG d   1      -4.275  75.222 115.748  0.00  0.00     0.038 C 
ATOM      4  C   LIG d   1      -4.175  75.642 117.083  0.00  0.00     0.028 C 
ATOM      5  C   LIG d   1      -5.185  76.723 117.455  0.00  0.00    -0.047 C 
ATOM      6  C   LIG d   1      -6.597  76.254 117.037  0.00  0.00     0.091 C 
ENDROOT
BRANCH   1   7
ATOM      7  O   LIG d   1      -7.801  75.056 115.271  0.00  0.00    -0.368 OA
BRANCH   7   8
ATOM      8  C   LIG d   1      -8.231  74.195 116.354  0.00  0.00     0.119 C 
BRANCH   8   9
ATOM      9  C   LIG d   1      -8.048  72.738 115.888  0.00  0.00     0.028 C 
ATOM     10  C   LIG d   1      -6.819  72.067 116.525  0.00  0.00     0.006 C 
ENDBRANCH   8   9
BRANCH   8  11
ATOM     11  C   LIG d   1      -9.730  74.348 116.627  0.00  0.00     0.028 C 
ATOM     12  C   LIG d   1     -10.491  73.016 116.536  0.00  0.00     0.006 C 
ENDBRANCH   8  11
ENDBRANCH   7   8
ENDBRANCH   1   7
BRANCH   6  13
ATOM     13  N   LIG d   1      -7.635  77.288 117.289  0.00  0.00    -0.311 N 
ATOM     14  C   LIG d   1      -8.353  77.349 118.409  0.00  0.00     0.210 C 
ATOM     15  C   LIG d   1      -9.383  78.482 118.456  0.00  0.00     0.109 C 
ATOM     16  O   LIG d   1      -8.212  76.593 119.381  0.00  0.00    -0.276 OA
ATOM     17  H   LIG d   1      -7.793  77.961 116.565  0.00  0.00     0.149 HD
ENDBRANCH   6  13
BRANCH   5  18
ATOM     18  N   LIG d   1      -5.062  76.968 118.904  0.00  0.00     0.381 N 
ATOM     19  H   LIG d   1      -5.663  77.721 119.173  0.00  0.00    -0.090 HD
ATOM     20  H   LIG d   1      -4.114  77.232 119.110  0.00  0.00    -0.090 HD
ATOM     21  H   LIG d   1      -5.302  76.144 119.411  0.00  0.00    -0.090 HD
ENDBRANCH   5  18
BRANCH   3  22
ATOM     22  C   LIG d   1      -3.127  74.777 115.110  0.00  0.00     0.382 C 
ATOM     23  O   LIG d   1      -2.240  74.175 115.763  0.00  0.00    -0.241 OA
ATOM     24  O   LIG d   1      -2.946  75.009 113.900  0.00  0.00    -0.241 OA
ENDBRANCH   3  22
TORSDOF 7
ENDMDL
MODEL 4
REMARK VINA RESULT:      -5.8      1.763      4.803
REMARK  7 active torsions:
REMARK  status: ('A' for Active; 'I' for Inactive)
REMARK    1  A    between atoms: C_2  and  C_3 
REMARK    2  A    between atoms: C_3  and  O_6 
REMARK    3  A    between atoms: C_3  and  C_4 
REMARK    4  A    between atoms: C_7  and  O_6 
REMARK    5  A    between atoms: C_9  and  C_10 
REMARK    6  A    between atoms: N_15  and  C_14 
REMARK    7  A    between atoms: N_20  and  C_19 
REMARK       I    between atoms: C_22  and  N_20 
ROOT
ATOM      1  C   LIG d   1      -7.361  75.073 116.552  0.00  0.00     0.161 C 
ATOM      2  C   LIG d   1      -7.209  73.725 116.186  0.00  0.00     0.016 C 
ATOM      3  C   LIG d   1      -8.278  72.801 116.157  0.00  0.00     0.038 C 
ATOM      4  C   LIG d   1      -9.609  73.202 116.347  0.00  0.00     0.028 C 
ATOM      5  C   LIG d   1      -9.749  74.449 117.213  0.00  0.00    -0.047 C 
ATOM      6  C   LIG d   1      -8.824  75.554 116.654  0.00  0.00     0.091 C 
ENDROOT
BRANCH   1   7
ATOM      7  O   LIG d   1      -6.621  75.912 115.643  0.00  0.00    -0.368 OA
BRANCH   7   8
ATOM      8  C   LIG d   1      -5.257  76.217 116.025  0.00  0.00     0.119 C 
BRANCH   8   9
ATOM      9  C   LIG d   1      -5.241  77.657 116.574  0.00  0.00     0.028 C 
ATOM     10  C   LIG d   1      -4.061  78.480 116.030  0.00  0.00     0.006 C 
ENDBRANCH   8   9
BRANCH   8  11
ATOM     11  C   LIG d   1      -4.328  76.237 114.808  0.00  0.00     0.028 C 
ATOM     12  C   LIG d   1      -4.752  75.239 113.719  0.00  0.00     0.006 C 
ENDBRANCH   8  11
ENDBRANCH   7   8
ENDBRANCH   1   7
BRANCH   6  13
ATOM     13  N   LIG d   1      -8.836  76.781 117.492  0.00  0.00    -0.311 N 
ATOM     14  C   LIG d   1      -8.349  76.828 118.731  0.00  0.00     0.210 C 
ATOM     15  C   LIG d   1      -8.479  78.187 119.426  0.00  0.00     0.109 C 
ATOM     16  O   LIG d   1      -7.792  75.882 119.308  0.00  0.00    -0.276 OA
ATOM     17  H   LIG d   1      -9.242  77.604 117.091  0.00  0.00     0.149 HD
ENDBRANCH   6  13
BRANCH   5  18
ATOM     18  N   LIG d   1     -11.173  74.833 117.215  0.00  0.00     0.381 N 
ATOM     19  H   LIG d   1     -11.602  74.548 116.357  0.00  0.00    -0.090 HD
ATOM     20  H   LIG d   1     -11.240  75.834 117.283  0.00  0.00    -0.090 HD
ATOM     21  H   LIG d   1     -11.640  74.408 117.985  0.00  0.00    -0.090 HD
ENDBRANCH   5  18
BRANCH   3  22
ATOM     22  C   LIG d   1      -8.016  71.452 115.975  0.00  0.00     0.382 C 
ATOM     23  O   LIG d   1      -6.992  71.092 115.347  0.00  0.00    -0.241 OA
ATOM     24  O   LIG d   1      -8.814  70.591 116.393  0.00  0.00    -0.241 OA
ENDBRANCH   3  22
TORSDOF 7
ENDMDL
MODEL 5
REMARK VINA RESULT:      -5.6     14.815     17.343
REMARK  7 active torsions:
REMARK  status: ('A' for Active; 'I' for Inactive)
REMARK    1  A    between atoms: C_2  and  C_3 
REMARK    2  A    between atoms: C_3  and  O_6 
REMARK    3  A    between atoms: C_3  and  C_4 
REMARK    4  A    between atoms: C_7  and  O_6 
REMARK    5  A    between atoms: C_9  and  C_10 
REMARK    6  A    between atoms: N_15  and  C_14 
REMARK    7  A    between atoms: N_20  and  C_19 
REMARK       I    between atoms: C_22  and  N_20 
ROOT
ATOM      1  C   LIG d   1      -6.474  91.918 117.224  0.00  0.00     0.161 C 
ATOM      2  C   LIG d   1      -7.378  92.979 117.401  0.00  0.00     0.016 C 
ATOM      3  C   LIG d   1      -7.178  94.025 118.332  0.00  0.00     0.038 C 
ATOM      4  C   LIG d   1      -5.979  94.162 119.047  0.00  0.00     0.028 C 
ATOM      5  C   LIG d   1      -5.253  92.839 119.271  0.00  0.00    -0.047 C 
ATOM      6  C   LIG d   1      -5.108  92.110 117.916  0.00  0.00     0.091 C 
ENDROOT
BRANCH   1   7
ATOM      7  O   LIG d   1      -6.292  91.661 115.818  0.00  0.00    -0.368 OA
BRANCH   7   8
ATOM      8  C   LIG d   1      -7.083  90.584 115.259  0.00  0.00     0.119 C 
BRANCH   8   9
ATOM      9  C   LIG d   1      -7.484  89.653 116.420  0.00  0.00     0.028 C 
ATOM     10  C   LIG d   1      -8.715  88.795 116.086  0.00  0.00     0.006 C 
ENDBRANCH   8   9
BRANCH   8  11
ATOM     11  C   LIG d   1      -6.250  89.714 114.312  0.00  0.00     0.028 C 
ATOM     12  C   LIG d   1      -5.058  89.044 115.012  0.00  0.00     0.006 C 
ENDBRANCH   8  11
ENDBRANCH   7   8
ENDBRANCH   1   7
BRANCH   6  13
ATOM     13  N   LIG d   1      -4.483  90.769 118.057  0.00  0.00    -0.311 N 
ATOM     14  C   LIG d   1      -3.168  90.564 118.005  0.00  0.00     0.210 C 
ATOM     15  C   LIG d   1      -2.735  89.102 118.154  0.00  0.00     0.109 C 
ATOM     16  O   LIG d   1      -2.317  91.458 117.882  0.00  0.00    -0.276 OA
ATOM     17  H   LIG d   1      -5.098  89.991 118.192  0.00  0.00     0.149 HD
ENDBRANCH   6  13
BRANCH   5  18
ATOM     18  N   LIG d   1      -3.956  93.145 119.905  0.00  0.00     0.381 N 
ATOM     19  H   LIG d   1      -3.223  93.074 119.228  0.00  0.00    -0.090 HD
ATOM     20  H   LIG d   1      -3.782  92.471 120.630  0.00  0.00    -0.090 HD
ATOM     21  H   LIG d   1      -3.973  94.063 120.291  0.00  0.00    -0.090 HD
ENDBRANCH   5  18
BRANCH   3  22
ATOM     22  C   LIG d   1      -8.202  94.925 118.584  0.00  0.00     0.382 C 
ATOM     23  O   LIG d   1      -8.053  96.138 118.301  0.00  0.00    -0.241 OA
ATOM     24  O   LIG d   1      -9.255  94.547 119.131  0.00  0.00    -0.241 OA
ENDBRANCH   3  22
TORSDOF 7
ENDMDL
MODEL 6
REMARK VINA RESULT:      -5.5      2.377      6.210
REMARK  7 active torsions:
REMARK  status: ('A' for Active; 'I' for Inactive)
REMARK    1  A    between atoms: C_2  and  C_3 
REMARK    2  A    between atoms: C_3  and  O_6 
REMARK    3  A    between atoms: C_3  and  C_4 
REMARK    4  A    between atoms: C_7  and  O_6 
REMARK    5  A    between atoms: C_9  and  C_10 
REMARK    6  A    between atoms: N_15  and  C_14 
REMARK    7  A    between atoms: N_20  and  C_19 
REMARK       I    between atoms: C_22  and  N_20 
ROOT
ATOM      1  C   LIG d   1      -7.174  75.819 116.454  0.00  0.00     0.161 C 
ATOM      2  C   LIG d   1      -8.528  75.715 116.815  0.00  0.00     0.016 C 
ATOM      3  C   LIG d   1      -9.244  74.496 116.806  0.00  0.00     0.038 C 
ATOM      4  C   LIG d   1      -8.610  73.265 116.581  0.00  0.00     0.028 C 
ATOM      5  C   LIG d   1      -7.356  73.379 115.720  0.00  0.00    -0.047 C 
ATOM      6  C   LIG d   1      -6.437  74.471 116.313  0.00  0.00     0.091 C 
ENDROOT
BRANCH   1   7
ATOM      7  O   LIG d   1      -6.484  76.672 117.390  0.00  0.00    -0.368 OA
BRANCH   7   8
ATOM      8  C   LIG d   1      -6.215  78.023 116.941  0.00  0.00     0.119 C 
BRANCH   8   9
ATOM      9  C   LIG d   1      -4.696  78.139 116.709  0.00  0.00     0.028 C 
ATOM     10  C   LIG d   1      -3.884  77.284 117.696  0.00  0.00     0.006 C 
ENDBRANCH   8   9
BRANCH   8  11
ATOM     11  C   LIG d   1      -6.538  79.047 118.033  0.00  0.00     0.028 C 
ATOM     12  C   LIG d   1      -7.916  79.701 117.848  0.00  0.00     0.006 C 
ENDBRANCH   8  11
ENDBRANCH   7   8
ENDBRANCH   1   7
BRANCH   6  13
ATOM     13  N   LIG d   1      -5.227  74.705 115.483  0.00  0.00    -0.311 N 
ATOM     14  C   LIG d   1      -5.260  75.291 114.287  0.00  0.00     0.210 C 
ATOM     15  C   LIG d   1      -3.901  75.416 113.591  0.00  0.00     0.109 C 
ATOM     16  O   LIG d   1      -6.281  75.747 113.751  0.00  0.00    -0.276 OA
ATOM     17  H   LIG d   1      -4.351  74.394 115.856  0.00  0.00     0.149 HD
ENDBRANCH   6  13
BRANCH   5  18
ATOM     18  N   LIG d   1      -6.721  72.048 115.680  0.00  0.00     0.381 N 
ATOM     19  H   LIG d   1      -6.438  71.780 116.601  0.00  0.00    -0.090 HD
ATOM     20  H   LIG d   1      -5.902  72.096 115.099  0.00  0.00    -0.090 HD
ATOM     21  H   LIG d   1      -7.359  71.376 115.312  0.00  0.00    -0.090 HD
ENDBRANCH   5  18
BRANCH   3  22
ATOM     22  C   LIG d   1     -10.619  74.505 116.986  0.00  0.00     0.382 C 
ATOM     23  O   LIG d   1     -11.169  75.472 117.567  0.00  0.00    -0.241 OA
ATOM     24  O   LIG d   1     -11.311  73.539 116.615  0.00  0.00    -0.241 OA
ENDBRANCH   3  22
TORSDOF 7
ENDMDL
MODEL 7
REMARK VINA RESULT:      -5.5     14.485     16.417
REMARK  7 active torsions:
REMARK  status: ('A' for Active; 'I' for Inactive)
REMARK    1  A    between atoms: C_2  and  C_3 
REMARK    2  A    between atoms: C_3  and  O_6 
REMARK    3  A    between atoms: C_3  and  C_4 
REMARK    4  A    between atoms: C_7  and  O_6 
REMARK    5  A    between atoms: C_9  and  C_10 
REMARK    6  A    between atoms: N_15  and  C_14 
REMARK    7  A    between atoms: N_20  and  C_19 
REMARK       I    between atoms: C_22  and  N_20 
ROOT
ATOM      1  C   LIG d   1      -5.299  91.164 117.184  0.00  0.00     0.161 C 
ATOM      2  C   LIG d   1      -4.214  90.285 117.344  0.00  0.00     0.016 C 
ATOM      3  C   LIG d   1      -3.279  90.387 118.400  0.00  0.00     0.038 C 
ATOM      4  C   LIG d   1      -3.454  91.289 119.461  0.00  0.00     0.028 C 
ATOM      5  C   LIG d   1      -4.255  92.528 119.076  0.00  0.00    -0.047 C 
ATOM      6  C   LIG d   1      -5.569  92.084 118.393  0.00  0.00     0.091 C 
ENDROOT
BRANCH   1   7
ATOM      7  O   LIG d   1      -6.485  90.418 116.847  0.00  0.00    -0.368 OA
BRANCH   7   8
ATOM      8  C   LIG d   1      -6.591  89.976 115.471  0.00  0.00     0.119 C 
BRANCH   8   9
ATOM      9  C   LIG d   1      -6.574  91.233 114.579  0.00  0.00     0.028 C 
ATOM     10  C   LIG d   1      -7.724  91.243 113.559  0.00  0.00     0.006 C 
ENDBRANCH   8   9
BRANCH   8  11
ATOM     11  C   LIG d   1      -7.942  89.307 115.203  0.00  0.00     0.028 C 
ATOM     12  C   LIG d   1      -8.611  88.781 116.483  0.00  0.00     0.006 C 
ENDBRANCH   8  11
ENDBRANCH   7   8
ENDBRANCH   1   7
BRANCH   6  13
ATOM     13  N   LIG d   1      -6.374  93.236 117.909  0.00  0.00    -0.311 N 
ATOM     14  C   LIG d   1      -7.296  93.848 118.650  0.00  0.00     0.210 C 
ATOM     15  C   LIG d   1      -8.025  95.001 117.953  0.00  0.00     0.109 C 
ATOM     16  O   LIG d   1      -7.558  93.566 119.829  0.00  0.00    -0.276 OA
ATOM     17  H   LIG d   1      -6.204  93.551 116.974  0.00  0.00     0.149 HD
ENDBRANCH   6  13
BRANCH   5  18
ATOM     18  N   LIG d   1      -4.479  93.313 120.305  0.00  0.00     0.381 N 
ATOM     19  H   LIG d   1      -5.001  94.139 120.089  0.00  0.00    -0.090 HD
ATOM     20  H   LIG d   1      -3.589  93.591 120.680  0.00  0.00    -0.090 HD
ATOM     21  H   LIG d   1      -4.973  92.765 120.974  0.00  0.00    -0.090 HD
ENDBRANCH   5  18
BRANCH   3  22
ATOM     22  C   LIG d   1      -2.133  89.607 118.381  0.00  0.00     0.382 C 
ATOM     23  O   LIG d   1      -1.861  88.917 117.369  0.00  0.00    -0.241 OA
ATOM     24  O   LIG d   1      -1.390  89.551 119.379  0.00  0.00    -0.241 OA
ENDBRANCH   3  22
TORSDOF 7
ENDMDL
MODEL 8
REMARK VINA RESULT:      -5.4      2.594      5.697
REMARK  7 active torsions:
REMARK  status: ('A' for Active; 'I' for Inactive)
REMARK    1  A    between atoms: C_2  and  C_3 
REMARK    2  A    between atoms: C_3  and  O_6 
REMARK    3  A    between atoms: C_3  and  C_4 
REMARK    4  A    between atoms: C_7  and  O_6 
REMARK    5  A    between atoms: C_9  and  C_10 
REMARK    6  A    between atoms: N_15  and  C_14 
REMARK    7  A    between atoms: N_20  and  C_19 
REMARK       I    between atoms: C_22  and  N_20 
ROOT
ATOM      1  C   LIG d   1      -6.178  77.777 117.013  0.00  0.00     0.161 C 
ATOM      2  C   LIG d   1      -7.518  77.753 117.434  0.00  0.00     0.016 C 
ATOM      3  C   LIG d   1      -8.202  78.892 117.918  0.00  0.00     0.038 C 
ATOM      4  C   LIG d   1      -7.634  80.173 117.872  0.00  0.00     0.028 C 
ATOM      5  C   LIG d   1      -6.110  80.162 117.926  0.00  0.00    -0.047 C 
ATOM      6  C   LIG d   1      -5.576  79.188 116.851  0.00  0.00     0.091 C 
ENDROOT
BRANCH   1   7
ATOM      7  O   LIG d   1      -6.037  77.028 115.789  0.00  0.00    -0.368 OA
BRANCH   7   8
ATOM      8  C   LIG d   1      -6.034  75.585 115.922  0.00  0.00     0.119 C 
BRANCH   8   9
ATOM      9  C   LIG d   1      -4.755  75.061 115.239  0.00  0.00     0.028 C 
ATOM     10  C   LIG d   1      -4.801  75.216 113.710  0.00  0.00     0.006 C 
ENDBRANCH   8   9
BRANCH   8  11
ATOM     11  C   LIG d   1      -7.194  74.952 115.149  0.00  0.00     0.028 C 
ATOM     12  C   LIG d   1      -7.728  73.675 115.817  0.00  0.00     0.006 C 
ENDBRANCH   8  11
ENDBRANCH   7   8
ENDBRANCH   1   7
BRANCH   6  13
ATOM     13  N   LIG d   1      -4.097  79.054 116.892  0.00  0.00    -0.311 N 
ATOM     14  C   LIG d   1      -3.310  79.292 115.844  0.00  0.00     0.210 C 
ATOM     15  C   LIG d   1      -1.815  79.073 116.095  0.00  0.00     0.109 C 
ATOM     16  O   LIG d   1      -3.705  79.694 114.739  0.00  0.00    -0.276 OA
ATOM     17  H   LIG d   1      -3.689  78.762 117.758  0.00  0.00     0.149 HD
ENDBRANCH   6  13
BRANCH   5  18
ATOM     18  N   LIG d   1      -5.647  81.549 117.730  0.00  0.00     0.381 N 
ATOM     19  H   LIG d   1      -4.844  81.722 118.302  0.00  0.00    -0.090 HD
ATOM     20  H   LIG d   1      -6.377  82.179 118.013  0.00  0.00    -0.090 HD
ATOM     21  H   LIG d   1      -5.420  81.701 116.772  0.00  0.00    -0.090 HD
ENDBRANCH   5  18
BRANCH   3  22
ATOM     22  C   LIG d   1      -9.456  78.748 118.493  0.00  0.00     0.382 C 
ATOM     23  O   LIG d   1      -9.939  79.677 119.184  0.00  0.00    -0.241 OA
ATOM     24  O   LIG d   1     -10.090  77.683 118.367  0.00  0.00    -0.241 OA
ENDBRANCH   3  22
TORSDOF 7
ENDMDL
MODEL 9
REMARK VINA RESULT:      -5.4      2.351      5.106
REMARK  7 active torsions:
REMARK  status: ('A' for Active; 'I' for Inactive)
REMARK    1  A    between atoms: C_2  and  C_3 
REMARK    2  A    between atoms: C_3  and  O_6 
REMARK    3  A    between atoms: C_3  and  C_4 
REMARK    4  A    between atoms: C_7  and  O_6 
REMARK    5  A    between atoms: C_9  and  C_10 
REMARK    6  A    between atoms: N_15  and  C_14 
REMARK    7  A    between atoms: N_20  and  C_19 
REMARK       I    between atoms: C_22  and  N_20 
ROOT
ATOM      1  C   LIG d   1      -7.581  75.496 115.913  0.00  0.00     0.161 C 
ATOM      2  C   LIG d   1      -8.391  74.360 116.073  0.00  0.00     0.016 C 
ATOM      3  C   LIG d   1      -7.877  73.064 116.307  0.00  0.00     0.038 C 
ATOM      4  C   LIG d   1      -6.514  72.840 116.550  0.00  0.00     0.028 C 
ATOM      5  C   LIG d   1      -5.604  73.877 115.899  0.00  0.00    -0.047 C 
ATOM      6  C   LIG d   1      -6.098  75.290 116.285  0.00  0.00     0.091 C 
ENDROOT
BRANCH   1   7
ATOM      7  O   LIG d   1      -8.135  76.600 116.657  0.00  0.00    -0.368 OA
BRANCH   7   8
ATOM      8  C   LIG d   1      -7.401  77.004 117.839  0.00  0.00     0.119 C 
BRANCH   8   9
ATOM      9  C   LIG d   1      -8.155  76.451 119.063  0.00  0.00     0.028 C 
ATOM     10  C   LIG d   1      -7.307  75.458 119.875  0.00  0.00     0.006 C 
ENDBRANCH   8   9
BRANCH   8  11
ATOM     11  C   LIG d   1      -7.414  78.526 118.008  0.00  0.00     0.028 C 
ATOM     12  C   LIG d   1      -8.834  79.101 118.133  0.00  0.00     0.006 C 
ENDBRANCH   8  11
ENDBRANCH   7   8
ENDBRANCH   1   7
BRANCH   6  13
ATOM     13  N   LIG d   1      -5.314  76.364 115.622  0.00  0.00    -0.311 N 
ATOM     14  C   LIG d   1      -4.251  76.945 116.176  0.00  0.00     0.210 C 
ATOM     15  C   LIG d   1      -3.601  78.045 115.331  0.00  0.00     0.109 C 
ATOM     16  O   LIG d   1      -3.766  76.631 117.274  0.00  0.00    -0.276 OA
ATOM     17  H   LIG d   1      -5.620  76.659 114.715  0.00  0.00     0.149 HD
ENDBRANCH   6  13
BRANCH   5  18
ATOM     18  N   LIG d   1      -4.225  73.603 116.346  0.00  0.00     0.381 N 
ATOM     19  H   LIG d   1      -3.784  74.457 116.625  0.00  0.00    -0.090 HD
ATOM     20  H   LIG d   1      -3.705  73.216 115.578  0.00  0.00    -0.090 HD
ATOM     21  H   LIG d   1      -4.235  72.961 117.108  0.00  0.00    -0.090 HD
ENDBRANCH   5  18
BRANCH   3  22
ATOM     22  C   LIG d   1      -8.726  71.968 116.261  0.00  0.00     0.382 C 
ATOM     23  O   LIG d   1      -8.257  70.808 116.343  0.00  0.00    -0.241 OA
ATOM     24  O   LIG d   1      -9.951  72.125 116.093  0.00  0.00    -0.241 OA
ENDBRANCH   3  22
TORSDOF 7
ENDMDL
