MODEL 1
REMARK VINA RESULT:      -5.7      0.000      0.000
REMARK  7 active torsions:
REMARK  status: ('A' for Active; 'I' for Inactive)
REMARK    1  A    between atoms: C_2  and  C_3 
REMARK    2  A    between atoms: C_3  and  O_6 
REMARK    3  A    between atoms: C_3  and  C_4 
REMARK    4  A    between atoms: C_7  and  O_6 
REMARK    5  A    between atoms: C_9  and  C_10 
REMARK    6  A    between atoms: N_15  and  C_14 
REMARK    7  A    between atoms: N_20  and  C_19 
REMARK       I    between atoms: C_22  and  N_20 
ROOT
ATOM      1  C   LIG d   1      -2.642  76.768 115.442  0.00  0.00     0.161 C 
ATOM      2  C   LIG d   1      -2.809  77.902 114.629  0.00  0.00     0.016 C 
ATOM      3  C   LIG d   1      -2.064  78.131 113.449  0.00  0.00     0.038 C 
ATOM      4  C   LIG d   1      -1.201  77.161 112.918  0.00  0.00     0.028 C 
ATOM      5  C   LIG d   1      -0.626  76.220 113.971  0.00  0.00    -0.047 C 
ATOM      6  C   LIG d   1      -1.784  75.647 114.819  0.00  0.00     0.091 C 
ENDROOT
BRANCH   1   7
ATOM      7  O   LIG d   1      -3.929  76.254 115.835  0.00  0.00    -0.368 OA
BRANCH   7   8
ATOM      8  C   LIG d   1      -4.817  75.865 114.758  0.00  0.00     0.119 C 
BRANCH   8   9
ATOM      9  C   LIG d   1      -6.255  76.199 115.199  0.00  0.00     0.028 C 
ATOM     10  C   LIG d   1      -6.293  77.187 116.377  0.00  0.00     0.006 C 
ENDBRANCH   8   9
BRANCH   8  11
ATOM     11  C   LIG d   1      -4.800  74.349 114.542  0.00  0.00     0.028 C 
ATOM     12  C   LIG d   1      -5.275  73.566 115.777  0.00  0.00     0.006 C 
ENDBRANCH   8  11
ENDBRANCH   7   8
ENDBRANCH   1   7
BRANCH   6  13
ATOM     13  N   LIG d   1      -1.301  74.782 115.927  0.00  0.00    -0.311 N 
ATOM     14  C   LIG d   1      -1.090  73.473 115.796  0.00  0.00     0.210 C 
ATOM     15  C   LIG d   1      -0.612  72.765 117.067  0.00  0.00     0.109 C 
ATOM     16  O   LIG d   1      -1.221  72.838 114.739  0.00  0.00    -0.276 OA
ATOM     17  H   LIG d   1      -1.139  75.222 116.811  0.00  0.00     0.149 HD
ENDBRANCH   6  13
BRANCH   5  18
ATOM     18  N   LIG d   1       0.144  75.178 113.264  0.00  0.00     0.381 N 
ATOM     19  H   LIG d   1      -0.135  74.274 113.588  0.00  0.00    -0.090 HD
ATOM     20  H   LIG d   1       1.120  75.300 113.470  0.00  0.00    -0.090 HD
ATOM     21  H   LIG d   1      -0.007  75.249 112.282  0.00  0.00    -0.090 HD
ENDBRANCH   5  18
BRANCH   3  22
ATOM     22  C   LIG d   1      -2.150  79.358 112.810  0.00  0.00     0.382 C 
ATOM     23  O   LIG d   1      -1.116  79.895 112.342  0.00  0.00    -0.241 OA
ATOM     24  O   LIG d   1      -3.240  79.956 112.733  0.00  0.00    -0.241 OA
ENDBRANCH   3  22
TORSDOF 7
ENDMDL
MODEL 2
REMARK VINA RESULT:      -5.0      3.469      5.859
REMARK  7 active torsions:
REMARK  status: ('A' for Active; 'I' for Inactive)
REMARK    1  A    between atoms: C_2  and  C_3 
REMARK    2  A    between atoms: C_3  and  O_6 
REMARK    3  A    between atoms: C_3  and  C_4 
REMARK    4  A    between atoms: C_7  and  O_6 
REMARK    5  A    between atoms: C_9  and  C_10 
REMARK    6  A    between atoms: N_15  and  C_14 
REMARK    7  A    between atoms: N_20  and  C_19 
REMARK       I    between atoms: C_22  and  N_20 
ROOT
ATOM      1  C   LIG d   1      -5.988  77.386 116.949  0.00  0.00     0.161 C 
ATOM      2  C   LIG d   1      -7.284  77.920 117.042  0.00  0.00     0.016 C 
ATOM      3  C   LIG d   1      -7.604  79.052 117.826  0.00  0.00     0.038 C 
ATOM      4  C   LIG d   1      -6.614  79.822 118.455  0.00  0.00     0.028 C 
ATOM      5  C   LIG d   1      -5.358  79.030 118.801  0.00  0.00    -0.047 C 
ATOM      6  C   LIG d   1      -4.876  78.278 117.539  0.00  0.00     0.091 C 
ENDROOT
BRANCH   1   7
ATOM      7  O   LIG d   1      -5.692  77.059 115.577  0.00  0.00    -0.368 OA
BRANCH   7   8
ATOM      8  C   LIG d   1      -5.948  75.689 115.178  0.00  0.00     0.119 C 
BRANCH   8   9
ATOM      9  C   LIG d   1      -5.518  74.780 116.346  0.00  0.00     0.028 C 
ATOM     10  C   LIG d   1      -6.537  73.662 116.625  0.00  0.00     0.006 C 
ENDBRANCH   8   9
BRANCH   8  11
ATOM     11  C   LIG d   1      -5.064  75.278 113.997  0.00  0.00     0.028 C 
ATOM     12  C   LIG d   1      -3.734  76.046 113.953  0.00  0.00     0.006 C 
ENDBRANCH   8  11
ENDBRANCH   7   8
ENDBRANCH   1   7
BRANCH   6  13
ATOM     13  N   LIG d   1      -3.700  77.411 117.810  0.00  0.00    -0.311 N 
ATOM     14  C   LIG d   1      -2.524  77.560 117.203  0.00  0.00     0.210 C 
ATOM     15  C   LIG d   1      -1.451  76.547 117.615  0.00  0.00     0.109 C 
ATOM     16  O   LIG d   1      -2.258  78.455 116.387  0.00  0.00    -0.276 OA
ATOM     17  H   LIG d   1      -3.819  76.679 118.483  0.00  0.00     0.149 HD
ENDBRANCH   6  13
BRANCH   5  18
ATOM     18  N   LIG d   1      -4.360  79.982 119.324  0.00  0.00     0.381 N 
ATOM     19  H   LIG d   1      -4.439  80.043 120.319  0.00  0.00    -0.090 HD
ATOM     20  H   LIG d   1      -4.544  80.891 118.936  0.00  0.00    -0.090 HD
ATOM     21  H   LIG d   1      -3.442  79.685 119.074  0.00  0.00    -0.090 HD
ENDBRANCH   5  18
BRANCH   3  22
ATOM     22  C   LIG d   1      -8.932  79.401 118.020  0.00  0.00     0.382 C 
ATOM     23  O   LIG d   1      -9.784  78.513 118.264  0.00  0.00    -0.241 OA
ATOM     24  O   LIG d   1      -9.296  80.587 117.910  0.00  0.00    -0.241 OA
ENDBRANCH   3  22
TORSDOF 7
ENDMDL
MODEL 3
REMARK VINA RESULT:      -4.9     15.755     18.345
REMARK  7 active torsions:
REMARK  status: ('A' for Active; 'I' for Inactive)
REMARK    1  A    between atoms: C_2  and  C_3 
REMARK    2  A    between atoms: C_3  and  O_6 
REMARK    3  A    between atoms: C_3  and  C_4 
REMARK    4  A    between atoms: C_7  and  O_6 
REMARK    5  A    between atoms: C_9  and  C_10 
REMARK    6  A    between atoms: N_15  and  C_14 
REMARK    7  A    between atoms: N_20  and  C_19 
REMARK       I    between atoms: C_22  and  N_20 
ROOT
ATOM      1  C   LIG d   1     -16.907  64.650 114.893  0.00  0.00     0.161 C 
ATOM      2  C   LIG d   1     -16.572  65.620 113.934  0.00  0.00     0.016 C 
ATOM      3  C   LIG d   1     -15.780  66.756 114.220  0.00  0.00     0.038 C 
ATOM      4  C   LIG d   1     -15.139  66.920 115.457  0.00  0.00     0.028 C 
ATOM      5  C   LIG d   1     -15.858  66.225 116.609  0.00  0.00    -0.047 C 
ATOM      6  C   LIG d   1     -16.125  64.754 116.219  0.00  0.00     0.091 C 
ENDROOT
BRANCH   1   7
ATOM      7  O   LIG d   1     -16.760  63.332 114.326  0.00  0.00    -0.368 OA
BRANCH   7   8
ATOM      8  C   LIG d   1     -17.988  62.651 113.969  0.00  0.00     0.119 C 
BRANCH   8   9
ATOM      9  C   LIG d   1     -19.120  63.263 114.816  0.00  0.00     0.028 C 
ATOM     10  C   LIG d   1     -20.368  63.590 113.979  0.00  0.00     0.006 C 
ENDBRANCH   8   9
BRANCH   8  11
ATOM     11  C   LIG d   1     -17.940  61.172 114.364  0.00  0.00     0.028 C 
ATOM     12  C   LIG d   1     -18.211  60.946 115.860  0.00  0.00     0.006 C 
ENDBRANCH   8  11
ENDBRANCH   7   8
ENDBRANCH   1   7
BRANCH   6  13
ATOM     13  N   LIG d   1     -16.900  64.024 117.256  0.00  0.00    -0.311 N 
ATOM     14  C   LIG d   1     -16.334  63.284 118.208  0.00  0.00     0.210 C 
ATOM     15  C   LIG d   1     -17.317  62.600 119.165  0.00  0.00     0.109 C 
ATOM     16  O   LIG d   1     -15.112  63.154 118.370  0.00  0.00    -0.276 OA
ATOM     17  H   LIG d   1     -17.898  64.100 117.218  0.00  0.00     0.149 HD
ENDBRANCH   6  13
BRANCH   5  18
ATOM     18  N   LIG d   1     -15.011  66.361 117.809  0.00  0.00     0.381 N 
ATOM     19  H   LIG d   1     -14.802  65.456 118.180  0.00  0.00    -0.090 HD
ATOM     20  H   LIG d   1     -15.517  66.878 118.507  0.00  0.00    -0.090 HD
ATOM     21  H   LIG d   1     -14.167  66.837 117.579  0.00  0.00    -0.090 HD
ENDBRANCH   5  18
BRANCH   3  22
ATOM     22  C   LIG d   1     -15.656  67.763 113.275  0.00  0.00     0.382 C 
ATOM     23  O   LIG d   1     -15.237  68.895 113.617  0.00  0.00    -0.241 OA
ATOM     24  O   LIG d   1     -15.998  67.566 112.093  0.00  0.00    -0.241 OA
ENDBRANCH   3  22
TORSDOF 7
ENDMDL
MODEL 4
REMARK VINA RESULT:      -4.9     20.172     22.073
REMARK  7 active torsions:
REMARK  status: ('A' for Active; 'I' for Inactive)
REMARK    1  A    between atoms: C_2  and  C_3 
REMARK    2  A    between atoms: C_3  and  O_6 
REMARK    3  A    between atoms: C_3  and  C_4 
REMARK    4  A    between atoms: C_7  and  O_6 
REMARK    5  A    between atoms: C_9  and  C_10 
REMARK    6  A    between atoms: N_15  and  C_14 
REMARK    7  A    between atoms: N_20  and  C_19 
REMARK       I    between atoms: C_22  and  N_20 
ROOT
ATOM      1  C   LIG d   1     -23.053  83.319 115.692  0.00  0.00     0.161 C 
ATOM      2  C   LIG d   1     -22.594  84.624 115.447  0.00  0.00     0.016 C 
ATOM      3  C   LIG d   1     -22.764  85.290 114.212  0.00  0.00     0.038 C 
ATOM      4  C   LIG d   1     -23.543  84.749 113.179  0.00  0.00     0.028 C 
ATOM      5  C   LIG d   1     -23.600  83.225 113.198  0.00  0.00    -0.047 C 
ATOM      6  C   LIG d   1     -24.002  82.755 114.614  0.00  0.00     0.091 C 
ENDROOT
BRANCH   1   7
ATOM      7  O   LIG d   1     -23.675  83.256 116.991  0.00  0.00    -0.368 OA
BRANCH   7   8
ATOM      8  C   LIG d   1     -22.928  82.565 118.022  0.00  0.00     0.119 C 
BRANCH   8   9
ATOM      9  C   LIG d   1     -23.083  83.373 119.325  0.00  0.00     0.028 C 
ATOM     10  C   LIG d   1     -22.906  84.884 119.104  0.00  0.00     0.006 C 
ENDBRANCH   8   9
BRANCH   8  11
ATOM     11  C   LIG d   1     -21.426  82.568 117.719  0.00  0.00     0.028 C 
ATOM     12  C   LIG d   1     -20.592  81.919 118.835  0.00  0.00     0.006 C 
ENDBRANCH   8  11
ENDBRANCH   7   8
ENDBRANCH   1   7
BRANCH   6  13
ATOM     13  N   LIG d   1     -23.999  81.275 114.743  0.00  0.00    -0.311 N 
ATOM     14  C   LIG d   1     -25.069  80.516 114.510  0.00  0.00     0.210 C 
ATOM     15  C   LIG d   1     -24.856  79.014 114.720  0.00  0.00     0.109 C 
ATOM     16  O   LIG d   1     -26.166  80.942 114.118  0.00  0.00    -0.276 OA
ATOM     17  H   LIG d   1     -23.142  80.843 115.026  0.00  0.00     0.149 HD
ENDBRANCH   6  13
BRANCH   5  18
ATOM     18  N   LIG d   1     -24.553  82.801 112.155  0.00  0.00     0.381 N 
ATOM     19  H   LIG d   1     -24.344  81.868 111.863  0.00  0.00    -0.090 HD
ATOM     20  H   LIG d   1     -24.458  83.409 111.361  0.00  0.00    -0.090 HD
ATOM     21  H   LIG d   1     -25.485  82.846 112.507  0.00  0.00    -0.090 HD
ENDBRANCH   5  18
BRANCH   3  22
ATOM     22  C   LIG d   1     -22.116  86.495 113.986  0.00  0.00     0.382 C 
ATOM     23  O   LIG d   1     -21.146  86.547 113.192  0.00  0.00    -0.241 OA
ATOM     24  O   LIG d   1     -22.462  87.523 114.600  0.00  0.00    -0.241 OA
ENDBRANCH   3  22
TORSDOF 7
ENDMDL
MODEL 5
REMARK VINA RESULT:      -4.8      2.769      5.151
REMARK  7 active torsions:
REMARK  status: ('A' for Active; 'I' for Inactive)
REMARK    1  A    between atoms: C_2  and  C_3 
REMARK    2  A    between atoms: C_3  and  O_6 
REMARK    3  A    between atoms: C_3  and  C_4 
REMARK    4  A    between atoms: C_7  and  O_6 
REMARK    5  A    between atoms: C_9  and  C_10 
REMARK    6  A    between atoms: N_15  and  C_14 
REMARK    7  A    between atoms: N_20  and  C_19 
REMARK       I    between atoms: C_22  and  N_20 
ROOT
ATOM      1  C   LIG d   1      -0.742  75.850 115.446  0.00  0.00     0.161 C 
ATOM      2  C   LIG d   1      -2.007  75.932 114.839  0.00  0.00     0.016 C 
ATOM      3  C   LIG d   1      -3.049  75.008 115.084  0.00  0.00     0.038 C 
ATOM      4  C   LIG d   1      -2.946  74.020 116.074  0.00  0.00     0.028 C 
ATOM      5  C   LIG d   1      -1.510  73.588 116.352  0.00  0.00    -0.047 C 
ATOM      6  C   LIG d   1      -0.649  74.845 116.612  0.00  0.00     0.091 C 
ENDROOT
BRANCH   1   7
ATOM      7  O   LIG d   1      -0.322  77.160 115.878  0.00  0.00    -0.368 OA
BRANCH   7   8
ATOM      8  C   LIG d   1       0.854  77.698 115.227  0.00  0.00     0.119 C 
BRANCH   8   9
ATOM      9  C   LIG d   1       1.881  78.031 116.327  0.00  0.00     0.028 C 
ATOM     10  C   LIG d   1       1.238  78.123 117.721  0.00  0.00     0.006 C 
ENDBRANCH   8   9
BRANCH   8  11
ATOM     11  C   LIG d   1       0.549  79.033 114.540  0.00  0.00     0.028 C 
ATOM     12  C   LIG d   1      -0.414  78.886 113.352  0.00  0.00     0.006 C 
ENDBRANCH   8  11
ENDBRANCH   7   8
ENDBRANCH   1   7
BRANCH   6  13
ATOM     13  N   LIG d   1       0.787  74.517 116.810  0.00  0.00    -0.311 N 
ATOM     14  C   LIG d   1       1.357  74.412 118.009  0.00  0.00     0.210 C 
ATOM     15  C   LIG d   1       2.854  74.087 117.987  0.00  0.00     0.109 C 
ATOM     16  O   LIG d   1       0.759  74.527 119.089  0.00  0.00    -0.276 OA
ATOM     17  H   LIG d   1       1.340  74.377 115.987  0.00  0.00     0.149 HD
ENDBRANCH   6  13
BRANCH   5  18
ATOM     18  N   LIG d   1      -1.538  72.659 117.497  0.00  0.00     0.381 N 
ATOM     19  H   LIG d   1      -0.632  72.613 117.918  0.00  0.00    -0.090 HD
ATOM     20  H   LIG d   1      -1.779  71.741 117.166  0.00  0.00    -0.090 HD
ATOM     21  H   LIG d   1      -2.209  72.964 118.168  0.00  0.00    -0.090 HD
ENDBRANCH   5  18
BRANCH   3  22
ATOM     22  C   LIG d   1      -4.195  75.043 114.305  0.00  0.00     0.382 C 
ATOM     23  O   LIG d   1      -4.740  76.142 114.040  0.00  0.00    -0.241 OA
ATOM     24  O   LIG d   1      -4.717  73.987 113.900  0.00  0.00    -0.241 OA
ENDBRANCH   3  22
TORSDOF 7
ENDMDL
MODEL 6
REMARK VINA RESULT:      -4.8      2.475      4.757
REMARK  7 active torsions:
REMARK  status: ('A' for Active; 'I' for Inactive)
REMARK    1  A    between atoms: C_2  and  C_3 
REMARK    2  A    between atoms: C_3  and  O_6 
REMARK    3  A    between atoms: C_3  and  C_4 
REMARK    4  A    between atoms: C_7  and  O_6 
REMARK    5  A    between atoms: C_9  and  C_10 
REMARK    6  A    between atoms: N_15  and  C_14 
REMARK    7  A    between atoms: N_20  and  C_19 
REMARK       I    between atoms: C_22  and  N_20 
ROOT
ATOM      1  C   LIG d   1      -2.699  74.819 115.132  0.00  0.00     0.161 C 
ATOM      2  C   LIG d   1      -3.986  75.164 114.685  0.00  0.00     0.016 C 
ATOM      3  C   LIG d   1      -4.931  75.844 115.486  0.00  0.00     0.038 C 
ATOM      4  C   LIG d   1      -4.599  76.363 116.746  0.00  0.00     0.028 C 
ATOM      5  C   LIG d   1      -3.475  75.600 117.438  0.00  0.00    -0.047 C 
ATOM      6  C   LIG d   1      -2.281  75.474 116.465  0.00  0.00     0.091 C 
ENDROOT
BRANCH   1   7
ATOM      7  O   LIG d   1      -1.731  75.109 114.105  0.00  0.00    -0.368 OA
BRANCH   7   8
ATOM      8  C   LIG d   1      -1.437  76.510 113.884  0.00  0.00     0.119 C 
BRANCH   8   9
ATOM      9  C   LIG d   1      -1.570  76.779 112.372  0.00  0.00     0.028 C 
ATOM     10  C   LIG d   1      -2.648  77.828 112.055  0.00  0.00     0.006 C 
ENDBRANCH   8   9
BRANCH   8  11
ATOM     11  C   LIG d   1       0.021  76.835 114.226  0.00  0.00     0.028 C 
ATOM     12  C   LIG d   1       0.216  78.289 114.685  0.00  0.00     0.006 C 
ENDBRANCH   8  11
ENDBRANCH   7   8
ENDBRANCH   1   7
BRANCH   6  13
ATOM     13  N   LIG d   1      -1.169  74.668 117.033  0.00  0.00    -0.311 N 
ATOM     14  C   LIG d   1      -0.114  75.203 117.646  0.00  0.00     0.210 C 
ATOM     15  C   LIG d   1       0.927  74.194 118.140  0.00  0.00     0.109 C 
ATOM     16  O   LIG d   1       0.042  76.415 117.855  0.00  0.00    -0.276 OA
ATOM     17  H   LIG d   1      -1.230  73.674 116.934  0.00  0.00     0.149 HD
ENDBRANCH   6  13
BRANCH   5  18
ATOM     18  N   LIG d   1      -3.138  76.329 118.676  0.00  0.00     0.381 N 
ATOM     19  H   LIG d   1      -3.371  75.769 119.472  0.00  0.00    -0.090 HD
ATOM     20  H   LIG d   1      -3.681  77.173 118.714  0.00  0.00    -0.090 HD
ATOM     21  H   LIG d   1      -2.166  76.549 118.688  0.00  0.00    -0.090 HD
ENDBRANCH   5  18
BRANCH   3  22
ATOM     22  C   LIG d   1      -6.239  75.977 115.043  0.00  0.00     0.382 C 
ATOM     23  O   LIG d   1      -7.183  75.978 115.868  0.00  0.00    -0.241 OA
ATOM     24  O   LIG d   1      -6.489  76.050 113.825  0.00  0.00    -0.241 OA
ENDBRANCH   3  22
TORSDOF 7
ENDMDL
MODEL 7
REMARK VINA RESULT:      -4.8      2.946      4.538
REMARK  7 active torsions:
REMARK  status: ('A' for Active; 'I' for Inactive)
REMARK    1  A    between atoms: C_2  and  C_3 
REMARK    2  A    between atoms: C_3  and  O_6 
REMARK    3  A    between atoms: C_3  and  C_4 
REMARK    4  A    between atoms: C_7  and  O_6 
REMARK    5  A    between atoms: C_9  and  C_10 
REMARK    6  A    between atoms: N_15  and  C_14 
REMARK    7  A    between atoms: N_20  and  C_19 
REMARK       I    between atoms: C_22  and  N_20 
ROOT
ATOM      1  C   LIG d   1      -0.519  76.035 115.960  0.00  0.00     0.161 C 
ATOM      2  C   LIG d   1      -1.751  76.225 115.312  0.00  0.00     0.016 C 
ATOM      3  C   LIG d   1      -2.749  75.226 115.229  0.00  0.00     0.038 C 
ATOM      4  C   LIG d   1      -2.642  74.012 115.923  0.00  0.00     0.028 C 
ATOM      5  C   LIG d   1      -1.200  73.581 116.172  0.00  0.00    -0.047 C 
ATOM      6  C   LIG d   1      -0.430  74.756 116.818  0.00  0.00     0.091 C 
ENDROOT
BRANCH   1   7
ATOM      7  O   LIG d   1      -0.201  77.195 116.755  0.00  0.00    -0.368 OA
BRANCH   7   8
ATOM      8  C   LIG d   1      -1.328  77.903 117.328  0.00  0.00     0.119 C 
BRANCH   8   9
ATOM      9  C   LIG d   1      -0.959  79.398 117.375  0.00  0.00     0.028 C 
ATOM     10  C   LIG d   1      -1.530  80.105 118.616  0.00  0.00     0.006 C 
ENDBRANCH   8   9
BRANCH   8  11
ATOM     11  C   LIG d   1      -1.558  77.496 118.786  0.00  0.00     0.028 C 
ATOM     12  C   LIG d   1      -2.791  76.596 118.966  0.00  0.00     0.006 C 
ENDBRANCH   8  11
ENDBRANCH   7   8
ENDBRANCH   1   7
BRANCH   6  13
ATOM     13  N   LIG d   1       1.010  74.448 117.017  0.00  0.00    -0.311 N 
ATOM     14  C   LIG d   1       1.591  74.401 118.215  0.00  0.00     0.210 C 
ATOM     15  C   LIG d   1       3.090  74.086 118.195  0.00  0.00     0.109 C 
ATOM     16  O   LIG d   1       1.000  74.560 119.294  0.00  0.00    -0.276 OA
ATOM     17  H   LIG d   1       1.558  74.275 116.197  0.00  0.00     0.149 HD
ENDBRANCH   6  13
BRANCH   5  18
ATOM     18  N   LIG d   1      -1.235  72.376 117.021  0.00  0.00     0.381 N 
ATOM     19  H   LIG d   1      -0.302  72.083 117.232  0.00  0.00    -0.090 HD
ATOM     20  H   LIG d   1      -1.691  71.636 116.517  0.00  0.00    -0.090 HD
ATOM     21  H   LIG d   1      -1.729  72.567 117.865  0.00  0.00    -0.090 HD
ENDBRANCH   5  18
BRANCH   3  22
ATOM     22  C   LIG d   1      -3.852  75.423 114.412  0.00  0.00     0.382 C 
ATOM     23  O   LIG d   1      -4.461  74.436 113.934  0.00  0.00    -0.241 OA
ATOM     24  O   LIG d   1      -4.218  76.575 114.111  0.00  0.00    -0.241 OA
ENDBRANCH   3  22
TORSDOF 7
ENDMDL
MODEL 8
REMARK VINA RESULT:      -4.8      2.591      4.774
REMARK  7 active torsions:
REMARK  status: ('A' for Active; 'I' for Inactive)
REMARK    1  A    between atoms: C_2  and  C_3 
REMARK    2  A    between atoms: C_3  and  O_6 
REMARK    3  A    between atoms: C_3  and  C_4 
REMARK    4  A    between atoms: C_7  and  O_6 
REMARK    5  A    between atoms: C_9  and  C_10 
REMARK    6  A    between atoms: N_15  and  C_14 
REMARK    7  A    between atoms: N_20  and  C_19 
REMARK       I    between atoms: C_22  and  N_20 
ROOT
ATOM      1  C   LIG d   1      -2.218  76.329 116.318  0.00  0.00     0.161 C 
ATOM      2  C   LIG d   1      -3.222  75.580 115.682  0.00  0.00     0.016 C 
ATOM      3  C   LIG d   1      -3.739  75.898 114.405  0.00  0.00     0.038 C 
ATOM      4  C   LIG d   1      -3.176  76.906 113.608  0.00  0.00     0.028 C 
ATOM      5  C   LIG d   1      -2.499  78.009 114.414  0.00  0.00    -0.047 C 
ATOM      6  C   LIG d   1      -1.515  77.365 115.417  0.00  0.00     0.091 C 
ENDROOT
BRANCH   1   7
ATOM      7  O   LIG d   1      -1.249  75.443 116.912  0.00  0.00    -0.368 OA
BRANCH   7   8
ATOM      8  C   LIG d   1      -1.767  74.204 117.456  0.00  0.00     0.119 C 
BRANCH   8   9
ATOM      9  C   LIG d   1      -1.587  74.259 118.985  0.00  0.00     0.028 C 
ATOM     10  C   LIG d   1      -0.937  72.983 119.546  0.00  0.00     0.006 C 
ENDBRANCH   8   9
BRANCH   8  11
ATOM     11  C   LIG d   1      -0.939  73.002 116.993  0.00  0.00     0.028 C 
ATOM     12  C   LIG d   1      -0.876  72.876 115.463  0.00  0.00     0.006 C 
ENDBRANCH   8  11
ENDBRANCH   7   8
ENDBRANCH   1   7
BRANCH   6  13
ATOM     13  N   LIG d   1      -0.871  78.370 116.303  0.00  0.00    -0.311 N 
ATOM     14  C   LIG d   1       0.298  78.947 116.030  0.00  0.00     0.210 C 
ATOM     15  C   LIG d   1       0.792  79.940 117.087  0.00  0.00     0.109 C 
ATOM     16  O   LIG d   1       0.957  78.756 114.997  0.00  0.00    -0.276 OA
ATOM     17  H   LIG d   1      -1.353  78.608 117.148  0.00  0.00     0.149 HD
ENDBRANCH   6  13
BRANCH   5  18
ATOM     18  N   LIG d   1      -1.839  78.918 113.458  0.00  0.00     0.381 N 
ATOM     19  H   LIG d   1      -2.462  79.660 113.210  0.00  0.00    -0.090 HD
ATOM     20  H   LIG d   1      -1.613  78.405 112.624  0.00  0.00    -0.090 HD
ATOM     21  H   LIG d   1      -1.008  79.292 113.861  0.00  0.00    -0.090 HD
ENDBRANCH   5  18
BRANCH   3  22
ATOM     22  C   LIG d   1      -4.857  75.230 113.931  0.00  0.00     0.382 C 
ATOM     23  O   LIG d   1      -4.840  73.980 113.818  0.00  0.00    -0.241 OA
ATOM     24  O   LIG d   1      -5.868  75.864 113.573  0.00  0.00    -0.241 OA
ENDBRANCH   3  22
TORSDOF 7
ENDMDL
MODEL 9
REMARK VINA RESULT:      -4.7      2.680      4.983
REMARK  7 active torsions:
REMARK  status: ('A' for Active; 'I' for Inactive)
REMARK    1  A    between atoms: C_2  and  C_3 
REMARK    2  A    between atoms: C_3  and  O_6 
REMARK    3  A    between atoms: C_3  and  C_4 
REMARK    4  A    between atoms: C_7  and  O_6 
REMARK    5  A    between atoms: C_9  and  C_10 
REMARK    6  A    between atoms: N_15  and  C_14 
REMARK    7  A    between atoms: N_20  and  C_19 
REMARK       I    between atoms: C_22  and  N_20 
ROOT
ATOM      1  C   LIG d   1      -0.480  75.309 115.349  0.00  0.00     0.161 C 
ATOM      2  C   LIG d   1      -1.780  75.379 114.821  0.00  0.00     0.016 C 
ATOM      3  C   LIG d   1      -2.909  74.811 115.453  0.00  0.00     0.038 C 
ATOM      4  C   LIG d   1      -2.838  74.260 116.742  0.00  0.00     0.028 C 
ATOM      5  C   LIG d   1      -1.457  73.717 117.093  0.00  0.00    -0.047 C 
ATOM      6  C   LIG d   1      -0.401  74.809 116.807  0.00  0.00     0.091 C 
ENDROOT
BRANCH   1   7
ATOM      7  O   LIG d   1       0.169  76.589 115.222  0.00  0.00    -0.368 OA
BRANCH   7   8
ATOM      8  C   LIG d   1      -0.705  77.735 115.077  0.00  0.00     0.119 C 
BRANCH   8   9
ATOM      9  C   LIG d   1      -0.103  78.642 113.986  0.00  0.00     0.028 C 
ATOM     10  C   LIG d   1      -0.918  78.611 112.682  0.00  0.00     0.006 C 
ENDBRANCH   8   9
BRANCH   8  11
ATOM     11  C   LIG d   1      -0.721  78.588 116.349  0.00  0.00     0.028 C 
ATOM     12  C   LIG d   1      -2.046  78.482 117.121  0.00  0.00     0.006 C 
ENDBRANCH   8  11
ENDBRANCH   7   8
ENDBRANCH   1   7
BRANCH   6  13
ATOM     13  N   LIG d   1       0.986  74.332 117.044  0.00  0.00    -0.311 N 
ATOM     14  C   LIG d   1       1.843  74.944 117.860  0.00  0.00     0.210 C 
ATOM     15  C   LIG d   1       3.229  74.298 117.945  0.00  0.00     0.109 C 
ATOM     16  O   LIG d   1       1.576  75.943 118.546  0.00  0.00    -0.276 OA
ATOM     17  H   LIG d   1       1.277  73.510 116.552  0.00  0.00     0.149 HD
ENDBRANCH   6  13
BRANCH   5  18
ATOM     18  N   LIG d   1      -1.489  73.301 118.508  0.00  0.00     0.381 N 
ATOM     19  H   LIG d   1      -2.244  73.757 118.979  0.00  0.00    -0.090 HD
ATOM     20  H   LIG d   1      -0.629  73.578 118.948  0.00  0.00    -0.090 HD
ATOM     21  H   LIG d   1      -1.598  72.312 118.570  0.00  0.00    -0.090 HD
ENDBRANCH   5  18
BRANCH   3  22
ATOM     22  C   LIG d   1      -4.119  74.754 114.779  0.00  0.00     0.382 C 
ATOM     23  O   LIG d   1      -5.107  74.191 115.309  0.00  0.00    -0.241 OA
ATOM     24  O   LIG d   1      -4.223  75.219 113.628  0.00  0.00    -0.241 OA
ENDBRANCH   3  22
TORSDOF 7
ENDMDL
