MODEL 1
REMARK VINA RESULT:      -5.5      0.000      0.000
REMARK  7 active torsions:
REMARK  status: ('A' for Active; 'I' for Inactive)
REMARK    1  A    between atoms: C_2  and  C_3 
REMARK    2  A    between atoms: C_3  and  O_6 
REMARK    3  A    between atoms: C_3  and  C_4 
REMARK    4  A    between atoms: C_7  and  O_6 
REMARK    5  A    between atoms: C_9  and  C_10 
REMARK    6  A    between atoms: N_15  and  C_14 
REMARK    7  A    between atoms: N_20  and  C_19 
REMARK       I    between atoms: C_22  and  N_20 
ROOT
ATOM      1  C   LIG d   1      -3.619  90.285 117.212  0.00  0.00     0.161 C 
ATOM      2  C   LIG d   1      -3.420  89.207 116.333  0.00  0.00     0.016 C 
ATOM      3  C   LIG d   1      -4.367  88.809 115.362  0.00  0.00     0.038 C 
ATOM      4  C   LIG d   1      -5.521  89.562 115.100  0.00  0.00     0.028 C 
ATOM      5  C   LIG d   1      -6.006  90.366 116.301  0.00  0.00    -0.047 C 
ATOM      6  C   LIG d   1      -4.823  91.186 116.866  0.00  0.00     0.091 C 
ENDROOT
BRANCH   1   7
ATOM      7  O   LIG d   1      -2.415  91.071 117.302  0.00  0.00    -0.368 OA
BRANCH   7   8
ATOM      8  C   LIG d   1      -1.703  91.004 118.562  0.00  0.00     0.119 C 
BRANCH   8   9
ATOM      9  C   LIG d   1      -1.695  92.422 119.165  0.00  0.00     0.028 C 
ATOM     10  C   LIG d   1      -1.929  93.512 118.106  0.00  0.00     0.006 C 
ENDBRANCH   8   9
BRANCH   8  11
ATOM     11  C   LIG d   1      -0.229  90.645 118.351  0.00  0.00     0.028 C 
ATOM     12  C   LIG d   1       0.152  90.538 116.865  0.00  0.00     0.006 C 
ENDBRANCH   8  11
ENDBRANCH   7   8
ENDBRANCH   1   7
BRANCH   6  13
ATOM     13  N   LIG d   1      -5.190  91.938 118.095  0.00  0.00    -0.311 N 
ATOM     14  C   LIG d   1      -5.837  93.102 118.077  0.00  0.00     0.210 C 
ATOM     15  C   LIG d   1      -6.099  93.717 119.455  0.00  0.00     0.109 C 
ATOM     16  O   LIG d   1      -6.246  93.667 117.052  0.00  0.00    -0.276 OA
ATOM     17  H   LIG d   1      -4.924  91.535 118.972  0.00  0.00     0.149 HD
ENDBRANCH   6  13
BRANCH   5  18
ATOM     18  N   LIG d   1      -7.130  91.208 115.850  0.00  0.00     0.381 N 
ATOM     19  H   LIG d   1      -6.862  92.172 115.874  0.00  0.00    -0.090 HD
ATOM     20  H   LIG d   1      -7.904  91.080 116.478  0.00  0.00    -0.090 HD
ATOM     21  H   LIG d   1      -7.397  90.952 114.925  0.00  0.00    -0.090 HD
ENDBRANCH   5  18
BRANCH   3  22
ATOM     22  C   LIG d   1      -4.182  87.623 114.668  0.00  0.00     0.382 C 
ATOM     23  O   LIG d   1      -3.866  86.578 115.285  0.00  0.00    -0.241 OA
ATOM     24  O   LIG d   1      -4.285  87.595 113.426  0.00  0.00    -0.241 OA
ENDBRANCH   3  22
TORSDOF 7
ENDMDL
MODEL 2
REMARK VINA RESULT:      -5.5     25.006     28.160
REMARK  7 active torsions:
REMARK  status: ('A' for Active; 'I' for Inactive)
REMARK    1  A    between atoms: C_2  and  C_3 
REMARK    2  A    between atoms: C_3  and  O_6 
REMARK    3  A    between atoms: C_3  and  C_4 
REMARK    4  A    between atoms: C_7  and  O_6 
REMARK    5  A    between atoms: C_9  and  C_10 
REMARK    6  A    between atoms: N_15  and  C_14 
REMARK    7  A    between atoms: N_20  and  C_19 
REMARK       I    between atoms: C_22  and  N_20 
ROOT
ATOM      1  C   LIG d   1     -16.128  65.942 114.350  0.00  0.00     0.161 C 
ATOM      2  C   LIG d   1     -15.652  66.777 113.326  0.00  0.00     0.016 C 
ATOM      3  C   LIG d   1     -14.917  67.961 113.565  0.00  0.00     0.038 C 
ATOM      4  C   LIG d   1     -14.475  68.312 114.850  0.00  0.00     0.028 C 
ATOM      5  C   LIG d   1     -15.362  67.768 115.965  0.00  0.00    -0.047 C 
ATOM      6  C   LIG d   1     -15.561  66.250 115.751  0.00  0.00     0.091 C 
ENDROOT
BRANCH   1   7
ATOM      7  O   LIG d   1     -15.892  64.563 114.005  0.00  0.00    -0.368 OA
BRANCH   7   8
ATOM      8  C   LIG d   1     -17.047  63.808 113.565  0.00  0.00     0.119 C 
BRANCH   8   9
ATOM      9  C   LIG d   1     -18.251  64.770 113.553  0.00  0.00     0.028 C 
ATOM     10  C   LIG d   1     -19.232  64.497 114.705  0.00  0.00     0.006 C 
ENDBRANCH   8   9
BRANCH   8  11
ATOM     11  C   LIG d   1     -17.414  62.712 114.569  0.00  0.00     0.028 C 
ATOM     12  C   LIG d   1     -17.697  61.359 113.898  0.00  0.00     0.006 C 
ENDBRANCH   8  11
ENDBRANCH   7   8
ENDBRANCH   1   7
BRANCH   6  13
ATOM     13  N   LIG d   1     -16.485  65.654 116.751  0.00  0.00    -0.311 N 
ATOM     14  C   LIG d   1     -16.190  64.571 117.468  0.00  0.00     0.210 C 
ATOM     15  C   LIG d   1     -17.292  64.110 118.428  0.00  0.00     0.109 C 
ATOM     16  O   LIG d   1     -15.108  63.967 117.424  0.00  0.00    -0.276 OA
ATOM     17  H   LIG d   1     -17.374  66.099 116.874  0.00  0.00     0.149 HD
ENDBRANCH   6  13
BRANCH   5  18
ATOM     18  N   LIG d   1     -14.711  68.091 117.249  0.00  0.00     0.381 N 
ATOM     19  H   LIG d   1     -15.176  67.611 117.994  0.00  0.00    -0.090 HD
ATOM     20  H   LIG d   1     -14.789  69.079 117.413  0.00  0.00    -0.090 HD
ATOM     21  H   LIG d   1     -13.752  67.825 117.221  0.00  0.00    -0.090 HD
ENDBRANCH   5  18
BRANCH   3  22
ATOM     22  C   LIG d   1     -14.650  68.828 112.517  0.00  0.00     0.382 C 
ATOM     23  O   LIG d   1     -13.486  68.917 112.057  0.00  0.00    -0.241 OA
ATOM     24  O   LIG d   1     -15.549  69.556 112.055  0.00  0.00    -0.241 OA
ENDBRANCH   3  22
TORSDOF 7
ENDMDL
MODEL 3
REMARK VINA RESULT:      -5.4      2.681      6.326
REMARK  7 active torsions:
REMARK  status: ('A' for Active; 'I' for Inactive)
REMARK    1  A    between atoms: C_2  and  C_3 
REMARK    2  A    between atoms: C_3  and  O_6 
REMARK    3  A    between atoms: C_3  and  C_4 
REMARK    4  A    between atoms: C_7  and  O_6 
REMARK    5  A    between atoms: C_9  and  C_10 
REMARK    6  A    between atoms: N_15  and  C_14 
REMARK    7  A    between atoms: N_20  and  C_19 
REMARK       I    between atoms: C_22  and  N_20 
ROOT
ATOM      1  C   LIG d   1      -4.816  92.877 118.087  0.00  0.00     0.161 C 
ATOM      2  C   LIG d   1      -6.016  93.607 118.069  0.00  0.00     0.016 C 
ATOM      3  C   LIG d   1      -6.178  94.854 118.715  0.00  0.00     0.038 C 
ATOM      4  C   LIG d   1      -5.098  95.531 119.301  0.00  0.00     0.028 C 
ATOM      5  C   LIG d   1      -3.988  94.601 119.780  0.00  0.00    -0.047 C 
ATOM      6  C   LIG d   1      -3.595  93.651 118.626  0.00  0.00     0.091 C 
ENDROOT
BRANCH   1   7
ATOM      7  O   LIG d   1      -4.540  92.359 116.770  0.00  0.00    -0.368 OA
BRANCH   7   8
ATOM      8  C   LIG d   1      -4.894  90.973 116.543  0.00  0.00     0.119 C 
BRANCH   8   9
ATOM      9  C   LIG d   1      -3.596  90.145 116.617  0.00  0.00     0.028 C 
ATOM     10  C   LIG d   1      -3.793  88.699 116.134  0.00  0.00     0.006 C 
ENDBRANCH   8   9
BRANCH   8  11
ATOM     11  C   LIG d   1      -5.429  90.760 115.124  0.00  0.00     0.028 C 
ATOM     12  C   LIG d   1      -6.178  91.986 114.579  0.00  0.00     0.006 C 
ENDBRANCH   8  11
ENDBRANCH   7   8
ENDBRANCH   1   7
BRANCH   6  13
ATOM     13  N   LIG d   1      -2.574  92.653 119.036  0.00  0.00    -0.311 N 
ATOM     14  C   LIG d   1      -1.388  92.530 118.442  0.00  0.00     0.210 C 
ATOM     15  C   LIG d   1      -0.493  91.424 119.008  0.00  0.00     0.109 C 
ATOM     16  O   LIG d   1      -0.981  93.254 117.521  0.00  0.00    -0.276 OA
ATOM     17  H   LIG d   1      -2.810  92.045 119.796  0.00  0.00     0.149 HD
ENDBRANCH   6  13
BRANCH   5  18
ATOM     18  N   LIG d   1      -2.868  95.444 120.241  0.00  0.00     0.381 N 
ATOM     19  H   LIG d   1      -2.017  95.140 119.814  0.00  0.00    -0.090 HD
ATOM     20  H   LIG d   1      -2.775  95.345 121.237  0.00  0.00    -0.090 HD
ATOM     21  H   LIG d   1      -3.042  96.398 120.010  0.00  0.00    -0.090 HD
ENDBRANCH   5  18
BRANCH   3  22
ATOM     22  C   LIG d   1      -7.441  95.417 118.815  0.00  0.00     0.382 C 
ATOM     23  O   LIG d   1      -7.572  96.590 119.242  0.00  0.00    -0.241 OA
ATOM     24  O   LIG d   1      -8.454  94.753 118.527  0.00  0.00    -0.241 OA
ENDBRANCH   3  22
TORSDOF 7
ENDMDL
MODEL 4
REMARK VINA RESULT:      -5.3     11.815     14.480
REMARK  7 active torsions:
REMARK  status: ('A' for Active; 'I' for Inactive)
REMARK    1  A    between atoms: C_2  and  C_3 
REMARK    2  A    between atoms: C_3  and  O_6 
REMARK    3  A    between atoms: C_3  and  C_4 
REMARK    4  A    between atoms: C_7  and  O_6 
REMARK    5  A    between atoms: C_9  and  C_10 
REMARK    6  A    between atoms: N_15  and  C_14 
REMARK    7  A    between atoms: N_20  and  C_19 
REMARK       I    between atoms: C_22  and  N_20 
ROOT
ATOM      1  C   LIG d   1      -2.129  76.973 114.925  0.00  0.00     0.161 C 
ATOM      2  C   LIG d   1      -3.341  76.650 114.293  0.00  0.00     0.016 C 
ATOM      3  C   LIG d   1      -4.195  75.612 114.733  0.00  0.00     0.038 C 
ATOM      4  C   LIG d   1      -3.966  74.922 115.933  0.00  0.00     0.028 C 
ATOM      5  C   LIG d   1      -2.495  74.872 116.332  0.00  0.00    -0.047 C 
ATOM      6  C   LIG d   1      -1.917  76.305 116.300  0.00  0.00     0.091 C 
ENDROOT
BRANCH   1   7
ATOM      7  O   LIG d   1      -2.004  78.404 115.039  0.00  0.00    -0.368 OA
BRANCH   7   8
ATOM      8  C   LIG d   1      -1.162  79.052 114.054  0.00  0.00     0.119 C 
BRANCH   8   9
ATOM      9  C   LIG d   1      -0.412  80.195 114.764  0.00  0.00     0.028 C 
ATOM     10  C   LIG d   1      -0.346  79.995 116.288  0.00  0.00     0.006 C 
ENDBRANCH   8   9
BRANCH   8  11
ATOM     11  C   LIG d   1      -1.999  79.731 112.966  0.00  0.00     0.028 C 
ATOM     12  C   LIG d   1      -2.574  81.083 113.414  0.00  0.00     0.006 C 
ENDBRANCH   8  11
ENDBRANCH   7   8
ENDBRANCH   1   7
BRANCH   6  13
ATOM     13  N   LIG d   1      -0.461  76.336 116.596  0.00  0.00    -0.311 N 
ATOM     14  C   LIG d   1       0.036  76.572 117.809  0.00  0.00     0.210 C 
ATOM     15  C   LIG d   1       1.565  76.579 117.891  0.00  0.00     0.109 C 
ATOM     16  O   LIG d   1      -0.646  76.745 118.831  0.00  0.00    -0.276 OA
ATOM     17  H   LIG d   1       0.163  76.174 115.830  0.00  0.00     0.149 HD
ENDBRANCH   6  13
BRANCH   5  18
ATOM     18  N   LIG d   1      -2.416  74.246 117.665  0.00  0.00     0.381 N 
ATOM     19  H   LIG d   1      -2.726  73.296 117.612  0.00  0.00    -0.090 HD
ATOM     20  H   LIG d   1      -3.024  74.742 118.293  0.00  0.00    -0.090 HD
ATOM     21  H   LIG d   1      -1.479  74.279 118.002  0.00  0.00    -0.090 HD
ENDBRANCH   5  18
BRANCH   3  22
ATOM     22  C   LIG d   1      -5.272  75.229 113.948  0.00  0.00     0.382 C 
ATOM     23  O   LIG d   1      -5.426  75.730 112.808  0.00  0.00    -0.241 OA
ATOM     24  O   LIG d   1      -6.115  74.422 114.382  0.00  0.00    -0.241 OA
ENDBRANCH   3  22
TORSDOF 7
ENDMDL
MODEL 5
REMARK VINA RESULT:      -5.3     25.404     27.724
REMARK  7 active torsions:
REMARK  status: ('A' for Active; 'I' for Inactive)
REMARK    1  A    between atoms: C_2  and  C_3 
REMARK    2  A    between atoms: C_3  and  O_6 
REMARK    3  A    between atoms: C_3  and  C_4 
REMARK    4  A    between atoms: C_7  and  O_6 
REMARK    5  A    between atoms: C_9  and  C_10 
REMARK    6  A    between atoms: N_15  and  C_14 
REMARK    7  A    between atoms: N_20  and  C_19 
REMARK       I    between atoms: C_22  and  N_20 
ROOT
ATOM      1  C   LIG d   1     -16.209  66.375 116.574  0.00  0.00     0.161 C 
ATOM      2  C   LIG d   1     -16.782  65.316 117.298  0.00  0.00     0.016 C 
ATOM      3  C   LIG d   1     -17.288  64.143 116.692  0.00  0.00     0.038 C 
ATOM      4  C   LIG d   1     -17.116  63.882 115.325  0.00  0.00     0.028 C 
ATOM      5  C   LIG d   1     -16.995  65.144 114.478  0.00  0.00    -0.047 C 
ATOM      6  C   LIG d   1     -15.913  66.060 115.093  0.00  0.00     0.091 C 
ENDROOT
BRANCH   1   7
ATOM      7  O   LIG d   1     -15.014  66.831 117.238  0.00  0.00    -0.368 OA
BRANCH   7   8
ATOM      8  C   LIG d   1     -15.118  68.092 117.943  0.00  0.00     0.119 C 
BRANCH   8   9
ATOM      9  C   LIG d   1     -15.330  67.773 119.436  0.00  0.00     0.028 C 
ATOM     10  C   LIG d   1     -14.078  68.061 120.281  0.00  0.00     0.006 C 
ENDBRANCH   8   9
BRANCH   8  11
ATOM     11  C   LIG d   1     -16.367  68.869 117.514  0.00  0.00     0.028 C 
ATOM     12  C   LIG d   1     -17.305  69.185 118.689  0.00  0.00     0.006 C 
ENDBRANCH   8  11
ENDBRANCH   7   8
ENDBRANCH   1   7
BRANCH   6  13
ATOM     13  N   LIG d   1     -15.790  67.354 114.374  0.00  0.00    -0.311 N 
ATOM     14  C   LIG d   1     -15.078  67.509 113.259  0.00  0.00     0.210 C 
ATOM     15  C   LIG d   1     -15.067  68.931 112.690  0.00  0.00     0.109 C 
ATOM     16  O   LIG d   1     -14.480  66.596 112.669  0.00  0.00    -0.276 OA
ATOM     17  H   LIG d   1     -16.269  68.142 114.766  0.00  0.00     0.149 HD
ENDBRANCH   6  13
BRANCH   5  18
ATOM     18  N   LIG d   1     -16.683  64.726 113.098  0.00  0.00     0.381 N 
ATOM     19  H   LIG d   1     -17.516  64.412 112.642  0.00  0.00    -0.090 HD
ATOM     20  H   LIG d   1     -16.032  63.961 113.129  0.00  0.00    -0.090 HD
ATOM     21  H   LIG d   1     -16.287  65.488 112.592  0.00  0.00    -0.090 HD
ENDBRANCH   5  18
BRANCH   3  22
ATOM     22  C   LIG d   1     -18.009  63.234 117.451  0.00  0.00     0.382 C 
ATOM     23  O   LIG d   1     -17.784  63.125 118.681  0.00  0.00    -0.241 OA
ATOM     24  O   LIG d   1     -18.850  62.489 116.913  0.00  0.00    -0.241 OA
ENDBRANCH   3  22
TORSDOF 7
ENDMDL
MODEL 6
REMARK VINA RESULT:      -5.1      1.548      2.184
REMARK  7 active torsions:
REMARK  status: ('A' for Active; 'I' for Inactive)
REMARK    1  A    between atoms: C_2  and  C_3 
REMARK    2  A    between atoms: C_3  and  O_6 
REMARK    3  A    between atoms: C_3  and  C_4 
REMARK    4  A    between atoms: C_7  and  O_6 
REMARK    5  A    between atoms: C_9  and  C_10 
REMARK    6  A    between atoms: N_15  and  C_14 
REMARK    7  A    between atoms: N_20  and  C_19 
REMARK       I    between atoms: C_22  and  N_20 
ROOT
ATOM      1  C   LIG d   1      -2.974  89.880 117.156  0.00  0.00     0.161 C 
ATOM      2  C   LIG d   1      -2.430  88.620 116.856  0.00  0.00     0.016 C 
ATOM      3  C   LIG d   1      -3.085  87.661 116.050  0.00  0.00     0.038 C 
ATOM      4  C   LIG d   1      -4.270  87.959 115.359  0.00  0.00     0.028 C 
ATOM      5  C   LIG d   1      -5.110  89.038 116.034  0.00  0.00    -0.047 C 
ATOM      6  C   LIG d   1      -4.213  90.264 116.322  0.00  0.00     0.091 C 
ENDROOT
BRANCH   1   7
ATOM      7  O   LIG d   1      -1.955  90.893 117.036  0.00  0.00    -0.368 OA
BRANCH   7   8
ATOM      8  C   LIG d   1      -1.583  91.571 118.261  0.00  0.00     0.119 C 
BRANCH   8   9
ATOM      9  C   LIG d   1      -2.415  90.955 119.402  0.00  0.00     0.028 C 
ATOM     10  C   LIG d   1      -3.196  92.014 120.198  0.00  0.00     0.006 C 
ENDBRANCH   8   9
BRANCH   8  11
ATOM     11  C   LIG d   1      -1.981  93.049 118.222  0.00  0.00     0.028 C 
ATOM     12  C   LIG d   1      -0.873  93.949 117.651  0.00  0.00     0.006 C 
ENDBRANCH   8  11
ENDBRANCH   7   8
ENDBRANCH   1   7
BRANCH   6  13
ATOM     13  N   LIG d   1      -4.936  91.335 117.057  0.00  0.00    -0.311 N 
ATOM     14  C   LIG d   1      -5.515  92.373 116.458  0.00  0.00     0.210 C 
ATOM     15  C   LIG d   1      -6.190  93.372 117.403  0.00  0.00     0.109 C 
ATOM     16  O   LIG d   1      -5.562  92.546 115.230  0.00  0.00    -0.276 OA
ATOM     17  H   LIG d   1      -4.974  91.257 118.055  0.00  0.00     0.149 HD
ENDBRANCH   6  13
BRANCH   5  18
ATOM     18  N   LIG d   1      -6.242  89.346 115.140  0.00  0.00     0.381 N 
ATOM     19  H   LIG d   1      -6.592  88.502 114.733  0.00  0.00    -0.090 HD
ATOM     20  H   LIG d   1      -5.918  89.943 114.399  0.00  0.00    -0.090 HD
ATOM     21  H   LIG d   1      -6.965  89.802 115.651  0.00  0.00    -0.090 HD
ENDBRANCH   5  18
BRANCH   3  22
ATOM     22  C   LIG d   1      -2.576  86.375 115.959  0.00  0.00     0.382 C 
ATOM     23  O   LIG d   1      -2.322  85.879 114.835  0.00  0.00    -0.241 OA
ATOM     24  O   LIG d   1      -2.408  85.688 116.985  0.00  0.00    -0.241 OA
ENDBRANCH   3  22
TORSDOF 7
ENDMDL
MODEL 7
REMARK VINA RESULT:      -5.1     25.970     28.362
REMARK  7 active torsions:
REMARK  status: ('A' for Active; 'I' for Inactive)
REMARK    1  A    between atoms: C_2  and  C_3 
REMARK    2  A    between atoms: C_3  and  O_6 
REMARK    3  A    between atoms: C_3  and  C_4 
REMARK    4  A    between atoms: C_7  and  O_6 
REMARK    5  A    between atoms: C_9  and  C_10 
REMARK    6  A    between atoms: N_15  and  C_14 
REMARK    7  A    between atoms: N_20  and  C_19 
REMARK       I    between atoms: C_22  and  N_20 
ROOT
ATOM      1  C   LIG d   1     -16.226  64.834 115.112  0.00  0.00     0.161 C 
ATOM      2  C   LIG d   1     -17.180  64.825 114.081  0.00  0.00     0.016 C 
ATOM      3  C   LIG d   1     -18.574  64.886 114.311  0.00  0.00     0.038 C 
ATOM      4  C   LIG d   1     -19.106  65.114 115.589  0.00  0.00     0.028 C 
ATOM      5  C   LIG d   1     -18.203  64.624 116.716  0.00  0.00    -0.047 C 
ATOM      6  C   LIG d   1     -16.782  65.194 116.505  0.00  0.00     0.091 C 
ENDROOT
BRANCH   1   7
ATOM      7  O   LIG d   1     -15.139  65.714 114.763  0.00  0.00    -0.368 OA
BRANCH   7   8
ATOM      8  C   LIG d   1     -15.511  67.047 114.333  0.00  0.00     0.119 C 
BRANCH   8   9
ATOM      9  C   LIG d   1     -14.938  67.252 112.917  0.00  0.00     0.028 C 
ATOM     10  C   LIG d   1     -14.989  68.723 112.471  0.00  0.00     0.006 C 
ENDBRANCH   8   9
BRANCH   8  11
ATOM     11  C   LIG d   1     -14.843  68.119 115.200  0.00  0.00     0.028 C 
ATOM     12  C   LIG d   1     -15.815  68.767 116.199  0.00  0.00     0.006 C 
ENDBRANCH   8  11
ENDBRANCH   7   8
ENDBRANCH   1   7
BRANCH   6  13
ATOM     13  N   LIG d   1     -15.815  64.696 117.518  0.00  0.00    -0.311 N 
ATOM     14  C   LIG d   1     -15.529  65.350 118.642  0.00  0.00     0.210 C 
ATOM     15  C   LIG d   1     -14.489  64.670 119.539  0.00  0.00     0.109 C 
ATOM     16  O   LIG d   1     -16.060  66.413 118.997  0.00  0.00    -0.276 OA
ATOM     17  H   LIG d   1     -15.361  63.825 117.325  0.00  0.00     0.149 HD
ENDBRANCH   6  13
BRANCH   5  18
ATOM     18  N   LIG d   1     -18.813  65.048 117.991  0.00  0.00     0.381 N 
ATOM     19  H   LIG d   1     -18.503  64.449 118.730  0.00  0.00    -0.090 HD
ATOM     20  H   LIG d   1     -19.811  64.967 117.917  0.00  0.00    -0.090 HD
ATOM     21  H   LIG d   1     -18.563  65.992 118.192  0.00  0.00    -0.090 HD
ENDBRANCH   5  18
BRANCH   3  22
ATOM     22  C   LIG d   1     -19.454  64.678 113.259  0.00  0.00     0.382 C 
ATOM     23  O   LIG d   1     -19.210  63.794 112.403  0.00  0.00    -0.241 OA
ATOM     24  O   LIG d   1     -20.465  65.394 113.131  0.00  0.00    -0.241 OA
ENDBRANCH   3  22
TORSDOF 7
ENDMDL
MODEL 8
REMARK VINA RESULT:      -5.0     11.917     14.651
REMARK  7 active torsions:
REMARK  status: ('A' for Active; 'I' for Inactive)
REMARK    1  A    between atoms: C_2  and  C_3 
REMARK    2  A    between atoms: C_3  and  O_6 
REMARK    3  A    between atoms: C_3  and  C_4 
REMARK    4  A    between atoms: C_7  and  O_6 
REMARK    5  A    between atoms: C_9  and  C_10 
REMARK    6  A    between atoms: N_15  and  C_14 
REMARK    7  A    between atoms: N_20  and  C_19 
REMARK       I    between atoms: C_22  and  N_20 
ROOT
ATOM      1  C   LIG d   1      -1.048  77.174 115.334  0.00  0.00     0.161 C 
ATOM      2  C   LIG d   1      -0.720  76.381 114.222  0.00  0.00     0.016 C 
ATOM      3  C   LIG d   1      -0.635  74.970 114.269  0.00  0.00     0.038 C 
ATOM      4  C   LIG d   1      -1.022  74.242 115.404  0.00  0.00     0.028 C 
ATOM      5  C   LIG d   1      -0.876  75.024 116.705  0.00  0.00    -0.047 C 
ATOM      6  C   LIG d   1      -1.582  76.390 116.551  0.00  0.00     0.091 C 
ENDROOT
BRANCH   1   7
ATOM      7  O   LIG d   1      -1.986  78.196 114.945  0.00  0.00    -0.368 OA
BRANCH   7   8
ATOM      8  C   LIG d   1      -1.575  79.057 113.855  0.00  0.00     0.119 C 
BRANCH   8   9
ATOM      9  C   LIG d   1      -1.351  80.467 114.437  0.00  0.00     0.028 C 
ATOM     10  C   LIG d   1      -2.276  81.518 113.801  0.00  0.00     0.006 C 
ENDBRANCH   8   9
BRANCH   8  11
ATOM     11  C   LIG d   1      -2.692  79.219 112.820  0.00  0.00     0.028 C 
ATOM     12  C   LIG d   1      -2.989  77.918 112.057  0.00  0.00     0.006 C 
ENDBRANCH   8  11
ENDBRANCH   7   8
ENDBRANCH   1   7
BRANCH   6  13
ATOM     13  N   LIG d   1      -1.415  77.253 117.750  0.00  0.00    -0.311 N 
ATOM     14  C   LIG d   1      -2.308  77.319 118.736  0.00  0.00     0.210 C 
ATOM     15  C   LIG d   1      -1.950  78.286 119.869  0.00  0.00     0.109 C 
ATOM     16  O   LIG d   1      -3.347  76.644 118.796  0.00  0.00    -0.276 OA
ATOM     17  H   LIG d   1      -0.585  77.811 117.798  0.00  0.00     0.149 HD
ENDBRANCH   6  13
BRANCH   5  18
ATOM     18  N   LIG d   1      -1.443  74.198 117.788  0.00  0.00     0.381 N 
ATOM     19  H   LIG d   1      -0.841  73.421 117.972  0.00  0.00    -0.090 HD
ATOM     20  H   LIG d   1      -2.335  73.843 117.492  0.00  0.00    -0.090 HD
ATOM     21  H   LIG d   1      -1.553  74.746 118.613  0.00  0.00    -0.090 HD
ENDBRANCH   5  18
BRANCH   3  22
ATOM     22  C   LIG d   1      -0.119  74.276 113.186  0.00  0.00     0.382 C 
ATOM     23  O   LIG d   1      -0.060  73.023 113.214  0.00  0.00    -0.241 OA
ATOM     24  O   LIG d   1       0.329  74.889 112.198  0.00  0.00    -0.241 OA
ENDBRANCH   3  22
TORSDOF 7
ENDMDL
MODEL 9
REMARK VINA RESULT:      -5.0     25.845     28.579
REMARK  7 active torsions:
REMARK  status: ('A' for Active; 'I' for Inactive)
REMARK    1  A    between atoms: C_2  and  C_3 
REMARK    2  A    between atoms: C_3  and  O_6 
REMARK    3  A    between atoms: C_3  and  C_4 
REMARK    4  A    between atoms: C_7  and  O_6 
REMARK    5  A    between atoms: C_9  and  C_10 
REMARK    6  A    between atoms: N_15  and  C_14 
REMARK    7  A    between atoms: N_20  and  C_19 
REMARK       I    between atoms: C_22  and  N_20 
ROOT
ATOM      1  C   LIG d   1     -16.226  65.141 115.626  0.00  0.00     0.161 C 
ATOM      2  C   LIG d   1     -16.819  64.289 114.679  0.00  0.00     0.016 C 
ATOM      3  C   LIG d   1     -17.685  63.225 115.025  0.00  0.00     0.038 C 
ATOM      4  C   LIG d   1     -18.139  63.036 116.338  0.00  0.00     0.028 C 
ATOM      5  C   LIG d   1     -17.172  63.559 117.395  0.00  0.00    -0.047 C 
ATOM      6  C   LIG d   1     -16.797  65.019 117.054  0.00  0.00     0.091 C 
ENDROOT
BRANCH   1   7
ATOM      7  O   LIG d   1     -16.304  66.506 115.170  0.00  0.00    -0.368 OA
BRANCH   7   8
ATOM      8  C   LIG d   1     -15.086  67.064 114.618  0.00  0.00     0.119 C 
BRANCH   8   9
ATOM      9  C   LIG d   1     -14.967  68.513 115.130  0.00  0.00     0.028 C 
ATOM     10  C   LIG d   1     -15.919  68.801 116.302  0.00  0.00     0.006 C 
ENDBRANCH   8   9
BRANCH   8  11
ATOM     11  C   LIG d   1     -15.167  67.179 113.092  0.00  0.00     0.028 C 
ATOM     12  C   LIG d   1     -14.945  68.614 112.590  0.00  0.00     0.006 C 
ENDBRANCH   8  11
ENDBRANCH   7   8
ENDBRANCH   1   7
BRANCH   6  13
ATOM     13  N   LIG d   1     -15.789  65.579 117.991  0.00  0.00    -0.311 N 
ATOM     14  C   LIG d   1     -16.107  66.291 119.071  0.00  0.00     0.210 C 
ATOM     15  C   LIG d   1     -14.914  66.792 119.890  0.00  0.00     0.109 C 
ATOM     16  O   LIG d   1     -17.265  66.528 119.445  0.00  0.00    -0.276 OA
ATOM     17  H   LIG d   1     -14.825  65.408 117.780  0.00  0.00     0.149 HD
ENDBRANCH   6  13
BRANCH   5  18
ATOM     18  N   LIG d   1     -17.830  63.422 118.708  0.00  0.00     0.381 N 
ATOM     19  H   LIG d   1     -18.779  63.732 118.645  0.00  0.00    -0.090 HD
ATOM     20  H   LIG d   1     -17.351  64.003 119.373  0.00  0.00    -0.090 HD
ATOM     21  H   LIG d   1     -17.802  62.472 119.006  0.00  0.00    -0.090 HD
ENDBRANCH   5  18
BRANCH   3  22
ATOM     22  C   LIG d   1     -18.074  62.314 114.055  0.00  0.00     0.382 C 
ATOM     23  O   LIG d   1     -17.517  61.191 113.991  0.00  0.00    -0.241 OA
ATOM     24  O   LIG d   1     -18.944  62.616 113.216  0.00  0.00    -0.241 OA
ENDBRANCH   3  22
TORSDOF 7
ENDMDL
