MODEL 1
REMARK VINA RESULT:      -5.6      0.000      0.000
REMARK  7 active torsions:
REMARK  status: ('A' for Active; 'I' for Inactive)
REMARK    1  A    between atoms: C_2  and  C_3 
REMARK    2  A    between atoms: C_3  and  O_6 
REMARK    3  A    between atoms: C_3  and  C_4 
REMARK    4  A    between atoms: C_7  and  O_6 
REMARK    5  A    between atoms: C_9  and  C_10 
REMARK    6  A    between atoms: N_15  and  C_14 
REMARK    7  A    between atoms: N_20  and  C_19 
REMARK       I    between atoms: C_22  and  N_20 
ROOT
ATOM      1  C   LIG d   1      -3.031  77.228 116.057  0.00  0.00     0.161 C 
ATOM      2  C   LIG d   1      -3.212  78.180 115.039  0.00  0.00     0.016 C 
ATOM      3  C   LIG d   1      -2.197  78.545 114.126  0.00  0.00     0.038 C 
ATOM      4  C   LIG d   1      -0.969  77.868 114.072  0.00  0.00     0.028 C 
ATOM      5  C   LIG d   1      -0.561  77.248 115.404  0.00  0.00    -0.047 C 
ATOM      6  C   LIG d   1      -1.734  76.399 115.944  0.00  0.00     0.091 C 
ENDROOT
BRANCH   1   7
ATOM      7  O   LIG d   1      -4.178  76.358 116.122  0.00  0.00    -0.368 OA
BRANCH   7   8
ATOM      8  C   LIG d   1      -5.409  76.883 115.566  0.00  0.00     0.119 C 
BRANCH   8   9
ATOM      9  C   LIG d   1      -6.395  77.083 116.733  0.00  0.00     0.028 C 
ATOM     10  C   LIG d   1      -7.662  76.224 116.584  0.00  0.00     0.006 C 
ENDBRANCH   8   9
BRANCH   8  11
ATOM     11  C   LIG d   1      -6.079  75.867 114.638  0.00  0.00     0.028 C 
ATOM     12  C   LIG d   1      -5.188  74.650 114.342  0.00  0.00     0.006 C 
ENDBRANCH   8  11
ENDBRANCH   7   8
ENDBRANCH   1   7
BRANCH   6  13
ATOM     13  N   LIG d   1      -1.449  75.825 117.284  0.00  0.00    -0.311 N 
ATOM     14  C   LIG d   1      -1.770  74.580 117.632  0.00  0.00     0.210 C 
ATOM     15  C   LIG d   1      -1.404  74.196 119.069  0.00  0.00     0.109 C 
ATOM     16  O   LIG d   1      -2.295  73.748 116.877  0.00  0.00    -0.276 OA
ATOM     17  H   LIG d   1      -0.997  76.422 117.949  0.00  0.00     0.149 HD
ENDBRANCH   6  13
BRANCH   5  18
ATOM     18  N   LIG d   1       0.664  76.459 115.171  0.00  0.00     0.381 N 
ATOM     19  H   LIG d   1       1.177  76.848 114.405  0.00  0.00    -0.090 HD
ATOM     20  H   LIG d   1       0.404  75.519 114.932  0.00  0.00    -0.090 HD
ATOM     21  H   LIG d   1       1.229  76.457 115.992  0.00  0.00    -0.090 HD
ENDBRANCH   5  18
BRANCH   3  22
ATOM     22  C   LIG d   1      -2.391  79.625 113.278  0.00  0.00     0.382 C 
ATOM     23  O   LIG d   1      -1.804  79.666 112.170  0.00  0.00    -0.241 OA
ATOM     24  O   LIG d   1      -3.110  80.580 113.627  0.00  0.00    -0.241 OA
ENDBRANCH   3  22
TORSDOF 7
ENDMDL
MODEL 2
REMARK VINA RESULT:      -5.4      1.778      2.477
REMARK  7 active torsions:
REMARK  status: ('A' for Active; 'I' for Inactive)
REMARK    1  A    between atoms: C_2  and  C_3 
REMARK    2  A    between atoms: C_3  and  O_6 
REMARK    3  A    between atoms: C_3  and  C_4 
REMARK    4  A    between atoms: C_7  and  O_6 
REMARK    5  A    between atoms: C_9  and  C_10 
REMARK    6  A    between atoms: N_15  and  C_14 
REMARK    7  A    between atoms: N_20  and  C_19 
REMARK       I    between atoms: C_22  and  N_20 
ROOT
ATOM      1  C   LIG d   1      -2.836  78.584 115.430  0.00  0.00     0.161 C 
ATOM      2  C   LIG d   1      -3.002  79.681 114.568  0.00  0.00     0.016 C 
ATOM      3  C   LIG d   1      -2.376  79.778 113.303  0.00  0.00     0.038 C 
ATOM      4  C   LIG d   1      -1.658  78.709 112.747  0.00  0.00     0.028 C 
ATOM      5  C   LIG d   1      -1.046  77.782 113.792  0.00  0.00    -0.047 C 
ATOM      6  C   LIG d   1      -2.146  77.360 114.793  0.00  0.00     0.091 C 
ENDROOT
BRANCH   1   7
ATOM      7  O   LIG d   1      -4.110  78.206 115.989  0.00  0.00    -0.368 OA
BRANCH   7   8
ATOM      8  C   LIG d   1      -4.719  79.163 116.890  0.00  0.00     0.119 C 
BRANCH   8   9
ATOM      9  C   LIG d   1      -3.837  79.240 118.151  0.00  0.00     0.028 C 
ATOM     10  C   LIG d   1      -3.534  77.853 118.740  0.00  0.00     0.006 C 
ENDBRANCH   8   9
BRANCH   8  11
ATOM     11  C   LIG d   1      -6.086  78.675 117.380  0.00  0.00     0.028 C 
ATOM     12  C   LIG d   1      -6.509  77.344 116.738  0.00  0.00     0.006 C 
ENDBRANCH   8  11
ENDBRANCH   7   8
ENDBRANCH   1   7
BRANCH   6  13
ATOM     13  N   LIG d   1      -1.614  76.519 115.897  0.00  0.00    -0.311 N 
ATOM     14  C   LIG d   1      -1.611  75.187 115.868  0.00  0.00     0.210 C 
ATOM     15  C   LIG d   1      -1.036  74.514 117.118  0.00  0.00     0.109 C 
ATOM     16  O   LIG d   1      -2.001  74.499 114.913  0.00  0.00    -0.276 OA
ATOM     17  H   LIG d   1      -1.249  76.995 116.699  0.00  0.00     0.149 HD
ENDBRANCH   6  13
BRANCH   5  18
ATOM     18  N   LIG d   1      -0.446  76.640 113.077  0.00  0.00     0.381 N 
ATOM     19  H   LIG d   1      -0.468  76.808 112.091  0.00  0.00    -0.090 HD
ATOM     20  H   LIG d   1      -0.987  75.815 113.269  0.00  0.00    -0.090 HD
ATOM     21  H   LIG d   1       0.495  76.506 113.377  0.00  0.00    -0.090 HD
ENDBRANCH   5  18
BRANCH   3  22
ATOM     22  C   LIG d   1      -2.434  80.971 112.598  0.00  0.00     0.382 C 
ATOM     23  O   LIG d   1      -1.375  81.525 112.218  0.00  0.00    -0.241 OA
ATOM     24  O   LIG d   1      -3.529  81.522 112.377  0.00  0.00    -0.241 OA
ENDBRANCH   3  22
TORSDOF 7
ENDMDL
MODEL 3
REMARK VINA RESULT:      -5.3      1.367      4.870
REMARK  7 active torsions:
REMARK  status: ('A' for Active; 'I' for Inactive)
REMARK    1  A    between atoms: C_2  and  C_3 
REMARK    2  A    between atoms: C_3  and  O_6 
REMARK    3  A    between atoms: C_3  and  C_4 
REMARK    4  A    between atoms: C_7  and  O_6 
REMARK    5  A    between atoms: C_9  and  C_10 
REMARK    6  A    between atoms: N_15  and  C_14 
REMARK    7  A    between atoms: N_20  and  C_19 
REMARK       I    between atoms: C_22  and  N_20 
ROOT
ATOM      1  C   LIG d   1      -2.984  76.439 115.440  0.00  0.00     0.161 C 
ATOM      2  C   LIG d   1      -2.967  75.566 116.540  0.00  0.00     0.016 C 
ATOM      3  C   LIG d   1      -1.857  75.425 117.405  0.00  0.00     0.038 C 
ATOM      4  C   LIG d   1      -0.737  76.264 117.316  0.00  0.00     0.028 C 
ATOM      5  C   LIG d   1      -0.501  76.813 115.913  0.00  0.00    -0.047 C 
ATOM      6  C   LIG d   1      -1.813  77.443 115.393  0.00  0.00     0.091 C 
ENDROOT
BRANCH   1   7
ATOM      7  O   LIG d   1      -4.244  77.136 115.388  0.00  0.00    -0.368 OA
BRANCH   7   8
ATOM      8  C   LIG d   1      -5.376  76.451 115.980  0.00  0.00     0.119 C 
BRANCH   8   9
ATOM      9  C   LIG d   1      -6.296  76.000 114.829  0.00  0.00     0.028 C 
ATOM     10  C   LIG d   1      -5.600  75.018 113.871  0.00  0.00     0.006 C 
ENDBRANCH   8   9
BRANCH   8  11
ATOM     11  C   LIG d   1      -6.224  77.405 116.826  0.00  0.00     0.028 C 
ATOM     12  C   LIG d   1      -7.596  76.817 117.192  0.00  0.00     0.006 C 
ENDBRANCH   8  11
ENDBRANCH   7   8
ENDBRANCH   1   7
BRANCH   6  13
ATOM     13  N   LIG d   1      -1.693  77.929 113.993  0.00  0.00    -0.311 N 
ATOM     14  C   LIG d   1      -2.201  79.086 113.573  0.00  0.00     0.210 C 
ATOM     15  C   LIG d   1      -1.981  79.387 112.087  0.00  0.00     0.109 C 
ATOM     16  O   LIG d   1      -2.784  79.907 114.297  0.00  0.00    -0.276 OA
ATOM     17  H   LIG d   1      -1.208  77.339 113.346  0.00  0.00     0.149 HD
ENDBRANCH   6  13
BRANCH   5  18
ATOM     18  N   LIG d   1       0.612  77.778 115.993  0.00  0.00     0.381 N 
ATOM     19  H   LIG d   1       0.271  78.703 115.823  0.00  0.00    -0.090 HD
ATOM     20  H   LIG d   1       1.287  77.555 115.283  0.00  0.00    -0.090 HD
ATOM     21  H   LIG d   1       1.038  77.733 116.892  0.00  0.00    -0.090 HD
ENDBRANCH   5  18
BRANCH   3  22
ATOM     22  C   LIG d   1      -1.846  74.408 118.347  0.00  0.00     0.382 C 
ATOM     23  O   LIG d   1      -1.870  74.687 119.570  0.00  0.00    -0.241 OA
ATOM     24  O   LIG d   1      -1.766  73.217 117.991  0.00  0.00    -0.241 OA
ENDBRANCH   3  22
TORSDOF 7
ENDMDL
MODEL 4
REMARK VINA RESULT:      -5.2      2.996      6.121
REMARK  7 active torsions:
REMARK  status: ('A' for Active; 'I' for Inactive)
REMARK    1  A    between atoms: C_2  and  C_3 
REMARK    2  A    between atoms: C_3  and  O_6 
REMARK    3  A    between atoms: C_3  and  C_4 
REMARK    4  A    between atoms: C_7  and  O_6 
REMARK    5  A    between atoms: C_9  and  C_10 
REMARK    6  A    between atoms: N_15  and  C_14 
REMARK    7  A    between atoms: N_20  and  C_19 
REMARK       I    between atoms: C_22  and  N_20 
ROOT
ATOM      1  C   LIG d   1      -6.027  76.516 116.209  0.00  0.00     0.161 C 
ATOM      2  C   LIG d   1      -7.308  75.941 116.169  0.00  0.00     0.016 C 
ATOM      3  C   LIG d   1      -8.387  76.389 116.965  0.00  0.00     0.038 C 
ATOM      4  C   LIG d   1      -8.299  77.548 117.750  0.00  0.00     0.028 C 
ATOM      5  C   LIG d   1      -6.878  77.863 118.207  0.00  0.00    -0.047 C 
ATOM      6  C   LIG d   1      -5.942  77.852 116.977  0.00  0.00     0.091 C 
ENDROOT
BRANCH   1   7
ATOM      7  O   LIG d   1      -5.521  76.676 114.869  0.00  0.00    -0.368 OA
BRANCH   7   8
ATOM      8  C   LIG d   1      -4.445  75.785 114.484  0.00  0.00     0.119 C 
BRANCH   8   9
ATOM      9  C   LIG d   1      -4.299  74.727 115.595  0.00  0.00     0.028 C 
ATOM     10  C   LIG d   1      -2.866  74.649 116.147  0.00  0.00     0.006 C 
ENDBRANCH   8   9
BRANCH   8  11
ATOM     11  C   LIG d   1      -3.101  76.519 114.444  0.00  0.00     0.028 C 
ATOM     12  C   LIG d   1      -3.009  77.531 113.291  0.00  0.00     0.006 C 
ENDBRANCH   8  11
ENDBRANCH   7   8
ENDBRANCH   1   7
BRANCH   6  13
ATOM     13  N   LIG d   1      -4.519  78.068 117.347  0.00  0.00    -0.311 N 
ATOM     14  C   LIG d   1      -3.729  78.952 116.739  0.00  0.00     0.210 C 
ATOM     15  C   LIG d   1      -2.290  79.001 117.262  0.00  0.00     0.109 C 
ATOM     16  O   LIG d   1      -4.093  79.723 115.838  0.00  0.00    -0.276 OA
ATOM     17  H   LIG d   1      -4.150  77.506 118.089  0.00  0.00     0.149 HD
ENDBRANCH   6  13
BRANCH   5  18
ATOM     18  N   LIG d   1      -6.911  79.166 118.897  0.00  0.00     0.381 N 
ATOM     19  H   LIG d   1      -6.231  79.178 119.631  0.00  0.00    -0.090 HD
ATOM     20  H   LIG d   1      -7.819  79.294 119.307  0.00  0.00    -0.090 HD
ATOM     21  H   LIG d   1      -6.725  79.900 118.250  0.00  0.00    -0.090 HD
ENDBRANCH   5  18
BRANCH   3  22
ATOM     22  C   LIG d   1      -9.560  75.650 117.011  0.00  0.00     0.382 C 
ATOM     23  O   LIG d   1      -9.566  74.458 116.619  0.00  0.00    -0.241 OA
ATOM     24  O   LIG d   1     -10.622  76.175 117.397  0.00  0.00    -0.241 OA
ENDBRANCH   3  22
TORSDOF 7
ENDMDL
MODEL 5
REMARK VINA RESULT:      -5.2      0.985      1.599
REMARK  7 active torsions:
REMARK  status: ('A' for Active; 'I' for Inactive)
REMARK    1  A    between atoms: C_2  and  C_3 
REMARK    2  A    between atoms: C_3  and  O_6 
REMARK    3  A    between atoms: C_3  and  C_4 
REMARK    4  A    between atoms: C_7  and  O_6 
REMARK    5  A    between atoms: C_9  and  C_10 
REMARK    6  A    between atoms: N_15  and  C_14 
REMARK    7  A    between atoms: N_20  and  C_19 
REMARK       I    between atoms: C_22  and  N_20 
ROOT
ATOM      1  C   LIG d   1      -3.314  77.585 115.428  0.00  0.00     0.161 C 
ATOM      2  C   LIG d   1      -3.278  78.645 114.507  0.00  0.00     0.016 C 
ATOM      3  C   LIG d   1      -2.103  79.054 113.836  0.00  0.00     0.038 C 
ATOM      4  C   LIG d   1      -0.906  78.328 113.928  0.00  0.00     0.028 C 
ATOM      5  C   LIG d   1      -0.766  77.555 115.235  0.00  0.00    -0.047 C 
ATOM      6  C   LIG d   1      -2.042  76.712 115.458  0.00  0.00     0.091 C 
ENDROOT
BRANCH   1   7
ATOM      7  O   LIG d   1      -4.477  76.769 115.190  0.00  0.00    -0.368 OA
BRANCH   7   8
ATOM      8  C   LIG d   1      -5.380  76.603 116.310  0.00  0.00     0.119 C 
BRANCH   8   9
ATOM      9  C   LIG d   1      -6.614  75.833 115.800  0.00  0.00     0.028 C 
ATOM     10  C   LIG d   1      -7.878  76.142 116.620  0.00  0.00     0.006 C 
ENDBRANCH   8   9
BRANCH   8  11
ATOM     11  C   LIG d   1      -5.917  77.952 116.798  0.00  0.00     0.028 C 
ATOM     12  C   LIG d   1      -5.385  78.338 118.187  0.00  0.00     0.006 C 
ENDBRANCH   8  11
ENDBRANCH   7   8
ENDBRANCH   1   7
BRANCH   6  13
ATOM     13  N   LIG d   1      -2.024  75.988 116.756  0.00  0.00    -0.311 N 
ATOM     14  C   LIG d   1      -1.814  74.677 116.862  0.00  0.00     0.210 C 
ATOM     15  C   LIG d   1      -1.856  74.129 118.292  0.00  0.00     0.109 C 
ATOM     16  O   LIG d   1      -1.564  73.922 115.911  0.00  0.00    -0.276 OA
ATOM     17  H   LIG d   1      -2.186  76.530 117.583  0.00  0.00     0.149 HD
ENDBRANCH   6  13
BRANCH   5  18
ATOM     18  N   LIG d   1       0.458  76.737 115.140  0.00  0.00     0.381 N 
ATOM     19  H   LIG d   1       0.253  75.790 115.390  0.00  0.00    -0.090 HD
ATOM     20  H   LIG d   1       1.139  77.094 115.787  0.00  0.00    -0.090 HD
ATOM     21  H   LIG d   1       0.820  76.772 114.212  0.00  0.00    -0.090 HD
ENDBRANCH   5  18
BRANCH   3  22
ATOM     22  C   LIG d   1      -2.108  80.224 113.092  0.00  0.00     0.382 C 
ATOM     23  O   LIG d   1      -1.024  80.770 112.775  0.00  0.00    -0.241 OA
ATOM     24  O   LIG d   1      -3.183  80.766 112.773  0.00  0.00    -0.241 OA
ENDBRANCH   3  22
TORSDOF 7
ENDMDL
MODEL 6
REMARK VINA RESULT:      -5.1      3.745      7.009
REMARK  7 active torsions:
REMARK  status: ('A' for Active; 'I' for Inactive)
REMARK    1  A    between atoms: C_2  and  C_3 
REMARK    2  A    between atoms: C_3  and  O_6 
REMARK    3  A    between atoms: C_3  and  C_4 
REMARK    4  A    between atoms: C_7  and  O_6 
REMARK    5  A    between atoms: C_9  and  C_10 
REMARK    6  A    between atoms: N_15  and  C_14 
REMARK    7  A    between atoms: N_20  and  C_19 
REMARK       I    between atoms: C_22  and  N_20 
ROOT
ATOM      1  C   LIG d   1      -6.332  77.135 116.880  0.00  0.00     0.161 C 
ATOM      2  C   LIG d   1      -7.080  76.004 116.515  0.00  0.00     0.016 C 
ATOM      3  C   LIG d   1      -8.453  75.849 116.813  0.00  0.00     0.038 C 
ATOM      4  C   LIG d   1      -9.213  76.890 117.369  0.00  0.00     0.028 C 
ATOM      5  C   LIG d   1      -8.389  77.857 118.212  0.00  0.00    -0.047 C 
ATOM      6  C   LIG d   1      -7.169  78.328 117.388  0.00  0.00     0.091 C 
ENDROOT
BRANCH   1   7
ATOM      7  O   LIG d   1      -5.495  77.544 115.780  0.00  0.00    -0.368 OA
BRANCH   7   8
ATOM      8  C   LIG d   1      -4.066  77.418 115.985  0.00  0.00     0.119 C 
BRANCH   8   9
ATOM      9  C   LIG d   1      -3.544  76.370 114.983  0.00  0.00     0.028 C 
ATOM     10  C   LIG d   1      -3.650  74.935 115.526  0.00  0.00     0.006 C 
ENDBRANCH   8   9
BRANCH   8  11
ATOM     11  C   LIG d   1      -3.750  76.846 117.371  0.00  0.00     0.028 C 
ATOM     12  C   LIG d   1      -2.943  77.818 118.247  0.00  0.00     0.006 C 
ENDBRANCH   8  11
ENDBRANCH   7   8
ENDBRANCH   1   7
BRANCH   6  13
ATOM     13  N   LIG d   1      -6.265  79.212 118.169  0.00  0.00    -0.311 N 
ATOM     14  C   LIG d   1      -6.346  80.541 118.153  0.00  0.00     0.210 C 
ATOM     15  C   LIG d   1      -5.305  81.263 119.014  0.00  0.00     0.109 C 
ATOM     16  O   LIG d   1      -7.202  81.190 117.533  0.00  0.00    -0.276 OA
ATOM     17  H   LIG d   1      -5.560  78.768 118.724  0.00  0.00     0.149 HD
ENDBRANCH   6  13
BRANCH   5  18
ATOM     18  N   LIG d   1      -9.277  78.964 118.615  0.00  0.00     0.381 N 
ATOM     19  H   LIG d   1      -9.821  78.691 119.408  0.00  0.00    -0.090 HD
ATOM     20  H   LIG d   1      -9.904  79.170 117.857  0.00  0.00    -0.090 HD
ATOM     21  H   LIG d   1      -8.736  79.772 118.836  0.00  0.00    -0.090 HD
ENDBRANCH   5  18
BRANCH   3  22
ATOM     22  C   LIG d   1      -9.071  74.628 116.592  0.00  0.00     0.382 C 
ATOM     23  O   LIG d   1      -8.439  73.561 116.783  0.00  0.00    -0.241 OA
ATOM     24  O   LIG d   1     -10.239  74.580 116.162  0.00  0.00    -0.241 OA
ENDBRANCH   3  22
TORSDOF 7
ENDMDL
MODEL 7
REMARK VINA RESULT:      -5.1      3.033      5.907
REMARK  7 active torsions:
REMARK  status: ('A' for Active; 'I' for Inactive)
REMARK    1  A    between atoms: C_2  and  C_3 
REMARK    2  A    between atoms: C_3  and  O_6 
REMARK    3  A    between atoms: C_3  and  C_4 
REMARK    4  A    between atoms: C_7  and  O_6 
REMARK    5  A    between atoms: C_9  and  C_10 
REMARK    6  A    between atoms: N_15  and  C_14 
REMARK    7  A    between atoms: N_20  and  C_19 
REMARK       I    between atoms: C_22  and  N_20 
ROOT
ATOM      1  C   LIG d   1      -6.042  77.361 116.678  0.00  0.00     0.161 C 
ATOM      2  C   LIG d   1      -7.324  76.933 117.061  0.00  0.00     0.016 C 
ATOM      3  C   LIG d   1      -7.908  75.725 116.615  0.00  0.00     0.038 C 
ATOM      4  C   LIG d   1      -7.183  74.783 115.870  0.00  0.00     0.028 C 
ATOM      5  C   LIG d   1      -6.062  75.399 115.041  0.00  0.00    -0.047 C 
ATOM      6  C   LIG d   1      -5.194  76.293 115.956  0.00  0.00     0.091 C 
ENDROOT
BRANCH   1   7
ATOM      7  O   LIG d   1      -5.334  77.871 117.826  0.00  0.00    -0.368 OA
BRANCH   7   8
ATOM      8  C   LIG d   1      -4.855  79.234 117.724  0.00  0.00     0.119 C 
BRANCH   8   9
ATOM      9  C   LIG d   1      -3.441  79.274 118.336  0.00  0.00     0.028 C 
ATOM     10  C   LIG d   1      -2.849  77.869 118.539  0.00  0.00     0.006 C 
ENDBRANCH   8   9
BRANCH   8  11
ATOM     11  C   LIG d   1      -5.695  80.185 118.581  0.00  0.00     0.028 C 
ATOM     12  C   LIG d   1      -6.734  80.966 117.761  0.00  0.00     0.006 C 
ENDBRANCH   8  11
ENDBRANCH   7   8
ENDBRANCH   1   7
BRANCH   6  13
ATOM     13  N   LIG d   1      -4.123  77.001 115.206  0.00  0.00    -0.311 N 
ATOM     14  C   LIG d   1      -2.891  76.519 115.058  0.00  0.00     0.210 C 
ATOM     15  C   LIG d   1      -1.936  77.418 114.267  0.00  0.00     0.109 C 
ATOM     16  O   LIG d   1      -2.506  75.418 115.480  0.00  0.00    -0.276 OA
ATOM     17  H   LIG d   1      -4.358  77.888 114.804  0.00  0.00     0.149 HD
ENDBRANCH   6  13
BRANCH   5  18
ATOM     18  N   LIG d   1      -5.304  74.294 114.425  0.00  0.00     0.381 N 
ATOM     19  H   LIG d   1      -4.684  74.655 113.728  0.00  0.00    -0.090 HD
ATOM     20  H   LIG d   1      -5.949  73.667 113.978  0.00  0.00    -0.090 HD
ATOM     21  H   LIG d   1      -4.784  73.807 115.121  0.00  0.00    -0.090 HD
ENDBRANCH   5  18
BRANCH   3  22
ATOM     22  C   LIG d   1      -9.244  75.468 116.881  0.00  0.00     0.382 C 
ATOM     23  O   LIG d   1      -9.747  74.366 116.556  0.00  0.00    -0.241 OA
ATOM     24  O   LIG d   1      -9.964  76.342 117.401  0.00  0.00    -0.241 OA
ENDBRANCH   3  22
TORSDOF 7
ENDMDL
MODEL 8
REMARK VINA RESULT:      -5.0      3.248      6.233
REMARK  7 active torsions:
REMARK  status: ('A' for Active; 'I' for Inactive)
REMARK    1  A    between atoms: C_2  and  C_3 
REMARK    2  A    between atoms: C_3  and  O_6 
REMARK    3  A    between atoms: C_3  and  C_4 
REMARK    4  A    between atoms: C_7  and  O_6 
REMARK    5  A    between atoms: C_9  and  C_10 
REMARK    6  A    between atoms: N_15  and  C_14 
REMARK    7  A    between atoms: N_20  and  C_19 
REMARK       I    between atoms: C_22  and  N_20 
ROOT
ATOM      1  C   LIG d   1      -4.900  77.681 116.605  0.00  0.00     0.161 C 
ATOM      2  C   LIG d   1      -4.791  76.582 115.737  0.00  0.00     0.016 C 
ATOM      3  C   LIG d   1      -5.868  75.716 115.439  0.00  0.00     0.038 C 
ATOM      4  C   LIG d   1      -7.175  75.982 115.873  0.00  0.00     0.028 C 
ATOM      5  C   LIG d   1      -7.232  76.797 117.161  0.00  0.00    -0.047 C 
ATOM      6  C   LIG d   1      -6.345  78.052 117.000  0.00  0.00     0.091 C 
ENDROOT
BRANCH   1   7
ATOM      7  O   LIG d   1      -4.228  78.822 116.034  0.00  0.00    -0.368 OA
BRANCH   7   8
ATOM      8  C   LIG d   1      -2.993  79.221 116.677  0.00  0.00     0.119 C 
BRANCH   8   9
ATOM      9  C   LIG d   1      -1.834  78.823 115.743  0.00  0.00     0.028 C 
ATOM     10  C   LIG d   1      -1.142  77.524 116.187  0.00  0.00     0.006 C 
ENDBRANCH   8   9
BRANCH   8  11
ATOM     11  C   LIG d   1      -2.759  78.435 117.971  0.00  0.00     0.028 C 
ATOM     12  C   LIG d   1      -2.746  79.332 119.219  0.00  0.00     0.006 C 
ENDBRANCH   8  11
ENDBRANCH   7   8
ENDBRANCH   1   7
BRANCH   6  13
ATOM     13  N   LIG d   1      -6.277  78.862 118.244  0.00  0.00    -0.311 N 
ATOM     14  C   LIG d   1      -6.473  80.179 118.274  0.00  0.00     0.210 C 
ATOM     15  C   LIG d   1      -6.337  80.822 119.657  0.00  0.00     0.109 C 
ATOM     16  O   LIG d   1      -6.779  80.871 117.291  0.00  0.00    -0.276 OA
ATOM     17  H   LIG d   1      -6.065  78.376 119.094  0.00  0.00     0.149 HD
ENDBRANCH   6  13
BRANCH   5  18
ATOM     18  N   LIG d   1      -8.647  77.119 117.423  0.00  0.00     0.381 N 
ATOM     19  H   LIG d   1      -9.214  76.800 116.663  0.00  0.00    -0.090 HD
ATOM     20  H   LIG d   1      -8.746  78.116 117.494  0.00  0.00    -0.090 HD
ATOM     21  H   LIG d   1      -8.944  76.687 118.271  0.00  0.00    -0.090 HD
ENDBRANCH   5  18
BRANCH   3  22
ATOM     22  C   LIG d   1      -5.635  74.547 114.731  0.00  0.00     0.382 C 
ATOM     23  O   LIG d   1      -5.157  74.600 113.572  0.00  0.00    -0.241 OA
ATOM     24  O   LIG d   1      -5.937  73.441 115.220  0.00  0.00    -0.241 OA
ENDBRANCH   3  22
TORSDOF 7
ENDMDL
MODEL 9
REMARK VINA RESULT:      -5.0      3.226      5.015
REMARK  7 active torsions:
REMARK  status: ('A' for Active; 'I' for Inactive)
REMARK    1  A    between atoms: C_2  and  C_3 
REMARK    2  A    between atoms: C_3  and  O_6 
REMARK    3  A    between atoms: C_3  and  C_4 
REMARK    4  A    between atoms: C_7  and  O_6 
REMARK    5  A    between atoms: C_9  and  C_10 
REMARK    6  A    between atoms: N_15  and  C_14 
REMARK    7  A    between atoms: N_20  and  C_19 
REMARK       I    between atoms: C_22  and  N_20 
ROOT
ATOM      1  C   LIG d   1      -5.283  78.341 117.092  0.00  0.00     0.161 C 
ATOM      2  C   LIG d   1      -3.962  78.755 116.854  0.00  0.00     0.016 C 
ATOM      3  C   LIG d   1      -3.033  77.998 116.104  0.00  0.00     0.038 C 
ATOM      4  C   LIG d   1      -3.410  76.840 115.407  0.00  0.00     0.028 C 
ATOM      5  C   LIG d   1      -4.600  76.119 116.031  0.00  0.00    -0.047 C 
ATOM      6  C   LIG d   1      -5.745  77.135 116.248  0.00  0.00     0.091 C 
ENDROOT
BRANCH   1   7
ATOM      7  O   LIG d   1      -6.183  79.452 116.912  0.00  0.00    -0.368 OA
BRANCH   7   8
ATOM      8  C   LIG d   1      -6.565  80.165 118.114  0.00  0.00     0.119 C 
BRANCH   8   9
ATOM      9  C   LIG d   1      -7.566  79.277 118.879  0.00  0.00     0.028 C 
ATOM     10  C   LIG d   1      -8.956  79.259 118.222  0.00  0.00     0.006 C 
ENDBRANCH   8   9
BRANCH   8  11
ATOM     11  C   LIG d   1      -7.333  81.448 117.781  0.00  0.00     0.028 C 
ATOM     12  C   LIG d   1      -7.119  82.557 118.824  0.00  0.00     0.006 C 
ENDBRANCH   8  11
ENDBRANCH   7   8
ENDBRANCH   1   7
BRANCH   6  13
ATOM     13  N   LIG d   1      -6.918  76.530 116.932  0.00  0.00    -0.311 N 
ATOM     14  C   LIG d   1      -7.969  76.033 116.282  0.00  0.00     0.210 C 
ATOM     15  C   LIG d   1      -9.078  75.474 117.179  0.00  0.00     0.109 C 
ATOM     16  O   LIG d   1      -8.075  75.973 115.048  0.00  0.00    -0.276 OA
ATOM     17  H   LIG d   1      -6.902  76.509 117.932  0.00  0.00     0.149 HD
ENDBRANCH   6  13
BRANCH   5  18
ATOM     18  N   LIG d   1      -4.972  75.012 115.131  0.00  0.00     0.381 N 
ATOM     19  H   LIG d   1      -4.610  74.149 115.486  0.00  0.00    -0.090 HD
ATOM     20  H   LIG d   1      -4.564  75.176 114.227  0.00  0.00    -0.090 HD
ATOM     21  H   LIG d   1      -5.964  74.956 115.050  0.00  0.00    -0.090 HD
ENDBRANCH   5  18
BRANCH   3  22
ATOM     22  C   LIG d   1      -1.700  78.378 116.077  0.00  0.00     0.382 C 
ATOM     23  O   LIG d   1      -1.380  79.513 115.649  0.00  0.00    -0.241 OA
ATOM     24  O   LIG d   1      -0.809  77.583 116.433  0.00  0.00    -0.241 OA
ENDBRANCH   3  22
TORSDOF 7
ENDMDL
