MODEL 1
REMARK VINA RESULT:      -5.7      0.000      0.000
REMARK  7 active torsions:
REMARK  status: ('A' for Active; 'I' for Inactive)
REMARK    1  A    between atoms: C_2  and  C_3 
REMARK    2  A    between atoms: C_3  and  O_6 
REMARK    3  A    between atoms: C_3  and  C_4 
REMARK    4  A    between atoms: C_7  and  O_6 
REMARK    5  A    between atoms: C_9  and  C_10 
REMARK    6  A    between atoms: N_15  and  C_14 
REMARK    7  A    between atoms: N_20  and  C_19 
REMARK       I    between atoms: C_22  and  N_20 
ROOT
ATOM      1  C   LIG d   1      -3.958  74.691 116.823  0.00  0.00     0.161 C 
ATOM      2  C   LIG d   1      -3.103  74.248 117.846  0.00  0.00     0.016 C 
ATOM      3  C   LIG d   1      -1.694  74.342 117.778  0.00  0.00     0.038 C 
ATOM      4  C   LIG d   1      -1.046  75.029 116.741  0.00  0.00     0.028 C 
ATOM      5  C   LIG d   1      -1.841  75.049 115.439  0.00  0.00    -0.047 C 
ATOM      6  C   LIG d   1      -3.275  75.544 115.734  0.00  0.00     0.091 C 
ENDROOT
BRANCH   1   7
ATOM      7  O   LIG d   1      -5.072  75.406 117.394  0.00  0.00    -0.368 OA
BRANCH   7   8
ATOM      8  C   LIG d   1      -6.269  74.629 117.641  0.00  0.00     0.119 C 
BRANCH   8   9
ATOM      9  C   LIG d   1      -6.625  73.897 116.332  0.00  0.00     0.028 C 
ATOM     10  C   LIG d   1      -7.479  72.642 116.575  0.00  0.00     0.006 C 
ENDBRANCH   8   9
BRANCH   8  11
ATOM     11  C   LIG d   1      -7.469  75.533 117.939  0.00  0.00     0.028 C 
ATOM     12  C   LIG d   1      -7.793  76.494 116.784  0.00  0.00     0.006 C 
ENDBRANCH   8  11
ENDBRANCH   7   8
ENDBRANCH   1   7
BRANCH   6  13
ATOM     13  N   LIG d   1      -4.144  75.514 114.529  0.00  0.00    -0.311 N 
ATOM     14  C   LIG d   1      -4.986  76.494 114.208  0.00  0.00     0.210 C 
ATOM     15  C   LIG d   1      -5.804  76.254 112.934  0.00  0.00     0.109 C 
ATOM     16  O   LIG d   1      -5.111  77.555 114.839  0.00  0.00    -0.276 OA
ATOM     17  H   LIG d   1      -4.084  74.704 113.943  0.00  0.00     0.149 HD
ENDBRANCH   6  13
BRANCH   5  18
ATOM     18  N   LIG d   1      -1.115  75.912 114.487  0.00  0.00     0.381 N 
ATOM     19  H   LIG d   1      -1.727  76.623 114.141  0.00  0.00    -0.090 HD
ATOM     20  H   LIG d   1      -0.809  75.353 113.710  0.00  0.00    -0.090 HD
ATOM     21  H   LIG d   1      -0.330  76.329 114.936  0.00  0.00    -0.090 HD
ENDBRANCH   5  18
BRANCH   3  22
ATOM     22  C   LIG d   1      -0.916  73.709 118.736  0.00  0.00     0.382 C 
ATOM     23  O   LIG d   1      -1.290  72.616 119.226  0.00  0.00    -0.241 OA
ATOM     24  O   LIG d   1       0.132  74.240 119.149  0.00  0.00    -0.241 OA
ENDBRANCH   3  22
TORSDOF 7
ENDMDL
MODEL 2
REMARK VINA RESULT:      -5.7      2.701      5.684
REMARK  7 active torsions:
REMARK  status: ('A' for Active; 'I' for Inactive)
REMARK    1  A    between atoms: C_2  and  C_3 
REMARK    2  A    between atoms: C_3  and  O_6 
REMARK    3  A    between atoms: C_3  and  C_4 
REMARK    4  A    between atoms: C_7  and  O_6 
REMARK    5  A    between atoms: C_9  and  C_10 
REMARK    6  A    between atoms: N_15  and  C_14 
REMARK    7  A    between atoms: N_20  and  C_19 
REMARK       I    between atoms: C_22  and  N_20 
ROOT
ATOM      1  C   LIG d   1      -6.853  75.761 118.464  0.00  0.00     0.161 C 
ATOM      2  C   LIG d   1      -7.972  76.610 118.444  0.00  0.00     0.016 C 
ATOM      3  C   LIG d   1      -8.008  77.833 117.735  0.00  0.00     0.038 C 
ATOM      4  C   LIG d   1      -6.974  78.219 116.869  0.00  0.00     0.028 C 
ATOM      5  C   LIG d   1      -5.616  77.639 117.252  0.00  0.00    -0.047 C 
ATOM      6  C   LIG d   1      -5.757  76.111 117.437  0.00  0.00     0.091 C 
ENDROOT
BRANCH   1   7
ATOM      7  O   LIG d   1      -7.276  74.393 118.300  0.00  0.00    -0.368 OA
BRANCH   7   8
ATOM      8  C   LIG d   1      -7.832  74.048 117.007  0.00  0.00     0.119 C 
BRANCH   8   9
ATOM      9  C   LIG d   1      -9.144  73.280 117.258  0.00  0.00     0.028 C 
ATOM     10  C   LIG d   1     -10.388  74.107 116.892  0.00  0.00     0.006 C 
ENDBRANCH   8   9
BRANCH   8  11
ATOM     11  C   LIG d   1      -6.926  73.070 116.254  0.00  0.00     0.028 C 
ATOM     12  C   LIG d   1      -7.490  71.641 116.221  0.00  0.00     0.006 C 
ENDBRANCH   8  11
ENDBRANCH   7   8
ENDBRANCH   1   7
BRANCH   6  13
ATOM     13  N   LIG d   1      -4.493  75.476 117.893  0.00  0.00    -0.311 N 
ATOM     14  C   LIG d   1      -3.552  75.035 117.061  0.00  0.00     0.210 C 
ATOM     15  C   LIG d   1      -2.336  74.396 117.740  0.00  0.00     0.109 C 
ATOM     16  O   LIG d   1      -3.593  75.142 115.826  0.00  0.00    -0.276 OA
ATOM     17  H   LIG d   1      -4.363  75.378 118.881  0.00  0.00     0.149 HD
ENDBRANCH   6  13
BRANCH   5  18
ATOM     18  N   LIG d   1      -4.660  78.008 116.191  0.00  0.00     0.381 N 
ATOM     19  H   LIG d   1      -4.373  78.959 116.309  0.00  0.00    -0.090 HD
ATOM     20  H   LIG d   1      -5.115  77.924 115.299  0.00  0.00    -0.090 HD
ATOM     21  H   LIG d   1      -3.866  77.407 116.224  0.00  0.00    -0.090 HD
ENDBRANCH   5  18
BRANCH   3  22
ATOM     22  C   LIG d   1      -9.071  78.704 117.920  0.00  0.00     0.382 C 
ATOM     23  O   LIG d   1     -10.227  78.252 118.108  0.00  0.00    -0.241 OA
ATOM     24  O   LIG d   1      -8.897  79.936 117.858  0.00  0.00    -0.241 OA
ENDBRANCH   3  22
TORSDOF 7
ENDMDL
MODEL 3
REMARK VINA RESULT:      -5.5      3.432      6.321
REMARK  7 active torsions:
REMARK  status: ('A' for Active; 'I' for Inactive)
REMARK    1  A    between atoms: C_2  and  C_3 
REMARK    2  A    between atoms: C_3  and  O_6 
REMARK    3  A    between atoms: C_3  and  C_4 
REMARK    4  A    between atoms: C_7  and  O_6 
REMARK    5  A    between atoms: C_9  and  C_10 
REMARK    6  A    between atoms: N_15  and  C_14 
REMARK    7  A    between atoms: N_20  and  C_19 
REMARK       I    between atoms: C_22  and  N_20 
ROOT
ATOM      1  C   LIG d   1      -7.215  77.320 117.518  0.00  0.00     0.161 C 
ATOM      2  C   LIG d   1      -8.462  77.861 117.871  0.00  0.00     0.016 C 
ATOM      3  C   LIG d   1      -8.721  79.250 117.925  0.00  0.00     0.038 C 
ATOM      4  C   LIG d   1      -7.786  80.196 117.480  0.00  0.00     0.028 C 
ATOM      5  C   LIG d   1      -6.341  79.720 117.594  0.00  0.00    -0.047 C 
ATOM      6  C   LIG d   1      -6.215  78.333 116.922  0.00  0.00     0.091 C 
ENDROOT
BRANCH   1   7
ATOM      7  O   LIG d   1      -7.401  76.211 116.616  0.00  0.00    -0.368 OA
BRANCH   7   8
ATOM      8  C   LIG d   1      -7.262  74.889 117.194  0.00  0.00     0.119 C 
BRANCH   8   9
ATOM      9  C   LIG d   1      -6.417  74.045 116.220  0.00  0.00     0.028 C 
ATOM     10  C   LIG d   1      -5.812  74.887 115.085  0.00  0.00     0.006 C 
ENDBRANCH   8   9
BRANCH   8  11
ATOM     11  C   LIG d   1      -8.614  74.175 117.282  0.00  0.00     0.028 C 
ATOM     12  C   LIG d   1      -8.510  72.666 117.009  0.00  0.00     0.006 C 
ENDBRANCH   8  11
ENDBRANCH   7   8
ENDBRANCH   1   7
BRANCH   6  13
ATOM     13  N   LIG d   1      -4.853  77.757 117.062  0.00  0.00    -0.311 N 
ATOM     14  C   LIG d   1      -3.909  77.872 116.130  0.00  0.00     0.210 C 
ATOM     15  C   LIG d   1      -2.581  77.186 116.467  0.00  0.00     0.109 C 
ATOM     16  O   LIG d   1      -4.034  78.504 115.071  0.00  0.00    -0.276 OA
ATOM     17  H   LIG d   1      -4.655  77.254 117.905  0.00  0.00     0.149 HD
ENDBRANCH   6  13
BRANCH   5  18
ATOM     18  N   LIG d   1      -5.484  80.745 116.970  0.00  0.00     0.381 N 
ATOM     19  H   LIG d   1      -5.019  81.276 117.680  0.00  0.00    -0.090 HD
ATOM     20  H   LIG d   1      -6.061  81.370 116.435  0.00  0.00    -0.090 HD
ATOM     21  H   LIG d   1      -4.811  80.311 116.376  0.00  0.00    -0.090 HD
ENDBRANCH   5  18
BRANCH   3  22
ATOM     22  C   LIG d   1      -9.913  79.706 118.466  0.00  0.00     0.382 C 
ATOM     23  O   LIG d   1     -10.441  79.093 119.425  0.00  0.00    -0.241 OA
ATOM     24  O   LIG d   1     -10.490  80.697 117.979  0.00  0.00    -0.241 OA
ENDBRANCH   3  22
TORSDOF 7
ENDMDL
MODEL 4
REMARK VINA RESULT:      -5.5      1.678      2.372
REMARK  7 active torsions:
REMARK  status: ('A' for Active; 'I' for Inactive)
REMARK    1  A    between atoms: C_2  and  C_3 
REMARK    2  A    between atoms: C_3  and  O_6 
REMARK    3  A    between atoms: C_3  and  C_4 
REMARK    4  A    between atoms: C_7  and  O_6 
REMARK    5  A    between atoms: C_9  and  C_10 
REMARK    6  A    between atoms: N_15  and  C_14 
REMARK    7  A    between atoms: N_20  and  C_19 
REMARK       I    between atoms: C_22  and  N_20 
ROOT
ATOM      1  C   LIG d   1      -2.960  75.350 116.121  0.00  0.00     0.161 C 
ATOM      2  C   LIG d   1      -2.509  74.618 117.232  0.00  0.00     0.016 C 
ATOM      3  C   LIG d   1      -1.206  74.739 117.767  0.00  0.00     0.038 C 
ATOM      4  C   LIG d   1      -0.309  75.719 117.318  0.00  0.00     0.028 C 
ATOM      5  C   LIG d   1      -0.542  76.136 115.870  0.00  0.00    -0.047 C 
ATOM      6  C   LIG d   1      -2.032  76.504 115.687  0.00  0.00     0.091 C 
ENDROOT
BRANCH   1   7
ATOM      7  O   LIG d   1      -4.291  75.845 116.369  0.00  0.00    -0.368 OA
BRANCH   7   8
ATOM      8  C   LIG d   1      -5.354  75.226 115.603  0.00  0.00     0.119 C 
BRANCH   8   9
ATOM      9  C   LIG d   1      -5.973  76.315 114.706  0.00  0.00     0.028 C 
ATOM     10  C   LIG d   1      -5.749  76.040 113.209  0.00  0.00     0.006 C 
ENDBRANCH   8   9
BRANCH   8  11
ATOM     11  C   LIG d   1      -6.493  74.753 116.511  0.00  0.00     0.028 C 
ATOM     12  C   LIG d   1      -6.861  73.278 116.287  0.00  0.00     0.006 C 
ENDBRANCH   8  11
ENDBRANCH   7   8
ENDBRANCH   1   7
BRANCH   6  13
ATOM     13  N   LIG d   1      -2.363  76.843 114.279  0.00  0.00    -0.311 N 
ATOM     14  C   LIG d   1      -2.367  78.088 113.805  0.00  0.00     0.210 C 
ATOM     15  C   LIG d   1      -2.757  78.218 112.330  0.00  0.00     0.109 C 
ATOM     16  O   LIG d   1      -2.053  79.094 114.459  0.00  0.00    -0.276 OA
ATOM     17  H   LIG d   1      -2.600  76.084 113.670  0.00  0.00     0.149 HD
ENDBRANCH   6  13
BRANCH   5  18
ATOM     18  N   LIG d   1       0.371  77.257 115.576  0.00  0.00     0.381 N 
ATOM     19  H   LIG d   1       0.853  77.086 114.716  0.00  0.00    -0.090 HD
ATOM     20  H   LIG d   1       1.053  77.322 116.312  0.00  0.00    -0.090 HD
ATOM     21  H   LIG d   1      -0.143  78.108 115.514  0.00  0.00    -0.090 HD
ENDBRANCH   5  18
BRANCH   3  22
ATOM     22  C   LIG d   1      -0.776  73.847 118.738  0.00  0.00     0.382 C 
ATOM     23  O   LIG d   1      -1.471  72.840 119.015  0.00  0.00    -0.241 OA
ATOM     24  O   LIG d   1       0.275  74.060 119.370  0.00  0.00    -0.241 OA
ENDBRANCH   3  22
TORSDOF 7
ENDMDL
MODEL 5
REMARK VINA RESULT:      -5.2      2.601      5.755
REMARK  7 active torsions:
REMARK  status: ('A' for Active; 'I' for Inactive)
REMARK    1  A    between atoms: C_2  and  C_3 
REMARK    2  A    between atoms: C_3  and  O_6 
REMARK    3  A    between atoms: C_3  and  C_4 
REMARK    4  A    between atoms: C_7  and  O_6 
REMARK    5  A    between atoms: C_9  and  C_10 
REMARK    6  A    between atoms: N_15  and  C_14 
REMARK    7  A    between atoms: N_20  and  C_19 
REMARK       I    between atoms: C_22  and  N_20 
ROOT
ATOM      1  C   LIG d   1      -5.123  75.510 116.316  0.00  0.00     0.161 C 
ATOM      2  C   LIG d   1      -4.818  76.880 116.368  0.00  0.00     0.016 C 
ATOM      3  C   LIG d   1      -5.770  77.878 116.680  0.00  0.00     0.038 C 
ATOM      4  C   LIG d   1      -7.066  77.558 117.112  0.00  0.00     0.028 C 
ATOM      5  C   LIG d   1      -7.564  76.215 116.588  0.00  0.00    -0.047 C 
ATOM      6  C   LIG d   1      -6.504  75.132 116.893  0.00  0.00     0.091 C 
ENDROOT
BRANCH   1   7
ATOM      7  O   LIG d   1      -4.084  74.753 116.968  0.00  0.00    -0.368 OA
BRANCH   7   8
ATOM      8  C   LIG d   1      -2.883  75.486 117.314  0.00  0.00     0.119 C 
BRANCH   8   9
ATOM      9  C   LIG d   1      -1.705  74.818 116.578  0.00  0.00     0.028 C 
ATOM     10  C   LIG d   1      -0.817  73.990 117.523  0.00  0.00     0.006 C 
ENDBRANCH   8   9
BRANCH   8  11
ATOM     11  C   LIG d   1      -2.559  75.352 118.805  0.00  0.00     0.028 C 
ATOM     12  C   LIG d   1      -3.115  76.514 119.642  0.00  0.00     0.006 C 
ENDBRANCH   8  11
ENDBRANCH   7   8
ENDBRANCH   1   7
BRANCH   6  13
ATOM     13  N   LIG d   1      -6.875  73.804 116.339  0.00  0.00    -0.311 N 
ATOM     14  C   LIG d   1      -7.476  72.854 117.053  0.00  0.00     0.210 C 
ATOM     15  C   LIG d   1      -7.751  71.552 116.294  0.00  0.00     0.109 C 
ATOM     16  O   LIG d   1      -7.837  72.978 118.233  0.00  0.00    -0.276 OA
ATOM     17  H   LIG d   1      -6.647  73.630 115.380  0.00  0.00     0.149 HD
ENDBRANCH   6  13
BRANCH   5  18
ATOM     18  N   LIG d   1      -8.867  75.944 117.224  0.00  0.00     0.381 N 
ATOM     19  H   LIG d   1      -9.508  76.682 117.011  0.00  0.00    -0.090 HD
ATOM     20  H   LIG d   1      -8.742  75.913 118.221  0.00  0.00    -0.090 HD
ATOM     21  H   LIG d   1      -9.230  75.075 116.901  0.00  0.00    -0.090 HD
ENDBRANCH   5  18
BRANCH   3  22
ATOM     22  C   LIG d   1      -5.440  79.216 116.522  0.00  0.00     0.382 C 
ATOM     23  O   LIG d   1      -6.113  80.100 117.105  0.00  0.00    -0.241 OA
ATOM     24  O   LIG d   1      -4.507  79.552 115.769  0.00  0.00    -0.241 OA
ENDBRANCH   3  22
TORSDOF 7
ENDMDL
MODEL 6
REMARK VINA RESULT:      -5.1      3.753      6.534
REMARK  7 active torsions:
REMARK  status: ('A' for Active; 'I' for Inactive)
REMARK    1  A    between atoms: C_2  and  C_3 
REMARK    2  A    between atoms: C_3  and  O_6 
REMARK    3  A    between atoms: C_3  and  C_4 
REMARK    4  A    between atoms: C_7  and  O_6 
REMARK    5  A    between atoms: C_9  and  C_10 
REMARK    6  A    between atoms: N_15  and  C_14 
REMARK    7  A    between atoms: N_20  and  C_19 
REMARK       I    between atoms: C_22  and  N_20 
ROOT
ATOM      1  C   LIG d   1      -6.628  77.983 117.010  0.00  0.00     0.161 C 
ATOM      2  C   LIG d   1      -7.950  78.223 117.421  0.00  0.00     0.016 C 
ATOM      3  C   LIG d   1      -8.441  79.507 117.751  0.00  0.00     0.038 C 
ATOM      4  C   LIG d   1      -7.680  80.668 117.545  0.00  0.00     0.028 C 
ATOM      5  C   LIG d   1      -6.176  80.425 117.611  0.00  0.00    -0.047 C 
ATOM      6  C   LIG d   1      -5.815  79.251 116.673  0.00  0.00     0.091 C 
ENDROOT
BRANCH   1   7
ATOM      7  O   LIG d   1      -6.622  77.072 115.892  0.00  0.00    -0.368 OA
BRANCH   7   8
ATOM      8  C   LIG d   1      -6.464  75.669 116.215  0.00  0.00     0.119 C 
BRANCH   8   9
ATOM      9  C   LIG d   1      -5.618  75.582 117.500  0.00  0.00     0.028 C 
ATOM     10  C   LIG d   1      -4.196  75.062 117.233  0.00  0.00     0.006 C 
ENDBRANCH   8   9
BRANCH   8  11
ATOM     11  C   LIG d   1      -5.650  74.939 115.143  0.00  0.00     0.028 C 
ATOM     12  C   LIG d   1      -5.506  75.752 113.847  0.00  0.00     0.006 C 
ENDBRANCH   8  11
ENDBRANCH   7   8
ENDBRANCH   1   7
BRANCH   6  13
ATOM     13  N   LIG d   1      -4.375  78.893 116.740  0.00  0.00    -0.311 N 
ATOM     14  C   LIG d   1      -3.475  79.301 115.847  0.00  0.00     0.210 C 
ATOM     15  C   LIG d   1      -2.048  78.801 116.092  0.00  0.00     0.109 C 
ATOM     16  O   LIG d   1      -3.717  80.056 114.894  0.00  0.00    -0.276 OA
ATOM     17  H   LIG d   1      -4.085  78.308 117.500  0.00  0.00     0.149 HD
ENDBRANCH   6  13
BRANCH   5  18
ATOM     18  N   LIG d   1      -5.505  81.686 117.243  0.00  0.00     0.381 N 
ATOM     19  H   LIG d   1      -6.150  82.289 116.774  0.00  0.00    -0.090 HD
ATOM     20  H   LIG d   1      -4.750  81.481 116.613  0.00  0.00    -0.090 HD
ATOM     21  H   LIG d   1      -5.152  82.135 118.060  0.00  0.00    -0.090 HD
ENDBRANCH   5  18
BRANCH   3  22
ATOM     22  C   LIG d   1      -9.694  79.635 118.331  0.00  0.00     0.382 C 
ATOM     23  O   LIG d   1     -10.069  80.748 118.772  0.00  0.00    -0.241 OA
ATOM     24  O   LIG d   1     -10.435  78.643 118.459  0.00  0.00    -0.241 OA
ENDBRANCH   3  22
TORSDOF 7
ENDMDL
MODEL 7
REMARK VINA RESULT:      -5.1      4.012      6.167
REMARK  7 active torsions:
REMARK  status: ('A' for Active; 'I' for Inactive)
REMARK    1  A    between atoms: C_2  and  C_3 
REMARK    2  A    between atoms: C_3  and  O_6 
REMARK    3  A    between atoms: C_3  and  C_4 
REMARK    4  A    between atoms: C_7  and  O_6 
REMARK    5  A    between atoms: C_9  and  C_10 
REMARK    6  A    between atoms: N_15  and  C_14 
REMARK    7  A    between atoms: N_20  and  C_19 
REMARK       I    between atoms: C_22  and  N_20 
ROOT
ATOM      1  C   LIG d   1      -7.853  77.026 117.365  0.00  0.00     0.161 C 
ATOM      2  C   LIG d   1      -8.952  76.152 117.301  0.00  0.00     0.016 C 
ATOM      3  C   LIG d   1      -8.824  74.745 117.240  0.00  0.00     0.038 C 
ATOM      4  C   LIG d   1      -7.585  74.106 117.391  0.00  0.00     0.028 C 
ATOM      5  C   LIG d   1      -6.403  74.963 116.951  0.00  0.00    -0.047 C 
ATOM      6  C   LIG d   1      -6.498  76.342 117.643  0.00  0.00     0.091 C 
ENDROOT
BRANCH   1   7
ATOM      7  O   LIG d   1      -8.105  78.056 118.341  0.00  0.00    -0.368 OA
BRANCH   7   8
ATOM      8  C   LIG d   1      -8.366  79.381 117.817  0.00  0.00     0.119 C 
BRANCH   8   9
ATOM      9  C   LIG d   1      -7.310  80.331 118.412  0.00  0.00     0.028 C 
ATOM     10  C   LIG d   1      -6.415  80.964 117.333  0.00  0.00     0.006 C 
ENDBRANCH   8   9
BRANCH   8  11
ATOM     11  C   LIG d   1      -9.715  79.917 118.305  0.00  0.00     0.028 C 
ATOM     12  C   LIG d   1     -10.102  81.249 117.643  0.00  0.00     0.006 C 
ENDBRANCH   8  11
ENDBRANCH   7   8
ENDBRANCH   1   7
BRANCH   6  13
ATOM     13  N   LIG d   1      -5.426  77.273 117.203  0.00  0.00    -0.311 N 
ATOM     14  C   LIG d   1      -5.247  77.636 115.934  0.00  0.00     0.210 C 
ATOM     15  C   LIG d   1      -4.071  78.588 115.695  0.00  0.00     0.109 C 
ATOM     16  O   LIG d   1      -5.970  77.287 114.989  0.00  0.00    -0.276 OA
ATOM     17  H   LIG d   1      -4.813  77.629 117.909  0.00  0.00     0.149 HD
ENDBRANCH   6  13
BRANCH   5  18
ATOM     18  N   LIG d   1      -5.169  74.230 117.291  0.00  0.00     0.381 N 
ATOM     19  H   LIG d   1      -4.727  73.905 116.455  0.00  0.00    -0.090 HD
ATOM     20  H   LIG d   1      -5.410  73.430 117.851  0.00  0.00    -0.090 HD
ATOM     21  H   LIG d   1      -4.548  74.823 117.796  0.00  0.00    -0.090 HD
ENDBRANCH   5  18
BRANCH   3  22
ATOM     22  C   LIG d   1      -9.941  73.965 116.985  0.00  0.00     0.382 C 
ATOM     23  O   LIG d   1      -9.809  72.740 116.746  0.00  0.00    -0.241 OA
ATOM     24  O   LIG d   1     -11.076  74.478 116.946  0.00  0.00    -0.241 OA
ENDBRANCH   3  22
TORSDOF 7
ENDMDL
MODEL 8
REMARK VINA RESULT:      -5.0      3.241      4.888
REMARK  7 active torsions:
REMARK  status: ('A' for Active; 'I' for Inactive)
REMARK    1  A    between atoms: C_2  and  C_3 
REMARK    2  A    between atoms: C_3  and  O_6 
REMARK    3  A    between atoms: C_3  and  C_4 
REMARK    4  A    between atoms: C_7  and  O_6 
REMARK    5  A    between atoms: C_9  and  C_10 
REMARK    6  A    between atoms: N_15  and  C_14 
REMARK    7  A    between atoms: N_20  and  C_19 
REMARK       I    between atoms: C_22  and  N_20 
ROOT
ATOM      1  C   LIG d   1      -6.417  76.990 115.643  0.00  0.00     0.161 C 
ATOM      2  C   LIG d   1      -5.376  76.684 114.751  0.00  0.00     0.016 C 
ATOM      3  C   LIG d   1      -4.149  77.385 114.718  0.00  0.00     0.038 C 
ATOM      4  C   LIG d   1      -3.819  78.349 115.683  0.00  0.00     0.028 C 
ATOM      5  C   LIG d   1      -5.035  79.040 116.289  0.00  0.00    -0.047 C 
ATOM      6  C   LIG d   1      -6.032  77.964 116.776  0.00  0.00     0.091 C 
ENDROOT
BRANCH   1   7
ATOM      7  O   LIG d   1      -6.963  75.774 116.192  0.00  0.00    -0.368 OA
BRANCH   7   8
ATOM      8  C   LIG d   1      -6.043  74.663 116.319  0.00  0.00     0.119 C 
BRANCH   8   9
ATOM      9  C   LIG d   1      -6.882  73.372 116.388  0.00  0.00     0.028 C 
ATOM     10  C   LIG d   1      -7.732  73.292 117.668  0.00  0.00     0.006 C 
ENDBRANCH   8   9
BRANCH   8  11
ATOM     11  C   LIG d   1      -5.279  74.721 117.645  0.00  0.00     0.028 C 
ATOM     12  C   LIG d   1      -3.755  74.766 117.453  0.00  0.00     0.006 C 
ENDBRANCH   8  11
ENDBRANCH   7   8
ENDBRANCH   1   7
BRANCH   6  13
ATOM     13  N   LIG d   1      -7.288  78.555 117.307  0.00  0.00    -0.311 N 
ATOM     14  C   LIG d   1      -7.850  78.175 118.454  0.00  0.00     0.210 C 
ATOM     15  C   LIG d   1      -9.153  78.898 118.807  0.00  0.00     0.109 C 
ATOM     16  O   LIG d   1      -7.375  77.330 119.228  0.00  0.00    -0.276 OA
ATOM     17  H   LIG d   1      -7.724  79.270 116.758  0.00  0.00     0.149 HD
ENDBRANCH   6  13
BRANCH   5  18
ATOM     18  N   LIG d   1      -4.555  79.917 117.374  0.00  0.00     0.381 N 
ATOM     19  H   LIG d   1      -3.559  79.852 117.446  0.00  0.00    -0.090 HD
ATOM     20  H   LIG d   1      -4.955  79.608 118.242  0.00  0.00    -0.090 HD
ATOM     21  H   LIG d   1      -4.821  80.860 117.193  0.00  0.00    -0.090 HD
ENDBRANCH   5  18
BRANCH   3  22
ATOM     22  C   LIG d   1      -3.252  77.153 113.686  0.00  0.00     0.382 C 
ATOM     23  O   LIG d   1      -3.525  77.529 112.521  0.00  0.00    -0.241 OA
ATOM     24  O   LIG d   1      -2.193  76.532 113.897  0.00  0.00    -0.241 OA
ENDBRANCH   3  22
TORSDOF 7
ENDMDL
MODEL 9
REMARK VINA RESULT:      -5.0      2.905      5.606
REMARK  7 active torsions:
REMARK  status: ('A' for Active; 'I' for Inactive)
REMARK    1  A    between atoms: C_2  and  C_3 
REMARK    2  A    between atoms: C_3  and  O_6 
REMARK    3  A    between atoms: C_3  and  C_4 
REMARK    4  A    between atoms: C_7  and  O_6 
REMARK    5  A    between atoms: C_9  and  C_10 
REMARK    6  A    between atoms: N_15  and  C_14 
REMARK    7  A    between atoms: N_20  and  C_19 
REMARK       I    between atoms: C_22  and  N_20 
ROOT
ATOM      1  C   LIG d   1      -5.394  76.214 117.739  0.00  0.00     0.161 C 
ATOM      2  C   LIG d   1      -5.843  74.905 117.495  0.00  0.00     0.016 C 
ATOM      3  C   LIG d   1      -7.208  74.563 117.356  0.00  0.00     0.038 C 
ATOM      4  C   LIG d   1      -8.214  75.539 117.302  0.00  0.00     0.028 C 
ATOM      5  C   LIG d   1      -7.857  76.820 118.048  0.00  0.00    -0.047 C 
ATOM      6  C   LIG d   1      -6.470  77.308 117.572  0.00  0.00     0.091 C 
ENDROOT
BRANCH   1   7
ATOM      7  O   LIG d   1      -4.253  76.502 116.907  0.00  0.00    -0.368 OA
BRANCH   7   8
ATOM      8  C   LIG d   1      -3.834  75.444 116.010  0.00  0.00     0.119 C 
BRANCH   8   9
ATOM      9  C   LIG d   1      -2.343  75.169 116.283  0.00  0.00     0.028 C 
ATOM     10  C   LIG d   1      -1.520  75.059 114.988  0.00  0.00     0.006 C 
ENDBRANCH   8   9
BRANCH   8  11
ATOM     11  C   LIG d   1      -3.902  75.894 114.547  0.00  0.00     0.028 C 
ATOM     12  C   LIG d   1      -5.294  75.694 113.926  0.00  0.00     0.006 C 
ENDBRANCH   8  11
ENDBRANCH   7   8
ENDBRANCH   1   7
BRANCH   6  13
ATOM     13  N   LIG d   1      -6.007  78.510 118.312  0.00  0.00    -0.311 N 
ATOM     14  C   LIG d   1      -5.948  79.726 117.772  0.00  0.00     0.210 C 
ATOM     15  C   LIG d   1      -5.423  80.823 118.704  0.00  0.00     0.109 C 
ATOM     16  O   LIG d   1      -6.312  80.007 116.621  0.00  0.00    -0.276 OA
ATOM     17  H   LIG d   1      -5.722  78.379 119.263  0.00  0.00     0.149 HD
ENDBRANCH   6  13
BRANCH   5  18
ATOM     18  N   LIG d   1      -8.932  77.798 117.795  0.00  0.00     0.381 N 
ATOM     19  H   LIG d   1      -8.707  78.669 118.232  0.00  0.00    -0.090 HD
ATOM     20  H   LIG d   1      -9.786  77.454 118.197  0.00  0.00    -0.090 HD
ATOM     21  H   LIG d   1      -9.048  77.930 116.814  0.00  0.00    -0.090 HD
ENDBRANCH   5  18
BRANCH   3  22
ATOM     22  C   LIG d   1      -7.581  73.229 117.310  0.00  0.00     0.382 C 
ATOM     23  O   LIG d   1      -7.658  72.637 116.207  0.00  0.00    -0.241 OA
ATOM     24  O   LIG d   1      -7.884  72.621 118.355  0.00  0.00    -0.241 OA
ENDBRANCH   3  22
TORSDOF 7
ENDMDL
