MODEL 1
REMARK VINA RESULT:      -5.3      0.000      0.000
REMARK  7 active torsions:
REMARK  status: ('A' for Active; 'I' for Inactive)
REMARK    1  A    between atoms: C_2  and  C_3 
REMARK    2  A    between atoms: C_3  and  O_6 
REMARK    3  A    between atoms: C_3  and  C_4 
REMARK    4  A    between atoms: C_7  and  O_6 
REMARK    5  A    between atoms: C_9  and  C_10 
REMARK    6  A    between atoms: N_15  and  C_14 
REMARK    7  A    between atoms: N_20  and  C_19 
REMARK       I    between atoms: C_22  and  N_20 
ROOT
ATOM      1  C   LIG d   1      -2.583  75.279 115.924  0.00  0.00     0.161 C 
ATOM      2  C   LIG d   1      -1.947  74.672 117.020  0.00  0.00     0.016 C 
ATOM      3  C   LIG d   1      -0.760  75.172 117.605  0.00  0.00     0.038 C 
ATOM      4  C   LIG d   1      -0.209  76.405 117.226  0.00  0.00     0.028 C 
ATOM      5  C   LIG d   1      -0.532  76.797 115.788  0.00  0.00    -0.047 C 
ATOM      6  C   LIG d   1      -2.058  76.686 115.569  0.00  0.00     0.091 C 
ENDROOT
BRANCH   1   7
ATOM      7  O   LIG d   1      -4.007  75.317 116.145  0.00  0.00    -0.368 OA
BRANCH   7   8
ATOM      8  C   LIG d   1      -4.817  74.557 115.214  0.00  0.00     0.119 C 
BRANCH   8   9
ATOM      9  C   LIG d   1      -5.680  75.560 114.425  0.00  0.00     0.028 C 
ATOM     10  C   LIG d   1      -6.795  76.178 115.285  0.00  0.00     0.006 C 
ENDBRANCH   8   9
BRANCH   8  11
ATOM     11  C   LIG d   1      -5.813  73.655 115.950  0.00  0.00     0.028 C 
ATOM     12  C   LIG d   1      -5.254  73.103 117.271  0.00  0.00     0.006 C 
ENDBRANCH   8  11
ENDBRANCH   7   8
ENDBRANCH   1   7
BRANCH   6  13
ATOM     13  N   LIG d   1      -2.451  76.971 114.164  0.00  0.00    -0.311 N 
ATOM     14  C   LIG d   1      -2.817  78.178 113.736  0.00  0.00     0.210 C 
ATOM     15  C   LIG d   1      -3.202  78.249 112.255  0.00  0.00     0.109 C 
ATOM     16  O   LIG d   1      -2.828  79.203 114.434  0.00  0.00    -0.276 OA
ATOM     17  H   LIG d   1      -2.440  76.202 113.522  0.00  0.00     0.149 HD
ENDBRANCH   6  13
BRANCH   5  18
ATOM     18  N   LIG d   1      -0.014  78.161 115.571  0.00  0.00     0.381 N 
ATOM     19  H   LIG d   1      -0.130  78.703 116.404  0.00  0.00    -0.090 HD
ATOM     20  H   LIG d   1      -0.543  78.596 114.836  0.00  0.00    -0.090 HD
ATOM     21  H   LIG d   1       0.949  78.124 115.321  0.00  0.00    -0.090 HD
ENDBRANCH   5  18
BRANCH   3  22
ATOM     22  C   LIG d   1      -0.091  74.414 118.553  0.00  0.00     0.382 C 
ATOM     23  O   LIG d   1       0.552  74.982 119.469  0.00  0.00    -0.241 OA
ATOM     24  O   LIG d   1      -0.084  73.171 118.479  0.00  0.00    -0.241 OA
ENDBRANCH   3  22
TORSDOF 7
ENDMDL
MODEL 2
REMARK VINA RESULT:      -5.2      4.580      6.728
REMARK  7 active torsions:
REMARK  status: ('A' for Active; 'I' for Inactive)
REMARK    1  A    between atoms: C_2  and  C_3 
REMARK    2  A    between atoms: C_3  and  O_6 
REMARK    3  A    between atoms: C_3  and  C_4 
REMARK    4  A    between atoms: C_7  and  O_6 
REMARK    5  A    between atoms: C_9  and  C_10 
REMARK    6  A    between atoms: N_15  and  C_14 
REMARK    7  A    between atoms: N_20  and  C_19 
REMARK       I    between atoms: C_22  and  N_20 
ROOT
ATOM      1  C   LIG d   1      -6.002  78.769 117.483  0.00  0.00     0.161 C 
ATOM      2  C   LIG d   1      -7.375  78.569 117.707  0.00  0.00     0.016 C 
ATOM      3  C   LIG d   1      -8.279  79.619 117.984  0.00  0.00     0.038 C 
ATOM      4  C   LIG d   1      -7.897  80.967 117.907  0.00  0.00     0.028 C 
ATOM      5  C   LIG d   1      -6.414  81.193 118.181  0.00  0.00    -0.047 C 
ATOM      6  C   LIG d   1      -5.588  80.242 117.285  0.00  0.00     0.091 C 
ENDROOT
BRANCH   1   7
ATOM      7  O   LIG d   1      -5.568  77.972 116.363  0.00  0.00    -0.368 OA
BRANCH   7   8
ATOM      8  C   LIG d   1      -5.824  76.549 116.457  0.00  0.00     0.119 C 
BRANCH   8   9
ATOM      9  C   LIG d   1      -4.460  75.837 116.529  0.00  0.00     0.028 C 
ATOM     10  C   LIG d   1      -4.501  74.576 117.409  0.00  0.00     0.006 C 
ENDBRANCH   8   9
BRANCH   8  11
ATOM     11  C   LIG d   1      -6.493  76.018 115.186  0.00  0.00     0.028 C 
ATOM     12  C   LIG d   1      -5.498  75.807 114.033  0.00  0.00     0.006 C 
ENDBRANCH   8  11
ENDBRANCH   7   8
ENDBRANCH   1   7
BRANCH   6  13
ATOM     13  N   LIG d   1      -4.129  80.339 117.550  0.00  0.00    -0.311 N 
ATOM     14  C   LIG d   1      -3.229  80.617 116.608  0.00  0.00     0.210 C 
ATOM     15  C   LIG d   1      -1.776  80.648 117.091  0.00  0.00     0.109 C 
ATOM     16  O   LIG d   1      -3.500  80.871 115.425  0.00  0.00    -0.276 OA
ATOM     17  H   LIG d   1      -3.825  80.177 118.490  0.00  0.00     0.149 HD
ENDBRANCH   6  13
BRANCH   5  18
ATOM     18  N   LIG d   1      -6.127  82.618 117.932  0.00  0.00     0.381 N 
ATOM     19  H   LIG d   1      -6.961  83.085 117.637  0.00  0.00    -0.090 HD
ATOM     20  H   LIG d   1      -5.448  82.689 117.195  0.00  0.00    -0.090 HD
ATOM     21  H   LIG d   1      -5.775  83.044 118.761  0.00  0.00    -0.090 HD
ENDBRANCH   5  18
BRANCH   3  22
ATOM     22  C   LIG d   1      -9.574  79.323 118.383  0.00  0.00     0.382 C 
ATOM     23  O   LIG d   1     -10.070  78.202 118.120  0.00  0.00    -0.241 OA
ATOM     24  O   LIG d   1     -10.267  80.180 118.964  0.00  0.00    -0.241 OA
ENDBRANCH   3  22
TORSDOF 7
ENDMDL
MODEL 3
REMARK VINA RESULT:      -5.1      2.237      5.516
REMARK  7 active torsions:
REMARK  status: ('A' for Active; 'I' for Inactive)
REMARK    1  A    between atoms: C_2  and  C_3 
REMARK    2  A    between atoms: C_3  and  O_6 
REMARK    3  A    between atoms: C_3  and  C_4 
REMARK    4  A    between atoms: C_7  and  O_6 
REMARK    5  A    between atoms: C_9  and  C_10 
REMARK    6  A    between atoms: N_15  and  C_14 
REMARK    7  A    between atoms: N_20  and  C_19 
REMARK       I    between atoms: C_22  and  N_20 
ROOT
ATOM      1  C   LIG d   1      -2.417  78.326 114.866  0.00  0.00     0.161 C 
ATOM      2  C   LIG d   1      -2.830  79.302 113.944  0.00  0.00     0.016 C 
ATOM      3  C   LIG d   1      -1.995  80.351 113.495  0.00  0.00     0.038 C 
ATOM      4  C   LIG d   1      -0.632  80.406 113.823  0.00  0.00     0.028 C 
ATOM      5  C   LIG d   1      -0.301  79.730 115.150  0.00  0.00    -0.047 C 
ATOM      6  C   LIG d   1      -0.900  78.305 115.150  0.00  0.00     0.091 C 
ENDROOT
BRANCH   1   7
ATOM      7  O   LIG d   1      -2.863  77.025 114.432  0.00  0.00    -0.368 OA
BRANCH   7   8
ATOM      8  C   LIG d   1      -3.971  76.453 115.170  0.00  0.00     0.119 C 
BRANCH   8   9
ATOM      9  C   LIG d   1      -3.475  75.141 115.807  0.00  0.00     0.028 C 
ATOM     10  C   LIG d   1      -3.740  75.086 117.321  0.00  0.00     0.006 C 
ENDBRANCH   8   9
BRANCH   8  11
ATOM     11  C   LIG d   1      -5.112  76.044 114.234  0.00  0.00     0.028 C 
ATOM     12  C   LIG d   1      -6.485  76.066 114.922  0.00  0.00     0.006 C 
ENDBRANCH   8  11
ENDBRANCH   7   8
ENDBRANCH   1   7
BRANCH   6  13
ATOM     13  N   LIG d   1      -0.695  77.604 116.444  0.00  0.00    -0.311 N 
ATOM     14  C   LIG d   1      -0.241  76.355 116.537  0.00  0.00     0.210 C 
ATOM     15  C   LIG d   1      -0.122  75.816 117.966  0.00  0.00     0.109 C 
ATOM     16  O   LIG d   1       0.104  75.654 115.574  0.00  0.00    -0.276 OA
ATOM     17  H   LIG d   1      -0.920  78.110 117.278  0.00  0.00     0.149 HD
ENDBRANCH   6  13
BRANCH   5  18
ATOM     18  N   LIG d   1       1.166  79.740 115.301  0.00  0.00     0.381 N 
ATOM     19  H   LIG d   1       1.472  78.875 115.699  0.00  0.00    -0.090 HD
ATOM     20  H   LIG d   1       1.423  80.483 115.927  0.00  0.00    -0.090 HD
ATOM     21  H   LIG d   1       1.600  79.878 114.415  0.00  0.00    -0.090 HD
ENDBRANCH   5  18
BRANCH   3  22
ATOM     22  C   LIG d   1      -2.532  81.381 112.738  0.00  0.00     0.382 C 
ATOM     23  O   LIG d   1      -3.760  81.396 112.482  0.00  0.00    -0.241 OA
ATOM     24  O   LIG d   1      -1.797  82.272 112.272  0.00  0.00    -0.241 OA
ENDBRANCH   3  22
TORSDOF 7
ENDMDL
MODEL 4
REMARK VINA RESULT:      -5.1      1.746      4.504
REMARK  7 active torsions:
REMARK  status: ('A' for Active; 'I' for Inactive)
REMARK    1  A    between atoms: C_2  and  C_3 
REMARK    2  A    between atoms: C_3  and  O_6 
REMARK    3  A    between atoms: C_3  and  C_4 
REMARK    4  A    between atoms: C_7  and  O_6 
REMARK    5  A    between atoms: C_9  and  C_10 
REMARK    6  A    between atoms: N_15  and  C_14 
REMARK    7  A    between atoms: N_20  and  C_19 
REMARK       I    between atoms: C_22  and  N_20 
ROOT
ATOM      1  C   LIG d   1      -2.520  75.942 117.009  0.00  0.00     0.161 C 
ATOM      2  C   LIG d   1      -2.783  77.084 116.236  0.00  0.00     0.016 C 
ATOM      3  C   LIG d   1      -2.140  77.358 115.007  0.00  0.00     0.038 C 
ATOM      4  C   LIG d   1      -1.294  76.425 114.390  0.00  0.00     0.028 C 
ATOM      5  C   LIG d   1      -0.611  75.482 115.375  0.00  0.00    -0.047 C 
ATOM      6  C   LIG d   1      -1.682  74.859 116.298  0.00  0.00     0.091 C 
ENDROOT
BRANCH   1   7
ATOM      7  O   LIG d   1      -3.757  75.381 117.491  0.00  0.00    -0.368 OA
BRANCH   7   8
ATOM      8  C   LIG d   1      -4.396  74.410 116.627  0.00  0.00     0.119 C 
BRANCH   8   9
ATOM      9  C   LIG d   1      -5.592  75.108 115.950  0.00  0.00     0.028 C 
ATOM     10  C   LIG d   1      -5.381  75.299 114.438  0.00  0.00     0.006 C 
ENDBRANCH   8   9
BRANCH   8  11
ATOM     11  C   LIG d   1      -5.004  73.259 117.435  0.00  0.00     0.028 C 
ATOM     12  C   LIG d   1      -6.035  72.449 116.635  0.00  0.00     0.006 C 
ENDBRANCH   8  11
ENDBRANCH   7   8
ENDBRANCH   1   7
BRANCH   6  13
ATOM     13  N   LIG d   1      -1.089  73.988 117.347  0.00  0.00    -0.311 N 
ATOM     14  C   LIG d   1      -0.227  74.426 118.263  0.00  0.00     0.210 C 
ATOM     15  C   LIG d   1       0.278  73.359 119.238  0.00  0.00     0.109 C 
ATOM     16  O   LIG d   1       0.142  75.604 118.380  0.00  0.00    -0.276 OA
ATOM     17  H   LIG d   1      -1.358  73.023 117.344  0.00  0.00     0.149 HD
ENDBRANCH   6  13
BRANCH   5  18
ATOM     18  N   LIG d   1       0.131  74.478 114.589  0.00  0.00     0.381 N 
ATOM     19  H   LIG d   1       0.990  74.872 114.260  0.00  0.00    -0.090 HD
ATOM     20  H   LIG d   1      -0.421  74.216 113.791  0.00  0.00    -0.090 HD
ATOM     21  H   LIG d   1       0.318  73.676 115.150  0.00  0.00    -0.090 HD
ENDBRANCH   5  18
BRANCH   3  22
ATOM     22  C   LIG d   1      -2.311  78.594 114.402  0.00  0.00     0.382 C 
ATOM     23  O   LIG d   1      -3.050  79.456 114.935  0.00  0.00    -0.241 OA
ATOM     24  O   LIG d   1      -1.771  78.841 113.307  0.00  0.00    -0.241 OA
ENDBRANCH   3  22
TORSDOF 7
ENDMDL
MODEL 5
REMARK VINA RESULT:      -5.0      3.317      6.263
REMARK  7 active torsions:
REMARK  status: ('A' for Active; 'I' for Inactive)
REMARK    1  A    between atoms: C_2  and  C_3 
REMARK    2  A    between atoms: C_3  and  O_6 
REMARK    3  A    between atoms: C_3  and  C_4 
REMARK    4  A    between atoms: C_7  and  O_6 
REMARK    5  A    between atoms: C_9  and  C_10 
REMARK    6  A    between atoms: N_15  and  C_14 
REMARK    7  A    between atoms: N_20  and  C_19 
REMARK       I    between atoms: C_22  and  N_20 
ROOT
ATOM      1  C   LIG d   1      -2.909  79.448 115.939  0.00  0.00     0.161 C 
ATOM      2  C   LIG d   1      -2.819  80.656 115.227  0.00  0.00     0.016 C 
ATOM      3  C   LIG d   1      -2.336  80.744 113.901  0.00  0.00     0.038 C 
ATOM      4  C   LIG d   1      -2.050  79.602 113.139  0.00  0.00     0.028 C 
ATOM      5  C   LIG d   1      -1.646  78.397 113.982  0.00  0.00    -0.047 C 
ATOM      6  C   LIG d   1      -2.706  78.179 115.086  0.00  0.00     0.091 C 
ENDROOT
BRANCH   1   7
ATOM      7  O   LIG d   1      -4.168  79.386 116.638  0.00  0.00    -0.368 OA
BRANCH   7   8
ATOM      8  C   LIG d   1      -4.612  80.616 117.262  0.00  0.00     0.119 C 
BRANCH   8   9
ATOM      9  C   LIG d   1      -3.899  80.728 118.624  0.00  0.00     0.028 C 
ATOM     10  C   LIG d   1      -3.365  82.145 118.892  0.00  0.00     0.006 C 
ENDBRANCH   8   9
BRANCH   8  11
ATOM     11  C   LIG d   1      -6.107  80.565 117.591  0.00  0.00     0.028 C 
ATOM     12  C   LIG d   1      -6.669  79.135 117.593  0.00  0.00     0.006 C 
ENDBRANCH   8  11
ENDBRANCH   7   8
ENDBRANCH   1   7
BRANCH   6  13
ATOM     13  N   LIG d   1      -2.344  77.071 116.008  0.00  0.00    -0.311 N 
ATOM     14  C   LIG d   1      -2.748  75.813 115.836  0.00  0.00     0.210 C 
ATOM     15  C   LIG d   1      -2.278  74.831 116.914  0.00  0.00     0.109 C 
ATOM     16  O   LIG d   1      -3.423  75.411 114.877  0.00  0.00    -0.276 OA
ATOM     17  H   LIG d   1      -1.772  77.302 116.796  0.00  0.00     0.149 HD
ENDBRANCH   6  13
BRANCH   5  18
ATOM     18  N   LIG d   1      -1.511  77.243 113.074  0.00  0.00     0.381 N 
ATOM     19  H   LIG d   1      -2.413  76.966 112.741  0.00  0.00    -0.090 HD
ATOM     20  H   LIG d   1      -1.112  76.473 113.583  0.00  0.00    -0.090 HD
ATOM     21  H   LIG d   1      -0.924  77.481 112.304  0.00  0.00    -0.090 HD
ENDBRANCH   5  18
BRANCH   3  22
ATOM     22  C   LIG d   1      -2.098  81.989 113.338  0.00  0.00     0.382 C 
ATOM     23  O   LIG d   1      -2.007  83.002 114.072  0.00  0.00    -0.241 OA
ATOM     24  O   LIG d   1      -2.016  82.117 112.102  0.00  0.00    -0.241 OA
ENDBRANCH   3  22
TORSDOF 7
ENDMDL
MODEL 6
REMARK VINA RESULT:      -4.8      9.663     12.226
REMARK  7 active torsions:
REMARK  status: ('A' for Active; 'I' for Inactive)
REMARK    1  A    between atoms: C_2  and  C_3 
REMARK    2  A    between atoms: C_3  and  O_6 
REMARK    3  A    between atoms: C_3  and  C_4 
REMARK    4  A    between atoms: C_7  and  O_6 
REMARK    5  A    between atoms: C_9  and  C_10 
REMARK    6  A    between atoms: N_15  and  C_14 
REMARK    7  A    between atoms: N_20  and  C_19 
REMARK       I    between atoms: C_22  and  N_20 
ROOT
ATOM      1  C   LIG d   1       2.400  86.211 114.291  0.00  0.00     0.161 C 
ATOM      2  C   LIG d   1       2.935  87.507 114.193  0.00  0.00     0.016 C 
ATOM      3  C   LIG d   1       4.135  87.804 113.508  0.00  0.00     0.038 C 
ATOM      4  C   LIG d   1       4.809  86.842 112.741  0.00  0.00     0.028 C 
ATOM      5  C   LIG d   1       4.582  85.414 113.226  0.00  0.00    -0.047 C 
ATOM      6  C   LIG d   1       3.062  85.168 113.367  0.00  0.00     0.091 C 
ENDROOT
BRANCH   1   7
ATOM      7  O   LIG d   1       0.978  86.251 114.064  0.00  0.00    -0.368 OA
BRANCH   7   8
ATOM      8  C   LIG d   1       0.144  85.807 115.163  0.00  0.00     0.119 C 
BRANCH   8   9
ATOM      9  C   LIG d   1      -1.183  85.304 114.563  0.00  0.00     0.028 C 
ATOM     10  C   LIG d   1      -2.396  85.663 115.439  0.00  0.00     0.006 C 
ENDBRANCH   8   9
BRANCH   8  11
ATOM     11  C   LIG d   1      -0.240  86.973 116.078  0.00  0.00     0.028 C 
ATOM     12  C   LIG d   1       0.483  86.930 117.434  0.00  0.00     0.006 C 
ENDBRANCH   8  11
ENDBRANCH   7   8
ENDBRANCH   1   7
BRANCH   6  13
ATOM     13  N   LIG d   1       2.755  83.821 113.917  0.00  0.00    -0.311 N 
ATOM     14  C   LIG d   1       1.869  82.991 113.370  0.00  0.00     0.210 C 
ATOM     15  C   LIG d   1       1.689  81.660 114.108  0.00  0.00     0.109 C 
ATOM     16  O   LIG d   1       1.238  83.217 112.327  0.00  0.00    -0.276 OA
ATOM     17  H   LIG d   1       3.244  83.544 114.746  0.00  0.00     0.149 HD
ENDBRANCH   6  13
BRANCH   5  18
ATOM     18  N   LIG d   1       5.226  84.507 112.257  0.00  0.00     0.381 N 
ATOM     19  H   LIG d   1       5.934  85.000 111.750  0.00  0.00    -0.090 HD
ATOM     20  H   LIG d   1       4.535  84.185 111.603  0.00  0.00    -0.090 HD
ATOM     21  H   LIG d   1       5.629  83.730 112.734  0.00  0.00    -0.090 HD
ENDBRANCH   5  18
BRANCH   3  22
ATOM     22  C   LIG d   1       4.696  89.067 113.619  0.00  0.00     0.382 C 
ATOM     23  O   LIG d   1       5.454  89.334 114.583  0.00  0.00    -0.241 OA
ATOM     24  O   LIG d   1       4.417  89.957 112.793  0.00  0.00    -0.241 OA
ENDBRANCH   3  22
TORSDOF 7
ENDMDL
MODEL 7
REMARK VINA RESULT:      -4.8     11.302     13.618
REMARK  7 active torsions:
REMARK  status: ('A' for Active; 'I' for Inactive)
REMARK    1  A    between atoms: C_2  and  C_3 
REMARK    2  A    between atoms: C_3  and  O_6 
REMARK    3  A    between atoms: C_3  and  C_4 
REMARK    4  A    between atoms: C_7  and  O_6 
REMARK    5  A    between atoms: C_9  and  C_10 
REMARK    6  A    between atoms: N_15  and  C_14 
REMARK    7  A    between atoms: N_20  and  C_19 
REMARK       I    between atoms: C_22  and  N_20 
ROOT
ATOM      1  C   LIG d   1       3.121  87.492 114.446  0.00  0.00     0.161 C 
ATOM      2  C   LIG d   1       3.058  88.450 115.471  0.00  0.00     0.016 C 
ATOM      3  C   LIG d   1       3.961  89.532 115.582  0.00  0.00     0.038 C 
ATOM      4  C   LIG d   1       4.903  89.817 114.582  0.00  0.00     0.028 C 
ATOM      5  C   LIG d   1       5.333  88.589 113.787  0.00  0.00    -0.047 C 
ATOM      6  C   LIG d   1       4.072  87.850 113.284  0.00  0.00     0.091 C 
ENDROOT
BRANCH   1   7
ATOM      7  O   LIG d   1       1.796  87.225 113.945  0.00  0.00    -0.368 OA
BRANCH   7   8
ATOM      8  C   LIG d   1       1.267  85.904 114.215  0.00  0.00     0.119 C 
BRANCH   8   9
ATOM      9  C   LIG d   1       1.105  85.184 112.862  0.00  0.00     0.028 C 
ATOM     10  C   LIG d   1      -0.337  85.247 112.332  0.00  0.00     0.006 C 
ENDBRANCH   8   9
BRANCH   8  11
ATOM     11  C   LIG d   1      -0.144  85.979 114.806  0.00  0.00     0.028 C 
ATOM     12  C   LIG d   1      -0.209  86.822 116.088  0.00  0.00     0.006 C 
ENDBRANCH   8  11
ENDBRANCH   7   8
ENDBRANCH   1   7
BRANCH   6  13
ATOM     13  N   LIG d   1       4.401  86.589 112.569  0.00  0.00    -0.311 N 
ATOM     14  C   LIG d   1       4.930  85.523 113.167  0.00  0.00     0.210 C 
ATOM     15  C   LIG d   1       5.211  84.335 112.241  0.00  0.00     0.109 C 
ATOM     16  O   LIG d   1       5.165  85.438 114.381  0.00  0.00    -0.276 OA
ATOM     17  H   LIG d   1       4.214  86.561 111.585  0.00  0.00     0.149 HD
ENDBRANCH   6  13
BRANCH   5  18
ATOM     18  N   LIG d   1       6.208  89.050 112.692  0.00  0.00     0.381 N 
ATOM     19  H   LIG d   1       6.899  88.354 112.496  0.00  0.00    -0.090 HD
ATOM     20  H   LIG d   1       6.678  89.889 112.984  0.00  0.00    -0.090 HD
ATOM     21  H   LIG d   1       5.666  89.231 111.876  0.00  0.00    -0.090 HD
ENDBRANCH   5  18
BRANCH   3  22
ATOM     22  C   LIG d   1       3.954  90.320 116.723  0.00  0.00     0.382 C 
ATOM     23  O   LIG d   1       3.793  89.790 117.849  0.00  0.00    -0.241 OA
ATOM     24  O   LIG d   1       4.061  91.558 116.637  0.00  0.00    -0.241 OA
ENDBRANCH   3  22
TORSDOF 7
ENDMDL
MODEL 8
REMARK VINA RESULT:      -4.7      2.548      5.546
REMARK  7 active torsions:
REMARK  status: ('A' for Active; 'I' for Inactive)
REMARK    1  A    between atoms: C_2  and  C_3 
REMARK    2  A    between atoms: C_3  and  O_6 
REMARK    3  A    between atoms: C_3  and  C_4 
REMARK    4  A    between atoms: C_7  and  O_6 
REMARK    5  A    between atoms: C_9  and  C_10 
REMARK    6  A    between atoms: N_15  and  C_14 
REMARK    7  A    between atoms: N_20  and  C_19 
REMARK       I    between atoms: C_22  and  N_20 
ROOT
ATOM      1  C   LIG d   1      -0.759  77.274 115.602  0.00  0.00     0.161 C 
ATOM      2  C   LIG d   1      -2.032  77.146 115.020  0.00  0.00     0.016 C 
ATOM      3  C   LIG d   1      -2.861  76.015 115.203  0.00  0.00     0.038 C 
ATOM      4  C   LIG d   1      -2.534  74.995 116.108  0.00  0.00     0.028 C 
ATOM      5  C   LIG d   1      -1.033  74.840 116.330  0.00  0.00    -0.047 C 
ATOM      6  C   LIG d   1      -0.433  76.220 116.681  0.00  0.00     0.091 C 
ENDROOT
BRANCH   1   7
ATOM      7  O   LIG d   1      -0.596  78.603 116.134  0.00  0.00    -0.368 OA
BRANCH   7   8
ATOM      8  C   LIG d   1      -1.792  79.231 116.659  0.00  0.00     0.119 C 
BRANCH   8   9
ATOM      9  C   LIG d   1      -1.799  80.693 116.173  0.00  0.00     0.028 C 
ATOM     10  C   LIG d   1      -2.562  80.869 114.849  0.00  0.00     0.006 C 
ENDBRANCH   8   9
BRANCH   8  11
ATOM     11  C   LIG d   1      -1.755  79.311 118.188  0.00  0.00     0.028 C 
ATOM     12  C   LIG d   1      -2.589  78.212 118.863  0.00  0.00     0.006 C 
ENDBRANCH   8  11
ENDBRANCH   7   8
ENDBRANCH   1   7
BRANCH   6  13
ATOM     13  N   LIG d   1       1.045  76.174 116.832  0.00  0.00    -0.311 N 
ATOM     14  C   LIG d   1       1.683  76.580 117.929  0.00  0.00     0.210 C 
ATOM     15  C   LIG d   1       3.209  76.465 117.868  0.00  0.00     0.109 C 
ATOM     16  O   LIG d   1       1.128  76.994 118.957  0.00  0.00    -0.276 OA
ATOM     17  H   LIG d   1       1.572  75.822 116.057  0.00  0.00     0.149 HD
ENDBRANCH   6  13
BRANCH   5  18
ATOM     18  N   LIG d   1      -0.842  73.838 117.396  0.00  0.00     0.381 N 
ATOM     19  H   LIG d   1      -1.726  73.597 117.797  0.00  0.00    -0.090 HD
ATOM     20  H   LIG d   1      -0.266  74.237 118.117  0.00  0.00    -0.090 HD
ATOM     21  H   LIG d   1      -0.404  73.024 117.024  0.00  0.00    -0.090 HD
ENDBRANCH   5  18
BRANCH   3  22
ATOM     22  C   LIG d   1      -4.014  75.879 114.445  0.00  0.00     0.382 C 
ATOM     23  O   LIG d   1      -4.779  74.904 114.637  0.00  0.00    -0.241 OA
ATOM     24  O   LIG d   1      -4.275  76.695 113.540  0.00  0.00    -0.241 OA
ENDBRANCH   3  22
TORSDOF 7
ENDMDL
MODEL 9
REMARK VINA RESULT:      -4.7      2.782      5.125
REMARK  7 active torsions:
REMARK  status: ('A' for Active; 'I' for Inactive)
REMARK    1  A    between atoms: C_2  and  C_3 
REMARK    2  A    between atoms: C_3  and  O_6 
REMARK    3  A    between atoms: C_3  and  C_4 
REMARK    4  A    between atoms: C_7  and  O_6 
REMARK    5  A    between atoms: C_9  and  C_10 
REMARK    6  A    between atoms: N_15  and  C_14 
REMARK    7  A    between atoms: N_20  and  C_19 
REMARK       I    between atoms: C_22  and  N_20 
ROOT
ATOM      1  C   LIG d   1      -3.964  76.138 117.967  0.00  0.00     0.161 C 
ATOM      2  C   LIG d   1      -5.110  76.886 117.651  0.00  0.00     0.016 C 
ATOM      3  C   LIG d   1      -5.111  78.294 117.527  0.00  0.00     0.038 C 
ATOM      4  C   LIG d   1      -3.925  79.042 117.563  0.00  0.00     0.028 C 
ATOM      5  C   LIG d   1      -2.818  78.384 118.381  0.00  0.00    -0.047 C 
ATOM      6  C   LIG d   1      -2.639  76.926 117.901  0.00  0.00     0.091 C 
ENDROOT
BRANCH   1   7
ATOM      7  O   LIG d   1      -3.895  74.970 117.125  0.00  0.00    -0.368 OA
BRANCH   7   8
ATOM      8  C   LIG d   1      -5.149  74.517 116.559  0.00  0.00     0.119 C 
BRANCH   8   9
ATOM      9  C   LIG d   1      -5.390  73.078 117.057  0.00  0.00     0.028 C 
ATOM     10  C   LIG d   1      -6.445  72.336 116.219  0.00  0.00     0.006 C 
ENDBRANCH   8   9
BRANCH   8  11
ATOM     11  C   LIG d   1      -5.066  74.410 115.034  0.00  0.00     0.028 C 
ATOM     12  C   LIG d   1      -5.671  75.627 114.317  0.00  0.00     0.006 C 
ENDBRANCH   8  11
ENDBRANCH   7   8
ENDBRANCH   1   7
BRANCH   6  13
ATOM     13  N   LIG d   1      -1.634  76.184 118.705  0.00  0.00    -0.311 N 
ATOM     14  C   LIG d   1      -0.577  75.570 118.174  0.00  0.00     0.210 C 
ATOM     15  C   LIG d   1       0.324  74.846 119.179  0.00  0.00     0.109 C 
ATOM     16  O   LIG d   1      -0.284  75.584 116.969  0.00  0.00    -0.276 OA
ATOM     17  H   LIG d   1      -1.778  76.148 119.695  0.00  0.00     0.149 HD
ENDBRANCH   6  13
BRANCH   5  18
ATOM     18  N   LIG d   1      -1.600  79.200 118.221  0.00  0.00     0.381 N 
ATOM     19  H   LIG d   1      -1.746  79.891 117.513  0.00  0.00    -0.090 HD
ATOM     20  H   LIG d   1      -0.846  78.604 117.928  0.00  0.00    -0.090 HD
ATOM     21  H   LIG d   1      -1.369  79.641 119.083  0.00  0.00    -0.090 HD
ENDBRANCH   5  18
BRANCH   3  22
ATOM     22  C   LIG d   1      -6.314  78.973 117.404  0.00  0.00     0.382 C 
ATOM     23  O   LIG d   1      -6.320  80.182 117.070  0.00  0.00    -0.241 OA
ATOM     24  O   LIG d   1      -7.390  78.403 117.667  0.00  0.00    -0.241 OA
ENDBRANCH   3  22
TORSDOF 7
ENDMDL
