MODEL 1
REMARK VINA RESULT:      -5.2      0.000      0.000
REMARK  7 active torsions:
REMARK  status: ('A' for Active; 'I' for Inactive)
REMARK    1  A    between atoms: C_2  and  C_3 
REMARK    2  A    between atoms: C_3  and  O_6 
REMARK    3  A    between atoms: C_3  and  C_4 
REMARK    4  A    between atoms: C_7  and  O_6 
REMARK    5  A    between atoms: C_9  and  C_10 
REMARK    6  A    between atoms: N_15  and  C_14 
REMARK    7  A    between atoms: N_20  and  C_19 
REMARK       I    between atoms: C_22  and  N_20 
ROOT
ATOM      1  C   LIG d   1      -2.844  77.059 116.341  0.00  0.00     0.161 C 
ATOM      2  C   LIG d   1      -2.863  78.042 115.338  0.00  0.00     0.016 C 
ATOM      3  C   LIG d   1      -1.790  78.264 114.445  0.00  0.00     0.038 C 
ATOM      4  C   LIG d   1      -0.677  77.411 114.396  0.00  0.00     0.028 C 
ATOM      5  C   LIG d   1      -0.389  76.716 115.723  0.00  0.00    -0.047 C 
ATOM      6  C   LIG d   1      -1.686  76.045 116.231  0.00  0.00     0.091 C 
ENDROOT
BRANCH   1   7
ATOM      7  O   LIG d   1      -4.110  76.370 116.374  0.00  0.00    -0.368 OA
BRANCH   7   8
ATOM      8  C   LIG d   1      -4.816  76.273 115.112  0.00  0.00     0.119 C 
BRANCH   8   9
ATOM      9  C   LIG d   1      -6.287  76.649 115.374  0.00  0.00     0.028 C 
ATOM     10  C   LIG d   1      -6.464  77.459 116.669  0.00  0.00     0.006 C 
ENDBRANCH   8   9
BRANCH   8  11
ATOM     11  C   LIG d   1      -4.851  74.828 114.604  0.00  0.00     0.028 C 
ATOM     12  C   LIG d   1      -5.599  73.880 115.554  0.00  0.00     0.006 C 
ENDBRANCH   8  11
ENDBRANCH   7   8
ENDBRANCH   1   7
BRANCH   6  13
ATOM     13  N   LIG d   1      -1.512  75.414 117.565  0.00  0.00    -0.311 N 
ATOM     14  C   LIG d   1      -1.133  74.148 117.733  0.00  0.00     0.210 C 
ATOM     15  C   LIG d   1      -1.035  73.691 119.192  0.00  0.00     0.109 C 
ATOM     16  O   LIG d   1      -0.837  73.370 116.814  0.00  0.00    -0.276 OA
ATOM     17  H   LIG d   1      -1.701  75.983 118.367  0.00  0.00     0.149 HD
ENDBRANCH   6  13
BRANCH   5  18
ATOM     18  N   LIG d   1       0.707  75.755 115.493  0.00  0.00     0.381 N 
ATOM     19  H   LIG d   1       0.461  75.132 114.750  0.00  0.00    -0.090 HD
ATOM     20  H   LIG d   1       0.843  75.212 116.328  0.00  0.00    -0.090 HD
ATOM     21  H   LIG d   1       1.545  76.242 115.265  0.00  0.00    -0.090 HD
ENDBRANCH   5  18
BRANCH   3  22
ATOM     22  C   LIG d   1      -1.805  79.374 113.615  0.00  0.00     0.382 C 
ATOM     23  O   LIG d   1      -0.914  80.252 113.725  0.00  0.00    -0.241 OA
ATOM     24  O   LIG d   1      -2.722  79.532 112.787  0.00  0.00    -0.241 OA
ENDBRANCH   3  22
TORSDOF 7
ENDMDL
MODEL 2
REMARK VINA RESULT:      -4.9      1.523      4.639
REMARK  7 active torsions:
REMARK  status: ('A' for Active; 'I' for Inactive)
REMARK    1  A    between atoms: C_2  and  C_3 
REMARK    2  A    between atoms: C_3  and  O_6 
REMARK    3  A    between atoms: C_3  and  C_4 
REMARK    4  A    between atoms: C_7  and  O_6 
REMARK    5  A    between atoms: C_9  and  C_10 
REMARK    6  A    between atoms: N_15  and  C_14 
REMARK    7  A    between atoms: N_20  and  C_19 
REMARK       I    between atoms: C_22  and  N_20 
ROOT
ATOM      1  C   LIG d   1      -3.106  76.012 115.972  0.00  0.00     0.161 C 
ATOM      2  C   LIG d   1      -2.802  75.136 117.027  0.00  0.00     0.016 C 
ATOM      3  C   LIG d   1      -1.503  74.986 117.564  0.00  0.00     0.038 C 
ATOM      4  C   LIG d   1      -0.441  75.819 117.181  0.00  0.00     0.028 C 
ATOM      5  C   LIG d   1      -0.584  76.371 115.767  0.00  0.00    -0.047 C 
ATOM      6  C   LIG d   1      -1.983  77.010 115.616  0.00  0.00     0.091 C 
ENDROOT
BRANCH   1   7
ATOM      7  O   LIG d   1      -4.330  76.717 116.259  0.00  0.00    -0.368 OA
BRANCH   7   8
ATOM      8  C   LIG d   1      -5.531  76.180 115.652  0.00  0.00     0.119 C 
BRANCH   8   9
ATOM      9  C   LIG d   1      -6.454  75.706 116.792  0.00  0.00     0.028 C 
ATOM     10  C   LIG d   1      -7.586  76.705 117.085  0.00  0.00     0.006 C 
ENDBRANCH   8   9
BRANCH   8  11
ATOM     11  C   LIG d   1      -5.227  74.925 114.829  0.00  0.00     0.028 C 
ATOM     12  C   LIG d   1      -5.751  73.639 115.487  0.00  0.00     0.006 C 
ENDBRANCH   8  11
ENDBRANCH   7   8
ENDBRANCH   1   7
BRANCH   6  13
ATOM     13  N   LIG d   1      -2.237  77.500 114.236  0.00  0.00    -0.311 N 
ATOM     14  C   LIG d   1      -2.012  78.754 113.851  0.00  0.00     0.210 C 
ATOM     15  C   LIG d   1      -2.361  79.054 112.389  0.00  0.00     0.109 C 
ATOM     16  O   LIG d   1      -1.526  79.639 114.571  0.00  0.00    -0.276 OA
ATOM     17  H   LIG d   1      -2.603  76.840 113.578  0.00  0.00     0.149 HD
ENDBRANCH   6  13
BRANCH   5  18
ATOM     18  N   LIG d   1       0.516  77.330 115.549  0.00  0.00     0.381 N 
ATOM     19  H   LIG d   1       0.658  77.466 114.568  0.00  0.00    -0.090 HD
ATOM     20  H   LIG d   1       1.360  76.950 115.940  0.00  0.00    -0.090 HD
ATOM     21  H   LIG d   1       0.301  78.200 115.985  0.00  0.00    -0.090 HD
ENDBRANCH   5  18
BRANCH   3  22
ATOM     22  C   LIG d   1      -1.246  73.966 118.468  0.00  0.00     0.382 C 
ATOM     23  O   LIG d   1      -1.392  74.167 119.698  0.00  0.00    -0.241 OA
ATOM     24  O   LIG d   1      -0.829  72.861 118.072  0.00  0.00    -0.241 OA
ENDBRANCH   3  22
TORSDOF 7
ENDMDL
MODEL 3
REMARK VINA RESULT:      -4.8     10.602     13.172
REMARK  7 active torsions:
REMARK  status: ('A' for Active; 'I' for Inactive)
REMARK    1  A    between atoms: C_2  and  C_3 
REMARK    2  A    between atoms: C_3  and  O_6 
REMARK    3  A    between atoms: C_3  and  C_4 
REMARK    4  A    between atoms: C_7  and  O_6 
REMARK    5  A    between atoms: C_9  and  C_10 
REMARK    6  A    between atoms: N_15  and  C_14 
REMARK    7  A    between atoms: N_20  and  C_19 
REMARK       I    between atoms: C_22  and  N_20 
ROOT
ATOM      1  C   LIG d   1       4.011  87.224 115.736  0.00  0.00     0.161 C 
ATOM      2  C   LIG d   1       3.092  86.776 114.773  0.00  0.00     0.016 C 
ATOM      3  C   LIG d   1       3.202  87.072 113.395  0.00  0.00     0.038 C 
ATOM      4  C   LIG d   1       4.330  87.715 112.863  0.00  0.00     0.028 C 
ATOM      5  C   LIG d   1       5.035  88.626 113.861  0.00  0.00    -0.047 C 
ATOM      6  C   LIG d   1       5.307  87.832 115.160  0.00  0.00     0.091 C 
ENDROOT
BRANCH   1   7
ATOM      7  O   LIG d   1       4.323  86.153 116.649  0.00  0.00    -0.368 OA
BRANCH   7   8
ATOM      8  C   LIG d   1       3.433  86.002 117.782  0.00  0.00     0.119 C 
BRANCH   8   9
ATOM      9  C   LIG d   1       4.230  86.371 119.049  0.00  0.00     0.028 C 
ATOM     10  C   LIG d   1       4.206  87.881 119.338  0.00  0.00     0.006 C 
ENDBRANCH   8   9
BRANCH   8  11
ATOM     11  C   LIG d   1       3.019  84.540 117.975  0.00  0.00     0.028 C 
ATOM     12  C   LIG d   1       1.803  84.148 117.121  0.00  0.00     0.006 C 
ENDBRANCH   8  11
ENDBRANCH   7   8
ENDBRANCH   1   7
BRANCH   6  13
ATOM     13  N   LIG d   1       5.919  88.673 116.221  0.00  0.00    -0.311 N 
ATOM     14  C   LIG d   1       7.004  88.315 116.906  0.00  0.00     0.210 C 
ATOM     15  C   LIG d   1       7.458  89.320 117.969  0.00  0.00     0.109 C 
ATOM     16  O   LIG d   1       7.651  87.275 116.712  0.00  0.00    -0.276 OA
ATOM     17  H   LIG d   1       5.476  89.549 116.422  0.00  0.00     0.149 HD
ENDBRANCH   6  13
BRANCH   5  18
ATOM     18  N   LIG d   1       6.267  89.122 113.219  0.00  0.00     0.381 N 
ATOM     19  H   LIG d   1       6.289  90.122 113.255  0.00  0.00    -0.090 HD
ATOM     20  H   LIG d   1       6.266  88.842 112.254  0.00  0.00    -0.090 HD
ATOM     21  H   LIG d   1       7.067  88.749 113.681  0.00  0.00    -0.090 HD
ENDBRANCH   5  18
BRANCH   3  22
ATOM     22  C   LIG d   1       2.157  86.759 112.539  0.00  0.00     0.382 C 
ATOM     23  O   LIG d   1       1.447  87.674 112.056  0.00  0.00    -0.241 OA
ATOM     24  O   LIG d   1       1.888  85.571 112.278  0.00  0.00    -0.241 OA
ENDBRANCH   3  22
TORSDOF 7
ENDMDL
MODEL 4
REMARK VINA RESULT:      -4.8      2.448      4.813
REMARK  7 active torsions:
REMARK  status: ('A' for Active; 'I' for Inactive)
REMARK    1  A    between atoms: C_2  and  C_3 
REMARK    2  A    between atoms: C_3  and  O_6 
REMARK    3  A    between atoms: C_3  and  C_4 
REMARK    4  A    between atoms: C_7  and  O_6 
REMARK    5  A    between atoms: C_9  and  C_10 
REMARK    6  A    between atoms: N_15  and  C_14 
REMARK    7  A    between atoms: N_20  and  C_19 
REMARK       I    between atoms: C_22  and  N_20 
ROOT
ATOM      1  C   LIG d   1      -2.703  74.567 115.734  0.00  0.00     0.161 C 
ATOM      2  C   LIG d   1      -1.762  75.484 115.236  0.00  0.00     0.016 C 
ATOM      3  C   LIG d   1      -2.115  76.641 114.504  0.00  0.00     0.038 C 
ATOM      4  C   LIG d   1      -3.451  77.041 114.348  0.00  0.00     0.028 C 
ATOM      5  C   LIG d   1      -4.440  75.881 114.399  0.00  0.00    -0.047 C 
ATOM      6  C   LIG d   1      -4.168  75.045 115.670  0.00  0.00     0.091 C 
ENDROOT
BRANCH   1   7
ATOM      7  O   LIG d   1      -2.356  74.194 117.082  0.00  0.00    -0.368 OA
BRANCH   7   8
ATOM      8  C   LIG d   1      -1.278  74.945 117.694  0.00  0.00     0.119 C 
BRANCH   8   9
ATOM      9  C   LIG d   1      -0.142  73.953 118.009  0.00  0.00     0.028 C 
ATOM     10  C   LIG d   1       1.035  74.077 117.027  0.00  0.00     0.006 C 
ENDBRANCH   8   9
BRANCH   8  11
ATOM     11  C   LIG d   1      -1.700  75.522 119.048  0.00  0.00     0.028 C 
ATOM     12  C   LIG d   1      -1.093  74.759 120.236  0.00  0.00     0.006 C 
ENDBRANCH   8  11
ENDBRANCH   7   8
ENDBRANCH   1   7
BRANCH   6  13
ATOM     13  N   LIG d   1      -5.038  73.842 115.753  0.00  0.00    -0.311 N 
ATOM     14  C   LIG d   1      -6.233  73.841 116.340  0.00  0.00     0.210 C 
ATOM     15  C   LIG d   1      -6.956  72.490 116.333  0.00  0.00     0.109 C 
ATOM     16  O   LIG d   1      -6.777  74.838 116.838  0.00  0.00    -0.276 OA
ATOM     17  H   LIG d   1      -4.687  72.997 115.347  0.00  0.00     0.149 HD
ENDBRANCH   6  13
BRANCH   5  18
ATOM     18  N   LIG d   1      -5.799  76.453 114.362  0.00  0.00     0.381 N 
ATOM     19  H   LIG d   1      -6.225  76.260 113.478  0.00  0.00    -0.090 HD
ATOM     20  H   LIG d   1      -5.735  77.450 114.470  0.00  0.00    -0.090 HD
ATOM     21  H   LIG d   1      -6.351  76.067 115.097  0.00  0.00    -0.090 HD
ENDBRANCH   5  18
BRANCH   3  22
ATOM     22  C   LIG d   1      -1.127  77.390 113.883  0.00  0.00     0.382 C 
ATOM     23  O   LIG d   1      -0.304  78.037 114.575  0.00  0.00    -0.241 OA
ATOM     24  O   LIG d   1      -1.075  77.462 112.641  0.00  0.00    -0.241 OA
ENDBRANCH   3  22
TORSDOF 7
ENDMDL
MODEL 5
REMARK VINA RESULT:      -4.8      8.466     10.961
REMARK  7 active torsions:
REMARK  status: ('A' for Active; 'I' for Inactive)
REMARK    1  A    between atoms: C_2  and  C_3 
REMARK    2  A    between atoms: C_3  and  O_6 
REMARK    3  A    between atoms: C_3  and  C_4 
REMARK    4  A    between atoms: C_7  and  O_6 
REMARK    5  A    between atoms: C_9  and  C_10 
REMARK    6  A    between atoms: N_15  and  C_14 
REMARK    7  A    between atoms: N_20  and  C_19 
REMARK       I    between atoms: C_22  and  N_20 
ROOT
ATOM      1  C   LIG d   1       3.175  85.635 114.084  0.00  0.00     0.161 C 
ATOM      2  C   LIG d   1       3.633  86.930 113.790  0.00  0.00     0.016 C 
ATOM      3  C   LIG d   1       4.551  87.634 114.603  0.00  0.00     0.038 C 
ATOM      4  C   LIG d   1       5.193  87.027 115.693  0.00  0.00     0.028 C 
ATOM      5  C   LIG d   1       4.385  85.897 116.320  0.00  0.00    -0.047 C 
ATOM      6  C   LIG d   1       3.949  84.915 115.208  0.00  0.00     0.091 C 
ENDROOT
BRANCH   1   7
ATOM      7  O   LIG d   1       3.172  84.834 112.886  0.00  0.00    -0.368 OA
BRANCH   7   8
ATOM      8  C   LIG d   1       1.869  84.475 112.363  0.00  0.00     0.119 C 
BRANCH   8   9
ATOM      9  C   LIG d   1       0.811  85.201 113.217  0.00  0.00     0.028 C 
ATOM     10  C   LIG d   1      -0.344  85.760 112.369  0.00  0.00     0.006 C 
ENDBRANCH   8   9
BRANCH   8  11
ATOM     11  C   LIG d   1       1.586  82.981 112.550  0.00  0.00     0.028 C 
ATOM     12  C   LIG d   1       2.848  82.114 112.419  0.00  0.00     0.006 C 
ENDBRANCH   8  11
ENDBRANCH   7   8
ENDBRANCH   1   7
BRANCH   6  13
ATOM     13  N   LIG d   1       3.082  83.823 115.724  0.00  0.00    -0.311 N 
ATOM     14  C   LIG d   1       3.546  82.629 116.088  0.00  0.00     0.210 C 
ATOM     15  C   LIG d   1       2.479  81.642 116.572  0.00  0.00     0.109 C 
ATOM     16  O   LIG d   1       4.742  82.304 116.086  0.00  0.00    -0.276 OA
ATOM     17  H   LIG d   1       2.101  84.012 115.787  0.00  0.00     0.149 HD
ENDBRANCH   6  13
BRANCH   5  18
ATOM     18  N   LIG d   1       5.228  85.264 117.352  0.00  0.00     0.381 N 
ATOM     19  H   LIG d   1       6.059  84.897 116.932  0.00  0.00    -0.090 HD
ATOM     20  H   LIG d   1       4.720  84.502 117.765  0.00  0.00    -0.090 HD
ATOM     21  H   LIG d   1       5.468  85.932 118.052  0.00  0.00    -0.090 HD
ENDBRANCH   5  18
BRANCH   3  22
ATOM     22  C   LIG d   1       4.804  88.974 114.352  0.00  0.00     0.382 C 
ATOM     23  O   LIG d   1       4.996  89.765 115.306  0.00  0.00    -0.241 OA
ATOM     24  O   LIG d   1       4.800  89.410 113.185  0.00  0.00    -0.241 OA
ENDBRANCH   3  22
TORSDOF 7
ENDMDL
MODEL 6
REMARK VINA RESULT:      -4.7     10.848     13.046
REMARK  7 active torsions:
REMARK  status: ('A' for Active; 'I' for Inactive)
REMARK    1  A    between atoms: C_2  and  C_3 
REMARK    2  A    between atoms: C_3  and  O_6 
REMARK    3  A    between atoms: C_3  and  C_4 
REMARK    4  A    between atoms: C_7  and  O_6 
REMARK    5  A    between atoms: C_9  and  C_10 
REMARK    6  A    between atoms: N_15  and  C_14 
REMARK    7  A    between atoms: N_20  and  C_19 
REMARK       I    between atoms: C_22  and  N_20 
ROOT
ATOM      1  C   LIG d   1       3.928  87.215 115.721  0.00  0.00     0.161 C 
ATOM      2  C   LIG d   1       3.006  86.803 114.745  0.00  0.00     0.016 C 
ATOM      3  C   LIG d   1       3.151  87.088 113.367  0.00  0.00     0.038 C 
ATOM      4  C   LIG d   1       4.314  87.678 112.851  0.00  0.00     0.028 C 
ATOM      5  C   LIG d   1       5.043  88.562 113.858  0.00  0.00    -0.047 C 
ATOM      6  C   LIG d   1       5.258  87.764 115.164  0.00  0.00     0.091 C 
ENDROOT
BRANCH   1   7
ATOM      7  O   LIG d   1       4.178  86.137 116.643  0.00  0.00    -0.368 OA
BRANCH   7   8
ATOM      8  C   LIG d   1       3.355  84.955 116.480  0.00  0.00     0.119 C 
BRANCH   8   9
ATOM      9  C   LIG d   1       2.660  84.686 117.829  0.00  0.00     0.028 C 
ATOM     10  C   LIG d   1       1.256  85.309 117.899  0.00  0.00     0.006 C 
ENDBRANCH   8   9
BRANCH   8  11
ATOM     11  C   LIG d   1       4.211  83.714 116.210  0.00  0.00     0.028 C 
ATOM     12  C   LIG d   1       5.696  83.930 116.542  0.00  0.00     0.006 C 
ENDBRANCH   8  11
ENDBRANCH   7   8
ENDBRANCH   1   7
BRANCH   6  13
ATOM     13  N   LIG d   1       5.890  88.583 116.231  0.00  0.00    -0.311 N 
ATOM     14  C   LIG d   1       5.392  89.743 116.657  0.00  0.00     0.210 C 
ATOM     15  C   LIG d   1       6.210  90.435 117.751  0.00  0.00     0.109 C 
ATOM     16  O   LIG d   1       4.334  90.248 116.254  0.00  0.00    -0.276 OA
ATOM     17  H   LIG d   1       6.735  88.231 116.636  0.00  0.00     0.149 HD
ENDBRANCH   6  13
BRANCH   5  18
ATOM     18  N   LIG d   1       6.305  89.002 113.234  0.00  0.00     0.381 N 
ATOM     19  H   LIG d   1       6.579  89.887 113.610  0.00  0.00    -0.090 HD
ATOM     20  H   LIG d   1       6.159  89.110 112.246  0.00  0.00    -0.090 HD
ATOM     21  H   LIG d   1       7.020  88.327 113.399  0.00  0.00    -0.090 HD
ENDBRANCH   5  18
BRANCH   3  22
ATOM     22  C   LIG d   1       2.108  86.817 112.496  0.00  0.00     0.382 C 
ATOM     23  O   LIG d   1       1.903  85.641 112.109  0.00  0.00    -0.241 OA
ATOM     24  O   LIG d   1       1.396  87.739 112.056  0.00  0.00    -0.241 OA
ENDBRANCH   3  22
TORSDOF 7
ENDMDL
MODEL 7
REMARK VINA RESULT:      -4.7     10.243     12.897
REMARK  7 active torsions:
REMARK  status: ('A' for Active; 'I' for Inactive)
REMARK    1  A    between atoms: C_2  and  C_3 
REMARK    2  A    between atoms: C_3  and  O_6 
REMARK    3  A    between atoms: C_3  and  C_4 
REMARK    4  A    between atoms: C_7  and  O_6 
REMARK    5  A    between atoms: C_9  and  C_10 
REMARK    6  A    between atoms: N_15  and  C_14 
REMARK    7  A    between atoms: N_20  and  C_19 
REMARK       I    between atoms: C_22  and  N_20 
ROOT
ATOM      1  C   LIG d   1       2.568  87.350 116.051  0.00  0.00     0.161 C 
ATOM      2  C   LIG d   1       3.203  88.443 116.663  0.00  0.00     0.016 C 
ATOM      3  C   LIG d   1       4.218  89.203 116.038  0.00  0.00     0.038 C 
ATOM      4  C   LIG d   1       4.563  89.013 114.691  0.00  0.00     0.028 C 
ATOM      5  C   LIG d   1       4.305  87.595 114.194  0.00  0.00    -0.047 C 
ATOM      6  C   LIG d   1       2.853  87.198 114.542  0.00  0.00     0.091 C 
ENDROOT
BRANCH   1   7
ATOM      7  O   LIG d   1       1.147  87.414 116.288  0.00  0.00    -0.368 OA
BRANCH   7   8
ATOM      8  C   LIG d   1       0.741  87.736 117.642  0.00  0.00     0.119 C 
BRANCH   8   9
ATOM      9  C   LIG d   1       0.504  86.405 118.382  0.00  0.00     0.028 C 
ATOM     10  C   LIG d   1       0.879  86.487 119.871  0.00  0.00     0.006 C 
ENDBRANCH   8   9
BRANCH   8  11
ATOM     11  C   LIG d   1      -0.609  88.457 117.662  0.00  0.00     0.028 C 
ATOM     12  C   LIG d   1      -0.470  89.985 117.576  0.00  0.00     0.006 C 
ENDBRANCH   8  11
ENDBRANCH   7   8
ENDBRANCH   1   7
BRANCH   6  13
ATOM     13  N   LIG d   1       2.543  85.794 114.165  0.00  0.00    -0.311 N 
ATOM     14  C   LIG d   1       1.481  85.446 113.441  0.00  0.00     0.210 C 
ATOM     15  C   LIG d   1       1.338  83.943 113.183  0.00  0.00     0.109 C 
ATOM     16  O   LIG d   1       0.661  86.243 112.961  0.00  0.00    -0.276 OA
ATOM     17  H   LIG d   1       3.174  85.086 114.487  0.00  0.00     0.149 HD
ENDBRANCH   6  13
BRANCH   5  18
ATOM     18  N   LIG d   1       4.579  87.575 112.744  0.00  0.00     0.381 N 
ATOM     19  H   LIG d   1       5.418  87.061 112.565  0.00  0.00    -0.090 HD
ATOM     20  H   LIG d   1       4.712  88.518 112.425  0.00  0.00    -0.090 HD
ATOM     21  H   LIG d   1       3.815  87.157 112.259  0.00  0.00    -0.090 HD
ENDBRANCH   5  18
BRANCH   3  22
ATOM     22  C   LIG d   1       4.928  90.139 116.774  0.00  0.00     0.382 C 
ATOM     23  O   LIG d   1       4.446  91.282 116.966  0.00  0.00    -0.241 OA
ATOM     24  O   LIG d   1       6.063  89.871 117.212  0.00  0.00    -0.241 OA
ENDBRANCH   3  22
TORSDOF 7
ENDMDL
MODEL 8
REMARK VINA RESULT:      -4.6      2.710      4.206
REMARK  7 active torsions:
REMARK  status: ('A' for Active; 'I' for Inactive)
REMARK    1  A    between atoms: C_2  and  C_3 
REMARK    2  A    between atoms: C_3  and  O_6 
REMARK    3  A    between atoms: C_3  and  C_4 
REMARK    4  A    between atoms: C_7  and  O_6 
REMARK    5  A    between atoms: C_9  and  C_10 
REMARK    6  A    between atoms: N_15  and  C_14 
REMARK    7  A    between atoms: N_20  and  C_19 
REMARK       I    between atoms: C_22  and  N_20 
ROOT
ATOM      1  C   LIG d   1      -0.563  76.233 115.677  0.00  0.00     0.161 C 
ATOM      2  C   LIG d   1      -0.190  75.377 114.628  0.00  0.00     0.016 C 
ATOM      3  C   LIG d   1       0.525  74.172 114.823  0.00  0.00     0.038 C 
ATOM      4  C   LIG d   1       0.784  73.664 116.104  0.00  0.00     0.028 C 
ATOM      5  C   LIG d   1       0.870  74.743 117.178  0.00  0.00    -0.047 C 
ATOM      6  C   LIG d   1      -0.386  75.640 117.090  0.00  0.00     0.091 C 
ENDROOT
BRANCH   1   7
ATOM      7  O   LIG d   1      -1.921  76.676 115.486  0.00  0.00    -0.368 OA
BRANCH   7   8
ATOM      8  C   LIG d   1      -2.957  75.717 115.814  0.00  0.00     0.119 C 
BRANCH   8   9
ATOM      9  C   LIG d   1      -3.911  75.635 114.607  0.00  0.00     0.028 C 
ATOM     10  C   LIG d   1      -4.928  74.489 114.740  0.00  0.00     0.006 C 
ENDBRANCH   8   9
BRANCH   8  11
ATOM     11  C   LIG d   1      -3.820  76.206 116.981  0.00  0.00     0.028 C 
ATOM     12  C   LIG d   1      -3.846  77.738 117.101  0.00  0.00     0.006 C 
ENDBRANCH   8  11
ENDBRANCH   7   8
ENDBRANCH   1   7
BRANCH   6  13
ATOM     13  N   LIG d   1      -0.342  76.772 118.051  0.00  0.00    -0.311 N 
ATOM     14  C   LIG d   1      -0.925  76.741 119.249  0.00  0.00     0.210 C 
ATOM     15  C   LIG d   1      -0.776  78.022 120.074  0.00  0.00     0.109 C 
ATOM     16  O   LIG d   1      -1.524  75.761 119.718  0.00  0.00    -0.276 OA
ATOM     17  H   LIG d   1       0.150  77.596 117.764  0.00  0.00     0.149 HD
ENDBRANCH   6  13
BRANCH   5  18
ATOM     18  N   LIG d   1       1.006  74.065 118.481  0.00  0.00     0.381 N 
ATOM     19  H   LIG d   1       1.972  74.016 118.738  0.00  0.00    -0.090 HD
ATOM     20  H   LIG d   1       0.654  73.128 118.398  0.00  0.00    -0.090 HD
ATOM     21  H   LIG d   1       0.494  74.560 119.178  0.00  0.00    -0.090 HD
ENDBRANCH   5  18
BRANCH   3  22
ATOM     22  C   LIG d   1       1.023  73.483 113.727  0.00  0.00     0.382 C 
ATOM     23  O   LIG d   1       0.234  72.932 112.922  0.00  0.00    -0.241 OA
ATOM     24  O   LIG d   1       2.251  73.369 113.558  0.00  0.00    -0.241 OA
ENDBRANCH   3  22
TORSDOF 7
ENDMDL
MODEL 9
REMARK VINA RESULT:      -4.6      2.211      4.752
REMARK  7 active torsions:
REMARK  status: ('A' for Active; 'I' for Inactive)
REMARK    1  A    between atoms: C_2  and  C_3 
REMARK    2  A    between atoms: C_3  and  O_6 
REMARK    3  A    between atoms: C_3  and  C_4 
REMARK    4  A    between atoms: C_7  and  O_6 
REMARK    5  A    between atoms: C_9  and  C_10 
REMARK    6  A    between atoms: N_15  and  C_14 
REMARK    7  A    between atoms: N_20  and  C_19 
REMARK       I    between atoms: C_22  and  N_20 
ROOT
ATOM      1  C   LIG d   1      -1.615  75.539 115.121  0.00  0.00     0.161 C 
ATOM      2  C   LIG d   1      -0.767  76.547 114.635  0.00  0.00     0.016 C 
ATOM      3  C   LIG d   1      -0.975  77.924 114.879  0.00  0.00     0.038 C 
ATOM      4  C   LIG d   1      -1.967  78.379 115.760  0.00  0.00     0.028 C 
ATOM      5  C   LIG d   1      -3.158  77.432 115.872  0.00  0.00    -0.047 C 
ATOM      6  C   LIG d   1      -2.639  76.008 116.176  0.00  0.00     0.091 C 
ENDROOT
BRANCH   1   7
ATOM      7  O   LIG d   1      -0.830  74.446 115.638  0.00  0.00    -0.368 OA
BRANCH   7   8
ATOM      8  C   LIG d   1       0.604  74.551 115.456  0.00  0.00     0.119 C 
BRANCH   8   9
ATOM      9  C   LIG d   1       1.068  73.289 114.703  0.00  0.00     0.028 C 
ATOM     10  C   LIG d   1       1.093  73.492 113.178  0.00  0.00     0.006 C 
ENDBRANCH   8   9
BRANCH   8  11
ATOM     11  C   LIG d   1       1.340  74.515 116.799  0.00  0.00     0.028 C 
ATOM     12  C   LIG d   1       1.383  75.886 117.491  0.00  0.00     0.006 C 
ENDBRANCH   8  11
ENDBRANCH   7   8
ENDBRANCH   1   7
BRANCH   6  13
ATOM     13  N   LIG d   1      -3.734  75.004 116.218  0.00  0.00    -0.311 N 
ATOM     14  C   LIG d   1      -4.516  74.727 115.176  0.00  0.00     0.210 C 
ATOM     15  C   LIG d   1      -5.596  73.673 115.440  0.00  0.00     0.109 C 
ATOM     16  O   LIG d   1      -4.396  75.230 114.049  0.00  0.00    -0.276 OA
ATOM     17  H   LIG d   1      -3.880  74.525 117.086  0.00  0.00     0.149 HD
ENDBRANCH   6  13
BRANCH   5  18
ATOM     18  N   LIG d   1      -4.049  77.960 116.923  0.00  0.00     0.381 N 
ATOM     19  H   LIG d   1      -3.584  77.929 117.809  0.00  0.00    -0.090 HD
ATOM     20  H   LIG d   1      -4.867  77.379 116.977  0.00  0.00    -0.090 HD
ATOM     21  H   LIG d   1      -4.310  78.897 116.710  0.00  0.00    -0.090 HD
ENDBRANCH   5  18
BRANCH   3  22
ATOM     22  C   LIG d   1      -0.209  78.865 114.208  0.00  0.00     0.382 C 
ATOM     23  O   LIG d   1       0.495  79.678 114.854  0.00  0.00    -0.241 OA
ATOM     24  O   LIG d   1      -0.247  78.939 112.965  0.00  0.00    -0.241 OA
ENDBRANCH   3  22
TORSDOF 7
ENDMDL
