MODEL 1
REMARK VINA RESULT:      -5.5      0.000      0.000
REMARK  7 active torsions:
REMARK  status: ('A' for Active; 'I' for Inactive)
REMARK    1  A    between atoms: C_2  and  C_3 
REMARK    2  A    between atoms: C_3  and  O_6 
REMARK    3  A    between atoms: C_3  and  C_4 
REMARK    4  A    between atoms: C_7  and  O_6 
REMARK    5  A    between atoms: C_9  and  C_10 
REMARK    6  A    between atoms: N_15  and  C_14 
REMARK    7  A    between atoms: N_20  and  C_19 
REMARK       I    between atoms: C_22  and  N_20 
ROOT
ATOM      1  C   LIG d   1       1.908  88.946 115.427  0.00  0.00     0.161 C 
ATOM      2  C   LIG d   1       0.637  89.229 115.954  0.00  0.00     0.016 C 
ATOM      3  C   LIG d   1       0.381  90.305 116.834  0.00  0.00     0.038 C 
ATOM      4  C   LIG d   1       1.356  91.269 117.130  0.00  0.00     0.028 C 
ATOM      5  C   LIG d   1       2.783  90.740 117.023  0.00  0.00    -0.047 C 
ATOM      6  C   LIG d   1       2.961  90.052 115.650  0.00  0.00     0.091 C 
ENDROOT
BRANCH   1   7
ATOM      7  O   LIG d   1       1.797  88.636 114.023  0.00  0.00    -0.368 OA
BRANCH   7   8
ATOM      8  C   LIG d   1       2.161  87.288 113.638  0.00  0.00     0.119 C 
BRANCH   8   9
ATOM      9  C   LIG d   1       2.674  87.344 112.186  0.00  0.00     0.028 C 
ATOM     10  C   LIG d   1       4.122  86.843 112.055  0.00  0.00     0.006 C 
ENDBRANCH   8   9
BRANCH   8  11
ATOM     11  C   LIG d   1       0.937  86.369 113.601  0.00  0.00     0.028 C 
ATOM     12  C   LIG d   1       1.269  84.918 113.984  0.00  0.00     0.006 C 
ENDBRANCH   8  11
ENDBRANCH   7   8
ENDBRANCH   1   7
BRANCH   6  13
ATOM     13  N   LIG d   1       4.303  89.433 115.496  0.00  0.00    -0.311 N 
ATOM     14  C   LIG d   1       5.045  89.556 114.397  0.00  0.00     0.210 C 
ATOM     15  C   LIG d   1       6.389  88.821 114.439  0.00  0.00     0.109 C 
ATOM     16  O   LIG d   1       4.733  90.229 113.404  0.00  0.00    -0.276 OA
ATOM     17  H   LIG d   1       4.648  88.894 116.266  0.00  0.00     0.149 HD
ENDBRANCH   6  13
BRANCH   5  18
ATOM     18  N   LIG d   1       3.697  91.880 117.221  0.00  0.00     0.381 N 
ATOM     19  H   LIG d   1       3.741  92.428 116.385  0.00  0.00    -0.090 HD
ATOM     20  H   LIG d   1       4.617  91.529 117.417  0.00  0.00    -0.090 HD
ATOM     21  H   LIG d   1       3.380  92.444 117.979  0.00  0.00    -0.090 HD
ENDBRANCH   5  18
BRANCH   3  22
ATOM     22  C   LIG d   1      -0.852  90.402 117.461  0.00  0.00     0.382 C 
ATOM     23  O   LIG d   1      -1.561  89.378 117.612  0.00  0.00    -0.241 OA
ATOM     24  O   LIG d   1      -1.284  91.508 117.837  0.00  0.00    -0.241 OA
ENDBRANCH   3  22
TORSDOF 7
ENDMDL
MODEL 2
REMARK VINA RESULT:      -5.3     12.790     15.243
REMARK  7 active torsions:
REMARK  status: ('A' for Active; 'I' for Inactive)
REMARK    1  A    between atoms: C_2  and  C_3 
REMARK    2  A    between atoms: C_3  and  O_6 
REMARK    3  A    between atoms: C_3  and  C_4 
REMARK    4  A    between atoms: C_7  and  O_6 
REMARK    5  A    between atoms: C_9  and  C_10 
REMARK    6  A    between atoms: N_15  and  C_14 
REMARK    7  A    between atoms: N_20  and  C_19 
REMARK       I    between atoms: C_22  and  N_20 
ROOT
ATOM      1  C   LIG d   1      -4.334  76.531 116.314  0.00  0.00     0.161 C 
ATOM      2  C   LIG d   1      -3.340  75.637 115.883  0.00  0.00     0.016 C 
ATOM      3  C   LIG d   1      -1.971  75.779 116.209  0.00  0.00     0.038 C 
ATOM      4  C   LIG d   1      -1.523  76.748 117.120  0.00  0.00     0.028 C 
ATOM      5  C   LIG d   1      -2.417  77.981 117.182  0.00  0.00    -0.047 C 
ATOM      6  C   LIG d   1      -3.880  77.530 117.399  0.00  0.00     0.091 C 
ENDROOT
BRANCH   1   7
ATOM      7  O   LIG d   1      -5.491  75.797 116.761  0.00  0.00    -0.368 OA
BRANCH   7   8
ATOM      8  C   LIG d   1      -5.996  74.788 115.853  0.00  0.00     0.119 C 
BRANCH   8   9
ATOM      9  C   LIG d   1      -7.244  75.370 115.162  0.00  0.00     0.028 C 
ATOM     10  C   LIG d   1      -8.369  75.694 116.158  0.00  0.00     0.006 C 
ENDBRANCH   8   9
BRANCH   8  11
ATOM     11  C   LIG d   1      -6.491  73.553 116.611  0.00  0.00     0.028 C 
ATOM     12  C   LIG d   1      -6.875  72.394 115.677  0.00  0.00     0.006 C 
ENDBRANCH   8  11
ENDBRANCH   7   8
ENDBRANCH   1   7
BRANCH   6  13
ATOM     13  N   LIG d   1      -4.832  78.670 117.388  0.00  0.00    -0.311 N 
ATOM     14  C   LIG d   1      -5.758  78.862 118.326  0.00  0.00     0.210 C 
ATOM     15  C   LIG d   1      -6.651  80.089 118.113  0.00  0.00     0.109 C 
ATOM     16  O   LIG d   1      -5.903  78.151 119.332  0.00  0.00    -0.276 OA
ATOM     17  H   LIG d   1      -4.764  79.314 116.624  0.00  0.00     0.149 HD
ENDBRANCH   6  13
BRANCH   5  18
ATOM     18  N   LIG d   1      -1.912  78.844 118.266  0.00  0.00     0.381 N 
ATOM     19  H   LIG d   1      -2.266  78.526 119.146  0.00  0.00    -0.090 HD
ATOM     20  H   LIG d   1      -2.240  79.782 118.115  0.00  0.00    -0.090 HD
ATOM     21  H   LIG d   1      -0.916  78.831 118.276  0.00  0.00    -0.090 HD
ENDBRANCH   5  18
BRANCH   3  22
ATOM     22  C   LIG d   1      -1.030  74.971 115.591  0.00  0.00     0.382 C 
ATOM     23  O   LIG d   1      -0.302  74.216 116.279  0.00  0.00    -0.241 OA
ATOM     24  O   LIG d   1      -0.869  75.020 114.356  0.00  0.00    -0.241 OA
ENDBRANCH   3  22
TORSDOF 7
ENDMDL
MODEL 3
REMARK VINA RESULT:      -5.2     13.076     15.167
REMARK  7 active torsions:
REMARK  status: ('A' for Active; 'I' for Inactive)
REMARK    1  A    between atoms: C_2  and  C_3 
REMARK    2  A    between atoms: C_3  and  O_6 
REMARK    3  A    between atoms: C_3  and  C_4 
REMARK    4  A    between atoms: C_7  and  O_6 
REMARK    5  A    between atoms: C_9  and  C_10 
REMARK    6  A    between atoms: N_15  and  C_14 
REMARK    7  A    between atoms: N_20  and  C_19 
REMARK       I    between atoms: C_22  and  N_20 
ROOT
ATOM      1  C   LIG d   1      -3.931  76.873 115.601  0.00  0.00     0.161 C 
ATOM      2  C   LIG d   1      -2.965  75.942 115.185  0.00  0.00     0.016 C 
ATOM      3  C   LIG d   1      -1.824  75.610 115.951  0.00  0.00     0.038 C 
ATOM      4  C   LIG d   1      -1.649  76.078 117.261  0.00  0.00     0.028 C 
ATOM      5  C   LIG d   1      -2.340  77.411 117.526  0.00  0.00    -0.047 C 
ATOM      6  C   LIG d   1      -3.815  77.310 117.076  0.00  0.00     0.091 C 
ENDROOT
BRANCH   1   7
ATOM      7  O   LIG d   1      -5.251  76.360 115.333  0.00  0.00    -0.368 OA
BRANCH   7   8
ATOM      8  C   LIG d   1      -5.659  75.210 116.114  0.00  0.00     0.119 C 
BRANCH   8   9
ATOM      9  C   LIG d   1      -6.047  74.093 115.126  0.00  0.00     0.028 C 
ATOM     10  C   LIG d   1      -6.205  72.728 115.816  0.00  0.00     0.006 C 
ENDBRANCH   8   9
BRANCH   8  11
ATOM     11  C   LIG d   1      -6.931  75.503 116.914  0.00  0.00     0.028 C 
ATOM     12  C   LIG d   1      -8.174  75.657 116.023  0.00  0.00     0.006 C 
ENDBRANCH   8  11
ENDBRANCH   7   8
ENDBRANCH   1   7
BRANCH   6  13
ATOM     13  N   LIG d   1      -4.542  78.599 117.222  0.00  0.00    -0.311 N 
ATOM     14  C   LIG d   1      -5.489  78.807 118.134  0.00  0.00     0.210 C 
ATOM     15  C   LIG d   1      -6.125  80.200 118.100  0.00  0.00     0.109 C 
ATOM     16  O   LIG d   1      -5.841  77.980 118.989  0.00  0.00    -0.276 OA
ATOM     17  H   LIG d   1      -4.297  79.335 116.588  0.00  0.00     0.149 HD
ENDBRANCH   6  13
BRANCH   5  18
ATOM     18  N   LIG d   1      -2.193  77.713 118.962  0.00  0.00     0.381 N 
ATOM     19  H   LIG d   1      -1.434  78.351 119.099  0.00  0.00    -0.090 HD
ATOM     20  H   LIG d   1      -1.981  76.862 119.453  0.00  0.00    -0.090 HD
ATOM     21  H   LIG d   1      -3.036  78.107 119.316  0.00  0.00    -0.090 HD
ENDBRANCH   5  18
BRANCH   3  22
ATOM     22  C   LIG d   1      -0.823  74.832 115.390  0.00  0.00     0.382 C 
ATOM     23  O   LIG d   1      -0.133  74.077 116.118  0.00  0.00    -0.241 OA
ATOM     24  O   LIG d   1      -0.570  74.908 114.172  0.00  0.00    -0.241 OA
ENDBRANCH   3  22
TORSDOF 7
ENDMDL
MODEL 4
REMARK VINA RESULT:      -5.2     12.348     14.092
REMARK  7 active torsions:
REMARK  status: ('A' for Active; 'I' for Inactive)
REMARK    1  A    between atoms: C_2  and  C_3 
REMARK    2  A    between atoms: C_3  and  O_6 
REMARK    3  A    between atoms: C_3  and  C_4 
REMARK    4  A    between atoms: C_7  and  O_6 
REMARK    5  A    between atoms: C_9  and  C_10 
REMARK    6  A    between atoms: N_15  and  C_14 
REMARK    7  A    between atoms: N_20  and  C_19 
REMARK       I    between atoms: C_22  and  N_20 
ROOT
ATOM      1  C   LIG d   1      -5.767  77.367 117.247  0.00  0.00     0.161 C 
ATOM      2  C   LIG d   1      -6.789  78.282 117.548  0.00  0.00     0.016 C 
ATOM      3  C   LIG d   1      -6.547  79.621 117.934  0.00  0.00     0.038 C 
ATOM      4  C   LIG d   1      -5.262  80.182 117.898  0.00  0.00     0.028 C 
ATOM      5  C   LIG d   1      -4.148  79.157 118.088  0.00  0.00    -0.047 C 
ATOM      6  C   LIG d   1      -4.364  77.992 117.095  0.00  0.00     0.091 C 
ENDROOT
BRANCH   1   7
ATOM      7  O   LIG d   1      -6.113  76.619 116.065  0.00  0.00    -0.368 OA
BRANCH   7   8
ATOM      8  C   LIG d   1      -6.267  75.189 116.238  0.00  0.00     0.119 C 
BRANCH   8   9
ATOM      9  C   LIG d   1      -5.476  74.498 115.111  0.00  0.00     0.028 C 
ATOM     10  C   LIG d   1      -5.261  75.417 113.896  0.00  0.00     0.006 C 
ENDBRANCH   8   9
BRANCH   8  11
ATOM     11  C   LIG d   1      -7.722  74.757 116.035  0.00  0.00     0.028 C 
ATOM     12  C   LIG d   1      -7.893  73.230 116.013  0.00  0.00     0.006 C 
ENDBRANCH   8  11
ENDBRANCH   7   8
ENDBRANCH   1   7
BRANCH   6  13
ATOM     13  N   LIG d   1      -3.366  76.905 117.271  0.00  0.00    -0.311 N 
ATOM     14  C   LIG d   1      -2.528  76.517 116.312  0.00  0.00     0.210 C 
ATOM     15  C   LIG d   1      -1.594  75.365 116.696  0.00  0.00     0.109 C 
ATOM     16  O   LIG d   1      -2.447  77.038 115.190  0.00  0.00    -0.276 OA
ATOM     17  H   LIG d   1      -3.342  76.448 118.162  0.00  0.00     0.149 HD
ENDBRANCH   6  13
BRANCH   5  18
ATOM     18  N   LIG d   1      -2.863  79.854 117.891  0.00  0.00     0.381 N 
ATOM     19  H   LIG d   1      -2.616  80.351 118.723  0.00  0.00    -0.090 HD
ATOM     20  H   LIG d   1      -2.965  80.520 117.145  0.00  0.00    -0.090 HD
ATOM     21  H   LIG d   1      -2.150  79.196 117.664  0.00  0.00    -0.090 HD
ENDBRANCH   5  18
BRANCH   3  22
ATOM     22  C   LIG d   1      -7.594  80.402 118.400  0.00  0.00     0.382 C 
ATOM     23  O   LIG d   1      -7.939  80.334 119.604  0.00  0.00    -0.241 OA
ATOM     24  O   LIG d   1      -8.226  81.141 117.621  0.00  0.00    -0.241 OA
ENDBRANCH   3  22
TORSDOF 7
ENDMDL
MODEL 5
REMARK VINA RESULT:      -5.1     12.396     14.497
REMARK  7 active torsions:
REMARK  status: ('A' for Active; 'I' for Inactive)
REMARK    1  A    between atoms: C_2  and  C_3 
REMARK    2  A    between atoms: C_3  and  O_6 
REMARK    3  A    between atoms: C_3  and  C_4 
REMARK    4  A    between atoms: C_7  and  O_6 
REMARK    5  A    between atoms: C_9  and  C_10 
REMARK    6  A    between atoms: N_15  and  C_14 
REMARK    7  A    between atoms: N_20  and  C_19 
REMARK       I    between atoms: C_22  and  N_20 
ROOT
ATOM      1  C   LIG d   1      -2.830  77.177 116.613  0.00  0.00     0.161 C 
ATOM      2  C   LIG d   1      -3.103  77.751 115.360  0.00  0.00     0.016 C 
ATOM      3  C   LIG d   1      -2.296  77.546 114.218  0.00  0.00     0.038 C 
ATOM      4  C   LIG d   1      -1.237  76.626 114.214  0.00  0.00     0.028 C 
ATOM      5  C   LIG d   1      -0.619  76.407 115.590  0.00  0.00    -0.047 C 
ATOM      6  C   LIG d   1      -1.743  76.082 116.600  0.00  0.00     0.091 C 
ENDROOT
BRANCH   1   7
ATOM      7  O   LIG d   1      -4.047  76.668 117.193  0.00  0.00    -0.368 OA
BRANCH   7   8
ATOM      8  C   LIG d   1      -5.159  76.485 116.283  0.00  0.00     0.119 C 
BRANCH   8   9
ATOM      9  C   LIG d   1      -6.454  76.767 117.070  0.00  0.00     0.028 C 
ATOM     10  C   LIG d   1      -7.652  75.966 116.535  0.00  0.00     0.006 C 
ENDBRANCH   8   9
BRANCH   8  11
ATOM     11  C   LIG d   1      -5.272  75.027 115.827  0.00  0.00     0.028 C 
ATOM     12  C   LIG d   1      -5.083  74.861 114.310  0.00  0.00     0.006 C 
ENDBRANCH   8  11
ENDBRANCH   7   8
ENDBRANCH   1   7
BRANCH   6  13
ATOM     13  N   LIG d   1      -1.234  75.937 117.988  0.00  0.00    -0.311 N 
ATOM     14  C   LIG d   1      -0.748  74.796 118.475  0.00  0.00     0.210 C 
ATOM     15  C   LIG d   1      -0.295  74.858 119.937  0.00  0.00     0.109 C 
ATOM     16  O   LIG d   1      -0.619  73.748 117.825  0.00  0.00    -0.276 OA
ATOM     17  H   LIG d   1      -1.272  76.747 118.575  0.00  0.00     0.149 HD
ENDBRANCH   6  13
BRANCH   5  18
ATOM     18  N   LIG d   1       0.377  75.326 115.465  0.00  0.00     0.381 N 
ATOM     19  H   LIG d   1      -0.073  74.438 115.566  0.00  0.00    -0.090 HD
ATOM     20  H   LIG d   1       1.055  75.422 116.200  0.00  0.00    -0.090 HD
ATOM     21  H   LIG d   1       0.828  75.379 114.578  0.00  0.00    -0.090 HD
ENDBRANCH   5  18
BRANCH   3  22
ATOM     22  C   LIG d   1      -2.520  78.298 113.074  0.00  0.00     0.382 C 
ATOM     23  O   LIG d   1      -2.138  79.491 113.023  0.00  0.00    -0.241 OA
ATOM     24  O   LIG d   1      -3.140  77.810 112.110  0.00  0.00    -0.241 OA
ENDBRANCH   3  22
TORSDOF 7
ENDMDL
MODEL 6
REMARK VINA RESULT:      -5.0     11.286     13.662
REMARK  7 active torsions:
REMARK  status: ('A' for Active; 'I' for Inactive)
REMARK    1  A    between atoms: C_2  and  C_3 
REMARK    2  A    between atoms: C_3  and  O_6 
REMARK    3  A    between atoms: C_3  and  C_4 
REMARK    4  A    between atoms: C_7  and  O_6 
REMARK    5  A    between atoms: C_9  and  C_10 
REMARK    6  A    between atoms: N_15  and  C_14 
REMARK    7  A    between atoms: N_20  and  C_19 
REMARK       I    between atoms: C_22  and  N_20 
ROOT
ATOM      1  C   LIG d   1      10.351  79.427 114.690  0.00  0.00     0.161 C 
ATOM      2  C   LIG d   1       9.025  79.326 115.141  0.00  0.00     0.016 C 
ATOM      3  C   LIG d   1       8.437  78.112 115.565  0.00  0.00     0.038 C 
ATOM      4  C   LIG d   1       9.188  76.936 115.711  0.00  0.00     0.028 C 
ATOM      5  C   LIG d   1      10.401  76.874 114.789  0.00  0.00    -0.047 C 
ATOM      6  C   LIG d   1      11.218  78.177 114.947  0.00  0.00     0.091 C 
ENDROOT
BRANCH   1   7
ATOM      7  O   LIG d   1      10.974  80.595 115.261  0.00  0.00    -0.368 OA
BRANCH   7   8
ATOM      8  C   LIG d   1      11.113  81.737 114.381  0.00  0.00     0.119 C 
BRANCH   8   9
ATOM      9  C   LIG d   1       9.929  82.683 114.660  0.00  0.00     0.028 C 
ATOM     10  C   LIG d   1      10.008  83.328 116.054  0.00  0.00     0.006 C 
ENDBRANCH   8   9
BRANCH   8  11
ATOM     11  C   LIG d   1      10.970  81.330 112.912  0.00  0.00     0.028 C 
ATOM     12  C   LIG d   1      10.291  82.412 112.057  0.00  0.00     0.006 C 
ENDBRANCH   8  11
ENDBRANCH   7   8
ENDBRANCH   1   7
BRANCH   6  13
ATOM     13  N   LIG d   1      12.378  78.235 114.019  0.00  0.00    -0.311 N 
ATOM     14  C   LIG d   1      13.602  77.826 114.348  0.00  0.00     0.210 C 
ATOM     15  C   LIG d   1      14.656  77.992 113.250  0.00  0.00     0.109 C 
ATOM     16  O   LIG d   1      13.907  77.311 115.435  0.00  0.00    -0.276 OA
ATOM     17  H   LIG d   1      12.212  78.610 113.105  0.00  0.00     0.149 HD
ENDBRANCH   6  13
BRANCH   5  18
ATOM     18  N   LIG d   1      11.168  75.664 115.143  0.00  0.00     0.381 N 
ATOM     19  H   LIG d   1      11.818  75.877 115.874  0.00  0.00    -0.090 HD
ATOM     20  H   LIG d   1      11.687  75.362 114.337  0.00  0.00    -0.090 HD
ATOM     21  H   LIG d   1      10.548  74.943 115.439  0.00  0.00    -0.090 HD
ENDBRANCH   5  18
BRANCH   3  22
ATOM     22  C   LIG d   1       7.073  78.058 115.810  0.00  0.00     0.382 C 
ATOM     23  O   LIG d   1       6.640  77.422 116.801  0.00  0.00    -0.241 OA
ATOM     24  O   LIG d   1       6.269  78.599 115.028  0.00  0.00    -0.241 OA
ENDBRANCH   3  22
TORSDOF 7
ENDMDL
MODEL 7
REMARK VINA RESULT:      -4.7      2.945      5.908
REMARK  7 active torsions:
REMARK  status: ('A' for Active; 'I' for Inactive)
REMARK    1  A    between atoms: C_2  and  C_3 
REMARK    2  A    between atoms: C_3  and  O_6 
REMARK    3  A    between atoms: C_3  and  C_4 
REMARK    4  A    between atoms: C_7  and  O_6 
REMARK    5  A    between atoms: C_9  and  C_10 
REMARK    6  A    between atoms: N_15  and  C_14 
REMARK    7  A    between atoms: N_20  and  C_19 
REMARK       I    between atoms: C_22  and  N_20 
ROOT
ATOM      1  C   LIG d   1       5.304  90.110 115.480  0.00  0.00     0.161 C 
ATOM      2  C   LIG d   1       4.553  89.689 114.371  0.00  0.00     0.016 C 
ATOM      3  C   LIG d   1       4.341  88.330 114.045  0.00  0.00     0.038 C 
ATOM      4  C   LIG d   1       4.743  87.292 114.898  0.00  0.00     0.028 C 
ATOM      5  C   LIG d   1       5.942  87.653 115.769  0.00  0.00    -0.047 C 
ATOM      6  C   LIG d   1       5.656  88.993 116.484  0.00  0.00     0.091 C 
ENDROOT
BRANCH   1   7
ATOM      7  O   LIG d   1       4.623  91.190 116.151  0.00  0.00    -0.368 OA
BRANCH   7   8
ATOM      8  C   LIG d   1       3.756  90.812 117.248  0.00  0.00     0.119 C 
BRANCH   8   9
ATOM      9  C   LIG d   1       2.310  91.138 116.828  0.00  0.00     0.028 C 
ATOM     10  C   LIG d   1       1.523  89.883 116.413  0.00  0.00     0.006 C 
ENDBRANCH   8   9
BRANCH   8  11
ATOM     11  C   LIG d   1       4.021  91.671 118.488  0.00  0.00     0.028 C 
ATOM     12  C   LIG d   1       5.280  92.541 118.353  0.00  0.00     0.006 C 
ENDBRANCH   8  11
ENDBRANCH   7   8
ENDBRANCH   1   7
BRANCH   6  13
ATOM     13  N   LIG d   1       6.813  89.461 117.292  0.00  0.00    -0.311 N 
ATOM     14  C   LIG d   1       6.941  89.224 118.596  0.00  0.00     0.210 C 
ATOM     15  C   LIG d   1       8.200  89.814 119.240  0.00  0.00     0.109 C 
ATOM     16  O   LIG d   1       6.148  88.553 119.274  0.00  0.00    -0.276 OA
ATOM     17  H   LIG d   1       7.519  89.987 116.815  0.00  0.00     0.149 HD
ENDBRANCH   6  13
BRANCH   5  18
ATOM     18  N   LIG d   1       6.166  86.534 116.704  0.00  0.00     0.381 N 
ATOM     19  H   LIG d   1       6.965  86.725 117.275  0.00  0.00    -0.090 HD
ATOM     20  H   LIG d   1       6.350  85.700 116.174  0.00  0.00    -0.090 HD
ATOM     21  H   LIG d   1       5.362  86.402 117.277  0.00  0.00    -0.090 HD
ENDBRANCH   5  18
BRANCH   3  22
ATOM     22  C   LIG d   1       3.755  87.997 112.833  0.00  0.00     0.382 C 
ATOM     23  O   LIG d   1       4.329  87.194 112.059  0.00  0.00    -0.241 OA
ATOM     24  O   LIG d   1       2.682  88.524 112.484  0.00  0.00    -0.241 OA
ENDBRANCH   3  22
TORSDOF 7
ENDMDL
MODEL 8
REMARK VINA RESULT:      -4.6     10.436     13.340
REMARK  7 active torsions:
REMARK  status: ('A' for Active; 'I' for Inactive)
REMARK    1  A    between atoms: C_2  and  C_3 
REMARK    2  A    between atoms: C_3  and  O_6 
REMARK    3  A    between atoms: C_3  and  C_4 
REMARK    4  A    between atoms: C_7  and  O_6 
REMARK    5  A    between atoms: C_9  and  C_10 
REMARK    6  A    between atoms: N_15  and  C_14 
REMARK    7  A    between atoms: N_20  and  C_19 
REMARK       I    between atoms: C_22  and  N_20 
ROOT
ATOM      1  C   LIG d   1      -1.453  78.036 116.084  0.00  0.00     0.161 C 
ATOM      2  C   LIG d   1      -2.646  77.644 115.455  0.00  0.00     0.016 C 
ATOM      3  C   LIG d   1      -2.990  76.295 115.209  0.00  0.00     0.038 C 
ATOM      4  C   LIG d   1      -2.228  75.232 115.715  0.00  0.00     0.028 C 
ATOM      5  C   LIG d   1      -0.758  75.583 115.917  0.00  0.00    -0.047 C 
ATOM      6  C   LIG d   1      -0.661  76.886 116.742  0.00  0.00     0.091 C 
ENDROOT
BRANCH   1   7
ATOM      7  O   LIG d   1      -1.726  79.072 117.047  0.00  0.00    -0.368 OA
BRANCH   7   8
ATOM      8  C   LIG d   1      -3.101  79.186 117.489  0.00  0.00     0.119 C 
BRANCH   8   9
ATOM      9  C   LIG d   1      -3.392  80.682 117.717  0.00  0.00     0.028 C 
ATOM     10  C   LIG d   1      -2.275  81.587 117.171  0.00  0.00     0.006 C 
ENDBRANCH   8   9
BRANCH   8  11
ATOM     11  C   LIG d   1      -3.304  78.521 118.854  0.00  0.00     0.028 C 
ATOM     12  C   LIG d   1      -2.037  78.545 119.723  0.00  0.00     0.006 C 
ENDBRANCH   8  11
ENDBRANCH   7   8
ENDBRANCH   1   7
BRANCH   6  13
ATOM     13  N   LIG d   1       0.741  77.347 116.913  0.00  0.00    -0.311 N 
ATOM     14  C   LIG d   1       1.487  77.046 117.975  0.00  0.00     0.210 C 
ATOM     15  C   LIG d   1       2.900  77.639 117.961  0.00  0.00     0.109 C 
ATOM     16  O   LIG d   1       1.124  76.319 118.911  0.00  0.00    -0.276 OA
ATOM     17  H   LIG d   1       1.127  77.916 116.185  0.00  0.00     0.149 HD
ENDBRANCH   6  13
BRANCH   5  18
ATOM     18  N   LIG d   1      -0.111  74.432 116.576  0.00  0.00     0.381 N 
ATOM     19  H   LIG d   1       0.883  74.513 116.500  0.00  0.00    -0.090 HD
ATOM     20  H   LIG d   1      -0.396  73.589 116.110  0.00  0.00    -0.090 HD
ATOM     21  H   LIG d   1      -0.376  74.396 117.536  0.00  0.00    -0.090 HD
ENDBRANCH   5  18
BRANCH   3  22
ATOM     22  C   LIG d   1      -4.088  75.999 114.415  0.00  0.00     0.382 C 
ATOM     23  O   LIG d   1      -4.826  75.026 114.704  0.00  0.00    -0.241 OA
ATOM     24  O   LIG d   1      -4.324  76.665 113.390  0.00  0.00    -0.241 OA
ENDBRANCH   3  22
TORSDOF 7
ENDMDL
MODEL 9
REMARK VINA RESULT:      -4.5     10.669     13.097
REMARK  7 active torsions:
REMARK  status: ('A' for Active; 'I' for Inactive)
REMARK    1  A    between atoms: C_2  and  C_3 
REMARK    2  A    between atoms: C_3  and  O_6 
REMARK    3  A    between atoms: C_3  and  C_4 
REMARK    4  A    between atoms: C_7  and  O_6 
REMARK    5  A    between atoms: C_9  and  C_10 
REMARK    6  A    between atoms: N_15  and  C_14 
REMARK    7  A    between atoms: N_20  and  C_19 
REMARK       I    between atoms: C_22  and  N_20 
ROOT
ATOM      1  C   LIG d   1      -3.528  77.704 117.327  0.00  0.00     0.161 C 
ATOM      2  C   LIG d   1      -4.186  78.902 117.652  0.00  0.00     0.016 C 
ATOM      3  C   LIG d   1      -3.930  80.131 117.001  0.00  0.00     0.038 C 
ATOM      4  C   LIG d   1      -3.103  80.214 115.871  0.00  0.00     0.028 C 
ATOM      5  C   LIG d   1      -2.032  79.129 115.824  0.00  0.00    -0.047 C 
ATOM      6  C   LIG d   1      -2.704  77.751 116.023  0.00  0.00     0.091 C 
ENDROOT
BRANCH   1   7
ATOM      7  O   LIG d   1      -4.479  76.622 117.279  0.00  0.00    -0.368 OA
BRANCH   7   8
ATOM      8  C   LIG d   1      -5.443  76.668 116.198  0.00  0.00     0.119 C 
BRANCH   8   9
ATOM      9  C   LIG d   1      -6.848  76.690 116.832  0.00  0.00     0.028 C 
ATOM     10  C   LIG d   1      -7.788  75.644 116.210  0.00  0.00     0.006 C 
ENDBRANCH   8   9
BRANCH   8  11
ATOM     11  C   LIG d   1      -5.398  75.390 115.356  0.00  0.00     0.028 C 
ATOM     12  C   LIG d   1      -5.072  75.661 113.878  0.00  0.00     0.006 C 
ENDBRANCH   8  11
ENDBRANCH   7   8
ENDBRANCH   1   7
BRANCH   6  13
ATOM     13  N   LIG d   1      -1.716  76.642 116.075  0.00  0.00    -0.311 N 
ATOM     14  C   LIG d   1      -1.265  76.011 114.992  0.00  0.00     0.210 C 
ATOM     15  C   LIG d   1      -0.267  74.883 115.269  0.00  0.00     0.109 C 
ATOM     16  O   LIG d   1      -1.572  76.300 113.826  0.00  0.00    -0.276 OA
ATOM     17  H   LIG d   1      -1.390  76.363 116.979  0.00  0.00     0.149 HD
ENDBRANCH   6  13
BRANCH   5  18
ATOM     18  N   LIG d   1      -1.332  79.250 114.531  0.00  0.00     0.381 N 
ATOM     19  H   LIG d   1      -0.509  78.681 114.537  0.00  0.00    -0.090 HD
ATOM     20  H   LIG d   1      -1.054  80.206 114.400  0.00  0.00    -0.090 HD
ATOM     21  H   LIG d   1      -1.935  78.967 113.789  0.00  0.00    -0.090 HD
ENDBRANCH   5  18
BRANCH   3  22
ATOM     22  C   LIG d   1      -4.476  81.302 117.505  0.00  0.00     0.382 C 
ATOM     23  O   LIG d   1      -5.520  81.777 116.997  0.00  0.00    -0.241 OA
ATOM     24  O   LIG d   1      -3.912  81.912 118.433  0.00  0.00    -0.241 OA
ENDBRANCH   3  22
TORSDOF 7
ENDMDL
