MODEL 1
REMARK VINA RESULT:      -6.2      0.000      0.000
REMARK  7 active torsions:
REMARK  status: ('A' for Active; 'I' for Inactive)
REMARK    1  A    between atoms: C_2  and  C_3 
REMARK    2  A    between atoms: C_3  and  O_6 
REMARK    3  A    between atoms: C_3  and  C_4 
REMARK    4  A    between atoms: C_7  and  O_6 
REMARK    5  A    between atoms: C_9  and  C_10 
REMARK    6  A    between atoms: N_15  and  C_14 
REMARK    7  A    between atoms: N_20  and  C_19 
REMARK       I    between atoms: C_22  and  N_20 
ROOT
ATOM      1  C   LIG d   1      -7.131  76.527 116.721  0.00  0.00     0.161 C 
ATOM      2  C   LIG d   1      -6.156  76.155 115.781  0.00  0.00     0.016 C 
ATOM      3  C   LIG d   1      -4.960  76.880 115.572  0.00  0.00     0.038 C 
ATOM      4  C   LIG d   1      -4.586  77.948 116.402  0.00  0.00     0.028 C 
ATOM      5  C   LIG d   1      -5.772  78.668 117.034  0.00  0.00    -0.047 C 
ATOM      6  C   LIG d   1      -6.690  77.624 117.711  0.00  0.00     0.091 C 
ENDROOT
BRANCH   1   7
ATOM      7  O   LIG d   1      -7.590  75.362 117.435  0.00  0.00    -0.368 OA
BRANCH   7   8
ATOM      8  C   LIG d   1      -8.135  74.291 116.626  0.00  0.00     0.119 C 
BRANCH   8   9
ATOM      9  C   LIG d   1      -9.623  74.141 116.999  0.00  0.00     0.028 C 
ATOM     10  C   LIG d   1     -10.176  75.381 117.720  0.00  0.00     0.006 C 
ENDBRANCH   8   9
BRANCH   8  11
ATOM     11  C   LIG d   1      -7.491  72.946 116.974  0.00  0.00     0.028 C 
ATOM     12  C   LIG d   1      -8.205  71.755 116.315  0.00  0.00     0.006 C 
ENDBRANCH   8  11
ENDBRANCH   7   8
ENDBRANCH   1   7
BRANCH   6  13
ATOM     13  N   LIG d   1      -7.918  78.236 118.282  0.00  0.00    -0.311 N 
ATOM     14  C   LIG d   1      -8.383  77.950 119.497  0.00  0.00     0.210 C 
ATOM     15  C   LIG d   1      -9.675  78.676 119.883  0.00  0.00     0.109 C 
ATOM     16  O   LIG d   1      -7.830  77.187 120.304  0.00  0.00    -0.276 OA
ATOM     17  H   LIG d   1      -8.412  78.889 117.707  0.00  0.00     0.149 HD
ENDBRANCH   6  13
BRANCH   5  18
ATOM     18  N   LIG d   1      -5.236  79.666 117.978  0.00  0.00     0.381 N 
ATOM     19  H   LIG d   1      -5.989  80.174 118.398  0.00  0.00    -0.090 HD
ATOM     20  H   LIG d   1      -4.660  80.316 117.472  0.00  0.00    -0.090 HD
ATOM     21  H   LIG d   1      -4.697  79.213 118.684  0.00  0.00    -0.090 HD
ENDBRANCH   5  18
BRANCH   3  22
ATOM     22  C   LIG d   1      -4.142  76.562 114.498  0.00  0.00     0.382 C 
ATOM     23  O   LIG d   1      -4.553  76.735 113.325  0.00  0.00    -0.241 OA
ATOM     24  O   LIG d   1      -3.016  76.064 114.687  0.00  0.00    -0.241 OA
ENDBRANCH   3  22
TORSDOF 7
ENDMDL
MODEL 2
REMARK VINA RESULT:      -5.8      1.995      4.812
REMARK  7 active torsions:
REMARK  status: ('A' for Active; 'I' for Inactive)
REMARK    1  A    between atoms: C_2  and  C_3 
REMARK    2  A    between atoms: C_3  and  O_6 
REMARK    3  A    between atoms: C_3  and  C_4 
REMARK    4  A    between atoms: C_7  and  O_6 
REMARK    5  A    between atoms: C_9  and  C_10 
REMARK    6  A    between atoms: N_15  and  C_14 
REMARK    7  A    between atoms: N_20  and  C_19 
REMARK       I    between atoms: C_22  and  N_20 
ROOT
ATOM      1  C   LIG d   1      -7.204  76.399 117.385  0.00  0.00     0.161 C 
ATOM      2  C   LIG d   1      -7.344  75.086 116.905  0.00  0.00     0.016 C 
ATOM      3  C   LIG d   1      -8.536  74.335 117.029  0.00  0.00     0.038 C 
ATOM      4  C   LIG d   1      -9.724  74.904 117.510  0.00  0.00     0.028 C 
ATOM      5  C   LIG d   1      -9.494  76.067 118.470  0.00  0.00    -0.047 C 
ATOM      6  C   LIG d   1      -8.524  77.075 117.813  0.00  0.00     0.091 C 
ENDROOT
BRANCH   1   7
ATOM      7  O   LIG d   1      -6.522  77.207 116.406  0.00  0.00    -0.368 OA
BRANCH   7   8
ATOM      8  C   LIG d   1      -5.114  77.450 116.649  0.00  0.00     0.119 C 
BRANCH   8   9
ATOM      9  C   LIG d   1      -4.953  78.948 116.974  0.00  0.00     0.028 C 
ATOM     10  C   LIG d   1      -4.721  79.202 118.473  0.00  0.00     0.006 C 
ENDBRANCH   8   9
BRANCH   8  11
ATOM     11  C   LIG d   1      -4.282  77.217 115.385  0.00  0.00     0.028 C 
ATOM     12  C   LIG d   1      -4.994  76.320 114.360  0.00  0.00     0.006 C 
ENDBRANCH   8  11
ENDBRANCH   7   8
ENDBRANCH   1   7
BRANCH   6  13
ATOM     13  N   LIG d   1      -8.179  78.202 118.718  0.00  0.00    -0.311 N 
ATOM     14  C   LIG d   1      -8.905  79.315 118.813  0.00  0.00     0.210 C 
ATOM     15  C   LIG d   1      -8.361  80.360 119.793  0.00  0.00     0.109 C 
ATOM     16  O   LIG d   1      -9.964  79.522 118.204  0.00  0.00    -0.276 OA
ATOM     17  H   LIG d   1      -7.351  78.105 119.273  0.00  0.00     0.149 HD
ENDBRANCH   6  13
BRANCH   5  18
ATOM     18  N   LIG d   1     -10.811  76.653 118.784  0.00  0.00     0.381 N 
ATOM     19  H   LIG d   1     -11.439  75.934 119.083  0.00  0.00    -0.090 HD
ATOM     20  H   LIG d   1     -11.186  77.074 117.953  0.00  0.00    -0.090 HD
ATOM     21  H   LIG d   1     -10.716  77.340 119.500  0.00  0.00    -0.090 HD
ENDBRANCH   5  18
BRANCH   3  22
ATOM     22  C   LIG d   1      -8.535  72.987 116.706  0.00  0.00     0.382 C 
ATOM     23  O   LIG d   1      -9.478  72.251 117.085  0.00  0.00    -0.241 OA
ATOM     24  O   LIG d   1      -7.581  72.488 116.079  0.00  0.00    -0.241 OA
ENDBRANCH   3  22
TORSDOF 7
ENDMDL
MODEL 3
REMARK VINA RESULT:      -5.7      3.596      5.883
REMARK  7 active torsions:
REMARK  status: ('A' for Active; 'I' for Inactive)
REMARK    1  A    between atoms: C_2  and  C_3 
REMARK    2  A    between atoms: C_3  and  O_6 
REMARK    3  A    between atoms: C_3  and  C_4 
REMARK    4  A    between atoms: C_7  and  O_6 
REMARK    5  A    between atoms: C_9  and  C_10 
REMARK    6  A    between atoms: N_15  and  C_14 
REMARK    7  A    between atoms: N_20  and  C_19 
REMARK       I    between atoms: C_22  and  N_20 
ROOT
ATOM      1  C   LIG d   1      -2.799  77.789 116.335  0.00  0.00     0.161 C 
ATOM      2  C   LIG d   1      -3.025  78.694 115.284  0.00  0.00     0.016 C 
ATOM      3  C   LIG d   1      -2.285  78.688 114.079  0.00  0.00     0.038 C 
ATOM      4  C   LIG d   1      -1.363  77.674 113.780  0.00  0.00     0.028 C 
ATOM      5  C   LIG d   1      -0.743  77.035 115.018  0.00  0.00    -0.047 C 
ATOM      6  C   LIG d   1      -1.873  76.606 115.982  0.00  0.00     0.091 C 
ENDROOT
BRANCH   1   7
ATOM      7  O   LIG d   1      -4.058  77.306 116.843  0.00  0.00    -0.368 OA
BRANCH   7   8
ATOM      8  C   LIG d   1      -5.170  78.232 116.776  0.00  0.00     0.119 C 
BRANCH   8   9
ATOM      9  C   LIG d   1      -5.093  79.138 118.021  0.00  0.00     0.028 C 
ATOM     10  C   LIG d   1      -6.187  80.219 118.028  0.00  0.00     0.006 C 
ENDBRANCH   8   9
BRANCH   8  11
ATOM     11  C   LIG d   1      -6.511  77.502 116.889  0.00  0.00     0.028 C 
ATOM     12  C   LIG d   1      -6.532  76.172 116.119  0.00  0.00     0.006 C 
ENDBRANCH   8  11
ENDBRANCH   7   8
ENDBRANCH   1   7
BRANCH   6  13
ATOM     13  N   LIG d   1      -1.351  76.048 117.256  0.00  0.00    -0.311 N 
ATOM     14  C   LIG d   1      -1.146  74.748 117.458  0.00  0.00     0.210 C 
ATOM     15  C   LIG d   1      -0.621  74.384 118.850  0.00  0.00     0.109 C 
ATOM     16  O   LIG d   1      -1.318  73.864 116.604  0.00  0.00    -0.276 OA
ATOM     17  H   LIG d   1      -1.154  76.698 117.992  0.00  0.00     0.149 HD
ENDBRANCH   6  13
BRANCH   5  18
ATOM     18  N   LIG d   1       0.091  75.905 114.566  0.00  0.00     0.381 N 
ATOM     19  H   LIG d   1       0.331  76.026 113.603  0.00  0.00    -0.090 HD
ATOM     20  H   LIG d   1      -0.437  75.055 114.656  0.00  0.00    -0.090 HD
ATOM     21  H   LIG d   1       0.919  75.850 115.118  0.00  0.00    -0.090 HD
ENDBRANCH   5  18
BRANCH   3  22
ATOM     22  C   LIG d   1      -2.436  79.728 113.175  0.00  0.00     0.382 C 
ATOM     23  O   LIG d   1      -1.641  79.841 112.211  0.00  0.00    -0.241 OA
ATOM     24  O   LIG d   1      -3.329  80.581 113.337  0.00  0.00    -0.241 OA
ENDBRANCH   3  22
TORSDOF 7
ENDMDL
MODEL 4
REMARK VINA RESULT:      -5.7      1.787      2.339
REMARK  7 active torsions:
REMARK  status: ('A' for Active; 'I' for Inactive)
REMARK    1  A    between atoms: C_2  and  C_3 
REMARK    2  A    between atoms: C_3  and  O_6 
REMARK    3  A    between atoms: C_3  and  C_4 
REMARK    4  A    between atoms: C_7  and  O_6 
REMARK    5  A    between atoms: C_9  and  C_10 
REMARK    6  A    between atoms: N_15  and  C_14 
REMARK    7  A    between atoms: N_20  and  C_19 
REMARK       I    between atoms: C_22  and  N_20 
ROOT
ATOM      1  C   LIG d   1      -6.878  77.330 117.178  0.00  0.00     0.161 C 
ATOM      2  C   LIG d   1      -6.449  76.687 116.005  0.00  0.00     0.016 C 
ATOM      3  C   LIG d   1      -5.131  76.782 115.504  0.00  0.00     0.038 C 
ATOM      4  C   LIG d   1      -4.105  77.406 116.229  0.00  0.00     0.028 C 
ATOM      5  C   LIG d   1      -4.606  78.497 117.169  0.00  0.00    -0.047 C 
ATOM      6  C   LIG d   1      -5.746  77.924 118.041  0.00  0.00     0.091 C 
ENDROOT
BRANCH   1   7
ATOM      7  O   LIG d   1      -7.685  76.428 117.962  0.00  0.00    -0.368 OA
BRANCH   7   8
ATOM      8  C   LIG d   1      -9.117  76.641 117.904  0.00  0.00     0.119 C 
BRANCH   8   9
ATOM      9  C   LIG d   1      -9.573  77.104 119.302  0.00  0.00     0.028 C 
ATOM     10  C   LIG d   1     -11.095  76.989 119.491  0.00  0.00     0.006 C 
ENDBRANCH   8   9
BRANCH   8  11
ATOM     11  C   LIG d   1      -9.865  75.329 117.648  0.00  0.00     0.028 C 
ATOM     12  C   LIG d   1      -8.934  74.188 117.209  0.00  0.00     0.006 C 
ENDBRANCH   8  11
ENDBRANCH   7   8
ENDBRANCH   1   7
BRANCH   6  13
ATOM     13  N   LIG d   1      -6.349  78.950 118.931  0.00  0.00    -0.311 N 
ATOM     14  C   LIG d   1      -6.691  80.169 118.518  0.00  0.00     0.210 C 
ATOM     15  C   LIG d   1      -7.279  81.078 119.602  0.00  0.00     0.109 C 
ATOM     16  O   LIG d   1      -6.592  80.574 117.350  0.00  0.00    -0.276 OA
ATOM     17  H   LIG d   1      -6.493  78.696 119.889  0.00  0.00     0.149 HD
ENDBRANCH   6  13
BRANCH   5  18
ATOM     18  N   LIG d   1      -3.453  78.967 117.960  0.00  0.00     0.381 N 
ATOM     19  H   LIG d   1      -2.707  79.232 117.348  0.00  0.00    -0.090 HD
ATOM     20  H   LIG d   1      -3.130  78.215 118.543  0.00  0.00    -0.090 HD
ATOM     21  H   LIG d   1      -3.720  79.743 118.525  0.00  0.00    -0.090 HD
ENDBRANCH   5  18
BRANCH   3  22
ATOM     22  C   LIG d   1      -4.837  76.281 114.245  0.00  0.00     0.382 C 
ATOM     23  O   LIG d   1      -4.324  77.028 113.377  0.00  0.00    -0.241 OA
ATOM     24  O   LIG d   1      -5.118  75.103 113.951  0.00  0.00    -0.241 OA
ENDBRANCH   3  22
TORSDOF 7
ENDMDL
MODEL 5
REMARK VINA RESULT:      -5.0     13.947     16.137
REMARK  7 active torsions:
REMARK  status: ('A' for Active; 'I' for Inactive)
REMARK    1  A    between atoms: C_2  and  C_3 
REMARK    2  A    between atoms: C_3  and  O_6 
REMARK    3  A    between atoms: C_3  and  C_4 
REMARK    4  A    between atoms: C_7  and  O_6 
REMARK    5  A    between atoms: C_9  and  C_10 
REMARK    6  A    between atoms: N_15  and  C_14 
REMARK    7  A    between atoms: N_20  and  C_19 
REMARK       I    between atoms: C_22  and  N_20 
ROOT
ATOM      1  C   LIG d   1      -4.521  91.319 117.753  0.00  0.00     0.161 C 
ATOM      2  C   LIG d   1      -5.409  90.566 116.968  0.00  0.00     0.016 C 
ATOM      3  C   LIG d   1      -6.626  91.078 116.462  0.00  0.00     0.038 C 
ATOM      4  C   LIG d   1      -6.967  92.434 116.581  0.00  0.00     0.028 C 
ATOM      5  C   LIG d   1      -6.342  93.111 117.796  0.00  0.00    -0.047 C 
ATOM      6  C   LIG d   1      -4.822  92.832 117.800  0.00  0.00     0.091 C 
ENDROOT
BRANCH   1   7
ATOM      7  O   LIG d   1      -3.167  91.091 117.313  0.00  0.00    -0.368 OA
BRANCH   7   8
ATOM      8  C   LIG d   1      -2.256  90.558 118.306  0.00  0.00     0.119 C 
BRANCH   8   9
ATOM      9  C   LIG d   1      -0.822  90.796 117.793  0.00  0.00     0.028 C 
ATOM     10  C   LIG d   1      -0.050  91.809 118.654  0.00  0.00     0.006 C 
ENDBRANCH   8   9
BRANCH   8  11
ATOM     11  C   LIG d   1      -2.395  89.038 118.431  0.00  0.00     0.028 C 
ATOM     12  C   LIG d   1      -1.150  88.283 117.939  0.00  0.00     0.006 C 
ENDBRANCH   8  11
ENDBRANCH   7   8
ENDBRANCH   1   7
BRANCH   6  13
ATOM     13  N   LIG d   1      -4.146  93.388 119.001  0.00  0.00    -0.311 N 
ATOM     14  C   LIG d   1      -3.015  94.088 118.948  0.00  0.00     0.210 C 
ATOM     15  C   LIG d   1      -2.476  94.552 120.305  0.00  0.00     0.109 C 
ATOM     16  O   LIG d   1      -2.423  94.397 117.903  0.00  0.00    -0.276 OA
ATOM     17  H   LIG d   1      -4.575  93.211 119.888  0.00  0.00     0.149 HD
ENDBRANCH   6  13
BRANCH   5  18
ATOM     18  N   LIG d   1      -6.666  94.548 117.722  0.00  0.00     0.381 N 
ATOM     19  H   LIG d   1      -7.455  94.686 117.122  0.00  0.00    -0.090 HD
ATOM     20  H   LIG d   1      -5.881  95.038 117.329  0.00  0.00    -0.090 HD
ATOM     21  H   LIG d   1      -6.866  94.900 118.632  0.00  0.00    -0.090 HD
ENDBRANCH   5  18
BRANCH   3  22
ATOM     22  C   LIG d   1      -7.536  90.221 115.862  0.00  0.00     0.382 C 
ATOM     23  O   LIG d   1      -7.714  90.264 114.621  0.00  0.00    -0.241 OA
ATOM     24  O   LIG d   1      -8.213  89.435 116.552  0.00  0.00    -0.241 OA
ENDBRANCH   3  22
TORSDOF 7
ENDMDL
MODEL 6
REMARK VINA RESULT:      -4.9     15.280     17.557
REMARK  7 active torsions:
REMARK  status: ('A' for Active; 'I' for Inactive)
REMARK    1  A    between atoms: C_2  and  C_3 
REMARK    2  A    between atoms: C_3  and  O_6 
REMARK    3  A    between atoms: C_3  and  C_4 
REMARK    4  A    between atoms: C_7  and  O_6 
REMARK    5  A    between atoms: C_9  and  C_10 
REMARK    6  A    between atoms: N_15  and  C_14 
REMARK    7  A    between atoms: N_20  and  C_19 
REMARK       I    between atoms: C_22  and  N_20 
ROOT
ATOM      1  C   LIG d   1      -5.026  92.828 117.928  0.00  0.00     0.161 C 
ATOM      2  C   LIG d   1      -5.239  91.663 117.172  0.00  0.00     0.016 C 
ATOM      3  C   LIG d   1      -6.473  91.350 116.557  0.00  0.00     0.038 C 
ATOM      4  C   LIG d   1      -7.541  92.259 116.531  0.00  0.00     0.028 C 
ATOM      5  C   LIG d   1      -7.540  93.228 117.709  0.00  0.00    -0.047 C 
ATOM      6  C   LIG d   1      -6.144  93.885 117.818  0.00  0.00     0.091 C 
ENDROOT
BRANCH   1   7
ATOM      7  O   LIG d   1      -3.752  93.408 117.583  0.00  0.00    -0.368 OA
BRANCH   7   8
ATOM      8  C   LIG d   1      -2.897  93.775 118.693  0.00  0.00     0.119 C 
BRANCH   8   9
ATOM      9  C   LIG d   1      -2.258  95.136 118.355  0.00  0.00     0.028 C 
ATOM     10  C   LIG d   1      -2.635  96.229 119.369  0.00  0.00     0.006 C 
ENDBRANCH   8   9
BRANCH   8  11
ATOM     11  C   LIG d   1      -1.724  92.801 118.838  0.00  0.00     0.028 C 
ATOM     12  C   LIG d   1      -1.561  91.878 117.620  0.00  0.00     0.006 C 
ENDBRANCH   8  11
ENDBRANCH   7   8
ENDBRANCH   1   7
BRANCH   6  13
ATOM     13  N   LIG d   1      -6.031  94.784 118.996  0.00  0.00    -0.311 N 
ATOM     14  C   LIG d   1      -6.442  96.051 118.993  0.00  0.00     0.210 C 
ATOM     15  C   LIG d   1      -6.214  96.808 120.305  0.00  0.00     0.109 C 
ATOM     16  O   LIG d   1      -7.002  96.611 118.038  0.00  0.00    -0.276 OA
ATOM     17  H   LIG d   1      -5.617  94.402 119.823  0.00  0.00     0.149 HD
ENDBRANCH   6  13
BRANCH   5  18
ATOM     18  N   LIG d   1      -8.622  94.205 117.484  0.00  0.00     0.381 N 
ATOM     19  H   LIG d   1      -8.604  94.902 118.201  0.00  0.00    -0.090 HD
ATOM     20  H   LIG d   1      -9.505  93.727 117.530  0.00  0.00    -0.090 HD
ATOM     21  H   LIG d   1      -8.514  94.634 116.591  0.00  0.00    -0.090 HD
ENDBRANCH   5  18
BRANCH   3  22
ATOM     22  C   LIG d   1      -6.662  90.097 115.994  0.00  0.00     0.382 C 
ATOM     23  O   LIG d   1      -7.759  89.505 116.134  0.00  0.00    -0.241 OA
ATOM     24  O   LIG d   1      -5.733  89.532 115.385  0.00  0.00    -0.241 OA
ENDBRANCH   3  22
TORSDOF 7
ENDMDL
MODEL 7
REMARK VINA RESULT:      -4.8     14.840     17.178
REMARK  7 active torsions:
REMARK  status: ('A' for Active; 'I' for Inactive)
REMARK    1  A    between atoms: C_2  and  C_3 
REMARK    2  A    between atoms: C_3  and  O_6 
REMARK    3  A    between atoms: C_3  and  C_4 
REMARK    4  A    between atoms: C_7  and  O_6 
REMARK    5  A    between atoms: C_9  and  C_10 
REMARK    6  A    between atoms: N_15  and  C_14 
REMARK    7  A    between atoms: N_20  and  C_19 
REMARK       I    between atoms: C_22  and  N_20 
ROOT
ATOM      1  C   LIG d   1      -5.418  92.637 118.157  0.00  0.00     0.161 C 
ATOM      2  C   LIG d   1      -4.914  93.805 118.753  0.00  0.00     0.016 C 
ATOM      3  C   LIG d   1      -5.687  94.972 118.954  0.00  0.00     0.038 C 
ATOM      4  C   LIG d   1      -7.067  94.999 118.708  0.00  0.00     0.028 C 
ATOM      5  C   LIG d   1      -7.511  94.008 117.636  0.00  0.00    -0.047 C 
ATOM      6  C   LIG d   1      -6.951  92.610 117.983  0.00  0.00     0.091 C 
ENDROOT
BRANCH   1   7
ATOM      7  O   LIG d   1      -4.977  91.481 118.896  0.00  0.00    -0.368 OA
BRANCH   7   8
ATOM      8  C   LIG d   1      -4.131  90.550 118.178  0.00  0.00     0.119 C 
BRANCH   8   9
ATOM      9  C   LIG d   1      -3.086  90.010 119.173  0.00  0.00     0.028 C 
ATOM     10  C   LIG d   1      -2.830  88.504 118.997  0.00  0.00     0.006 C 
ENDBRANCH   8   9
BRANCH   8  11
ATOM     11  C   LIG d   1      -3.324  91.258 117.086  0.00  0.00     0.028 C 
ATOM     12  C   LIG d   1      -1.948  91.734 117.577  0.00  0.00     0.006 C 
ENDBRANCH   8  11
ENDBRANCH   7   8
ENDBRANCH   1   7
BRANCH   6  13
ATOM     13  N   LIG d   1      -7.267  91.598 116.941  0.00  0.00    -0.311 N 
ATOM     14  C   LIG d   1      -6.839  91.683 115.683  0.00  0.00     0.210 C 
ATOM     15  C   LIG d   1      -7.296  90.544 114.766  0.00  0.00     0.109 C 
ATOM     16  O   LIG d   1      -6.097  92.576 115.247  0.00  0.00    -0.276 OA
ATOM     17  H   LIG d   1      -7.839  90.823 117.216  0.00  0.00     0.149 HD
ENDBRANCH   6  13
BRANCH   5  18
ATOM     18  N   LIG d   1      -8.984  94.044 117.578  0.00  0.00     0.381 N 
ATOM     19  H   LIG d   1      -9.361  93.248 118.054  0.00  0.00    -0.090 HD
ATOM     20  H   LIG d   1      -9.273  94.002 116.617  0.00  0.00    -0.090 HD
ATOM     21  H   LIG d   1      -9.322  94.881 117.999  0.00  0.00    -0.090 HD
ENDBRANCH   5  18
BRANCH   3  22
ATOM     22  C   LIG d   1      -5.069  96.142 119.370  0.00  0.00     0.382 C 
ATOM     23  O   LIG d   1      -5.615  97.250 119.151  0.00  0.00    -0.241 OA
ATOM     24  O   LIG d   1      -3.953  96.106 119.921  0.00  0.00    -0.241 OA
ENDBRANCH   3  22
TORSDOF 7
ENDMDL
MODEL 8
REMARK VINA RESULT:      -4.8     15.499     17.850
REMARK  7 active torsions:
REMARK  status: ('A' for Active; 'I' for Inactive)
REMARK    1  A    between atoms: C_2  and  C_3 
REMARK    2  A    between atoms: C_3  and  O_6 
REMARK    3  A    between atoms: C_3  and  C_4 
REMARK    4  A    between atoms: C_7  and  O_6 
REMARK    5  A    between atoms: C_9  and  C_10 
REMARK    6  A    between atoms: N_15  and  C_14 
REMARK    7  A    between atoms: N_20  and  C_19 
REMARK       I    between atoms: C_22  and  N_20 
ROOT
ATOM      1  C   LIG d   1      -6.413  93.032 118.870  0.00  0.00     0.161 C 
ATOM      2  C   LIG d   1      -7.670  93.651 118.764  0.00  0.00     0.016 C 
ATOM      3  C   LIG d   1      -7.848  95.053 118.743  0.00  0.00     0.038 C 
ATOM      4  C   LIG d   1      -6.761  95.937 118.674  0.00  0.00     0.028 C 
ATOM      5  C   LIG d   1      -5.483  95.376 119.288  0.00  0.00    -0.047 C 
ATOM      6  C   LIG d   1      -5.209  93.979 118.685  0.00  0.00     0.091 C 
ENDROOT
BRANCH   1   7
ATOM      7  O   LIG d   1      -6.331  91.930 117.945  0.00  0.00    -0.368 OA
BRANCH   7   8
ATOM      8  C   LIG d   1      -5.721  92.218 116.663  0.00  0.00     0.119 C 
BRANCH   8   9
ATOM      9  C   LIG d   1      -6.832  92.151 115.597  0.00  0.00     0.028 C 
ATOM     10  C   LIG d   1      -7.080  90.717 115.097  0.00  0.00     0.006 C 
ENDBRANCH   8   9
BRANCH   8  11
ATOM     11  C   LIG d   1      -4.714  91.134 116.268  0.00  0.00     0.028 C 
ATOM     12  C   LIG d   1      -4.225  90.310 117.469  0.00  0.00     0.006 C 
ENDBRANCH   8  11
ENDBRANCH   7   8
ENDBRANCH   1   7
BRANCH   6  13
ATOM     13  N   LIG d   1      -4.022  93.322 119.293  0.00  0.00    -0.311 N 
ATOM     14  C   LIG d   1      -2.803  93.370 118.758  0.00  0.00     0.210 C 
ATOM     15  C   LIG d   1      -1.726  92.609 119.535  0.00  0.00     0.109 C 
ATOM     16  O   LIG d   1      -2.506  93.998 117.730  0.00  0.00    -0.276 OA
ATOM     17  H   LIG d   1      -4.167  92.817 120.145  0.00  0.00     0.149 HD
ENDBRANCH   6  13
BRANCH   5  18
ATOM     18  N   LIG d   1      -4.401  96.342 119.026  0.00  0.00     0.381 N 
ATOM     19  H   LIG d   1      -4.091  96.255 118.078  0.00  0.00    -0.090 HD
ATOM     20  H   LIG d   1      -3.626  96.135 119.631  0.00  0.00    -0.090 HD
ATOM     21  H   LIG d   1      -4.723  97.270 119.193  0.00  0.00    -0.090 HD
ENDBRANCH   5  18
BRANCH   3  22
ATOM     22  C   LIG d   1      -9.126  95.585 118.831  0.00  0.00     0.382 C 
ATOM     23  O   LIG d   1      -9.315  96.804 118.600  0.00  0.00    -0.241 OA
ATOM     24  O   LIG d   1     -10.084  94.871 119.181  0.00  0.00    -0.241 OA
ENDBRANCH   3  22
TORSDOF 7
ENDMDL
MODEL 9
REMARK VINA RESULT:      -4.6     16.670     18.935
REMARK  7 active torsions:
REMARK  status: ('A' for Active; 'I' for Inactive)
REMARK    1  A    between atoms: C_2  and  C_3 
REMARK    2  A    between atoms: C_3  and  O_6 
REMARK    3  A    between atoms: C_3  and  C_4 
REMARK    4  A    between atoms: C_7  and  O_6 
REMARK    5  A    between atoms: C_9  and  C_10 
REMARK    6  A    between atoms: N_15  and  C_14 
REMARK    7  A    between atoms: N_20  and  C_19 
REMARK       I    between atoms: C_22  and  N_20 
ROOT
ATOM      1  C   LIG d   1     -23.748  82.893 114.959  0.00  0.00     0.161 C 
ATOM      2  C   LIG d   1     -23.017  84.092 114.907  0.00  0.00     0.016 C 
ATOM      3  C   LIG d   1     -23.417  85.215 114.147  0.00  0.00     0.038 C 
ATOM      4  C   LIG d   1     -24.662  85.269 113.502  0.00  0.00     0.028 C 
ATOM      5  C   LIG d   1     -25.202  83.897 113.113  0.00  0.00    -0.047 C 
ATOM      6  C   LIG d   1     -25.164  82.972 114.351  0.00  0.00     0.091 C 
ENDROOT
BRANCH   1   7
ATOM      7  O   LIG d   1     -23.812  82.418 116.318  0.00  0.00    -0.368 OA
BRANCH   7   8
ATOM      8  C   LIG d   1     -22.821  81.431 116.695  0.00  0.00     0.119 C 
BRANCH   8   9
ATOM      9  C   LIG d   1     -23.538  80.071 116.796  0.00  0.00     0.028 C 
ATOM     10  C   LIG d   1     -23.294  79.185 115.563  0.00  0.00     0.006 C 
ENDBRANCH   8   9
BRANCH   8  11
ATOM     11  C   LIG d   1     -22.269  81.703 118.098  0.00  0.00     0.028 C 
ATOM     12  C   LIG d   1     -21.004  80.887 118.409  0.00  0.00     0.006 C 
ENDBRANCH   8  11
ENDBRANCH   7   8
ENDBRANCH   1   7
BRANCH   6  13
ATOM     13  N   LIG d   1     -25.597  81.586 114.037  0.00  0.00    -0.311 N 
ATOM     14  C   LIG d   1     -26.532  80.936 114.727  0.00  0.00     0.210 C 
ATOM     15  C   LIG d   1     -26.814  79.508 114.249  0.00  0.00     0.109 C 
ATOM     16  O   LIG d   1     -27.179  81.418 115.670  0.00  0.00    -0.276 OA
ATOM     17  H   LIG d   1     -25.146  81.130 113.268  0.00  0.00     0.149 HD
ENDBRANCH   6  13
BRANCH   5  18
ATOM     18  N   LIG d   1     -26.562  84.089 112.576  0.00  0.00     0.381 N 
ATOM     19  H   LIG d   1     -27.177  84.383 113.309  0.00  0.00    -0.090 HD
ATOM     20  H   LIG d   1     -26.897  83.213 112.216  0.00  0.00    -0.090 HD
ATOM     21  H   LIG d   1     -26.549  84.772 111.851  0.00  0.00    -0.090 HD
ENDBRANCH   5  18
BRANCH   3  22
ATOM     22  C   LIG d   1     -22.549  86.285 113.993  0.00  0.00     0.382 C 
ATOM     23  O   LIG d   1     -22.752  87.352 114.621  0.00  0.00    -0.241 OA
ATOM     24  O   LIG d   1     -21.591  86.213 113.201  0.00  0.00    -0.241 OA
ENDBRANCH   3  22
TORSDOF 7
ENDMDL
