MODEL 1
REMARK VINA RESULT:      -6.0      0.000      0.000
REMARK  7 active torsions:
REMARK  status: ('A' for Active; 'I' for Inactive)
REMARK    1  A    between atoms: C_2  and  C_3 
REMARK    2  A    between atoms: C_3  and  O_6 
REMARK    3  A    between atoms: C_3  and  C_4 
REMARK    4  A    between atoms: C_7  and  O_6 
REMARK    5  A    between atoms: C_9  and  C_10 
REMARK    6  A    between atoms: N_15  and  C_14 
REMARK    7  A    between atoms: N_20  and  C_19 
REMARK       I    between atoms: C_22  and  N_20 
ROOT
ATOM      1  C   LIG d   1      -7.048  75.536 116.588  0.00  0.00     0.161 C 
ATOM      2  C   LIG d   1      -5.883  75.343 115.828  0.00  0.00     0.016 C 
ATOM      3  C   LIG d   1      -4.848  76.302 115.733  0.00  0.00     0.038 C 
ATOM      4  C   LIG d   1      -4.840  77.464 116.518  0.00  0.00     0.028 C 
ATOM      5  C   LIG d   1      -6.235  77.936 116.916  0.00  0.00    -0.047 C 
ATOM      6  C   LIG d   1      -7.007  76.750 117.539  0.00  0.00     0.091 C 
ENDROOT
BRANCH   1   7
ATOM      7  O   LIG d   1      -7.357  74.335 117.323  0.00  0.00    -0.368 OA
BRANCH   7   8
ATOM      8  C   LIG d   1      -8.442  73.529 116.800  0.00  0.00     0.119 C 
BRANCH   8   9
ATOM      9  C   LIG d   1      -9.611  73.622 117.801  0.00  0.00     0.028 C 
ATOM     10  C   LIG d   1     -10.725  74.564 117.316  0.00  0.00     0.006 C 
ENDBRANCH   8   9
BRANCH   8  11
ATOM     11  C   LIG d   1      -8.064  72.046 116.755  0.00  0.00     0.028 C 
ATOM     12  C   LIG d   1      -9.225  71.122 117.155  0.00  0.00     0.006 C 
ENDBRANCH   8  11
ENDBRANCH   7   8
ENDBRANCH   1   7
BRANCH   6  13
ATOM     13  N   LIG d   1      -8.410  77.103 117.880  0.00  0.00    -0.311 N 
ATOM     14  C   LIG d   1      -8.797  77.473 119.099  0.00  0.00     0.210 C 
ATOM     15  C   LIG d   1     -10.293  77.774 119.239  0.00  0.00     0.109 C 
ATOM     16  O   LIG d   1      -8.039  77.612 120.071  0.00  0.00    -0.276 OA
ATOM     17  H   LIG d   1      -9.085  77.048 117.143  0.00  0.00     0.149 HD
ENDBRANCH   6  13
BRANCH   5  18
ATOM     18  N   LIG d   1      -6.074  79.072 117.843  0.00  0.00     0.381 N 
ATOM     19  H   LIG d   1      -5.581  79.814 117.387  0.00  0.00    -0.090 HD
ATOM     20  H   LIG d   1      -5.531  78.772 118.634  0.00  0.00    -0.090 HD
ATOM     21  H   LIG d   1      -6.966  79.393 118.147  0.00  0.00    -0.090 HD
ENDBRANCH   5  18
BRANCH   3  22
ATOM     22  C   LIG d   1      -3.825  76.120 114.815  0.00  0.00     0.382 C 
ATOM     23  O   LIG d   1      -3.900  76.650 113.680  0.00  0.00    -0.241 OA
ATOM     24  O   LIG d   1      -2.850  75.397 115.091  0.00  0.00    -0.241 OA
ENDBRANCH   3  22
TORSDOF 7
ENDMDL
MODEL 2
REMARK VINA RESULT:      -5.7     14.932     17.441
REMARK  7 active torsions:
REMARK  status: ('A' for Active; 'I' for Inactive)
REMARK    1  A    between atoms: C_2  and  C_3 
REMARK    2  A    between atoms: C_3  and  O_6 
REMARK    3  A    between atoms: C_3  and  C_4 
REMARK    4  A    between atoms: C_7  and  O_6 
REMARK    5  A    between atoms: C_9  and  C_10 
REMARK    6  A    between atoms: N_15  and  C_14 
REMARK    7  A    between atoms: N_20  and  C_19 
REMARK       I    between atoms: C_22  and  N_20 
ROOT
ATOM      1  C   LIG d   1      -5.482  92.873 117.139  0.00  0.00     0.161 C 
ATOM      2  C   LIG d   1      -6.426  91.901 116.769  0.00  0.00     0.016 C 
ATOM      3  C   LIG d   1      -6.101  90.541 116.560  0.00  0.00     0.038 C 
ATOM      4  C   LIG d   1      -4.829  90.028 116.855  0.00  0.00     0.028 C 
ATOM      5  C   LIG d   1      -3.718  91.067 116.746  0.00  0.00    -0.047 C 
ATOM      6  C   LIG d   1      -4.112  92.312 117.574  0.00  0.00     0.091 C 
ENDROOT
BRANCH   1   7
ATOM      7  O   LIG d   1      -6.028  93.716 118.173  0.00  0.00    -0.368 OA
BRANCH   7   8
ATOM      8  C   LIG d   1      -7.458  93.944 118.120  0.00  0.00     0.119 C 
BRANCH   8   9
ATOM      9  C   LIG d   1      -7.681  95.463 117.988  0.00  0.00     0.028 C 
ATOM     10  C   LIG d   1      -6.415  96.272 118.314  0.00  0.00     0.006 C 
ENDBRANCH   8   9
BRANCH   8  11
ATOM     11  C   LIG d   1      -8.134  93.548 119.437  0.00  0.00     0.028 C 
ATOM     12  C   LIG d   1      -7.257  92.632 120.305  0.00  0.00     0.006 C 
ENDBRANCH   8  11
ENDBRANCH   7   8
ENDBRANCH   1   7
BRANCH   6  13
ATOM     13  N   LIG d   1      -3.118  93.410 117.454  0.00  0.00    -0.311 N 
ATOM     14  C   LIG d   1      -2.506  93.962 118.501  0.00  0.00     0.210 C 
ATOM     15  C   LIG d   1      -1.532  95.093 118.157  0.00  0.00     0.109 C 
ATOM     16  O   LIG d   1      -2.653  93.601 119.678  0.00  0.00    -0.276 OA
ATOM     17  H   LIG d   1      -2.915  93.743 116.532  0.00  0.00     0.149 HD
ENDBRANCH   6  13
BRANCH   5  18
ATOM     18  N   LIG d   1      -2.470  90.434 117.213  0.00  0.00     0.381 N 
ATOM     19  H   LIG d   1      -1.981  90.036 116.436  0.00  0.00    -0.090 HD
ATOM     20  H   LIG d   1      -2.700  89.695 117.853  0.00  0.00    -0.090 HD
ATOM     21  H   LIG d   1      -1.894  91.109 117.666  0.00  0.00    -0.090 HD
ENDBRANCH   5  18
BRANCH   3  22
ATOM     22  C   LIG d   1      -7.045  89.686 116.011  0.00  0.00     0.382 C 
ATOM     23  O   LIG d   1      -7.679  90.028 114.983  0.00  0.00    -0.241 OA
ATOM     24  O   LIG d   1      -7.302  88.596 116.556  0.00  0.00    -0.241 OA
ENDBRANCH   3  22
TORSDOF 7
ENDMDL
MODEL 3
REMARK VINA RESULT:      -5.6      1.703      5.092
REMARK  7 active torsions:
REMARK  status: ('A' for Active; 'I' for Inactive)
REMARK    1  A    between atoms: C_2  and  C_3 
REMARK    2  A    between atoms: C_3  and  O_6 
REMARK    3  A    between atoms: C_3  and  C_4 
REMARK    4  A    between atoms: C_7  and  O_6 
REMARK    5  A    between atoms: C_9  and  C_10 
REMARK    6  A    between atoms: N_15  and  C_14 
REMARK    7  A    between atoms: N_20  and  C_19 
REMARK       I    between atoms: C_22  and  N_20 
ROOT
ATOM      1  C   LIG d   1      -8.232  76.049 117.980  0.00  0.00     0.161 C 
ATOM      2  C   LIG d   1      -9.417  76.549 118.544  0.00  0.00     0.016 C 
ATOM      3  C   LIG d   1      -9.662  77.927 118.746  0.00  0.00     0.038 C 
ATOM      4  C   LIG d   1      -8.794  78.914 118.255  0.00  0.00     0.028 C 
ATOM      5  C   LIG d   1      -7.349  78.442 118.130  0.00  0.00    -0.047 C 
ATOM      6  C   LIG d   1      -7.321  77.116 117.336  0.00  0.00     0.091 C 
ENDROOT
BRANCH   1   7
ATOM      7  O   LIG d   1      -8.543  75.015 117.025  0.00  0.00    -0.368 OA
BRANCH   7   8
ATOM      8  C   LIG d   1      -8.291  73.654 117.454  0.00  0.00     0.119 C 
BRANCH   8   9
ATOM      9  C   LIG d   1      -7.291  73.033 116.460  0.00  0.00     0.028 C 
ATOM     10  C   LIG d   1      -7.410  71.502 116.388  0.00  0.00     0.006 C 
ENDBRANCH   8   9
BRANCH   8  11
ATOM     11  C   LIG d   1      -9.554  72.794 117.350  0.00  0.00     0.028 C 
ATOM     12  C   LIG d   1     -10.824  73.626 117.111  0.00  0.00     0.006 C 
ENDBRANCH   8  11
ENDBRANCH   7   8
ENDBRANCH   1   7
BRANCH   6  13
ATOM     13  N   LIG d   1      -5.954  76.542 117.240  0.00  0.00    -0.311 N 
ATOM     14  C   LIG d   1      -5.390  76.179 116.089  0.00  0.00     0.210 C 
ATOM     15  C   LIG d   1      -3.982  75.590 116.216  0.00  0.00     0.109 C 
ATOM     16  O   LIG d   1      -5.911  76.318 114.972  0.00  0.00    -0.276 OA
ATOM     17  H   LIG d   1      -5.448  76.423 118.096  0.00  0.00     0.149 HD
ENDBRANCH   6  13
BRANCH   5  18
ATOM     18  N   LIG d   1      -6.583  79.522 117.479  0.00  0.00     0.381 N 
ATOM     19  H   LIG d   1      -6.111  80.067 118.172  0.00  0.00    -0.090 HD
ATOM     20  H   LIG d   1      -7.221  80.121 116.986  0.00  0.00    -0.090 HD
ATOM     21  H   LIG d   1      -5.921  79.134 116.843  0.00  0.00    -0.090 HD
ENDBRANCH   5  18
BRANCH   3  22
ATOM     22  C   LIG d   1     -10.766  78.328 119.482  0.00  0.00     0.382 C 
ATOM     23  O   LIG d   1     -11.773  77.583 119.558  0.00  0.00    -0.241 OA
ATOM     24  O   LIG d   1     -10.787  79.445 120.033  0.00  0.00    -0.241 OA
ENDBRANCH   3  22
TORSDOF 7
ENDMDL
MODEL 4
REMARK VINA RESULT:      -5.4      2.037      5.151
REMARK  7 active torsions:
REMARK  status: ('A' for Active; 'I' for Inactive)
REMARK    1  A    between atoms: C_2  and  C_3 
REMARK    2  A    between atoms: C_3  and  O_6 
REMARK    3  A    between atoms: C_3  and  C_4 
REMARK    4  A    between atoms: C_7  and  O_6 
REMARK    5  A    between atoms: C_9  and  C_10 
REMARK    6  A    between atoms: N_15  and  C_14 
REMARK    7  A    between atoms: N_20  and  C_19 
REMARK       I    between atoms: C_22  and  N_20 
ROOT
ATOM      1  C   LIG d   1      -6.559  76.622 117.270  0.00  0.00     0.161 C 
ATOM      2  C   LIG d   1      -6.835  75.296 116.895  0.00  0.00     0.016 C 
ATOM      3  C   LIG d   1      -8.062  74.650 117.170  0.00  0.00     0.038 C 
ATOM      4  C   LIG d   1      -9.159  75.339 117.707  0.00  0.00     0.028 C 
ATOM      5  C   LIG d   1      -8.762  76.538 118.562  0.00  0.00    -0.047 C 
ATOM      6  C   LIG d   1      -7.783  77.424 117.759  0.00  0.00     0.091 C 
ENDROOT
BRANCH   1   7
ATOM      7  O   LIG d   1      -5.909  77.311 116.184  0.00  0.00    -0.368 OA
BRANCH   7   8
ATOM      8  C   LIG d   1      -4.498  77.591 116.361  0.00  0.00     0.119 C 
BRANCH   8   9
ATOM      9  C   LIG d   1      -3.716  76.611 115.465  0.00  0.00     0.028 C 
ATOM     10  C   LIG d   1      -3.081  75.463 116.267  0.00  0.00     0.006 C 
ENDBRANCH   8   9
BRANCH   8  11
ATOM     11  C   LIG d   1      -4.044  77.285 117.791  0.00  0.00     0.028 C 
ATOM     12  C   LIG d   1      -3.635  78.546 118.569  0.00  0.00     0.006 C 
ENDBRANCH   8  11
ENDBRANCH   7   8
ENDBRANCH   1   7
BRANCH   6  13
ATOM     13  N   LIG d   1      -7.279  78.575 118.552  0.00  0.00    -0.311 N 
ATOM     14  C   LIG d   1      -7.437  79.845 118.184  0.00  0.00     0.210 C 
ATOM     15  C   LIG d   1      -6.823  80.876 119.136  0.00  0.00     0.109 C 
ATOM     16  O   LIG d   1      -8.055  80.217 117.175  0.00  0.00    -0.276 OA
ATOM     17  H   LIG d   1      -6.792  78.365 119.402  0.00  0.00     0.149 HD
ENDBRANCH   6  13
BRANCH   5  18
ATOM     18  N   LIG d   1     -10.000  77.243 118.944  0.00  0.00     0.381 N 
ATOM     19  H   LIG d   1     -10.505  77.510 118.123  0.00  0.00    -0.090 HD
ATOM     20  H   LIG d   1      -9.756  78.076 119.450  0.00  0.00    -0.090 HD
ATOM     21  H   LIG d   1     -10.566  76.653 119.514  0.00  0.00    -0.090 HD
ENDBRANCH   5  18
BRANCH   3  22
ATOM     22  C   LIG d   1      -8.187  73.288 116.941  0.00  0.00     0.382 C 
ATOM     23  O   LIG d   1      -7.252  72.655 116.396  0.00  0.00    -0.241 OA
ATOM     24  O   LIG d   1      -9.242  72.692 117.234  0.00  0.00    -0.241 OA
ENDBRANCH   3  22
TORSDOF 7
ENDMDL
MODEL 5
REMARK VINA RESULT:      -5.4      2.540      6.363
REMARK  7 active torsions:
REMARK  status: ('A' for Active; 'I' for Inactive)
REMARK    1  A    between atoms: C_2  and  C_3 
REMARK    2  A    between atoms: C_3  and  O_6 
REMARK    3  A    between atoms: C_3  and  C_4 
REMARK    4  A    between atoms: C_7  and  O_6 
REMARK    5  A    between atoms: C_9  and  C_10 
REMARK    6  A    between atoms: N_15  and  C_14 
REMARK    7  A    between atoms: N_20  and  C_19 
REMARK       I    between atoms: C_22  and  N_20 
ROOT
ATOM      1  C   LIG d   1      -6.871  76.789 117.488  0.00  0.00     0.161 C 
ATOM      2  C   LIG d   1      -8.234  76.716 117.818  0.00  0.00     0.016 C 
ATOM      3  C   LIG d   1      -9.008  75.542 117.675  0.00  0.00     0.038 C 
ATOM      4  C   LIG d   1      -8.431  74.310 117.332  0.00  0.00     0.028 C 
ATOM      5  C   LIG d   1      -7.158  74.448 116.503  0.00  0.00    -0.047 C 
ATOM      6  C   LIG d   1      -6.198  75.427 117.217  0.00  0.00     0.091 C 
ENDROOT
BRANCH   1   7
ATOM      7  O   LIG d   1      -6.157  77.505 118.514  0.00  0.00    -0.368 OA
BRANCH   7   8
ATOM      8  C   LIG d   1      -5.695  78.833 118.162  0.00  0.00     0.119 C 
BRANCH   8   9
ATOM      9  C   LIG d   1      -4.332  79.046 118.849  0.00  0.00     0.028 C 
ATOM     10  C   LIG d   1      -3.653  77.721 119.230  0.00  0.00     0.006 C 
ENDBRANCH   8   9
BRANCH   8  11
ATOM     11  C   LIG d   1      -6.614  79.914 118.738  0.00  0.00     0.028 C 
ATOM     12  C   LIG d   1      -7.628  80.443 117.711  0.00  0.00     0.006 C 
ENDBRANCH   8  11
ENDBRANCH   7   8
ENDBRANCH   1   7
BRANCH   6  13
ATOM     13  N   LIG d   1      -4.963  75.684 116.431  0.00  0.00    -0.311 N 
ATOM     14  C   LIG d   1      -3.821  75.025 116.623  0.00  0.00     0.210 C 
ATOM     15  C   LIG d   1      -2.664  75.459 115.719  0.00  0.00     0.109 C 
ATOM     16  O   LIG d   1      -3.667  74.099 117.434  0.00  0.00    -0.276 OA
ATOM     17  H   LIG d   1      -5.008  76.397 115.730  0.00  0.00     0.149 HD
ENDBRANCH   6  13
BRANCH   5  18
ATOM     18  N   LIG d   1      -6.588  73.099 116.334  0.00  0.00     0.381 N 
ATOM     19  H   LIG d   1      -7.029  72.639 115.563  0.00  0.00    -0.090 HD
ATOM     20  H   LIG d   1      -6.768  72.563 117.165  0.00  0.00    -0.090 HD
ATOM     21  H   LIG d   1      -5.606  73.160 116.176  0.00  0.00    -0.090 HD
ENDBRANCH   5  18
BRANCH   3  22
ATOM     22  C   LIG d   1     -10.384  75.602 117.838  0.00  0.00     0.382 C 
ATOM     23  O   LIG d   1     -11.103  74.648 117.453  0.00  0.00    -0.241 OA
ATOM     24  O   LIG d   1     -10.919  76.615 118.325  0.00  0.00    -0.241 OA
ENDBRANCH   3  22
TORSDOF 7
ENDMDL
MODEL 6
REMARK VINA RESULT:      -5.2     13.963     16.461
REMARK  7 active torsions:
REMARK  status: ('A' for Active; 'I' for Inactive)
REMARK    1  A    between atoms: C_2  and  C_3 
REMARK    2  A    between atoms: C_3  and  O_6 
REMARK    3  A    between atoms: C_3  and  C_4 
REMARK    4  A    between atoms: C_7  and  O_6 
REMARK    5  A    between atoms: C_9  and  C_10 
REMARK    6  A    between atoms: N_15  and  C_14 
REMARK    7  A    between atoms: N_20  and  C_19 
REMARK       I    between atoms: C_22  and  N_20 
ROOT
ATOM      1  C   LIG d   1      -3.815  90.867 117.644  0.00  0.00     0.161 C 
ATOM      2  C   LIG d   1      -4.747  90.112 116.912  0.00  0.00     0.016 C 
ATOM      3  C   LIG d   1      -5.969  90.636 116.432  0.00  0.00     0.038 C 
ATOM      4  C   LIG d   1      -6.276  92.002 116.522  0.00  0.00     0.028 C 
ATOM      5  C   LIG d   1      -5.595  92.700 117.694  0.00  0.00    -0.047 C 
ATOM      6  C   LIG d   1      -4.082  92.387 117.655  0.00  0.00     0.091 C 
ENDROOT
BRANCH   1   7
ATOM      7  O   LIG d   1      -2.483  90.596 117.166  0.00  0.00    -0.368 OA
BRANCH   7   8
ATOM      8  C   LIG d   1      -1.600  89.917 118.092  0.00  0.00     0.119 C 
BRANCH   8   9
ATOM      9  C   LIG d   1      -0.250  90.661 118.075  0.00  0.00     0.028 C 
ATOM     10  C   LIG d   1       0.529  90.435 116.769  0.00  0.00     0.006 C 
ENDBRANCH   8   9
BRANCH   8  11
ATOM     11  C   LIG d   1      -1.284  88.494 117.619  0.00  0.00     0.028 C 
ATOM     12  C   LIG d   1      -2.319  87.464 118.098  0.00  0.00     0.006 C 
ENDBRANCH   8  11
ENDBRANCH   7   8
ENDBRANCH   1   7
BRANCH   6  13
ATOM     13  N   LIG d   1      -3.354  92.962 118.816  0.00  0.00    -0.311 N 
ATOM     14  C   LIG d   1      -2.269  93.725 118.695  0.00  0.00     0.210 C 
ATOM     15  C   LIG d   1      -1.661  94.199 120.020  0.00  0.00     0.109 C 
ATOM     16  O   LIG d   1      -1.770  94.081 117.617  0.00  0.00    -0.276 OA
ATOM     17  H   LIG d   1      -3.708  92.750 119.728  0.00  0.00     0.149 HD
ENDBRANCH   6  13
BRANCH   5  18
ATOM     18  N   LIG d   1      -5.890  94.141 117.587  0.00  0.00     0.381 N 
ATOM     19  H   LIG d   1      -5.325  94.550 116.871  0.00  0.00    -0.090 HD
ATOM     20  H   LIG d   1      -5.664  94.585 118.460  0.00  0.00    -0.090 HD
ATOM     21  H   LIG d   1      -6.855  94.277 117.378  0.00  0.00    -0.090 HD
ENDBRANCH   5  18
BRANCH   3  22
ATOM     22  C   LIG d   1      -6.917  89.782 115.889  0.00  0.00     0.382 C 
ATOM     23  O   LIG d   1      -7.593  90.146 114.897  0.00  0.00    -0.241 OA
ATOM     24  O   LIG d   1      -7.136  88.671 116.407  0.00  0.00    -0.241 OA
ENDBRANCH   3  22
TORSDOF 7
ENDMDL
MODEL 7
REMARK VINA RESULT:      -5.0      2.116      4.725
REMARK  7 active torsions:
REMARK  status: ('A' for Active; 'I' for Inactive)
REMARK    1  A    between atoms: C_2  and  C_3 
REMARK    2  A    between atoms: C_3  and  O_6 
REMARK    3  A    between atoms: C_3  and  C_4 
REMARK    4  A    between atoms: C_7  and  O_6 
REMARK    5  A    between atoms: C_9  and  C_10 
REMARK    6  A    between atoms: N_15  and  C_14 
REMARK    7  A    between atoms: N_20  and  C_19 
REMARK       I    between atoms: C_22  and  N_20 
ROOT
ATOM      1  C   LIG d   1      -7.385  76.918 117.745  0.00  0.00     0.161 C 
ATOM      2  C   LIG d   1      -8.435  77.839 117.899  0.00  0.00     0.016 C 
ATOM      3  C   LIG d   1      -8.256  79.142 118.417  0.00  0.00     0.038 C 
ATOM      4  C   LIG d   1      -6.982  79.668 118.678  0.00  0.00     0.028 C 
ATOM      5  C   LIG d   1      -5.944  78.603 119.015  0.00  0.00    -0.047 C 
ATOM      6  C   LIG d   1      -5.972  77.512 117.920  0.00  0.00     0.091 C 
ENDROOT
BRANCH   1   7
ATOM      7  O   LIG d   1      -7.497  76.258 116.469  0.00  0.00    -0.368 OA
BRANCH   7   8
ATOM      8  C   LIG d   1      -8.080  74.932 116.485  0.00  0.00     0.119 C 
BRANCH   8   9
ATOM      9  C   LIG d   1      -8.869  74.789 117.802  0.00  0.00     0.028 C 
ATOM     10  C   LIG d   1     -10.379  74.619 117.566  0.00  0.00     0.006 C 
ENDBRANCH   8   9
BRANCH   8  11
ATOM     11  C   LIG d   1      -7.000  73.848 116.540  0.00  0.00     0.028 C 
ATOM     12  C   LIG d   1      -7.583  72.429 116.628  0.00  0.00     0.006 C 
ENDBRANCH   8  11
ENDBRANCH   7   8
ENDBRANCH   1   7
BRANCH   6  13
ATOM     13  N   LIG d   1      -5.046  76.388 118.217  0.00  0.00    -0.311 N 
ATOM     14  C   LIG d   1      -4.097  75.979 117.376  0.00  0.00     0.210 C 
ATOM     15  C   LIG d   1      -3.265  74.791 117.869  0.00  0.00     0.109 C 
ATOM     16  O   LIG d   1      -3.845  76.507 116.283  0.00  0.00    -0.276 OA
ATOM     17  H   LIG d   1      -5.159  75.923 119.096  0.00  0.00     0.149 HD
ENDBRANCH   6  13
BRANCH   5  18
ATOM     18  N   LIG d   1      -4.636  79.275 119.128  0.00  0.00     0.381 N 
ATOM     19  H   LIG d   1      -4.143  78.925 119.925  0.00  0.00    -0.090 HD
ATOM     20  H   LIG d   1      -4.787  80.260 119.257  0.00  0.00    -0.090 HD
ATOM     21  H   LIG d   1      -4.100  79.120 118.302  0.00  0.00    -0.090 HD
ENDBRANCH   5  18
BRANCH   3  22
ATOM     22  C   LIG d   1      -9.364  79.920 118.717  0.00  0.00     0.382 C 
ATOM     23  O   LIG d   1     -10.506  79.554 118.348  0.00  0.00    -0.241 OA
ATOM     24  O   LIG d   1      -9.231  81.006 119.313  0.00  0.00    -0.241 OA
ENDBRANCH   3  22
TORSDOF 7
ENDMDL
MODEL 8
REMARK VINA RESULT:      -4.9      2.902      5.355
REMARK  7 active torsions:
REMARK  status: ('A' for Active; 'I' for Inactive)
REMARK    1  A    between atoms: C_2  and  C_3 
REMARK    2  A    between atoms: C_3  and  O_6 
REMARK    3  A    between atoms: C_3  and  C_4 
REMARK    4  A    between atoms: C_7  and  O_6 
REMARK    5  A    between atoms: C_9  and  C_10 
REMARK    6  A    between atoms: N_15  and  C_14 
REMARK    7  A    between atoms: N_20  and  C_19 
REMARK       I    between atoms: C_22  and  N_20 
ROOT
ATOM      1  C   LIG d   1      -7.230  78.148 118.228  0.00  0.00     0.161 C 
ATOM      2  C   LIG d   1      -8.343  78.952 117.932  0.00  0.00     0.016 C 
ATOM      3  C   LIG d   1      -8.430  80.319 118.282  0.00  0.00     0.038 C 
ATOM      4  C   LIG d   1      -7.339  81.017 118.823  0.00  0.00     0.028 C 
ATOM      5  C   LIG d   1      -6.376  80.127 119.600  0.00  0.00    -0.047 C 
ATOM      6  C   LIG d   1      -5.986  78.919 118.718  0.00  0.00     0.091 C 
ENDROOT
BRANCH   1   7
ATOM      7  O   LIG d   1      -6.897  77.334 117.086  0.00  0.00    -0.368 OA
BRANCH   7   8
ATOM      8  C   LIG d   1      -7.049  75.903 117.256  0.00  0.00     0.119 C 
BRANCH   8   9
ATOM      9  C   LIG d   1      -5.921  75.220 116.460  0.00  0.00     0.028 C 
ATOM     10  C   LIG d   1      -6.103  75.367 114.940  0.00  0.00     0.006 C 
ENDBRANCH   8   9
BRANCH   8  11
ATOM     11  C   LIG d   1      -8.352  75.403 116.625  0.00  0.00     0.028 C 
ATOM     12  C   LIG d   1      -9.354  74.877 117.665  0.00  0.00     0.006 C 
ENDBRANCH   8  11
ENDBRANCH   7   8
ENDBRANCH   1   7
BRANCH   6  13
ATOM     13  N   LIG d   1      -5.112  77.953 119.433  0.00  0.00    -0.311 N 
ATOM     14  C   LIG d   1      -3.950  77.518 118.948  0.00  0.00     0.210 C 
ATOM     15  C   LIG d   1      -3.215  76.510 119.837  0.00  0.00     0.109 C 
ATOM     16  O   LIG d   1      -3.443  77.896 117.881  0.00  0.00    -0.276 OA
ATOM     17  H   LIG d   1      -5.432  77.619 120.321  0.00  0.00     0.149 HD
ENDBRANCH   6  13
BRANCH   5  18
ATOM     18  N   LIG d   1      -5.219  80.955 119.989  0.00  0.00     0.381 N 
ATOM     19  H   LIG d   1      -5.524  81.884 120.203  0.00  0.00    -0.090 HD
ATOM     20  H   LIG d   1      -4.579  81.003 119.216  0.00  0.00    -0.090 HD
ATOM     21  H   LIG d   1      -4.765  80.557 120.781  0.00  0.00    -0.090 HD
ENDBRANCH   5  18
BRANCH   3  22
ATOM     22  C   LIG d   1      -9.632  80.993 118.129  0.00  0.00     0.382 C 
ATOM     23  O   LIG d   1     -10.690  80.349 117.927  0.00  0.00    -0.241 OA
ATOM     24  O   LIG d   1      -9.665  82.238 118.146  0.00  0.00    -0.241 OA
ENDBRANCH   3  22
TORSDOF 7
ENDMDL
MODEL 9
REMARK VINA RESULT:      -4.8      2.539      6.465
REMARK  7 active torsions:
REMARK  status: ('A' for Active; 'I' for Inactive)
REMARK    1  A    between atoms: C_2  and  C_3 
REMARK    2  A    between atoms: C_3  and  O_6 
REMARK    3  A    between atoms: C_3  and  C_4 
REMARK    4  A    between atoms: C_7  and  O_6 
REMARK    5  A    between atoms: C_9  and  C_10 
REMARK    6  A    between atoms: N_15  and  C_14 
REMARK    7  A    between atoms: N_20  and  C_19 
REMARK       I    between atoms: C_22  and  N_20 
ROOT
ATOM      1  C   LIG d   1      -7.313  78.057 117.509  0.00  0.00     0.161 C 
ATOM      2  C   LIG d   1      -8.432  78.387 118.291  0.00  0.00     0.016 C 
ATOM      3  C   LIG d   1      -9.443  77.459 118.633  0.00  0.00     0.038 C 
ATOM      4  C   LIG d   1      -9.324  76.092 118.340  0.00  0.00     0.028 C 
ATOM      5  C   LIG d   1      -8.459  75.807 117.118  0.00  0.00    -0.047 C 
ATOM      6  C   LIG d   1      -7.110  76.545 117.275  0.00  0.00     0.091 C 
ENDROOT
BRANCH   1   7
ATOM      7  O   LIG d   1      -6.126  78.638 118.085  0.00  0.00    -0.368 OA
BRANCH   7   8
ATOM      8  C   LIG d   1      -6.202  78.981 119.491  0.00  0.00     0.119 C 
BRANCH   8   9
ATOM      9  C   LIG d   1      -5.849  80.475 119.623  0.00  0.00     0.028 C 
ATOM     10  C   LIG d   1      -4.398  80.696 120.083  0.00  0.00     0.006 C 
ENDBRANCH   8   9
BRANCH   8  11
ATOM     11  C   LIG d   1      -5.138  78.238 120.304  0.00  0.00     0.028 C 
ATOM     12  C   LIG d   1      -4.511  77.065 119.534  0.00  0.00     0.006 C 
ENDBRANCH   8  11
ENDBRANCH   7   8
ENDBRANCH   1   7
BRANCH   6  13
ATOM     13  N   LIG d   1      -6.236  76.388 116.083  0.00  0.00    -0.311 N 
ATOM     14  C   LIG d   1      -5.299  75.447 115.980  0.00  0.00     0.210 C 
ATOM     15  C   LIG d   1      -4.496  75.474 114.676  0.00  0.00     0.109 C 
ATOM     16  O   LIG d   1      -5.079  74.572 116.831  0.00  0.00    -0.276 OA
ATOM     17  H   LIG d   1      -6.368  77.037 115.332  0.00  0.00     0.149 HD
ENDBRANCH   6  13
BRANCH   5  18
ATOM     18  N   LIG d   1      -8.308  74.344 117.010  0.00  0.00     0.381 N 
ATOM     19  H   LIG d   1      -7.442  74.061 117.423  0.00  0.00    -0.090 HD
ATOM     20  H   LIG d   1      -8.291  74.089 116.038  0.00  0.00    -0.090 HD
ATOM     21  H   LIG d   1      -9.067  73.888 117.466  0.00  0.00    -0.090 HD
ENDBRANCH   5  18
BRANCH   3  22
ATOM     22  C   LIG d   1     -10.607  77.904 119.240  0.00  0.00     0.382 C 
ATOM     23  O   LIG d   1     -11.668  77.244 119.122  0.00  0.00    -0.241 OA
ATOM     24  O   LIG d   1     -10.621  78.980 119.868  0.00  0.00    -0.241 OA
ENDBRANCH   3  22
TORSDOF 7
ENDMDL
