MODEL 1
REMARK VINA RESULT:      -6.1      0.000      0.000
REMARK  7 active torsions:
REMARK  status: ('A' for Active; 'I' for Inactive)
REMARK    1  A    between atoms: C_2  and  C_3 
REMARK    2  A    between atoms: C_3  and  O_6 
REMARK    3  A    between atoms: C_3  and  C_4 
REMARK    4  A    between atoms: C_7  and  O_6 
REMARK    5  A    between atoms: C_9  and  C_10 
REMARK    6  A    between atoms: N_15  and  C_14 
REMARK    7  A    between atoms: N_20  and  C_19 
REMARK       I    between atoms: C_22  and  N_20 
ROOT
ATOM      1  C   LIG d   1      -8.318  74.628 117.647  0.00  0.00     0.161 C 
ATOM      2  C   LIG d   1      -7.942  73.415 117.045  0.00  0.00     0.016 C 
ATOM      3  C   LIG d   1      -8.752  72.256 117.058  0.00  0.00     0.038 C 
ATOM      4  C   LIG d   1     -10.066  72.275 117.549  0.00  0.00     0.028 C 
ATOM      5  C   LIG d   1     -10.298  73.337 118.618  0.00  0.00    -0.047 C 
ATOM      6  C   LIG d   1      -9.794  74.700 118.090  0.00  0.00     0.091 C 
ENDROOT
BRANCH   1   7
ATOM      7  O   LIG d   1      -8.003  75.727 116.770  0.00  0.00    -0.368 OA
BRANCH   7   8
ATOM      8  C   LIG d   1      -6.595  75.982 116.547  0.00  0.00     0.119 C 
BRANCH   8   9
ATOM      9  C   LIG d   1      -6.318  77.442 116.955  0.00  0.00     0.028 C 
ATOM     10  C   LIG d   1      -7.464  78.048 117.782  0.00  0.00     0.006 C 
ENDBRANCH   8   9
BRANCH   8  11
ATOM     11  C   LIG d   1      -6.243  75.903 115.058  0.00  0.00     0.028 C 
ATOM     12  C   LIG d   1      -5.815  74.493 114.621  0.00  0.00     0.006 C 
ENDBRANCH   8  11
ENDBRANCH   7   8
ENDBRANCH   1   7
BRANCH   6  13
ATOM     13  N   LIG d   1      -9.907  75.779 119.106  0.00  0.00    -0.311 N 
ATOM     14  C   LIG d   1     -10.959  76.591 119.199  0.00  0.00     0.210 C 
ATOM     15  C   LIG d   1     -10.864  77.647 120.304  0.00  0.00     0.109 C 
ATOM     16  O   LIG d   1     -11.975  76.516 118.492  0.00  0.00    -0.276 OA
ATOM     17  H   LIG d   1      -9.141  75.889 119.740  0.00  0.00     0.149 HD
ENDBRANCH   6  13
BRANCH   5  18
ATOM     18  N   LIG d   1     -11.738  73.339 118.939  0.00  0.00     0.381 N 
ATOM     19  H   LIG d   1     -12.134  72.446 118.722  0.00  0.00    -0.090 HD
ATOM     20  H   LIG d   1     -12.196  74.033 118.376  0.00  0.00    -0.090 HD
ATOM     21  H   LIG d   1     -11.872  73.543 119.905  0.00  0.00    -0.090 HD
ENDBRANCH   5  18
BRANCH   3  22
ATOM     22  C   LIG d   1      -8.232  71.050 116.614  0.00  0.00     0.382 C 
ATOM     23  O   LIG d   1      -8.719  69.968 117.023  0.00  0.00    -0.241 OA
ATOM     24  O   LIG d   1      -7.254  71.029 115.843  0.00  0.00    -0.241 OA
ENDBRANCH   3  22
TORSDOF 7
ENDMDL
MODEL 2
REMARK VINA RESULT:      -5.6      2.023      4.513
REMARK  7 active torsions:
REMARK  status: ('A' for Active; 'I' for Inactive)
REMARK    1  A    between atoms: C_2  and  C_3 
REMARK    2  A    between atoms: C_3  and  O_6 
REMARK    3  A    between atoms: C_3  and  C_4 
REMARK    4  A    between atoms: C_7  and  O_6 
REMARK    5  A    between atoms: C_9  and  C_10 
REMARK    6  A    between atoms: N_15  and  C_14 
REMARK    7  A    between atoms: N_20  and  C_19 
REMARK       I    between atoms: C_22  and  N_20 
ROOT
ATOM      1  C   LIG d   1      -8.738  74.482 118.095  0.00  0.00     0.161 C 
ATOM      2  C   LIG d   1      -8.609  73.155 117.655  0.00  0.00     0.016 C 
ATOM      3  C   LIG d   1      -7.675  72.747 116.674  0.00  0.00     0.038 C 
ATOM      4  C   LIG d   1      -6.697  73.620 116.174  0.00  0.00     0.028 C 
ATOM      5  C   LIG d   1      -7.115  75.086 116.216  0.00  0.00    -0.047 C 
ATOM      6  C   LIG d   1      -7.605  75.427 117.642  0.00  0.00     0.091 C 
ENDROOT
BRANCH   1   7
ATOM      7  O   LIG d   1      -8.869  74.510 119.530  0.00  0.00    -0.368 OA
BRANCH   7   8
ATOM      8  C   LIG d   1     -10.212  74.690 120.044  0.00  0.00     0.119 C 
BRANCH   8   9
ATOM      9  C   LIG d   1     -10.799  73.289 120.304  0.00  0.00     0.028 C 
ATOM     10  C   LIG d   1     -12.113  73.053 119.540  0.00  0.00     0.006 C 
ENDBRANCH   8   9
BRANCH   8  11
ATOM     11  C   LIG d   1     -11.129  75.326 118.996  0.00  0.00     0.028 C 
ATOM     12  C   LIG d   1     -11.401  76.814 119.266  0.00  0.00     0.006 C 
ENDBRANCH   8  11
ENDBRANCH   7   8
ENDBRANCH   1   7
BRANCH   6  13
ATOM     13  N   LIG d   1      -8.111  76.820 117.749  0.00  0.00    -0.311 N 
ATOM     14  C   LIG d   1      -7.361  77.843 118.156  0.00  0.00     0.210 C 
ATOM     15  C   LIG d   1      -8.085  79.192 118.213  0.00  0.00     0.109 C 
ATOM     16  O   LIG d   1      -6.157  77.767 118.444  0.00  0.00    -0.276 OA
ATOM     17  H   LIG d   1      -9.069  76.977 117.505  0.00  0.00     0.149 HD
ENDBRANCH   6  13
BRANCH   5  18
ATOM     18  N   LIG d   1      -5.953  75.892 115.795  0.00  0.00     0.381 N 
ATOM     19  H   LIG d   1      -5.344  76.041 116.575  0.00  0.00    -0.090 HD
ATOM     20  H   LIG d   1      -6.278  76.787 115.473  0.00  0.00    -0.090 HD
ATOM     21  H   LIG d   1      -5.461  75.426 115.065  0.00  0.00    -0.090 HD
ENDBRANCH   5  18
BRANCH   3  22
ATOM     22  C   LIG d   1      -7.740  71.463 116.155  0.00  0.00     0.382 C 
ATOM     23  O   LIG d   1      -6.852  71.060 115.365  0.00  0.00    -0.241 OA
ATOM     24  O   LIG d   1      -8.700  70.718 116.431  0.00  0.00    -0.241 OA
ENDBRANCH   3  22
TORSDOF 7
ENDMDL
MODEL 3
REMARK VINA RESULT:      -5.4      2.127      4.623
REMARK  7 active torsions:
REMARK  status: ('A' for Active; 'I' for Inactive)
REMARK    1  A    between atoms: C_2  and  C_3 
REMARK    2  A    between atoms: C_3  and  O_6 
REMARK    3  A    between atoms: C_3  and  C_4 
REMARK    4  A    between atoms: C_7  and  O_6 
REMARK    5  A    between atoms: C_9  and  C_10 
REMARK    6  A    between atoms: N_15  and  C_14 
REMARK    7  A    between atoms: N_20  and  C_19 
REMARK       I    between atoms: C_22  and  N_20 
ROOT
ATOM      1  C   LIG d   1      -8.839  74.413 118.067  0.00  0.00     0.161 C 
ATOM      2  C   LIG d   1     -10.152  73.965 118.291  0.00  0.00     0.016 C 
ATOM      3  C   LIG d   1     -11.216  74.824 118.649  0.00  0.00     0.038 C 
ATOM      4  C   LIG d   1     -11.071  76.219 118.662  0.00  0.00     0.028 C 
ATOM      5  C   LIG d   1      -9.643  76.677 118.936  0.00  0.00    -0.047 C 
ATOM      6  C   LIG d   1      -8.686  75.945 117.967  0.00  0.00     0.091 C 
ENDROOT
BRANCH   1   7
ATOM      7  O   LIG d   1      -8.300  73.778 116.891  0.00  0.00    -0.368 OA
BRANCH   7   8
ATOM      8  C   LIG d   1      -7.298  72.757 117.120  0.00  0.00     0.119 C 
BRANCH   8   9
ATOM      9  C   LIG d   1      -5.963  73.283 116.559  0.00  0.00     0.028 C 
ATOM     10  C   LIG d   1      -6.071  73.701 115.083  0.00  0.00     0.006 C 
ENDBRANCH   8   9
BRANCH   8  11
ATOM     11  C   LIG d   1      -7.602  71.487 116.319  0.00  0.00     0.028 C 
ATOM     12  C   LIG d   1      -8.993  70.908 116.625  0.00  0.00     0.006 C 
ENDBRANCH   8  11
ENDBRANCH   7   8
ENDBRANCH   1   7
BRANCH   6  13
ATOM     13  N   LIG d   1      -7.260  76.273 118.224  0.00  0.00    -0.311 N 
ATOM     14  C   LIG d   1      -6.427  76.712 117.282  0.00  0.00     0.210 C 
ATOM     15  C   LIG d   1      -4.993  76.970 117.755  0.00  0.00     0.109 C 
ATOM     16  O   LIG d   1      -6.748  76.942 116.106  0.00  0.00    -0.276 OA
ATOM     17  H   LIG d   1      -6.923  76.144 119.158  0.00  0.00     0.149 HD
ENDBRANCH   6  13
BRANCH   5  18
ATOM     18  N   LIG d   1      -9.609  78.144 118.784  0.00  0.00     0.381 N 
ATOM     19  H   LIG d   1      -9.487  78.575 119.678  0.00  0.00    -0.090 HD
ATOM     20  H   LIG d   1     -10.485  78.452 118.402  0.00  0.00    -0.090 HD
ATOM     21  H   LIG d   1      -8.863  78.407 118.177  0.00  0.00    -0.090 HD
ENDBRANCH   5  18
BRANCH   3  22
ATOM     22  C   LIG d   1     -12.432  74.284 119.040  0.00  0.00     0.382 C 
ATOM     23  O   LIG d   1     -12.473  73.147 119.568  0.00  0.00    -0.241 OA
ATOM     24  O   LIG d   1     -13.494  74.901 118.830  0.00  0.00    -0.241 OA
ENDBRANCH   3  22
TORSDOF 7
ENDMDL
MODEL 4
REMARK VINA RESULT:      -5.3      2.553      6.254
REMARK  7 active torsions:
REMARK  status: ('A' for Active; 'I' for Inactive)
REMARK    1  A    between atoms: C_2  and  C_3 
REMARK    2  A    between atoms: C_3  and  O_6 
REMARK    3  A    between atoms: C_3  and  C_4 
REMARK    4  A    between atoms: C_7  and  O_6 
REMARK    5  A    between atoms: C_9  and  C_10 
REMARK    6  A    between atoms: N_15  and  C_14 
REMARK    7  A    between atoms: N_20  and  C_19 
REMARK       I    between atoms: C_22  and  N_20 
ROOT
ATOM      1  C   LIG d   1      -7.906  74.972 118.316  0.00  0.00     0.161 C 
ATOM      2  C   LIG d   1      -9.053  75.769 118.472  0.00  0.00     0.016 C 
ATOM      3  C   LIG d   1      -9.033  77.181 118.412  0.00  0.00     0.038 C 
ATOM      4  C   LIG d   1      -7.882  77.891 118.038  0.00  0.00     0.028 C 
ATOM      5  C   LIG d   1      -6.585  77.159 118.366  0.00  0.00    -0.047 C 
ATOM      6  C   LIG d   1      -6.662  75.724 117.797  0.00  0.00     0.091 C 
ENDROOT
BRANCH   1   7
ATOM      7  O   LIG d   1      -8.204  73.849 117.463  0.00  0.00    -0.368 OA
BRANCH   7   8
ATOM      8  C   LIG d   1      -8.748  72.677 118.120  0.00  0.00     0.119 C 
BRANCH   8   9
ATOM      9  C   LIG d   1      -8.098  71.440 117.472  0.00  0.00     0.028 C 
ATOM     10  C   LIG d   1      -7.320  71.788 116.192  0.00  0.00     0.006 C 
ENDBRANCH   8   9
BRANCH   8  11
ATOM     11  C   LIG d   1     -10.249  72.534 117.850  0.00  0.00     0.028 C 
ATOM     12  C   LIG d   1     -11.099  72.673 119.123  0.00  0.00     0.006 C 
ENDBRANCH   8  11
ENDBRANCH   7   8
ENDBRANCH   1   7
BRANCH   6  13
ATOM     13  N   LIG d   1      -5.468  74.911 118.146  0.00  0.00    -0.311 N 
ATOM     14  C   LIG d   1      -4.690  74.323 117.239  0.00  0.00     0.210 C 
ATOM     15  C   LIG d   1      -3.522  73.516 117.814  0.00  0.00     0.109 C 
ATOM     16  O   LIG d   1      -4.838  74.421 116.011  0.00  0.00    -0.276 OA
ATOM     17  H   LIG d   1      -5.256  74.805 119.119  0.00  0.00     0.149 HD
ENDBRANCH   6  13
BRANCH   5  18
ATOM     18  N   LIG d   1      -5.473  77.946 117.800  0.00  0.00     0.381 N 
ATOM     19  H   LIG d   1      -4.601  77.512 118.027  0.00  0.00    -0.090 HD
ATOM     20  H   LIG d   1      -5.484  78.864 118.209  0.00  0.00    -0.090 HD
ATOM     21  H   LIG d   1      -5.572  78.014 116.811  0.00  0.00    -0.090 HD
ENDBRANCH   5  18
BRANCH   3  22
ATOM     22  C   LIG d   1     -10.164  77.900 118.766  0.00  0.00     0.382 C 
ATOM     23  O   LIG d   1     -10.134  79.154 118.771  0.00  0.00    -0.241 OA
ATOM     24  O   LIG d   1     -11.201  77.310 119.125  0.00  0.00    -0.241 OA
ENDBRANCH   3  22
TORSDOF 7
ENDMDL
MODEL 5
REMARK VINA RESULT:      -5.3      2.567      5.895
REMARK  7 active torsions:
REMARK  status: ('A' for Active; 'I' for Inactive)
REMARK    1  A    between atoms: C_2  and  C_3 
REMARK    2  A    between atoms: C_3  and  O_6 
REMARK    3  A    between atoms: C_3  and  C_4 
REMARK    4  A    between atoms: C_7  and  O_6 
REMARK    5  A    between atoms: C_9  and  C_10 
REMARK    6  A    between atoms: N_15  and  C_14 
REMARK    7  A    between atoms: N_20  and  C_19 
REMARK       I    between atoms: C_22  and  N_20 
ROOT
ATOM      1  C   LIG d   1      -7.991  74.554 118.922  0.00  0.00     0.161 C 
ATOM      2  C   LIG d   1      -9.177  75.291 119.076  0.00  0.00     0.016 C 
ATOM      3  C   LIG d   1      -9.386  76.561 118.492  0.00  0.00     0.038 C 
ATOM      4  C   LIG d   1      -8.473  77.118 117.584  0.00  0.00     0.028 C 
ATOM      5  C   LIG d   1      -7.040  76.641 117.795  0.00  0.00    -0.047 C 
ATOM      6  C   LIG d   1      -7.029  75.096 117.844  0.00  0.00     0.091 C 
ENDROOT
BRANCH   1   7
ATOM      7  O   LIG d   1      -8.305  73.171 118.664  0.00  0.00    -0.368 OA
BRANCH   7   8
ATOM      8  C   LIG d   1      -9.540  72.920 117.948  0.00  0.00     0.119 C 
BRANCH   8   9
ATOM      9  C   LIG d   1     -10.482  72.161 118.903  0.00  0.00     0.028 C 
ATOM     10  C   LIG d   1     -11.723  72.986 119.282  0.00  0.00     0.006 C 
ENDBRANCH   8   9
BRANCH   8  11
ATOM     11  C   LIG d   1      -9.315  71.976 116.763  0.00  0.00     0.028 C 
ATOM     12  C   LIG d   1      -7.827  71.756 116.450  0.00  0.00     0.006 C 
ENDBRANCH   8  11
ENDBRANCH   7   8
ENDBRANCH   1   7
BRANCH   6  13
ATOM     13  N   LIG d   1      -5.678  74.548 118.132  0.00  0.00    -0.311 N 
ATOM     14  C   LIG d   1      -4.832  74.147 117.184  0.00  0.00     0.210 C 
ATOM     15  C   LIG d   1      -3.498  73.596 117.698  0.00  0.00     0.109 C 
ATOM     16  O   LIG d   1      -5.047  74.226 115.965  0.00  0.00    -0.276 OA
ATOM     17  H   LIG d   1      -5.409  74.478 119.094  0.00  0.00     0.149 HD
ENDBRANCH   6  13
BRANCH   5  18
ATOM     18  N   LIG d   1      -6.221  77.190 116.698  0.00  0.00     0.381 N 
ATOM     19  H   LIG d   1      -5.775  76.444 116.202  0.00  0.00    -0.090 HD
ATOM     20  H   LIG d   1      -5.509  77.781 117.088  0.00  0.00    -0.090 HD
ATOM     21  H   LIG d   1      -6.794  77.716 116.075  0.00  0.00    -0.090 HD
ENDBRANCH   5  18
BRANCH   3  22
ATOM     22  C   LIG d   1     -10.500  77.307 118.847  0.00  0.00     0.382 C 
ATOM     23  O   LIG d   1     -11.631  76.765 118.884  0.00  0.00    -0.241 OA
ATOM     24  O   LIG d   1     -10.395  78.524 119.088  0.00  0.00    -0.241 OA
ENDBRANCH   3  22
TORSDOF 7
ENDMDL
MODEL 6
REMARK VINA RESULT:      -5.1      2.201      3.760
REMARK  7 active torsions:
REMARK  status: ('A' for Active; 'I' for Inactive)
REMARK    1  A    between atoms: C_2  and  C_3 
REMARK    2  A    between atoms: C_3  and  O_6 
REMARK    3  A    between atoms: C_3  and  C_4 
REMARK    4  A    between atoms: C_7  and  O_6 
REMARK    5  A    between atoms: C_9  and  C_10 
REMARK    6  A    between atoms: N_15  and  C_14 
REMARK    7  A    between atoms: N_20  and  C_19 
REMARK       I    between atoms: C_22  and  N_20 
ROOT
ATOM      1  C   LIG d   1      -7.742  74.563 118.923  0.00  0.00     0.161 C 
ATOM      2  C   LIG d   1      -6.531  74.707 118.226  0.00  0.00     0.016 C 
ATOM      3  C   LIG d   1      -6.216  73.983 117.053  0.00  0.00     0.038 C 
ATOM      4  C   LIG d   1      -7.161  73.171 116.408  0.00  0.00     0.028 C 
ATOM      5  C   LIG d   1      -8.219  72.606 117.350  0.00  0.00    -0.047 C 
ATOM      6  C   LIG d   1      -8.828  73.765 118.172  0.00  0.00     0.091 C 
ENDROOT
BRANCH   1   7
ATOM      7  O   LIG d   1      -8.245  75.859 119.302  0.00  0.00    -0.368 OA
BRANCH   7   8
ATOM      8  C   LIG d   1      -8.807  76.662 118.235  0.00  0.00     0.119 C 
BRANCH   8   9
ATOM      9  C   LIG d   1      -8.089  78.025 118.253  0.00  0.00     0.028 C 
ATOM     10  C   LIG d   1      -6.808  78.026 117.401  0.00  0.00     0.006 C 
ENDBRANCH   8   9
BRANCH   8  11
ATOM     11  C   LIG d   1     -10.283  76.978 118.493  0.00  0.00     0.028 C 
ATOM     12  C   LIG d   1     -10.642  76.966 119.987  0.00  0.00     0.006 C 
ENDBRANCH   8  11
ENDBRANCH   7   8
ENDBRANCH   1   7
BRANCH   6  13
ATOM     13  N   LIG d   1      -9.813  73.288 119.179  0.00  0.00    -0.311 N 
ATOM     14  C   LIG d   1     -11.131  73.408 119.029  0.00  0.00     0.210 C 
ATOM     15  C   LIG d   1     -11.965  72.869 120.195  0.00  0.00     0.109 C 
ATOM     16  O   LIG d   1     -11.689  73.881 118.027  0.00  0.00    -0.276 OA
ATOM     17  H   LIG d   1      -9.447  72.863 120.008  0.00  0.00     0.149 HD
ENDBRANCH   6  13
BRANCH   5  18
ATOM     18  N   LIG d   1      -9.214  71.895 116.526  0.00  0.00     0.381 N 
ATOM     19  H   LIG d   1      -8.750  71.366 115.815  0.00  0.00    -0.090 HD
ATOM     20  H   LIG d   1      -9.809  72.570 116.080  0.00  0.00    -0.090 HD
ATOM     21  H   LIG d   1      -9.759  71.288 117.099  0.00  0.00    -0.090 HD
ENDBRANCH   5  18
BRANCH   3  22
ATOM     22  C   LIG d   1      -4.931  74.038 116.535  0.00  0.00     0.382 C 
ATOM     23  O   LIG d   1      -4.756  74.264 115.314  0.00  0.00    -0.241 OA
ATOM     24  O   LIG d   1      -3.946  73.819 117.266  0.00  0.00    -0.241 OA
ENDBRANCH   3  22
TORSDOF 7
ENDMDL
MODEL 7
REMARK VINA RESULT:      -5.1      5.518      8.028
REMARK  7 active torsions:
REMARK  status: ('A' for Active; 'I' for Inactive)
REMARK    1  A    between atoms: C_2  and  C_3 
REMARK    2  A    between atoms: C_3  and  O_6 
REMARK    3  A    between atoms: C_3  and  C_4 
REMARK    4  A    between atoms: C_7  and  O_6 
REMARK    5  A    between atoms: C_9  and  C_10 
REMARK    6  A    between atoms: N_15  and  C_14 
REMARK    7  A    between atoms: N_20  and  C_19 
REMARK       I    between atoms: C_22  and  N_20 
ROOT
ATOM      1  C   LIG d   1      -2.418  75.294 115.148  0.00  0.00     0.161 C 
ATOM      2  C   LIG d   1      -2.284  74.334 116.165  0.00  0.00     0.016 C 
ATOM      3  C   LIG d   1      -1.466  74.516 117.304  0.00  0.00     0.038 C 
ATOM      4  C   LIG d   1      -0.841  75.741 117.580  0.00  0.00     0.028 C 
ATOM      5  C   LIG d   1      -0.542  76.564 116.330  0.00  0.00    -0.047 C 
ATOM      6  C   LIG d   1      -1.832  76.681 115.486  0.00  0.00     0.091 C 
ENDROOT
BRANCH   1   7
ATOM      7  O   LIG d   1      -3.804  75.415 114.771  0.00  0.00    -0.368 OA
BRANCH   7   8
ATOM      8  C   LIG d   1      -4.773  74.951 115.743  0.00  0.00     0.119 C 
BRANCH   8   9
ATOM      9  C   LIG d   1      -5.878  74.202 114.974  0.00  0.00     0.028 C 
ATOM     10  C   LIG d   1      -6.712  73.287 115.886  0.00  0.00     0.006 C 
ENDBRANCH   8   9
BRANCH   8  11
ATOM     11  C   LIG d   1      -5.479  76.123 116.430  0.00  0.00     0.028 C 
ATOM     12  C   LIG d   1      -4.879  76.457 117.805  0.00  0.00     0.006 C 
ENDBRANCH   8  11
ENDBRANCH   7   8
ENDBRANCH   1   7
BRANCH   6  13
ATOM     13  N   LIG d   1      -1.607  77.399 114.205  0.00  0.00    -0.311 N 
ATOM     14  C   LIG d   1      -2.311  78.465 113.829  0.00  0.00     0.210 C 
ATOM     15  C   LIG d   1      -1.931  79.041 112.461  0.00  0.00     0.109 C 
ATOM     16  O   LIG d   1      -3.192  79.008 114.512  0.00  0.00    -0.276 OA
ATOM     17  H   LIG d   1      -0.889  77.044 113.603  0.00  0.00     0.149 HD
ENDBRANCH   6  13
BRANCH   5  18
ATOM     18  N   LIG d   1      -0.019  77.870 116.772  0.00  0.00     0.381 N 
ATOM     19  H   LIG d   1       0.756  77.734 117.390  0.00  0.00    -0.090 HD
ATOM     20  H   LIG d   1      -0.741  78.357 117.273  0.00  0.00    -0.090 HD
ATOM     21  H   LIG d   1       0.268  78.407 115.983  0.00  0.00    -0.090 HD
ENDBRANCH   5  18
BRANCH   3  22
ATOM     22  C   LIG d   1      -1.235  73.451 118.161  0.00  0.00     0.382 C 
ATOM     23  O   LIG d   1      -0.111  73.313 118.701  0.00  0.00    -0.241 OA
ATOM     24  O   LIG d   1      -2.123  72.602 118.367  0.00  0.00    -0.241 OA
ENDBRANCH   3  22
TORSDOF 7
ENDMDL
MODEL 8
REMARK VINA RESULT:      -5.1      2.271      5.627
REMARK  7 active torsions:
REMARK  status: ('A' for Active; 'I' for Inactive)
REMARK    1  A    between atoms: C_2  and  C_3 
REMARK    2  A    between atoms: C_3  and  O_6 
REMARK    3  A    between atoms: C_3  and  C_4 
REMARK    4  A    between atoms: C_7  and  O_6 
REMARK    5  A    between atoms: C_9  and  C_10 
REMARK    6  A    between atoms: N_15  and  C_14 
REMARK    7  A    between atoms: N_20  and  C_19 
REMARK       I    between atoms: C_22  and  N_20 
ROOT
ATOM      1  C   LIG d   1      -8.129  74.639 118.615  0.00  0.00     0.161 C 
ATOM      2  C   LIG d   1      -7.685  75.969 118.533  0.00  0.00     0.016 C 
ATOM      3  C   LIG d   1      -6.934  76.474 117.447  0.00  0.00     0.038 C 
ATOM      4  C   LIG d   1      -6.703  75.716 116.290  0.00  0.00     0.028 C 
ATOM      5  C   LIG d   1      -6.697  74.212 116.541  0.00  0.00    -0.047 C 
ATOM      6  C   LIG d   1      -7.982  73.827 117.311  0.00  0.00     0.091 C 
ENDROOT
BRANCH   1   7
ATOM      7  O   LIG d   1      -9.494  74.606 119.074  0.00  0.00    -0.368 OA
BRANCH   7   8
ATOM      8  C   LIG d   1     -10.507  74.920 118.086  0.00  0.00     0.119 C 
BRANCH   8   9
ATOM      9  C   LIG d   1     -11.075  76.310 118.431  0.00  0.00     0.028 C 
ATOM     10  C   LIG d   1     -11.141  76.557 119.947  0.00  0.00     0.006 C 
ENDBRANCH   8   9
BRANCH   8  11
ATOM     11  C   LIG d   1     -11.696  73.960 118.183  0.00  0.00     0.028 C 
ATOM     12  C   LIG d   1     -11.539  72.928 119.311  0.00  0.00     0.006 C 
ENDBRANCH   8  11
ENDBRANCH   7   8
ENDBRANCH   1   7
BRANCH   6  13
ATOM     13  N   LIG d   1      -8.016  72.386 117.671  0.00  0.00    -0.311 N 
ATOM     14  C   LIG d   1      -8.897  71.524 117.166  0.00  0.00     0.210 C 
ATOM     15  C   LIG d   1      -8.770  70.089 117.687  0.00  0.00     0.109 C 
ATOM     16  O   LIG d   1      -9.751  71.805 116.312  0.00  0.00    -0.276 OA
ATOM     17  H   LIG d   1      -7.338  72.066 118.335  0.00  0.00     0.149 HD
ENDBRANCH   6  13
BRANCH   5  18
ATOM     18  N   LIG d   1      -6.584  73.542 115.232  0.00  0.00     0.381 N 
ATOM     19  H   LIG d   1      -6.518  74.226 114.506  0.00  0.00    -0.090 HD
ATOM     20  H   LIG d   1      -7.412  72.993 115.075  0.00  0.00    -0.090 HD
ATOM     21  H   LIG d   1      -5.780  72.954 115.219  0.00  0.00    -0.090 HD
ENDBRANCH   5  18
BRANCH   3  22
ATOM     22  C   LIG d   1      -6.371  77.738 117.530  0.00  0.00     0.382 C 
ATOM     23  O   LIG d   1      -5.736  78.207 116.555  0.00  0.00    -0.241 OA
ATOM     24  O   LIG d   1      -6.452  78.398 118.583  0.00  0.00    -0.241 OA
ENDBRANCH   3  22
TORSDOF 7
ENDMDL
MODEL 9
REMARK VINA RESULT:      -5.1     10.541     13.723
REMARK  7 active torsions:
REMARK  status: ('A' for Active; 'I' for Inactive)
REMARK    1  A    between atoms: C_2  and  C_3 
REMARK    2  A    between atoms: C_3  and  O_6 
REMARK    3  A    between atoms: C_3  and  C_4 
REMARK    4  A    between atoms: C_7  and  O_6 
REMARK    5  A    between atoms: C_9  and  C_10 
REMARK    6  A    between atoms: N_15  and  C_14 
REMARK    7  A    between atoms: N_20  and  C_19 
REMARK       I    between atoms: C_22  and  N_20 
ROOT
ATOM      1  C   LIG d   1     -17.020  64.761 116.098  0.00  0.00     0.161 C 
ATOM      2  C   LIG d   1     -16.551  65.692 115.157  0.00  0.00     0.016 C 
ATOM      3  C   LIG d   1     -15.514  66.614 115.424  0.00  0.00     0.038 C 
ATOM      4  C   LIG d   1     -14.766  66.566 116.610  0.00  0.00     0.028 C 
ATOM      5  C   LIG d   1     -15.535  65.974 117.787  0.00  0.00    -0.047 C 
ATOM      6  C   LIG d   1     -16.142  64.619 117.359  0.00  0.00     0.091 C 
ENDROOT
BRANCH   1   7
ATOM      7  O   LIG d   1     -17.202  63.478 115.467  0.00  0.00    -0.368 OA
BRANCH   7   8
ATOM      8  C   LIG d   1     -18.532  63.197 114.966  0.00  0.00     0.119 C 
BRANCH   8   9
ATOM      9  C   LIG d   1     -18.861  61.734 115.320  0.00  0.00     0.028 C 
ATOM     10  C   LIG d   1     -17.771  61.080 116.186  0.00  0.00     0.006 C 
ENDBRANCH   8   9
BRANCH   8  11
ATOM     11  C   LIG d   1     -18.578  63.264 113.437  0.00  0.00     0.028 C 
ATOM     12  C   LIG d   1     -19.599  64.287 112.915  0.00  0.00     0.006 C 
ENDBRANCH   8  11
ENDBRANCH   7   8
ENDBRANCH   1   7
BRANCH   6  13
ATOM     13  N   LIG d   1     -16.981  64.012 118.425  0.00  0.00    -0.311 N 
ATOM     14  C   LIG d   1     -16.522  63.119 119.301  0.00  0.00     0.210 C 
ATOM     15  C   LIG d   1     -17.559  62.605 120.304  0.00  0.00     0.109 C 
ATOM     16  O   LIG d   1     -15.346  62.729 119.362  0.00  0.00    -0.276 OA
ATOM     17  H   LIG d   1     -17.941  64.295 118.468  0.00  0.00     0.149 HD
ENDBRANCH   6  13
BRANCH   5  18
ATOM     18  N   LIG d   1     -14.597  65.856 118.919  0.00  0.00     0.381 N 
ATOM     19  H   LIG d   1     -13.672  66.091 118.618  0.00  0.00    -0.090 HD
ATOM     20  H   LIG d   1     -14.592  64.904 119.239  0.00  0.00    -0.090 HD
ATOM     21  H   LIG d   1     -14.877  66.462 119.659  0.00  0.00    -0.090 HD
ENDBRANCH   5  18
BRANCH   3  22
ATOM     22  C   LIG d   1     -15.241  67.625 114.515  0.00  0.00     0.382 C 
ATOM     23  O   LIG d   1     -15.209  68.820 114.896  0.00  0.00    -0.241 OA
ATOM     24  O   LIG d   1     -15.070  67.361 113.310  0.00  0.00    -0.241 OA
ENDBRANCH   3  22
TORSDOF 7
ENDMDL
