MODEL 1
REMARK VINA RESULT:      -5.5      0.000      0.000
REMARK  7 active torsions:
REMARK  status: ('A' for Active; 'I' for Inactive)
REMARK    1  A    between atoms: C_2  and  C_3 
REMARK    2  A    between atoms: C_3  and  O_6 
REMARK    3  A    between atoms: C_3  and  C_4 
REMARK    4  A    between atoms: C_7  and  O_6 
REMARK    5  A    between atoms: C_9  and  C_10 
REMARK    6  A    between atoms: N_15  and  C_14 
REMARK    7  A    between atoms: N_20  and  C_19 
REMARK       I    between atoms: C_22  and  N_20 
ROOT
ATOM      1  C   LIG d   1      -6.524  76.360 116.887  0.00  0.00     0.161 C 
ATOM      2  C   LIG d   1      -7.872  75.967 116.888  0.00  0.00     0.016 C 
ATOM      3  C   LIG d   1      -8.805  76.389 117.864  0.00  0.00     0.038 C 
ATOM      4  C   LIG d   1      -8.485  77.359 118.825  0.00  0.00     0.028 C 
ATOM      5  C   LIG d   1      -7.000  77.402 119.171  0.00  0.00    -0.047 C 
ATOM      6  C   LIG d   1      -6.183  77.506 117.863  0.00  0.00     0.091 C 
ENDROOT
BRANCH   1   7
ATOM      7  O   LIG d   1      -6.116  76.705 115.549  0.00  0.00    -0.368 OA
BRANCH   7   8
ATOM      8  C   LIG d   1      -6.248  75.660 114.553  0.00  0.00     0.119 C 
BRANCH   8   9
ATOM      9  C   LIG d   1      -5.123  74.637 114.805  0.00  0.00     0.028 C 
ATOM     10  C   LIG d   1      -3.792  75.309 115.183  0.00  0.00     0.006 C 
ENDBRANCH   8   9
BRANCH   8  11
ATOM     11  C   LIG d   1      -5.996  76.200 113.142  0.00  0.00     0.028 C 
ATOM     12  C   LIG d   1      -7.254  76.814 112.507  0.00  0.00     0.006 C 
ENDBRANCH   8  11
ENDBRANCH   7   8
ENDBRANCH   1   7
BRANCH   6  13
ATOM     13  N   LIG d   1      -4.717  77.469 118.106  0.00  0.00    -0.311 N 
ATOM     14  C   LIG d   1      -3.878  78.406 117.670  0.00  0.00     0.210 C 
ATOM     15  C   LIG d   1      -2.405  78.165 118.013  0.00  0.00     0.109 C 
ATOM     16  O   LIG d   1      -4.218  79.431 117.059  0.00  0.00    -0.276 OA
ATOM     17  H   LIG d   1      -4.360  76.688 118.621  0.00  0.00     0.149 HD
ENDBRANCH   6  13
BRANCH   5  18
ATOM     18  N   LIG d   1      -6.787  78.546 120.078  0.00  0.00     0.381 N 
ATOM     19  H   LIG d   1      -5.830  78.833 120.042  0.00  0.00    -0.090 HD
ATOM     20  H   LIG d   1      -6.994  78.258 121.019  0.00  0.00    -0.090 HD
ATOM     21  H   LIG d   1      -7.380  79.303 119.817  0.00  0.00    -0.090 HD
ENDBRANCH   5  18
BRANCH   3  22
ATOM     22  C   LIG d   1     -10.063  75.807 117.908  0.00  0.00     0.382 C 
ATOM     23  O   LIG d   1     -10.251  74.679 117.392  0.00  0.00    -0.241 OA
ATOM     24  O   LIG d   1     -11.022  76.415 118.419  0.00  0.00    -0.241 OA
ENDBRANCH   3  22
TORSDOF 7
ENDMDL
MODEL 2
REMARK VINA RESULT:      -4.9     16.507     18.989
REMARK  7 active torsions:
REMARK  status: ('A' for Active; 'I' for Inactive)
REMARK    1  A    between atoms: C_2  and  C_3 
REMARK    2  A    between atoms: C_3  and  O_6 
REMARK    3  A    between atoms: C_3  and  C_4 
REMARK    4  A    between atoms: C_7  and  O_6 
REMARK    5  A    between atoms: C_9  and  C_10 
REMARK    6  A    between atoms: N_15  and  C_14 
REMARK    7  A    between atoms: N_20  and  C_19 
REMARK       I    between atoms: C_22  and  N_20 
ROOT
ATOM      1  C   LIG d   1     -23.316  83.260 116.161  0.00  0.00     0.161 C 
ATOM      2  C   LIG d   1     -22.921  84.527 115.699  0.00  0.00     0.016 C 
ATOM      3  C   LIG d   1     -23.106  84.962 114.367  0.00  0.00     0.038 C 
ATOM      4  C   LIG d   1     -23.841  84.211 113.437  0.00  0.00     0.028 C 
ATOM      5  C   LIG d   1     -23.819  82.712 113.717  0.00  0.00    -0.047 C 
ATOM      6  C   LIG d   1     -24.219  82.470 115.191  0.00  0.00     0.091 C 
ENDROOT
BRANCH   1   7
ATOM      7  O   LIG d   1     -23.954  83.387 117.448  0.00  0.00    -0.368 OA
BRANCH   7   8
ATOM      8  C   LIG d   1     -23.176  82.952 118.590  0.00  0.00     0.119 C 
BRANCH   8   9
ATOM      9  C   LIG d   1     -22.507  84.200 119.197  0.00  0.00     0.028 C 
ATOM     10  C   LIG d   1     -23.523  85.152 119.850  0.00  0.00     0.006 C 
ENDBRANCH   8   9
BRANCH   8  11
ATOM     11  C   LIG d   1     -22.022  82.040 118.164  0.00  0.00     0.028 C 
ATOM     12  C   LIG d   1     -20.731  82.301 118.957  0.00  0.00     0.006 C 
ENDBRANCH   8  11
ENDBRANCH   7   8
ENDBRANCH   1   7
BRANCH   6  13
ATOM     13  N   LIG d   1     -24.141  81.036 115.571  0.00  0.00    -0.311 N 
ATOM     14  C   LIG d   1     -25.149  80.371 116.134  0.00  0.00     0.210 C 
ATOM     15  C   LIG d   1     -24.853  78.905 116.465  0.00  0.00     0.109 C 
ATOM     16  O   LIG d   1     -26.272  80.848 116.360  0.00  0.00    -0.276 OA
ATOM     17  H   LIG d   1     -23.277  80.563 115.394  0.00  0.00     0.149 HD
ENDBRANCH   6  13
BRANCH   5  18
ATOM     18  N   LIG d   1     -24.734  82.066 112.757  0.00  0.00     0.381 N 
ATOM     19  H   LIG d   1     -25.682  82.244 113.020  0.00  0.00    -0.090 HD
ATOM     20  H   LIG d   1     -24.581  81.073 112.780  0.00  0.00    -0.090 HD
ATOM     21  H   LIG d   1     -24.566  82.414 111.839  0.00  0.00    -0.090 HD
ENDBRANCH   5  18
BRANCH   3  22
ATOM     22  C   LIG d   1     -22.518  86.143 113.942  0.00  0.00     0.382 C 
ATOM     23  O   LIG d   1     -21.589  86.114 113.099  0.00  0.00    -0.241 OA
ATOM     24  O   LIG d   1     -22.875  87.235 114.423  0.00  0.00    -0.241 OA
ENDBRANCH   3  22
TORSDOF 7
ENDMDL
MODEL 3
REMARK VINA RESULT:      -4.8      2.173      3.437
REMARK  7 active torsions:
REMARK  status: ('A' for Active; 'I' for Inactive)
REMARK    1  A    between atoms: C_2  and  C_3 
REMARK    2  A    between atoms: C_3  and  O_6 
REMARK    3  A    between atoms: C_3  and  C_4 
REMARK    4  A    between atoms: C_7  and  O_6 
REMARK    5  A    between atoms: C_9  and  C_10 
REMARK    6  A    between atoms: N_15  and  C_14 
REMARK    7  A    between atoms: N_20  and  C_19 
REMARK       I    between atoms: C_22  and  N_20 
ROOT
ATOM      1  C   LIG d   1      -7.485  77.081 119.275  0.00  0.00     0.161 C 
ATOM      2  C   LIG d   1      -8.691  77.746 119.552  0.00  0.00     0.016 C 
ATOM      3  C   LIG d   1      -8.883  79.130 119.341  0.00  0.00     0.038 C 
ATOM      4  C   LIG d   1      -7.924  79.922 118.692  0.00  0.00     0.028 C 
ATOM      5  C   LIG d   1      -6.500  79.401 118.853  0.00  0.00    -0.047 C 
ATOM      6  C   LIG d   1      -6.464  77.906 118.462  0.00  0.00     0.091 C 
ENDROOT
BRANCH   1   7
ATOM      7  O   LIG d   1      -7.757  75.830 118.614  0.00  0.00    -0.368 OA
BRANCH   7   8
ATOM      8  C   LIG d   1      -8.217  75.920 117.243  0.00  0.00     0.119 C 
BRANCH   8   9
ATOM      9  C   LIG d   1      -9.603  75.249 117.174  0.00  0.00     0.028 C 
ATOM     10  C   LIG d   1      -9.508  73.725 116.988  0.00  0.00     0.006 C 
ENDBRANCH   8   9
BRANCH   8  11
ATOM     11  C   LIG d   1      -7.325  75.106 116.301  0.00  0.00     0.028 C 
ATOM     12  C   LIG d   1      -6.896  75.897 115.055  0.00  0.00     0.006 C 
ENDBRANCH   8  11
ENDBRANCH   7   8
ENDBRANCH   1   7
BRANCH   6  13
ATOM     13  N   LIG d   1      -5.125  77.297 118.672  0.00  0.00    -0.311 N 
ATOM     14  C   LIG d   1      -4.211  77.187 117.709  0.00  0.00     0.210 C 
ATOM     15  C   LIG d   1      -2.904  76.509 118.133  0.00  0.00     0.109 C 
ATOM     16  O   LIG d   1      -4.346  77.616 116.554  0.00  0.00    -0.276 OA
ATOM     17  H   LIG d   1      -4.920  76.951 119.589  0.00  0.00     0.149 HD
ENDBRANCH   6  13
BRANCH   5  18
ATOM     18  N   LIG d   1      -5.621  80.239 118.015  0.00  0.00     0.381 N 
ATOM     19  H   LIG d   1      -4.709  79.832 117.968  0.00  0.00    -0.090 HD
ATOM     20  H   LIG d   1      -5.540  81.147 118.437  0.00  0.00    -0.090 HD
ATOM     21  H   LIG d   1      -6.003  80.323 117.099  0.00  0.00    -0.090 HD
ENDBRANCH   5  18
BRANCH   3  22
ATOM     22  C   LIG d   1     -10.031  79.745 119.818  0.00  0.00     0.382 C 
ATOM     23  O   LIG d   1     -10.957  79.053 120.305  0.00  0.00    -0.241 OA
ATOM     24  O   LIG d   1     -10.170  80.980 119.728  0.00  0.00    -0.241 OA
ENDBRANCH   3  22
TORSDOF 7
ENDMDL
MODEL 4
REMARK VINA RESULT:      -4.8     12.595     16.149
REMARK  7 active torsions:
REMARK  status: ('A' for Active; 'I' for Inactive)
REMARK    1  A    between atoms: C_2  and  C_3 
REMARK    2  A    between atoms: C_3  and  O_6 
REMARK    3  A    between atoms: C_3  and  C_4 
REMARK    4  A    between atoms: C_7  and  O_6 
REMARK    5  A    between atoms: C_9  and  C_10 
REMARK    6  A    between atoms: N_15  and  C_14 
REMARK    7  A    between atoms: N_20  and  C_19 
REMARK       I    between atoms: C_22  and  N_20 
ROOT
ATOM      1  C   LIG d   1       2.122  89.131 116.835  0.00  0.00     0.161 C 
ATOM      2  C   LIG d   1       2.556  90.434 117.130  0.00  0.00     0.016 C 
ATOM      3  C   LIG d   1       3.707  91.020 116.554  0.00  0.00     0.038 C 
ATOM      4  C   LIG d   1       4.422  90.391 115.523  0.00  0.00     0.028 C 
ATOM      5  C   LIG d   1       4.316  88.870 115.553  0.00  0.00    -0.047 C 
ATOM      6  C   LIG d   1       2.825  88.472 115.630  0.00  0.00     0.091 C 
ENDROOT
BRANCH   1   7
ATOM      7  O   LIG d   1       0.693  89.123 116.647  0.00  0.00    -0.368 OA
BRANCH   7   8
ATOM      8  C   LIG d   1      -0.109  89.132 117.854  0.00  0.00     0.119 C 
BRANCH   8   9
ATOM      9  C   LIG d   1      -0.895  87.807 117.898  0.00  0.00     0.028 C 
ATOM     10  C   LIG d   1      -0.041  86.635 118.411  0.00  0.00     0.006 C 
ENDBRANCH   8   9
BRANCH   8  11
ATOM     11  C   LIG d   1      -1.172  90.233 117.809  0.00  0.00     0.028 C 
ATOM     12  C   LIG d   1      -2.560  89.739 118.246  0.00  0.00     0.006 C 
ENDBRANCH   8  11
ENDBRANCH   7   8
ENDBRANCH   1   7
BRANCH   6  13
ATOM     13  N   LIG d   1       2.636  87.002 115.748  0.00  0.00    -0.311 N 
ATOM     14  C   LIG d   1       1.997  86.270 114.837  0.00  0.00     0.210 C 
ATOM     15  C   LIG d   1       1.897  84.776 115.163  0.00  0.00     0.109 C 
ATOM     16  O   LIG d   1       1.532  86.710 113.775  0.00  0.00    -0.276 OA
ATOM     17  H   LIG d   1       3.010  86.558 116.564  0.00  0.00     0.149 HD
ENDBRANCH   6  13
BRANCH   5  18
ATOM     18  N   LIG d   1       4.991  88.353 114.347  0.00  0.00     0.381 N 
ATOM     19  H   LIG d   1       5.930  88.698 114.310  0.00  0.00    -0.090 HD
ATOM     20  H   LIG d   1       4.502  88.683 113.534  0.00  0.00    -0.090 HD
ATOM     21  H   LIG d   1       4.996  87.357 114.360  0.00  0.00    -0.090 HD
ENDBRANCH   5  18
BRANCH   3  22
ATOM     22  C   LIG d   1       4.178  92.231 117.038  0.00  0.00     0.382 C 
ATOM     23  O   LIG d   1       5.182  92.258 117.789  0.00  0.00    -0.241 OA
ATOM     24  O   LIG d   1       3.584  93.292 116.768  0.00  0.00    -0.241 OA
ENDBRANCH   3  22
TORSDOF 7
ENDMDL
MODEL 5
REMARK VINA RESULT:      -4.8     10.733     14.485
REMARK  7 active torsions:
REMARK  status: ('A' for Active; 'I' for Inactive)
REMARK    1  A    between atoms: C_2  and  C_3 
REMARK    2  A    between atoms: C_3  and  O_6 
REMARK    3  A    between atoms: C_3  and  C_4 
REMARK    4  A    between atoms: C_7  and  O_6 
REMARK    5  A    between atoms: C_9  and  C_10 
REMARK    6  A    between atoms: N_15  and  C_14 
REMARK    7  A    between atoms: N_20  and  C_19 
REMARK       I    between atoms: C_22  and  N_20 
ROOT
ATOM      1  C   LIG d   1       2.472  86.603 115.159  0.00  0.00     0.161 C 
ATOM      2  C   LIG d   1       2.942  87.781 114.556  0.00  0.00     0.016 C 
ATOM      3  C   LIG d   1       3.617  87.804 113.314  0.00  0.00     0.038 C 
ATOM      4  C   LIG d   1       3.736  86.658 112.513  0.00  0.00     0.028 C 
ATOM      5  C   LIG d   1       3.722  85.358 113.311  0.00  0.00    -0.047 C 
ATOM      6  C   LIG d   1       2.493  85.357 114.248  0.00  0.00     0.091 C 
ENDROOT
BRANCH   1   7
ATOM      7  O   LIG d   1       1.147  86.818 115.683  0.00  0.00    -0.368 OA
BRANCH   7   8
ATOM      8  C   LIG d   1       1.060  87.096 117.102  0.00  0.00     0.119 C 
BRANCH   8   9
ATOM      9  C   LIG d   1       0.679  85.781 117.810  0.00  0.00     0.028 C 
ATOM     10  C   LIG d   1       1.863  85.159 118.570  0.00  0.00     0.006 C 
ENDBRANCH   8   9
BRANCH   8  11
ATOM     11  C   LIG d   1      -0.083  88.068 117.411  0.00  0.00     0.028 C 
ATOM     12  C   LIG d   1      -0.986  87.582 118.556  0.00  0.00     0.006 C 
ENDBRANCH   8  11
ENDBRANCH   7   8
ENDBRANCH   1   7
BRANCH   6  13
ATOM     13  N   LIG d   1       2.450  84.158 115.125  0.00  0.00    -0.311 N 
ATOM     14  C   LIG d   1       1.764  83.057 114.828  0.00  0.00     0.210 C 
ATOM     15  C   LIG d   1       1.838  81.945 115.879  0.00  0.00     0.109 C 
ATOM     16  O   LIG d   1       1.126  82.882 113.778  0.00  0.00    -0.276 OA
ATOM     17  H   LIG d   1       2.965  84.202 115.983  0.00  0.00     0.149 HD
ENDBRANCH   6  13
BRANCH   5  18
ATOM     18  N   LIG d   1       3.713  84.243 112.345  0.00  0.00     0.381 N 
ATOM     19  H   LIG d   1       3.853  84.595 111.419  0.00  0.00    -0.090 HD
ATOM     20  H   LIG d   1       2.816  83.791 112.378  0.00  0.00    -0.090 HD
ATOM     21  H   LIG d   1       4.430  83.590 112.571  0.00  0.00    -0.090 HD
ENDBRANCH   5  18
BRANCH   3  22
ATOM     22  C   LIG d   1       4.218  88.975 112.879  0.00  0.00     0.382 C 
ATOM     23  O   LIG d   1       5.394  88.952 112.442  0.00  0.00    -0.241 OA
ATOM     24  O   LIG d   1       3.616  90.062 112.961  0.00  0.00    -0.241 OA
ENDBRANCH   3  22
TORSDOF 7
ENDMDL
MODEL 6
REMARK VINA RESULT:      -4.7     18.769     21.598
REMARK  7 active torsions:
REMARK  status: ('A' for Active; 'I' for Inactive)
REMARK    1  A    between atoms: C_2  and  C_3 
REMARK    2  A    between atoms: C_3  and  O_6 
REMARK    3  A    between atoms: C_3  and  C_4 
REMARK    4  A    between atoms: C_7  and  O_6 
REMARK    5  A    between atoms: C_9  and  C_10 
REMARK    6  A    between atoms: N_15  and  C_14 
REMARK    7  A    between atoms: N_20  and  C_19 
REMARK       I    between atoms: C_22  and  N_20 
ROOT
ATOM      1  C   LIG d   1     -25.648  85.311 113.914  0.00  0.00     0.161 C 
ATOM      2  C   LIG d   1     -24.598  86.244 113.903  0.00  0.00     0.016 C 
ATOM      3  C   LIG d   1     -23.246  85.890 113.689  0.00  0.00     0.038 C 
ATOM      4  C   LIG d   1     -22.869  84.590 113.320  0.00  0.00     0.028 C 
ATOM      5  C   LIG d   1     -23.832  83.517 113.814  0.00  0.00    -0.047 C 
ATOM      6  C   LIG d   1     -25.271  83.905 113.403  0.00  0.00     0.091 C 
ENDROOT
BRANCH   1   7
ATOM      7  O   LIG d   1     -26.770  85.830 113.172  0.00  0.00    -0.368 OA
BRANCH   7   8
ATOM      8  C   LIG d   1     -27.956  86.140 113.944  0.00  0.00     0.119 C 
BRANCH   8   9
ATOM      9  C   LIG d   1     -28.284  87.628 113.710  0.00  0.00     0.028 C 
ATOM     10  C   LIG d   1     -27.498  88.224 112.531  0.00  0.00     0.006 C 
ENDBRANCH   8   9
BRANCH   8  11
ATOM     11  C   LIG d   1     -27.692  86.015 115.447  0.00  0.00     0.028 C 
ATOM     12  C   LIG d   1     -27.830  87.353 116.190  0.00  0.00     0.006 C 
ENDBRANCH   8  11
ENDBRANCH   7   8
ENDBRANCH   1   7
BRANCH   6  13
ATOM     13  N   LIG d   1     -26.286  82.951 113.920  0.00  0.00    -0.311 N 
ATOM     14  C   LIG d   1     -26.727  81.903 113.226  0.00  0.00     0.210 C 
ATOM     15  C   LIG d   1     -27.789  81.058 113.937  0.00  0.00     0.109 C 
ATOM     16  O   LIG d   1     -26.318  81.575 112.103  0.00  0.00    -0.276 OA
ATOM     17  H   LIG d   1     -26.649  83.124 114.837  0.00  0.00     0.149 HD
ENDBRANCH   6  13
BRANCH   5  18
ATOM     18  N   LIG d   1     -23.395  82.229 113.243  0.00  0.00     0.381 N 
ATOM     19  H   LIG d   1     -22.536  82.353 112.746  0.00  0.00    -0.090 HD
ATOM     20  H   LIG d   1     -24.092  81.909 112.593  0.00  0.00    -0.090 HD
ATOM     21  H   LIG d   1     -23.275  81.557 113.968  0.00  0.00    -0.090 HD
ENDBRANCH   5  18
BRANCH   3  22
ATOM     22  C   LIG d   1     -22.249  86.834 113.884  0.00  0.00     0.382 C 
ATOM     23  O   LIG d   1     -22.493  87.878 114.537  0.00  0.00    -0.241 OA
ATOM     24  O   LIG d   1     -21.122  86.677 113.378  0.00  0.00    -0.241 OA
ENDBRANCH   3  22
TORSDOF 7
ENDMDL
MODEL 7
REMARK VINA RESULT:      -4.7     17.276     20.120
REMARK  7 active torsions:
REMARK  status: ('A' for Active; 'I' for Inactive)
REMARK    1  A    between atoms: C_2  and  C_3 
REMARK    2  A    between atoms: C_3  and  O_6 
REMARK    3  A    between atoms: C_3  and  C_4 
REMARK    4  A    between atoms: C_7  and  O_6 
REMARK    5  A    between atoms: C_9  and  C_10 
REMARK    6  A    between atoms: N_15  and  C_14 
REMARK    7  A    between atoms: N_20  and  C_19 
REMARK       I    between atoms: C_22  and  N_20 
ROOT
ATOM      1  C   LIG d   1     -23.859  83.240 114.349  0.00  0.00     0.161 C 
ATOM      2  C   LIG d   1     -22.981  84.336 114.384  0.00  0.00     0.016 C 
ATOM      3  C   LIG d   1     -23.375  85.659 114.079  0.00  0.00     0.038 C 
ATOM      4  C   LIG d   1     -24.718  86.001 113.863  0.00  0.00     0.028 C 
ATOM      5  C   LIG d   1     -25.557  84.849 113.321  0.00  0.00    -0.047 C 
ATOM      6  C   LIG d   1     -25.352  83.611 114.223  0.00  0.00     0.091 C 
ENDROOT
BRANCH   1   7
ATOM      7  O   LIG d   1     -23.646  82.405 115.504  0.00  0.00    -0.368 OA
BRANCH   7   8
ATOM      8  C   LIG d   1     -23.224  83.084 116.712  0.00  0.00     0.119 C 
BRANCH   8   9
ATOM      9  C   LIG d   1     -22.138  82.215 117.377  0.00  0.00     0.028 C 
ATOM     10  C   LIG d   1     -21.388  82.965 118.490  0.00  0.00     0.006 C 
ENDBRANCH   8   9
BRANCH   8  11
ATOM     11  C   LIG d   1     -24.362  83.162 117.734  0.00  0.00     0.028 C 
ATOM     12  C   LIG d   1     -25.032  84.545 117.775  0.00  0.00     0.006 C 
ENDBRANCH   8  11
ENDBRANCH   7   8
ENDBRANCH   1   7
BRANCH   6  13
ATOM     13  N   LIG d   1     -26.072  82.414 113.716  0.00  0.00    -0.311 N 
ATOM     14  C   LIG d   1     -27.287  82.060 114.129  0.00  0.00     0.210 C 
ATOM     15  C   LIG d   1     -27.839  80.780 113.493  0.00  0.00     0.109 C 
ATOM     16  O   LIG d   1     -27.974  82.701 114.939  0.00  0.00    -0.276 OA
ATOM     17  H   LIG d   1     -25.601  81.854 113.033  0.00  0.00     0.149 HD
ENDBRANCH   6  13
BRANCH   5  18
ATOM     18  N   LIG d   1     -26.960  85.304 113.274  0.00  0.00     0.381 N 
ATOM     19  H   LIG d   1     -27.573  84.513 113.300  0.00  0.00    -0.090 HD
ATOM     20  H   LIG d   1     -27.114  85.794 112.410  0.00  0.00    -0.090 HD
ATOM     21  H   LIG d   1     -27.150  85.906 114.044  0.00  0.00    -0.090 HD
ENDBRANCH   5  18
BRANCH   3  22
ATOM     22  C   LIG d   1     -22.413  86.649 113.949  0.00  0.00     0.382 C 
ATOM     23  O   LIG d   1     -22.577  87.760 114.510  0.00  0.00    -0.241 OA
ATOM     24  O   LIG d   1     -21.406  86.462 113.241  0.00  0.00    -0.241 OA
ENDBRANCH   3  22
TORSDOF 7
ENDMDL
MODEL 8
REMARK VINA RESULT:      -4.7      3.116      7.039
REMARK  7 active torsions:
REMARK  status: ('A' for Active; 'I' for Inactive)
REMARK    1  A    between atoms: C_2  and  C_3 
REMARK    2  A    between atoms: C_3  and  O_6 
REMARK    3  A    between atoms: C_3  and  C_4 
REMARK    4  A    between atoms: C_7  and  O_6 
REMARK    5  A    between atoms: C_9  and  C_10 
REMARK    6  A    between atoms: N_15  and  C_14 
REMARK    7  A    between atoms: N_20  and  C_19 
REMARK       I    between atoms: C_22  and  N_20 
ROOT
ATOM      1  C   LIG d   1      -3.150  78.053 116.996  0.00  0.00     0.161 C 
ATOM      2  C   LIG d   1      -2.241  79.019 117.459  0.00  0.00     0.016 C 
ATOM      3  C   LIG d   1      -0.960  79.217 116.894  0.00  0.00     0.038 C 
ATOM      4  C   LIG d   1      -0.557  78.560 115.722  0.00  0.00     0.028 C 
ATOM      5  C   LIG d   1      -1.243  77.213 115.517  0.00  0.00    -0.047 C 
ATOM      6  C   LIG d   1      -2.771  77.403 115.649  0.00  0.00     0.091 C 
ENDROOT
BRANCH   1   7
ATOM      7  O   LIG d   1      -4.472  78.621 116.924  0.00  0.00    -0.368 OA
BRANCH   7   8
ATOM      8  C   LIG d   1      -5.384  78.248 117.987  0.00  0.00     0.119 C 
BRANCH   8   9
ATOM      9  C   LIG d   1      -6.308  77.143 117.438  0.00  0.00     0.028 C 
ATOM     10  C   LIG d   1      -7.579  76.966 118.285  0.00  0.00     0.006 C 
ENDBRANCH   8   9
BRANCH   8  11
ATOM     11  C   LIG d   1      -6.315  79.408 118.355  0.00  0.00     0.028 C 
ATOM     12  C   LIG d   1      -5.605  80.771 118.332  0.00  0.00     0.006 C 
ENDBRANCH   8  11
ENDBRANCH   7   8
ENDBRANCH   1   7
BRANCH   6  13
ATOM     13  N   LIG d   1      -3.513  76.119 115.545  0.00  0.00    -0.311 N 
ATOM     14  C   LIG d   1      -4.352  75.836 114.551  0.00  0.00     0.210 C 
ATOM     15  C   LIG d   1      -5.028  74.464 114.646  0.00  0.00     0.109 C 
ATOM     16  O   LIG d   1      -4.577  76.577 113.582  0.00  0.00    -0.276 OA
ATOM     17  H   LIG d   1      -3.366  75.447 116.273  0.00  0.00     0.149 HD
ENDBRANCH   6  13
BRANCH   5  18
ATOM     18  N   LIG d   1      -0.836  76.703 114.194  0.00  0.00     0.381 N 
ATOM     19  H   LIG d   1      -1.124  77.342 113.481  0.00  0.00    -0.090 HD
ATOM     20  H   LIG d   1      -1.291  75.822 114.031  0.00  0.00    -0.090 HD
ATOM     21  H   LIG d   1       0.153  76.584 114.164  0.00  0.00    -0.090 HD
ENDBRANCH   5  18
BRANCH   3  22
ATOM     22  C   LIG d   1      -0.052  80.052 117.526  0.00  0.00     0.382 C 
ATOM     23  O   LIG d   1      -0.395  81.211 117.864  0.00  0.00    -0.241 OA
ATOM     24  O   LIG d   1       1.120  79.678 117.723  0.00  0.00    -0.241 OA
ENDBRANCH   3  22
TORSDOF 7
ENDMDL
MODEL 9
REMARK VINA RESULT:      -4.6     12.980     15.642
REMARK  7 active torsions:
REMARK  status: ('A' for Active; 'I' for Inactive)
REMARK    1  A    between atoms: C_2  and  C_3 
REMARK    2  A    between atoms: C_3  and  O_6 
REMARK    3  A    between atoms: C_3  and  C_4 
REMARK    4  A    between atoms: C_7  and  O_6 
REMARK    5  A    between atoms: C_9  and  C_10 
REMARK    6  A    between atoms: N_15  and  C_14 
REMARK    7  A    between atoms: N_20  and  C_19 
REMARK       I    between atoms: C_22  and  N_20 
ROOT
ATOM      1  C   LIG d   1       2.904  87.800 115.584  0.00  0.00     0.161 C 
ATOM      2  C   LIG d   1       2.911  86.594 114.865  0.00  0.00     0.016 C 
ATOM      3  C   LIG d   1       3.508  86.451 113.591  0.00  0.00     0.038 C 
ATOM      4  C   LIG d   1       4.274  87.474 113.012  0.00  0.00     0.028 C 
ATOM      5  C   LIG d   1       3.868  88.870 113.473  0.00  0.00    -0.047 C 
ATOM      6  C   LIG d   1       3.830  88.897 115.018  0.00  0.00     0.091 C 
ENDROOT
BRANCH   1   7
ATOM      7  O   LIG d   1       3.215  87.546 116.968  0.00  0.00    -0.368 OA
BRANCH   7   8
ATOM      8  C   LIG d   1       2.135  87.748 117.912  0.00  0.00     0.119 C 
BRANCH   8   9
ATOM      9  C   LIG d   1       1.751  86.368 118.480  0.00  0.00     0.028 C 
ATOM     10  C   LIG d   1       0.356  85.912 118.021  0.00  0.00     0.006 C 
ENDBRANCH   8   9
BRANCH   8  11
ATOM     11  C   LIG d   1       0.873  88.264 117.214  0.00  0.00     0.028 C 
ATOM     12  C   LIG d   1       0.439  89.651 117.715  0.00  0.00     0.006 C 
ENDBRANCH   8  11
ENDBRANCH   7   8
ENDBRANCH   1   7
BRANCH   6  13
ATOM     13  N   LIG d   1       3.361  90.202 115.551  0.00  0.00    -0.311 N 
ATOM     14  C   LIG d   1       4.003  90.881 116.500  0.00  0.00     0.210 C 
ATOM     15  C   LIG d   1       3.337  92.195 116.920  0.00  0.00     0.109 C 
ATOM     16  O   LIG d   1       5.079  90.535 117.012  0.00  0.00    -0.276 OA
ATOM     17  H   LIG d   1       2.512  90.572 115.170  0.00  0.00     0.149 HD
ENDBRANCH   6  13
BRANCH   5  18
ATOM     18  N   LIG d   1       4.834  89.827 112.902  0.00  0.00     0.381 N 
ATOM     19  H   LIG d   1       5.764  89.566 113.163  0.00  0.00    -0.090 HD
ATOM     20  H   LIG d   1       4.646  90.741 113.274  0.00  0.00    -0.090 HD
ATOM     21  H   LIG d   1       4.752  89.842 111.909  0.00  0.00    -0.090 HD
ENDBRANCH   5  18
BRANCH   3  22
ATOM     22  C   LIG d   1       3.306  85.288 112.864  0.00  0.00     0.382 C 
ATOM     23  O   LIG d   1       2.350  85.211 112.056  0.00  0.00    -0.241 OA
ATOM     24  O   LIG d   1       4.043  84.298 113.039  0.00  0.00    -0.241 OA
ENDBRANCH   3  22
TORSDOF 7
ENDMDL
