MODEL 1
REMARK VINA RESULT:      -6.0      0.000      0.000
REMARK  7 active torsions:
REMARK  status: ('A' for Active; 'I' for Inactive)
REMARK    1  A    between atoms: C_2  and  C_3 
REMARK    2  A    between atoms: C_3  and  O_6 
REMARK    3  A    between atoms: C_3  and  C_4 
REMARK    4  A    between atoms: C_7  and  O_6 
REMARK    5  A    between atoms: C_9  and  C_10 
REMARK    6  A    between atoms: N_15  and  C_14 
REMARK    7  A    between atoms: N_20  and  C_19 
REMARK       I    between atoms: C_22  and  N_20 
ROOT
ATOM      1  C   LIG d   1      -8.519  74.227 117.479  0.00  0.00     0.161 C 
ATOM      2  C   LIG d   1      -8.171  72.986 116.920  0.00  0.00     0.016 C 
ATOM      3  C   LIG d   1      -8.975  71.829 117.035  0.00  0.00     0.038 C 
ATOM      4  C   LIG d   1     -10.262  71.872 117.591  0.00  0.00     0.028 C 
ATOM      5  C   LIG d   1     -10.442  72.987 118.616  0.00  0.00    -0.047 C 
ATOM      6  C   LIG d   1      -9.971  74.321 117.993  0.00  0.00     0.091 C 
ENDROOT
BRANCH   1   7
ATOM      7  O   LIG d   1      -8.255  75.281 116.531  0.00  0.00    -0.368 OA
BRANCH   7   8
ATOM      8  C   LIG d   1      -6.863  75.498 116.191  0.00  0.00     0.119 C 
BRANCH   8   9
ATOM      9  C   LIG d   1      -6.532  76.968 116.514  0.00  0.00     0.028 C 
ATOM     10  C   LIG d   1      -7.477  77.565 117.569  0.00  0.00     0.006 C 
ENDBRANCH   8   9
BRANCH   8  11
ATOM     11  C   LIG d   1      -6.628  75.350 114.685  0.00  0.00     0.028 C 
ATOM     12  C   LIG d   1      -5.708  74.168 114.339  0.00  0.00     0.006 C 
ENDBRANCH   8  11
ENDBRANCH   7   8
ENDBRANCH   1   7
BRANCH   6  13
ATOM     13  N   LIG d   1     -10.034  75.450 118.958  0.00  0.00    -0.311 N 
ATOM     14  C   LIG d   1     -11.052  76.307 119.017  0.00  0.00     0.210 C 
ATOM     15  C   LIG d   1     -10.908  77.410 120.071  0.00  0.00     0.109 C 
ATOM     16  O   LIG d   1     -12.074  76.240 118.319  0.00  0.00    -0.276 OA
ATOM     17  H   LIG d   1      -9.260  75.560 119.583  0.00  0.00     0.149 HD
ENDBRANCH   6  13
BRANCH   5  18
ATOM     18  N   LIG d   1     -11.863  73.003 119.012  0.00  0.00     0.381 N 
ATOM     19  H   LIG d   1     -12.438  73.122 118.203  0.00  0.00    -0.090 HD
ATOM     20  H   LIG d   1     -12.019  73.781 119.628  0.00  0.00    -0.090 HD
ATOM     21  H   LIG d   1     -12.098  72.152 119.473  0.00  0.00    -0.090 HD
ENDBRANCH   5  18
BRANCH   3  22
ATOM     22  C   LIG d   1      -8.475  70.602 116.625  0.00  0.00     0.382 C 
ATOM     23  O   LIG d   1      -7.482  70.553 115.860  0.00  0.00    -0.241 OA
ATOM     24  O   LIG d   1      -9.032  69.544 116.976  0.00  0.00    -0.241 OA
ENDBRANCH   3  22
TORSDOF 7
ENDMDL
MODEL 2
REMARK VINA RESULT:      -5.5      1.843      4.832
REMARK  7 active torsions:
REMARK  status: ('A' for Active; 'I' for Inactive)
REMARK    1  A    between atoms: C_2  and  C_3 
REMARK    2  A    between atoms: C_3  and  O_6 
REMARK    3  A    between atoms: C_3  and  C_4 
REMARK    4  A    between atoms: C_7  and  O_6 
REMARK    5  A    between atoms: C_9  and  C_10 
REMARK    6  A    between atoms: N_15  and  C_14 
REMARK    7  A    between atoms: N_20  and  C_19 
REMARK       I    between atoms: C_22  and  N_20 
ROOT
ATOM      1  C   LIG d   1      -8.325  74.371 117.125  0.00  0.00     0.161 C 
ATOM      2  C   LIG d   1      -7.747  74.412 115.846  0.00  0.00     0.016 C 
ATOM      3  C   LIG d   1      -6.998  75.511 115.365  0.00  0.00     0.038 C 
ATOM      4  C   LIG d   1      -6.647  76.588 116.193  0.00  0.00     0.028 C 
ATOM      5  C   LIG d   1      -7.633  76.822 117.333  0.00  0.00    -0.047 C 
ATOM      6  C   LIG d   1      -7.860  75.488 118.082  0.00  0.00     0.091 C 
ENDROOT
BRANCH   1   7
ATOM      7  O   LIG d   1      -8.103  73.077 117.720  0.00  0.00    -0.368 OA
BRANCH   7   8
ATOM      8  C   LIG d   1      -9.250  72.194 117.772  0.00  0.00     0.119 C 
BRANCH   8   9
ATOM      9  C   LIG d   1      -9.088  71.158 116.643  0.00  0.00     0.028 C 
ATOM     10  C   LIG d   1      -7.629  70.707 116.465  0.00  0.00     0.006 C 
ENDBRANCH   8   9
BRANCH   8  11
ATOM     11  C   LIG d   1     -10.546  72.944 117.451  0.00  0.00     0.028 C 
ATOM     12  C   LIG d   1     -11.584  72.850 118.581  0.00  0.00     0.006 C 
ENDBRANCH   8  11
ENDBRANCH   7   8
ENDBRANCH   1   7
BRANCH   6  13
ATOM     13  N   LIG d   1      -8.875  75.609 119.160  0.00  0.00    -0.311 N 
ATOM     14  C   LIG d   1     -10.068  76.174 118.983  0.00  0.00     0.210 C 
ATOM     15  C   LIG d   1     -10.956  76.214 120.231  0.00  0.00     0.109 C 
ATOM     16  O   LIG d   1     -10.488  76.617 117.904  0.00  0.00    -0.276 OA
ATOM     17  H   LIG d   1      -8.629  75.248 120.061  0.00  0.00     0.149 HD
ENDBRANCH   6  13
BRANCH   5  18
ATOM     18  N   LIG d   1      -7.075  77.881 118.195  0.00  0.00     0.381 N 
ATOM     19  H   LIG d   1      -7.413  77.771 119.129  0.00  0.00    -0.090 HD
ATOM     20  H   LIG d   1      -7.381  78.774 117.851  0.00  0.00    -0.090 HD
ATOM     21  H   LIG d   1      -6.079  77.837 118.187  0.00  0.00    -0.090 HD
ENDBRANCH   5  18
BRANCH   3  22
ATOM     22  C   LIG d   1      -6.626  75.558 114.030  0.00  0.00     0.382 C 
ATOM     23  O   LIG d   1      -5.631  74.905 113.633  0.00  0.00    -0.241 OA
ATOM     24  O   LIG d   1      -7.246  76.280 113.227  0.00  0.00    -0.241 OA
ENDBRANCH   3  22
TORSDOF 7
ENDMDL
MODEL 3
REMARK VINA RESULT:      -5.4      9.825     12.995
REMARK  7 active torsions:
REMARK  status: ('A' for Active; 'I' for Inactive)
REMARK    1  A    between atoms: C_2  and  C_3 
REMARK    2  A    between atoms: C_3  and  O_6 
REMARK    3  A    between atoms: C_3  and  C_4 
REMARK    4  A    between atoms: C_7  and  O_6 
REMARK    5  A    between atoms: C_9  and  C_10 
REMARK    6  A    between atoms: N_15  and  C_14 
REMARK    7  A    between atoms: N_20  and  C_19 
REMARK       I    between atoms: C_22  and  N_20 
ROOT
ATOM      1  C   LIG d   1     -16.760  65.448 114.515  0.00  0.00     0.161 C 
ATOM      2  C   LIG d   1     -16.418  66.539 113.698  0.00  0.00     0.016 C 
ATOM      3  C   LIG d   1     -15.396  67.462 114.019  0.00  0.00     0.038 C 
ATOM      4  C   LIG d   1     -14.539  67.268 115.113  0.00  0.00     0.028 C 
ATOM      5  C   LIG d   1     -15.170  66.459 116.241  0.00  0.00    -0.047 C 
ATOM      6  C   LIG d   1     -15.762  65.157 115.655  0.00  0.00     0.091 C 
ENDROOT
BRANCH   1   7
ATOM      7  O   LIG d   1     -16.952  64.272 113.704  0.00  0.00    -0.368 OA
BRANCH   7   8
ATOM      8  C   LIG d   1     -18.312  63.785 113.600  0.00  0.00     0.119 C 
BRANCH   8   9
ATOM      9  C   LIG d   1     -19.225  64.804 114.309  0.00  0.00     0.028 C 
ATOM     10  C   LIG d   1     -20.271  65.414 113.361  0.00  0.00     0.006 C 
ENDBRANCH   8   9
BRANCH   8  11
ATOM     11  C   LIG d   1     -18.494  62.473 114.369  0.00  0.00     0.028 C 
ATOM     12  C   LIG d   1     -19.415  62.622 115.591  0.00  0.00     0.006 C 
ENDBRANCH   8  11
ENDBRANCH   7   8
ENDBRANCH   1   7
BRANCH   6  13
ATOM     13  N   LIG d   1     -16.473  64.347 116.679  0.00  0.00    -0.311 N 
ATOM     14  C   LIG d   1     -15.903  63.346 117.347  0.00  0.00     0.210 C 
ATOM     15  C   LIG d   1     -16.820  62.629 118.343  0.00  0.00     0.109 C 
ATOM     16  O   LIG d   1     -14.716  63.004 117.233  0.00  0.00    -0.276 OA
ATOM     17  H   LIG d   1     -17.431  64.577 116.857  0.00  0.00     0.149 HD
ENDBRANCH   6  13
BRANCH   5  18
ATOM     18  N   LIG d   1     -14.125  66.215 117.253  0.00  0.00     0.381 N 
ATOM     19  H   LIG d   1     -14.026  65.232 117.407  0.00  0.00    -0.090 HD
ATOM     20  H   LIG d   1     -14.404  66.643 118.118  0.00  0.00    -0.090 HD
ATOM     21  H   LIG d   1     -13.258  66.600 116.948  0.00  0.00    -0.090 HD
ENDBRANCH   5  18
BRANCH   3  22
ATOM     22  C   LIG d   1     -15.249  68.615 113.264  0.00  0.00     0.382 C 
ATOM     23  O   LIG d   1     -14.130  69.177 113.188  0.00  0.00    -0.241 OA
ATOM     24  O   LIG d   1     -16.231  69.126 112.693  0.00  0.00    -0.241 OA
ENDBRANCH   3  22
TORSDOF 7
ENDMDL
MODEL 4
REMARK VINA RESULT:      -5.4      2.436      4.766
REMARK  7 active torsions:
REMARK  status: ('A' for Active; 'I' for Inactive)
REMARK    1  A    between atoms: C_2  and  C_3 
REMARK    2  A    between atoms: C_3  and  O_6 
REMARK    3  A    between atoms: C_3  and  C_4 
REMARK    4  A    between atoms: C_7  and  O_6 
REMARK    5  A    between atoms: C_9  and  C_10 
REMARK    6  A    between atoms: N_15  and  C_14 
REMARK    7  A    between atoms: N_20  and  C_19 
REMARK       I    between atoms: C_22  and  N_20 
ROOT
ATOM      1  C   LIG d   1      -8.710  75.833 116.408  0.00  0.00     0.161 C 
ATOM      2  C   LIG d   1      -7.929  75.314 115.362  0.00  0.00     0.016 C 
ATOM      3  C   LIG d   1      -6.577  75.670 115.150  0.00  0.00     0.038 C 
ATOM      4  C   LIG d   1      -5.866  76.459 116.066  0.00  0.00     0.028 C 
ATOM      5  C   LIG d   1      -6.753  77.411 116.862  0.00  0.00    -0.047 C 
ATOM      6  C   LIG d   1      -7.920  76.609 117.482  0.00  0.00     0.091 C 
ENDROOT
BRANCH   1   7
ATOM      7  O   LIG d   1      -9.476  74.774 117.017  0.00  0.00    -0.368 OA
BRANCH   7   8
ATOM      8  C   LIG d   1      -8.858  73.464 117.026  0.00  0.00     0.119 C 
BRANCH   8   9
ATOM      9  C   LIG d   1      -9.987  72.419 116.941  0.00  0.00     0.028 C 
ATOM     10  C   LIG d   1     -10.974  72.524 118.116  0.00  0.00     0.006 C 
ENDBRANCH   8   9
BRANCH   8  11
ATOM     11  C   LIG d   1      -8.151  73.191 118.357  0.00  0.00     0.028 C 
ATOM     12  C   LIG d   1      -6.633  73.013 118.200  0.00  0.00     0.006 C 
ENDBRANCH   8  11
ENDBRANCH   7   8
ENDBRANCH   1   7
BRANCH   6  13
ATOM     13  N   LIG d   1      -8.882  77.478 118.208  0.00  0.00    -0.311 N 
ATOM     14  C   LIG d   1      -9.320  77.219 119.439  0.00  0.00     0.210 C 
ATOM     15  C   LIG d   1     -10.324  78.233 119.995  0.00  0.00     0.109 C 
ATOM     16  O   LIG d   1      -8.948  76.262 120.135  0.00  0.00    -0.276 OA
ATOM     17  H   LIG d   1      -9.212  78.293 117.729  0.00  0.00     0.149 HD
ENDBRANCH   6  13
BRANCH   5  18
ATOM     18  N   LIG d   1      -5.904  78.071 117.872  0.00  0.00     0.381 N 
ATOM     19  H   LIG d   1      -6.091  77.685 118.776  0.00  0.00    -0.090 HD
ATOM     20  H   LIG d   1      -6.128  79.050 117.895  0.00  0.00    -0.090 HD
ATOM     21  H   LIG d   1      -4.942  77.948 117.642  0.00  0.00    -0.090 HD
ENDBRANCH   5  18
BRANCH   3  22
ATOM     22  C   LIG d   1      -5.934  75.267 113.990  0.00  0.00     0.382 C 
ATOM     23  O   LIG d   1      -5.470  74.104 113.901  0.00  0.00    -0.241 OA
ATOM     24  O   LIG d   1      -5.773  76.065 113.047  0.00  0.00    -0.241 OA
ENDBRANCH   3  22
TORSDOF 7
ENDMDL
MODEL 5
REMARK VINA RESULT:      -5.2      2.583      6.446
REMARK  7 active torsions:
REMARK  status: ('A' for Active; 'I' for Inactive)
REMARK    1  A    between atoms: C_2  and  C_3 
REMARK    2  A    between atoms: C_3  and  O_6 
REMARK    3  A    between atoms: C_3  and  C_4 
REMARK    4  A    between atoms: C_7  and  O_6 
REMARK    5  A    between atoms: C_9  and  C_10 
REMARK    6  A    between atoms: N_15  and  C_14 
REMARK    7  A    between atoms: N_20  and  C_19 
REMARK       I    between atoms: C_22  and  N_20 
ROOT
ATOM      1  C   LIG d   1      -9.774  75.985 119.495  0.00  0.00     0.161 C 
ATOM      2  C   LIG d   1     -10.250  77.306 119.526  0.00  0.00     0.016 C 
ATOM      3  C   LIG d   1      -9.587  78.387 118.901  0.00  0.00     0.038 C 
ATOM      4  C   LIG d   1      -8.474  78.193 118.069  0.00  0.00     0.028 C 
ATOM      5  C   LIG d   1      -7.666  76.948 118.419  0.00  0.00    -0.047 C 
ATOM      6  C   LIG d   1      -8.621  75.736 118.500  0.00  0.00     0.091 C 
ENDROOT
BRANCH   1   7
ATOM      7  O   LIG d   1     -10.864  75.078 119.237  0.00  0.00    -0.368 OA
BRANCH   7   8
ATOM      8  C   LIG d   1     -11.426  75.121 117.902  0.00  0.00     0.119 C 
BRANCH   8   9
ATOM      9  C   LIG d   1     -12.958  75.203 118.047  0.00  0.00     0.028 C 
ATOM     10  C   LIG d   1     -13.421  74.997 119.499  0.00  0.00     0.006 C 
ENDBRANCH   8   9
BRANCH   8  11
ATOM     11  C   LIG d   1     -11.159  73.818 117.143  0.00  0.00     0.028 C 
ATOM     12  C   LIG d   1     -10.995  72.608 118.077  0.00  0.00     0.006 C 
ENDBRANCH   8  11
ENDBRANCH   7   8
ENDBRANCH   1   7
BRANCH   6  13
ATOM     13  N   LIG d   1      -7.925  74.492 118.920  0.00  0.00    -0.311 N 
ATOM     14  C   LIG d   1      -7.459  73.587 118.061  0.00  0.00     0.210 C 
ATOM     15  C   LIG d   1      -6.791  72.368 118.706  0.00  0.00     0.109 C 
ATOM     16  O   LIG d   1      -7.507  73.692 116.827  0.00  0.00    -0.276 OA
ATOM     17  H   LIG d   1      -7.814  74.341 119.904  0.00  0.00     0.149 HD
ENDBRANCH   6  13
BRANCH   5  18
ATOM     18  N   LIG d   1      -6.620  76.792 117.391  0.00  0.00     0.381 N 
ATOM     19  H   LIG d   1      -7.034  76.507 116.526  0.00  0.00    -0.090 HD
ATOM     20  H   LIG d   1      -5.979  76.077 117.685  0.00  0.00    -0.090 HD
ATOM     21  H   LIG d   1      -6.133  77.653 117.266  0.00  0.00    -0.090 HD
ENDBRANCH   5  18
BRANCH   3  22
ATOM     22  C   LIG d   1     -10.014  79.685 119.138  0.00  0.00     0.382 C 
ATOM     23  O   LIG d   1     -10.277  80.444 118.174  0.00  0.00    -0.241 OA
ATOM     24  O   LIG d   1     -10.096  80.120 120.302  0.00  0.00    -0.241 OA
ENDBRANCH   3  22
TORSDOF 7
ENDMDL
MODEL 6
REMARK VINA RESULT:      -5.0      5.509      7.917
REMARK  7 active torsions:
REMARK  status: ('A' for Active; 'I' for Inactive)
REMARK    1  A    between atoms: C_2  and  C_3 
REMARK    2  A    between atoms: C_3  and  O_6 
REMARK    3  A    between atoms: C_3  and  C_4 
REMARK    4  A    between atoms: C_7  and  O_6 
REMARK    5  A    between atoms: C_9  and  C_10 
REMARK    6  A    between atoms: N_15  and  C_14 
REMARK    7  A    between atoms: N_20  and  C_19 
REMARK       I    between atoms: C_22  and  N_20 
ROOT
ATOM      1  C   LIG d   1      -2.889  74.534 115.937  0.00  0.00     0.161 C 
ATOM      2  C   LIG d   1      -2.508  73.710 117.010  0.00  0.00     0.016 C 
ATOM      3  C   LIG d   1      -1.267  73.827 117.677  0.00  0.00     0.038 C 
ATOM      4  C   LIG d   1      -0.380  74.881 117.414  0.00  0.00     0.028 C 
ATOM      5  C   LIG d   1      -0.498  75.433 115.997  0.00  0.00    -0.047 C 
ATOM      6  C   LIG d   1      -1.981  75.760 115.709  0.00  0.00     0.091 C 
ENDROOT
BRANCH   1   7
ATOM      7  O   LIG d   1      -4.260  74.949 116.103  0.00  0.00    -0.368 OA
BRANCH   7   8
ATOM      8  C   LIG d   1      -5.268  73.947 115.820  0.00  0.00     0.119 C 
BRANCH   8   9
ATOM      9  C   LIG d   1      -5.573  74.011 114.311  0.00  0.00     0.028 C 
ATOM     10  C   LIG d   1      -6.169  75.365 113.890  0.00  0.00     0.006 C 
ENDBRANCH   8   9
BRANCH   8  11
ATOM     11  C   LIG d   1      -6.592  74.277 116.516  0.00  0.00     0.028 C 
ATOM     12  C   LIG d   1      -7.384  73.022 116.914  0.00  0.00     0.006 C 
ENDBRANCH   8  11
ENDBRANCH   7   8
ENDBRANCH   1   7
BRANCH   6  13
ATOM     13  N   LIG d   1      -2.198  76.227 114.315  0.00  0.00    -0.311 N 
ATOM     14  C   LIG d   1      -2.990  77.250 113.999  0.00  0.00     0.210 C 
ATOM     15  C   LIG d   1      -3.089  77.553 112.500  0.00  0.00     0.109 C 
ATOM     16  O   LIG d   1      -3.595  77.956 114.820  0.00  0.00    -0.276 OA
ATOM     17  H   LIG d   1      -1.721  75.730 113.588  0.00  0.00     0.149 HD
ENDBRANCH   6  13
BRANCH   5  18
ATOM     18  N   LIG d   1       0.383  76.612 115.903  0.00  0.00     0.381 N 
ATOM     19  H   LIG d   1       0.503  77.019 116.810  0.00  0.00    -0.090 HD
ATOM     20  H   LIG d   1      -0.051  77.295 115.307  0.00  0.00    -0.090 HD
ATOM     21  H   LIG d   1       1.268  76.348 115.530  0.00  0.00    -0.090 HD
ENDBRANCH   5  18
BRANCH   3  22
ATOM     22  C   LIG d   1      -0.886  72.858 118.593  0.00  0.00     0.382 C 
ATOM     23  O   LIG d   1      -0.412  73.198 119.704  0.00  0.00    -0.241 OA
ATOM     24  O   LIG d   1      -0.968  71.649 118.305  0.00  0.00    -0.241 OA
ENDBRANCH   3  22
TORSDOF 7
ENDMDL
MODEL 7
REMARK VINA RESULT:      -4.9      2.954      5.069
REMARK  7 active torsions:
REMARK  status: ('A' for Active; 'I' for Inactive)
REMARK    1  A    between atoms: C_2  and  C_3 
REMARK    2  A    between atoms: C_3  and  O_6 
REMARK    3  A    between atoms: C_3  and  C_4 
REMARK    4  A    between atoms: C_7  and  O_6 
REMARK    5  A    between atoms: C_9  and  C_10 
REMARK    6  A    between atoms: N_15  and  C_14 
REMARK    7  A    between atoms: N_20  and  C_19 
REMARK       I    between atoms: C_22  and  N_20 
ROOT
ATOM      1  C   LIG d   1      -6.663  73.747 117.505  0.00  0.00     0.161 C 
ATOM      2  C   LIG d   1      -5.431  73.349 116.959  0.00  0.00     0.016 C 
ATOM      3  C   LIG d   1      -4.202  73.974 117.273  0.00  0.00     0.038 C 
ATOM      4  C   LIG d   1      -4.101  74.948 118.276  0.00  0.00     0.028 C 
ATOM      5  C   LIG d   1      -5.391  75.732 118.492  0.00  0.00    -0.047 C 
ATOM      6  C   LIG d   1      -6.557  74.735 118.685  0.00  0.00     0.091 C 
ENDROOT
BRANCH   1   7
ATOM      7  O   LIG d   1      -7.425  72.586 117.890  0.00  0.00    -0.368 OA
BRANCH   7   8
ATOM      8  C   LIG d   1      -8.416  72.130 116.937  0.00  0.00     0.119 C 
BRANCH   8   9
ATOM      9  C   LIG d   1      -9.793  72.215 117.624  0.00  0.00     0.028 C 
ATOM     10  C   LIG d   1     -10.666  73.343 117.051  0.00  0.00     0.006 C 
ENDBRANCH   8   9
BRANCH   8  11
ATOM     11  C   LIG d   1      -8.223  70.649 116.598  0.00  0.00     0.028 C 
ATOM     12  C   LIG d   1      -9.452  69.793 116.944  0.00  0.00     0.006 C 
ENDBRANCH   8  11
ENDBRANCH   7   8
ENDBRANCH   1   7
BRANCH   6  13
ATOM     13  N   LIG d   1      -7.870  75.418 118.819  0.00  0.00    -0.311 N 
ATOM     14  C   LIG d   1      -8.378  76.220 117.884  0.00  0.00     0.210 C 
ATOM     15  C   LIG d   1      -9.736  76.838 118.231  0.00  0.00     0.109 C 
ATOM     16  O   LIG d   1      -7.848  76.451 116.787  0.00  0.00    -0.276 OA
ATOM     17  H   LIG d   1      -8.382  75.261 119.665  0.00  0.00     0.149 HD
ENDBRANCH   6  13
BRANCH   5  18
ATOM     18  N   LIG d   1      -5.187  76.615 119.656  0.00  0.00     0.381 N 
ATOM     19  H   LIG d   1      -5.928  77.285 119.707  0.00  0.00    -0.090 HD
ATOM     20  H   LIG d   1      -4.321  77.111 119.539  0.00  0.00    -0.090 HD
ATOM     21  H   LIG d   1      -5.159  76.075 120.493  0.00  0.00    -0.090 HD
ENDBRANCH   5  18
BRANCH   3  22
ATOM     22  C   LIG d   1      -3.063  73.652 116.550  0.00  0.00     0.382 C 
ATOM     23  O   LIG d   1      -2.958  74.011 115.352  0.00  0.00    -0.241 OA
ATOM     24  O   LIG d   1      -2.159  72.968 117.067  0.00  0.00    -0.241 OA
ENDBRANCH   3  22
TORSDOF 7
ENDMDL
MODEL 8
REMARK VINA RESULT:      -4.7      4.759      6.678
REMARK  7 active torsions:
REMARK  status: ('A' for Active; 'I' for Inactive)
REMARK    1  A    between atoms: C_2  and  C_3 
REMARK    2  A    between atoms: C_3  and  O_6 
REMARK    3  A    between atoms: C_3  and  C_4 
REMARK    4  A    between atoms: C_7  and  O_6 
REMARK    5  A    between atoms: C_9  and  C_10 
REMARK    6  A    between atoms: N_15  and  C_14 
REMARK    7  A    between atoms: N_20  and  C_19 
REMARK       I    between atoms: C_22  and  N_20 
ROOT
ATOM      1  C   LIG d   1      -3.606  74.755 116.424  0.00  0.00     0.161 C 
ATOM      2  C   LIG d   1      -4.383  73.726 116.982  0.00  0.00     0.016 C 
ATOM      3  C   LIG d   1      -5.702  73.433 116.564  0.00  0.00     0.038 C 
ATOM      4  C   LIG d   1      -6.282  74.056 115.450  0.00  0.00     0.028 C 
ATOM      5  C   LIG d   1      -5.725  75.448 115.175  0.00  0.00    -0.047 C 
ATOM      6  C   LIG d   1      -4.182  75.372 115.132  0.00  0.00     0.091 C 
ENDROOT
BRANCH   1   7
ATOM      7  O   LIG d   1      -2.262  74.285 116.199  0.00  0.00    -0.368 OA
BRANCH   7   8
ATOM      8  C   LIG d   1      -1.421  74.177 117.374  0.00  0.00     0.119 C 
BRANCH   8   9
ATOM      9  C   LIG d   1      -0.311  75.238 117.247  0.00  0.00     0.028 C 
ATOM     10  C   LIG d   1      -0.122  75.721 115.799  0.00  0.00     0.006 C 
ENDBRANCH   8   9
BRANCH   8  11
ATOM     11  C   LIG d   1      -0.691  72.830 117.414  0.00  0.00     0.028 C 
ATOM     12  C   LIG d   1      -0.671  72.206 118.818  0.00  0.00     0.006 C 
ENDBRANCH   8  11
ENDBRANCH   7   8
ENDBRANCH   1   7
BRANCH   6  13
ATOM     13  N   LIG d   1      -3.553  76.706 114.952  0.00  0.00    -0.311 N 
ATOM     14  C   LIG d   1      -3.245  77.217 113.761  0.00  0.00     0.210 C 
ATOM     15  C   LIG d   1      -2.585  78.599 113.801  0.00  0.00     0.109 C 
ATOM     16  O   LIG d   1      -3.486  76.671 112.674  0.00  0.00    -0.276 OA
ATOM     17  H   LIG d   1      -3.352  77.231 115.781  0.00  0.00     0.149 HD
ENDBRANCH   6  13
BRANCH   5  18
ATOM     18  N   LIG d   1      -6.316  75.924 113.910  0.00  0.00     0.381 N 
ATOM     19  H   LIG d   1      -6.244  75.210 113.213  0.00  0.00    -0.090 HD
ATOM     20  H   LIG d   1      -5.803  76.727 113.593  0.00  0.00    -0.090 HD
ATOM     21  H   LIG d   1      -7.273  76.166 114.050  0.00  0.00    -0.090 HD
ENDBRANCH   5  18
BRANCH   3  22
ATOM     22  C   LIG d   1      -6.469  72.535 117.291  0.00  0.00     0.382 C 
ATOM     23  O   LIG d   1      -6.526  72.626 118.541  0.00  0.00    -0.241 OA
ATOM     24  O   LIG d   1      -7.070  71.607 116.716  0.00  0.00    -0.241 OA
ENDBRANCH   3  22
TORSDOF 7
ENDMDL
MODEL 9
REMARK VINA RESULT:      -4.7      2.690      5.665
REMARK  7 active torsions:
REMARK  status: ('A' for Active; 'I' for Inactive)
REMARK    1  A    between atoms: C_2  and  C_3 
REMARK    2  A    between atoms: C_3  and  O_6 
REMARK    3  A    between atoms: C_3  and  C_4 
REMARK    4  A    between atoms: C_7  and  O_6 
REMARK    5  A    between atoms: C_9  and  C_10 
REMARK    6  A    between atoms: N_15  and  C_14 
REMARK    7  A    between atoms: N_20  and  C_19 
REMARK       I    between atoms: C_22  and  N_20 
ROOT
ATOM      1  C   LIG d   1      -8.285  73.374 119.244  0.00  0.00     0.161 C 
ATOM      2  C   LIG d   1      -7.595  74.552 119.576  0.00  0.00     0.016 C 
ATOM      3  C   LIG d   1      -6.650  75.167 118.723  0.00  0.00     0.038 C 
ATOM      4  C   LIG d   1      -6.441  74.726 117.407  0.00  0.00     0.028 C 
ATOM      5  C   LIG d   1      -6.743  73.244 117.210  0.00  0.00    -0.047 C 
ATOM      6  C   LIG d   1      -8.152  72.940 117.769  0.00  0.00     0.091 C 
ENDROOT
BRANCH   1   7
ATOM      7  O   LIG d   1      -9.674  73.503 119.605  0.00  0.00    -0.368 OA
BRANCH   7   8
ATOM      8  C   LIG d   1     -10.518  74.195 118.653  0.00  0.00     0.119 C 
BRANCH   8   9
ATOM      9  C   LIG d   1     -10.793  75.603 119.215  0.00  0.00     0.028 C 
ATOM     10  C   LIG d   1     -10.197  76.714 118.335  0.00  0.00     0.006 C 
ENDBRANCH   8   9
BRANCH   8  11
ATOM     11  C   LIG d   1     -11.893  73.528 118.539  0.00  0.00     0.028 C 
ATOM     12  C   LIG d   1     -12.546  73.274 119.906  0.00  0.00     0.006 C 
ENDBRANCH   8  11
ENDBRANCH   7   8
ENDBRANCH   1   7
BRANCH   6  13
ATOM     13  N   LIG d   1      -8.493  71.496 117.692  0.00  0.00    -0.311 N 
ATOM     14  C   LIG d   1      -9.476  71.014 116.934  0.00  0.00     0.210 C 
ATOM     15  C   LIG d   1      -9.672  69.497 117.017  0.00  0.00     0.109 C 
ATOM     16  O   LIG d   1     -10.184  71.695 116.176  0.00  0.00    -0.276 OA
ATOM     17  H   LIG d   1      -7.948  70.868 118.251  0.00  0.00     0.149 HD
ENDBRANCH   6  13
BRANCH   5  18
ATOM     18  N   LIG d   1      -6.617  72.951 115.770  0.00  0.00     0.381 N 
ATOM     19  H   LIG d   1      -6.833  73.770 115.238  0.00  0.00    -0.090 HD
ATOM     20  H   LIG d   1      -7.275  72.233 115.525  0.00  0.00    -0.090 HD
ATOM     21  H   LIG d   1      -5.690  72.648 115.564  0.00  0.00    -0.090 HD
ENDBRANCH   5  18
BRANCH   3  22
ATOM     22  C   LIG d   1      -5.873  76.213 119.198  0.00  0.00     0.382 C 
ATOM     23  O   LIG d   1      -6.367  77.050 119.991  0.00  0.00    -0.241 OA
ATOM     24  O   LIG d   1      -4.699  76.355 118.809  0.00  0.00    -0.241 OA
ENDBRANCH   3  22
TORSDOF 7
ENDMDL
