MODEL 1
REMARK VINA RESULT:      -5.8      0.000      0.000
REMARK  7 active torsions:
REMARK  status: ('A' for Active; 'I' for Inactive)
REMARK    1  A    between atoms: C_2  and  C_3 
REMARK    2  A    between atoms: C_3  and  O_6 
REMARK    3  A    between atoms: C_3  and  C_4 
REMARK    4  A    between atoms: C_7  and  O_6 
REMARK    5  A    between atoms: C_9  and  C_10 
REMARK    6  A    between atoms: N_15  and  C_14 
REMARK    7  A    between atoms: N_20  and  C_19 
REMARK       I    between atoms: C_22  and  N_20 
ROOT
ATOM      1  C   LIG d   1      -8.342  74.781 117.598  0.00  0.00     0.161 C 
ATOM      2  C   LIG d   1      -7.207  74.958 116.788  0.00  0.00     0.016 C 
ATOM      3  C   LIG d   1      -6.552  73.897 116.123  0.00  0.00     0.038 C 
ATOM      4  C   LIG d   1      -7.080  72.598 116.100  0.00  0.00     0.028 C 
ATOM      5  C   LIG d   1      -7.942  72.273 117.315  0.00  0.00    -0.047 C 
ATOM      6  C   LIG d   1      -8.998  73.388 117.495  0.00  0.00     0.091 C 
ENDROOT
BRANCH   1   7
ATOM      7  O   LIG d   1      -9.309  75.812 117.317  0.00  0.00    -0.368 OA
BRANCH   7   8
ATOM      8  C   LIG d   1      -9.408  76.876 118.295  0.00  0.00     0.119 C 
BRANCH   8   9
ATOM      9  C   LIG d   1     -10.885  77.311 118.357  0.00  0.00     0.028 C 
ATOM     10  C   LIG d   1     -11.543  76.963 119.704  0.00  0.00     0.006 C 
ENDBRANCH   8   9
BRANCH   8  11
ATOM     11  C   LIG d   1      -8.638  78.121 117.844  0.00  0.00     0.028 C 
ATOM     12  C   LIG d   1      -9.273  79.428 118.344  0.00  0.00     0.006 C 
ENDBRANCH   8  11
ENDBRANCH   7   8
ENDBRANCH   1   7
BRANCH   6  13
ATOM     13  N   LIG d   1      -9.829  73.191 118.711  0.00  0.00    -0.311 N 
ATOM     14  C   LIG d   1     -11.132  73.463 118.761  0.00  0.00     0.210 C 
ATOM     15  C   LIG d   1     -11.794  73.207 120.118  0.00  0.00     0.109 C 
ATOM     16  O   LIG d   1     -11.808  73.861 117.800  0.00  0.00    -0.276 OA
ATOM     17  H   LIG d   1      -9.367  72.841 119.528  0.00  0.00     0.149 HD
ENDBRANCH   6  13
BRANCH   5  18
ATOM     18  N   LIG d   1      -8.539  70.941 117.096  0.00  0.00     0.381 N 
ATOM     19  H   LIG d   1      -9.134  70.706 117.865  0.00  0.00    -0.090 HD
ATOM     20  H   LIG d   1      -7.803  70.259 117.046  0.00  0.00    -0.090 HD
ATOM     21  H   LIG d   1      -9.062  70.938 116.248  0.00  0.00    -0.090 HD
ENDBRANCH   5  18
BRANCH   3  22
ATOM     22  C   LIG d   1      -5.332  74.123 115.503  0.00  0.00     0.382 C 
ATOM     23  O   LIG d   1      -5.246  74.074 114.252  0.00  0.00    -0.241 OA
ATOM     24  O   LIG d   1      -4.309  74.331 116.181  0.00  0.00    -0.241 OA
ENDBRANCH   3  22
TORSDOF 7
ENDMDL
MODEL 2
REMARK VINA RESULT:      -5.8      2.632      5.953
REMARK  7 active torsions:
REMARK  status: ('A' for Active; 'I' for Inactive)
REMARK    1  A    between atoms: C_2  and  C_3 
REMARK    2  A    between atoms: C_3  and  O_6 
REMARK    3  A    between atoms: C_3  and  C_4 
REMARK    4  A    between atoms: C_7  and  O_6 
REMARK    5  A    between atoms: C_9  and  C_10 
REMARK    6  A    between atoms: N_15  and  C_14 
REMARK    7  A    between atoms: N_20  and  C_19 
REMARK       I    between atoms: C_22  and  N_20 
ROOT
ATOM      1  C   LIG d   1      -9.669  76.293 117.679  0.00  0.00     0.161 C 
ATOM      2  C   LIG d   1     -10.481  77.289 118.247  0.00  0.00     0.016 C 
ATOM      3  C   LIG d   1     -10.025  78.595 118.535  0.00  0.00     0.038 C 
ATOM      4  C   LIG d   1      -8.758  79.043 118.132  0.00  0.00     0.028 C 
ATOM      5  C   LIG d   1      -7.730  77.924 118.010  0.00  0.00    -0.047 C 
ATOM      6  C   LIG d   1      -8.318  76.796 117.131  0.00  0.00     0.091 C 
ENDROOT
BRANCH   1   7
ATOM      7  O   LIG d   1     -10.399  75.596 116.650  0.00  0.00    -0.368 OA
BRANCH   7   8
ATOM      8  C   LIG d   1     -10.943  74.305 117.019  0.00  0.00     0.119 C 
BRANCH   8   9
ATOM      9  C   LIG d   1     -12.305  74.553 117.695  0.00  0.00     0.028 C 
ATOM     10  C   LIG d   1     -12.365  73.980 119.121  0.00  0.00     0.006 C 
ENDBRANCH   8   9
BRANCH   8  11
ATOM     11  C   LIG d   1     -10.081  73.619 118.083  0.00  0.00     0.028 C 
ATOM     12  C   LIG d   1      -9.213  72.488 117.509  0.00  0.00     0.006 C 
ENDBRANCH   8  11
ENDBRANCH   7   8
ENDBRANCH   1   7
BRANCH   6  13
ATOM     13  N   LIG d   1      -7.409  75.625 117.029  0.00  0.00    -0.311 N 
ATOM     14  C   LIG d   1      -6.951  75.150 115.872  0.00  0.00     0.210 C 
ATOM     15  C   LIG d   1      -6.043  73.922 115.990  0.00  0.00     0.109 C 
ATOM     16  O   LIG d   1      -7.185  75.649 114.761  0.00  0.00    -0.276 OA
ATOM     17  H   LIG d   1      -7.143  75.178 117.885  0.00  0.00     0.149 HD
ENDBRANCH   6  13
BRANCH   5  18
ATOM     18  N   LIG d   1      -6.497  78.510 117.452  0.00  0.00     0.381 N 
ATOM     19  H   LIG d   1      -5.697  78.074 117.866  0.00  0.00    -0.090 HD
ATOM     20  H   LIG d   1      -6.473  79.489 117.674  0.00  0.00    -0.090 HD
ATOM     21  H   LIG d   1      -6.477  78.385 116.464  0.00  0.00    -0.090 HD
ENDBRANCH   5  18
BRANCH   3  22
ATOM     22  C   LIG d   1     -10.825  79.457 119.270  0.00  0.00     0.382 C 
ATOM     23  O   LIG d   1     -10.824  80.685 119.014  0.00  0.00    -0.241 OA
ATOM     24  O   LIG d   1     -11.515  79.028 120.214  0.00  0.00    -0.241 OA
ENDBRANCH   3  22
TORSDOF 7
ENDMDL
MODEL 3
REMARK VINA RESULT:      -5.7      2.266      4.278
REMARK  7 active torsions:
REMARK  status: ('A' for Active; 'I' for Inactive)
REMARK    1  A    between atoms: C_2  and  C_3 
REMARK    2  A    between atoms: C_3  and  O_6 
REMARK    3  A    between atoms: C_3  and  C_4 
REMARK    4  A    between atoms: C_7  and  O_6 
REMARK    5  A    between atoms: C_9  and  C_10 
REMARK    6  A    between atoms: N_15  and  C_14 
REMARK    7  A    between atoms: N_20  and  C_19 
REMARK       I    between atoms: C_22  and  N_20 
ROOT
ATOM      1  C   LIG d   1      -8.069  75.200 116.934  0.00  0.00     0.161 C 
ATOM      2  C   LIG d   1      -7.004  74.635 116.213  0.00  0.00     0.016 C 
ATOM      3  C   LIG d   1      -5.805  75.327 115.926  0.00  0.00     0.038 C 
ATOM      4  C   LIG d   1      -5.526  76.587 116.476  0.00  0.00     0.028 C 
ATOM      5  C   LIG d   1      -6.777  77.400 116.792  0.00  0.00    -0.047 C 
ATOM      6  C   LIG d   1      -7.739  76.534 117.637  0.00  0.00     0.091 C 
ENDROOT
BRANCH   1   7
ATOM      7  O   LIG d   1      -8.576  74.244 117.887  0.00  0.00    -0.368 OA
BRANCH   7   8
ATOM      8  C   LIG d   1      -9.565  73.311 117.388  0.00  0.00     0.119 C 
BRANCH   8   9
ATOM      9  C   LIG d   1     -10.896  73.622 118.100  0.00  0.00     0.028 C 
ATOM     10  C   LIG d   1     -11.749  74.644 117.330  0.00  0.00     0.006 C 
ENDBRANCH   8   9
BRANCH   8  11
ATOM     11  C   LIG d   1      -9.222  71.871 117.782  0.00  0.00     0.028 C 
ATOM     12  C   LIG d   1      -8.120  71.259 116.902  0.00  0.00     0.006 C 
ENDBRANCH   8  11
ENDBRANCH   7   8
ENDBRANCH   1   7
BRANCH   6  13
ATOM     13  N   LIG d   1      -9.025  77.224 117.918  0.00  0.00    -0.311 N 
ATOM     14  C   LIG d   1      -9.614  77.218 119.113  0.00  0.00     0.210 C 
ATOM     15  C   LIG d   1     -10.944  77.975 119.182  0.00  0.00     0.109 C 
ATOM     16  O   LIG d   1      -9.145  76.685 120.130  0.00  0.00    -0.276 OA
ATOM     17  H   LIG d   1      -9.459  77.708 117.157  0.00  0.00     0.149 HD
ENDBRANCH   6  13
BRANCH   5  18
ATOM     18  N   LIG d   1      -6.347  78.629 117.484  0.00  0.00     0.381 N 
ATOM     19  H   LIG d   1      -5.435  78.894 117.169  0.00  0.00    -0.090 HD
ATOM     20  H   LIG d   1      -6.300  78.447 118.471  0.00  0.00    -0.090 HD
ATOM     21  H   LIG d   1      -6.994  79.366 117.306  0.00  0.00    -0.090 HD
ENDBRANCH   5  18
BRANCH   3  22
ATOM     22  C   LIG d   1      -4.885  74.773 115.049  0.00  0.00     0.382 C 
ATOM     23  O   LIG d   1      -3.678  75.110 115.111  0.00  0.00    -0.241 OA
ATOM     24  O   LIG d   1      -5.255  73.975 114.167  0.00  0.00    -0.241 OA
ENDBRANCH   3  22
TORSDOF 7
ENDMDL
MODEL 4
REMARK VINA RESULT:      -5.6      1.866      2.311
REMARK  7 active torsions:
REMARK  status: ('A' for Active; 'I' for Inactive)
REMARK    1  A    between atoms: C_2  and  C_3 
REMARK    2  A    between atoms: C_3  and  O_6 
REMARK    3  A    between atoms: C_3  and  C_4 
REMARK    4  A    between atoms: C_7  and  O_6 
REMARK    5  A    between atoms: C_9  and  C_10 
REMARK    6  A    between atoms: N_15  and  C_14 
REMARK    7  A    between atoms: N_20  and  C_19 
REMARK       I    between atoms: C_22  and  N_20 
ROOT
ATOM      1  C   LIG d   1      -7.943  75.258 116.838  0.00  0.00     0.161 C 
ATOM      2  C   LIG d   1      -7.092  76.007 116.008  0.00  0.00     0.016 C 
ATOM      3  C   LIG d   1      -6.108  75.427 115.175  0.00  0.00     0.038 C 
ATOM      4  C   LIG d   1      -6.009  74.038 115.002  0.00  0.00     0.028 C 
ATOM      5  C   LIG d   1      -6.510  73.241 116.202  0.00  0.00    -0.047 C 
ATOM      6  C   LIG d   1      -7.924  73.737 116.579  0.00  0.00     0.091 C 
ENDROOT
BRANCH   1   7
ATOM      7  O   LIG d   1      -9.288  75.766 116.744  0.00  0.00    -0.368 OA
BRANCH   7   8
ATOM      8  C   LIG d   1      -9.869  76.263 117.975  0.00  0.00     0.119 C 
BRANCH   8   9
ATOM      9  C   LIG d   1     -11.385  75.994 117.913  0.00  0.00     0.028 C 
ATOM     10  C   LIG d   1     -11.715  74.648 117.246  0.00  0.00     0.006 C 
ENDBRANCH   8   9
BRANCH   8  11
ATOM     11  C   LIG d   1      -9.732  77.785 118.081  0.00  0.00     0.028 C 
ATOM     12  C   LIG d   1     -10.859  78.429 118.904  0.00  0.00     0.006 C 
ENDBRANCH   8  11
ENDBRANCH   7   8
ENDBRANCH   1   7
BRANCH   6  13
ATOM     13  N   LIG d   1      -8.454  73.068 117.795  0.00  0.00    -0.311 N 
ATOM     14  C   LIG d   1      -9.048  71.876 117.776  0.00  0.00     0.210 C 
ATOM     15  C   LIG d   1      -9.539  71.376 119.138  0.00  0.00     0.109 C 
ATOM     16  O   LIG d   1      -9.185  71.170 116.765  0.00  0.00    -0.276 OA
ATOM     17  H   LIG d   1      -8.357  73.556 118.664  0.00  0.00     0.149 HD
ENDBRANCH   6  13
BRANCH   5  18
ATOM     18  N   LIG d   1      -6.478  71.813 115.833  0.00  0.00     0.381 N 
ATOM     19  H   LIG d   1      -5.651  71.618 115.304  0.00  0.00    -0.090 HD
ATOM     20  H   LIG d   1      -7.276  71.608 115.258  0.00  0.00    -0.090 HD
ATOM     21  H   LIG d   1      -6.496  71.248 116.653  0.00  0.00    -0.090 HD
ENDBRANCH   5  18
BRANCH   3  22
ATOM     22  C   LIG d   1      -5.183  76.238 114.535  0.00  0.00     0.382 C 
ATOM     23  O   LIG d   1      -4.351  76.892 115.209  0.00  0.00    -0.241 OA
ATOM     24  O   LIG d   1      -5.199  76.358 113.296  0.00  0.00    -0.241 OA
ENDBRANCH   3  22
TORSDOF 7
ENDMDL
MODEL 5
REMARK VINA RESULT:      -5.5      2.459      4.602
REMARK  7 active torsions:
REMARK  status: ('A' for Active; 'I' for Inactive)
REMARK    1  A    between atoms: C_2  and  C_3 
REMARK    2  A    between atoms: C_3  and  O_6 
REMARK    3  A    between atoms: C_3  and  C_4 
REMARK    4  A    between atoms: C_7  and  O_6 
REMARK    5  A    between atoms: C_9  and  C_10 
REMARK    6  A    between atoms: N_15  and  C_14 
REMARK    7  A    between atoms: N_20  and  C_19 
REMARK       I    between atoms: C_22  and  N_20 
ROOT
ATOM      1  C   LIG d   1      -8.595  74.985 117.366  0.00  0.00     0.161 C 
ATOM      2  C   LIG d   1      -8.523  73.586 117.256  0.00  0.00     0.016 C 
ATOM      3  C   LIG d   1      -9.352  72.704 117.986  0.00  0.00     0.038 C 
ATOM      4  C   LIG d   1     -10.420  73.168 118.769  0.00  0.00     0.028 C 
ATOM      5  C   LIG d   1     -10.210  74.580 119.304  0.00  0.00    -0.047 C 
ATOM      6  C   LIG d   1      -9.828  75.510 118.131  0.00  0.00     0.091 C 
ENDROOT
BRANCH   1   7
ATOM      7  O   LIG d   1      -8.526  75.582 116.056  0.00  0.00    -0.368 OA
BRANCH   7   8
ATOM      8  C   LIG d   1      -7.308  76.305 115.750  0.00  0.00     0.119 C 
BRANCH   8   9
ATOM      9  C   LIG d   1      -6.616  75.573 114.583  0.00  0.00     0.028 C 
ATOM     10  C   LIG d   1      -5.619  74.508 115.068  0.00  0.00     0.006 C 
ENDBRANCH   8   9
BRANCH   8  11
ATOM     11  C   LIG d   1      -6.315  76.243 116.914  0.00  0.00     0.028 C 
ATOM     12  C   LIG d   1      -5.979  77.630 117.485  0.00  0.00     0.006 C 
ENDBRANCH   8  11
ENDBRANCH   7   8
ENDBRANCH   1   7
BRANCH   6  13
ATOM     13  N   LIG d   1      -9.523  76.894 118.580  0.00  0.00    -0.311 N 
ATOM     14  C   LIG d   1     -10.426  77.872 118.607  0.00  0.00     0.210 C 
ATOM     15  C   LIG d   1      -9.897  79.228 119.086  0.00  0.00     0.109 C 
ATOM     16  O   LIG d   1     -11.623  77.738 118.312  0.00  0.00    -0.276 OA
ATOM     17  H   LIG d   1      -8.582  77.083 118.867  0.00  0.00     0.149 HD
ENDBRANCH   6  13
BRANCH   5  18
ATOM     18  N   LIG d   1     -11.454  74.988 119.985  0.00  0.00     0.381 N 
ATOM     19  H   LIG d   1     -11.303  75.025 120.973  0.00  0.00    -0.090 HD
ATOM     20  H   LIG d   1     -12.165  74.303 119.800  0.00  0.00    -0.090 HD
ATOM     21  H   LIG d   1     -11.747  75.880 119.652  0.00  0.00    -0.090 HD
ENDBRANCH   5  18
BRANCH   3  22
ATOM     22  C   LIG d   1      -9.091  71.342 117.968  0.00  0.00     0.382 C 
ATOM     23  O   LIG d   1      -9.643  70.587 118.805  0.00  0.00    -0.241 OA
ATOM     24  O   LIG d   1      -8.277  70.866 117.156  0.00  0.00    -0.241 OA
ENDBRANCH   3  22
TORSDOF 7
ENDMDL
MODEL 6
REMARK VINA RESULT:      -5.4      2.411      4.259
REMARK  7 active torsions:
REMARK  status: ('A' for Active; 'I' for Inactive)
REMARK    1  A    between atoms: C_2  and  C_3 
REMARK    2  A    between atoms: C_3  and  O_6 
REMARK    3  A    between atoms: C_3  and  C_4 
REMARK    4  A    between atoms: C_7  and  O_6 
REMARK    5  A    between atoms: C_9  and  C_10 
REMARK    6  A    between atoms: N_15  and  C_14 
REMARK    7  A    between atoms: N_20  and  C_19 
REMARK       I    between atoms: C_22  and  N_20 
ROOT
ATOM      1  C   LIG d   1      -9.197  75.803 117.248  0.00  0.00     0.161 C 
ATOM      2  C   LIG d   1      -8.428  74.760 116.705  0.00  0.00     0.016 C 
ATOM      3  C   LIG d   1      -7.039  74.863 116.459  0.00  0.00     0.038 C 
ATOM      4  C   LIG d   1      -6.292  75.972 116.883  0.00  0.00     0.028 C 
ATOM      5  C   LIG d   1      -7.111  77.254 116.978  0.00  0.00    -0.047 C 
ATOM      6  C   LIG d   1      -8.378  76.979 117.820  0.00  0.00     0.091 C 
ENDROOT
BRANCH   1   7
ATOM      7  O   LIG d   1     -10.090  75.280 118.251  0.00  0.00    -0.368 OA
BRANCH   7   8
ATOM      8  C   LIG d   1     -10.899  74.145 117.854  0.00  0.00     0.119 C 
BRANCH   8   9
ATOM      9  C   LIG d   1     -12.375  74.584 117.916  0.00  0.00     0.028 C 
ATOM     10  C   LIG d   1     -12.528  76.104 118.097  0.00  0.00     0.006 C 
ENDBRANCH   8   9
BRANCH   8  11
ATOM     11  C   LIG d   1     -10.776  72.995 118.858  0.00  0.00     0.028 C 
ATOM     12  C   LIG d   1     -11.833  73.061 119.972  0.00  0.00     0.006 C 
ENDBRANCH   8  11
ENDBRANCH   7   8
ENDBRANCH   1   7
BRANCH   6  13
ATOM     13  N   LIG d   1      -9.278  78.160 117.892  0.00  0.00    -0.311 N 
ATOM     14  C   LIG d   1      -9.799  78.616 119.030  0.00  0.00     0.210 C 
ATOM     15  C   LIG d   1     -10.717  79.833 118.878  0.00  0.00     0.109 C 
ATOM     16  O   LIG d   1      -9.563  78.148 120.154  0.00  0.00    -0.276 OA
ATOM     17  H   LIG d   1      -9.497  78.620 117.030  0.00  0.00     0.149 HD
ENDBRANCH   6  13
BRANCH   5  18
ATOM     18  N   LIG d   1      -6.244  78.295 117.562  0.00  0.00     0.381 N 
ATOM     19  H   LIG d   1      -5.461  78.460 116.961  0.00  0.00    -0.090 HD
ATOM     20  H   LIG d   1      -5.898  77.971 118.448  0.00  0.00    -0.090 HD
ATOM     21  H   LIG d   1      -6.759  79.138 117.687  0.00  0.00    -0.090 HD
ENDBRANCH   5  18
BRANCH   3  22
ATOM     22  C   LIG d   1      -6.392  73.866 115.746  0.00  0.00     0.382 C 
ATOM     23  O   LIG d   1      -5.616  74.169 114.807  0.00  0.00    -0.241 OA
ATOM     24  O   LIG d   1      -6.608  72.666 115.999  0.00  0.00    -0.241 OA
ENDBRANCH   3  22
TORSDOF 7
ENDMDL
MODEL 7
REMARK VINA RESULT:      -5.4      1.663      4.878
REMARK  7 active torsions:
REMARK  status: ('A' for Active; 'I' for Inactive)
REMARK    1  A    between atoms: C_2  and  C_3 
REMARK    2  A    between atoms: C_3  and  O_6 
REMARK    3  A    between atoms: C_3  and  C_4 
REMARK    4  A    between atoms: C_7  and  O_6 
REMARK    5  A    between atoms: C_9  and  C_10 
REMARK    6  A    between atoms: N_15  and  C_14 
REMARK    7  A    between atoms: N_20  and  C_19 
REMARK       I    between atoms: C_22  and  N_20 
ROOT
ATOM      1  C   LIG d   1      -9.395  75.560 116.778  0.00  0.00     0.161 C 
ATOM      2  C   LIG d   1     -10.648  75.537 117.412  0.00  0.00     0.016 C 
ATOM      3  C   LIG d   1     -11.159  74.404 118.087  0.00  0.00     0.038 C 
ATOM      4  C   LIG d   1     -10.381  73.258 118.304  0.00  0.00     0.028 C 
ATOM      5  C   LIG d   1      -9.300  73.050 117.248  0.00  0.00    -0.047 C 
ATOM      6  C   LIG d   1      -8.486  74.355 117.100  0.00  0.00     0.091 C 
ENDROOT
BRANCH   1   7
ATOM      7  O   LIG d   1      -8.716  76.795 117.081  0.00  0.00    -0.368 OA
BRANCH   7   8
ATOM      8  C   LIG d   1      -8.991  77.371 118.382  0.00  0.00     0.119 C 
BRANCH   8   9
ATOM      9  C   LIG d   1      -9.135  78.893 118.193  0.00  0.00     0.028 C 
ATOM     10  C   LIG d   1     -10.513  79.412 118.638  0.00  0.00     0.006 C 
ENDBRANCH   8   9
BRANCH   8  11
ATOM     11  C   LIG d   1      -7.805  77.190 119.334  0.00  0.00     0.028 C 
ATOM     12  C   LIG d   1      -6.669  78.190 119.066  0.00  0.00     0.006 C 
ENDBRANCH   8  11
ENDBRANCH   7   8
ENDBRANCH   1   7
BRANCH   6  13
ATOM     13  N   LIG d   1      -7.461  74.266 116.027  0.00  0.00    -0.311 N 
ATOM     14  C   LIG d   1      -6.229  74.756 116.148  0.00  0.00     0.210 C 
ATOM     15  C   LIG d   1      -5.337  74.575 114.915  0.00  0.00     0.109 C 
ATOM     16  O   LIG d   1      -5.779  75.296 117.170  0.00  0.00    -0.276 OA
ATOM     17  H   LIG d   1      -7.732  73.815 115.175  0.00  0.00     0.149 HD
ENDBRANCH   6  13
BRANCH   5  18
ATOM     18  N   LIG d   1      -8.478  71.900 117.672  0.00  0.00     0.381 N 
ATOM     19  H   LIG d   1      -7.933  71.572 116.901  0.00  0.00    -0.090 HD
ATOM     20  H   LIG d   1      -9.087  71.157 117.968  0.00  0.00    -0.090 HD
ATOM     21  H   LIG d   1      -7.880  72.167 118.422  0.00  0.00    -0.090 HD
ENDBRANCH   5  18
BRANCH   3  22
ATOM     22  C   LIG d   1     -12.477  74.397 118.517  0.00  0.00     0.382 C 
ATOM     23  O   LIG d   1     -12.810  73.699 119.505  0.00  0.00    -0.241 OA
ATOM     24  O   LIG d   1     -13.346  75.046 117.904  0.00  0.00    -0.241 OA
ENDBRANCH   3  22
TORSDOF 7
ENDMDL
MODEL 8
REMARK VINA RESULT:      -5.3      2.739      5.375
REMARK  7 active torsions:
REMARK  status: ('A' for Active; 'I' for Inactive)
REMARK    1  A    between atoms: C_2  and  C_3 
REMARK    2  A    between atoms: C_3  and  O_6 
REMARK    3  A    between atoms: C_3  and  C_4 
REMARK    4  A    between atoms: C_7  and  O_6 
REMARK    5  A    between atoms: C_9  and  C_10 
REMARK    6  A    between atoms: N_15  and  C_14 
REMARK    7  A    between atoms: N_20  and  C_19 
REMARK       I    between atoms: C_22  and  N_20 
ROOT
ATOM      1  C   LIG d   1      -8.557  76.984 117.461  0.00  0.00     0.161 C 
ATOM      2  C   LIG d   1      -7.593  78.005 117.485  0.00  0.00     0.016 C 
ATOM      3  C   LIG d   1      -7.802  79.259 118.104  0.00  0.00     0.038 C 
ATOM      4  C   LIG d   1      -8.942  79.522 118.877  0.00  0.00     0.028 C 
ATOM      5  C   LIG d   1     -10.160  78.705 118.460  0.00  0.00    -0.047 C 
ATOM      6  C   LIG d   1      -9.764  77.212 118.395  0.00  0.00     0.091 C 
ENDROOT
BRANCH   1   7
ATOM      7  O   LIG d   1      -7.934  75.716 117.749  0.00  0.00    -0.368 OA
BRANCH   7   8
ATOM      8  C   LIG d   1      -8.084  74.688 116.739  0.00  0.00     0.119 C 
BRANCH   8   9
ATOM      9  C   LIG d   1      -8.718  73.460 117.419  0.00  0.00     0.028 C 
ATOM     10  C   LIG d   1      -8.070  72.140 116.968  0.00  0.00     0.006 C 
ENDBRANCH   8   9
BRANCH   8  11
ATOM     11  C   LIG d   1      -6.723  74.210 116.225  0.00  0.00     0.028 C 
ATOM     12  C   LIG d   1      -6.270  74.951 114.957  0.00  0.00     0.006 C 
ENDBRANCH   8  11
ENDBRANCH   7   8
ENDBRANCH   1   7
BRANCH   6  13
ATOM     13  N   LIG d   1     -10.875  76.352 117.913  0.00  0.00    -0.311 N 
ATOM     14  C   LIG d   1     -11.701  75.696 118.727  0.00  0.00     0.210 C 
ATOM     15  C   LIG d   1     -12.766  74.849 118.022  0.00  0.00     0.109 C 
ATOM     16  O   LIG d   1     -11.673  75.760 119.965  0.00  0.00    -0.276 OA
ATOM     17  H   LIG d   1     -10.990  76.268 116.922  0.00  0.00     0.149 HD
ENDBRANCH   6  13
BRANCH   5  18
ATOM     18  N   LIG d   1     -11.234  78.977 119.434  0.00  0.00     0.381 N 
ATOM     19  H   LIG d   1     -10.867  78.934 120.364  0.00  0.00    -0.090 HD
ATOM     20  H   LIG d   1     -11.943  78.271 119.341  0.00  0.00    -0.090 HD
ATOM     21  H   LIG d   1     -11.627  79.877 119.266  0.00  0.00    -0.090 HD
ENDBRANCH   5  18
BRANCH   3  22
ATOM     22  C   LIG d   1      -6.881  80.279 117.918  0.00  0.00     0.382 C 
ATOM     23  O   LIG d   1      -5.697  80.133 118.306  0.00  0.00    -0.241 OA
ATOM     24  O   LIG d   1      -7.231  81.360 117.408  0.00  0.00    -0.241 OA
ENDBRANCH   3  22
TORSDOF 7
ENDMDL
MODEL 9
REMARK VINA RESULT:      -5.2      2.344      4.504
REMARK  7 active torsions:
REMARK  status: ('A' for Active; 'I' for Inactive)
REMARK    1  A    between atoms: C_2  and  C_3 
REMARK    2  A    between atoms: C_3  and  O_6 
REMARK    3  A    between atoms: C_3  and  C_4 
REMARK    4  A    between atoms: C_7  and  O_6 
REMARK    5  A    between atoms: C_9  and  C_10 
REMARK    6  A    between atoms: N_15  and  C_14 
REMARK    7  A    between atoms: N_20  and  C_19 
REMARK       I    between atoms: C_22  and  N_20 
ROOT
ATOM      1  C   LIG d   1      -8.506  76.015 116.824  0.00  0.00     0.161 C 
ATOM      2  C   LIG d   1      -7.779  75.548 115.716  0.00  0.00     0.016 C 
ATOM      3  C   LIG d   1      -6.372  75.648 115.610  0.00  0.00     0.038 C 
ATOM      4  C   LIG d   1      -5.578  76.087 116.679  0.00  0.00     0.028 C 
ATOM      5  C   LIG d   1      -6.305  77.037 117.624  0.00  0.00    -0.047 C 
ATOM      6  C   LIG d   1      -7.646  76.396 118.047  0.00  0.00     0.091 C 
ENDROOT
BRANCH   1   7
ATOM      7  O   LIG d   1      -9.505  75.045 117.196  0.00  0.00    -0.368 OA
BRANCH   7   8
ATOM      8  C   LIG d   1      -9.052  73.952 118.032  0.00  0.00     0.119 C 
BRANCH   8   9
ATOM      9  C   LIG d   1      -9.300  72.643 117.257  0.00  0.00     0.028 C 
ATOM     10  C   LIG d   1      -7.994  71.906 116.917  0.00  0.00     0.006 C 
ENDBRANCH   8   9
BRANCH   8  11
ATOM     11  C   LIG d   1      -9.897  73.836 119.304  0.00  0.00     0.028 C 
ATOM     12  C   LIG d   1     -11.310  73.295 119.033  0.00  0.00     0.006 C 
ENDBRANCH   8  11
ENDBRANCH   7   8
ENDBRANCH   1   7
BRANCH   6  13
ATOM     13  N   LIG d   1      -8.460  77.296 118.906  0.00  0.00    -0.311 N 
ATOM     14  C   LIG d   1      -8.706  78.570 118.606  0.00  0.00     0.210 C 
ATOM     15  C   LIG d   1      -9.550  79.325 119.637  0.00  0.00     0.109 C 
ATOM     16  O   LIG d   1      -8.333  79.137 117.568  0.00  0.00    -0.276 OA
ATOM     17  H   LIG d   1      -8.828  76.908 119.752  0.00  0.00     0.149 HD
ENDBRANCH   6  13
BRANCH   5  18
ATOM     18  N   LIG d   1      -5.408  77.306 118.764  0.00  0.00     0.381 N 
ATOM     19  H   LIG d   1      -5.781  78.049 119.320  0.00  0.00    -0.090 HD
ATOM     20  H   LIG d   1      -4.512  77.595 118.411  0.00  0.00    -0.090 HD
ATOM     21  H   LIG d   1      -5.306  76.485 119.319  0.00  0.00    -0.090 HD
ENDBRANCH   5  18
BRANCH   3  22
ATOM     22  C   LIG d   1      -5.750  75.343 114.409  0.00  0.00     0.382 C 
ATOM     23  O   LIG d   1      -5.227  74.215 114.243  0.00  0.00    -0.241 OA
ATOM     24  O   LIG d   1      -5.667  76.197 113.506  0.00  0.00    -0.241 OA
ENDBRANCH   3  22
TORSDOF 7
ENDMDL
