MODEL 1
REMARK VINA RESULT:      -5.4      0.000      0.000
REMARK  7 active torsions:
REMARK  status: ('A' for Active; 'I' for Inactive)
REMARK    1  A    between atoms: C_2  and  C_3 
REMARK    2  A    between atoms: C_3  and  O_6 
REMARK    3  A    between atoms: C_3  and  C_4 
REMARK    4  A    between atoms: C_7  and  O_6 
REMARK    5  A    between atoms: C_9  and  C_10 
REMARK    6  A    between atoms: N_15  and  C_14 
REMARK    7  A    between atoms: N_20  and  C_19 
REMARK       I    between atoms: C_22  and  N_20 
ROOT
ATOM      1  C   LIG d   1      -3.051  75.605 116.514  0.00  0.00     0.161 C 
ATOM      2  C   LIG d   1      -3.578  76.344 115.442  0.00  0.00     0.016 C 
ATOM      3  C   LIG d   1      -2.833  76.680 114.288  0.00  0.00     0.038 C 
ATOM      4  C   LIG d   1      -1.548  76.166 114.059  0.00  0.00     0.028 C 
ATOM      5  C   LIG d   1      -0.792  75.833 115.341  0.00  0.00    -0.047 C 
ATOM      6  C   LIG d   1      -1.686  74.942 116.233  0.00  0.00     0.091 C 
ENDROOT
BRANCH   1   7
ATOM      7  O   LIG d   1      -4.009  74.618 116.944  0.00  0.00    -0.368 OA
BRANCH   7   8
ATOM      8  C   LIG d   1      -5.294  74.643 116.276  0.00  0.00     0.119 C 
BRANCH   8   9
ATOM      9  C   LIG d   1      -6.352  75.049 117.321  0.00  0.00     0.028 C 
ATOM     10  C   LIG d   1      -7.206  76.241 116.859  0.00  0.00     0.006 C 
ENDBRANCH   8   9
BRANCH   8  11
ATOM     11  C   LIG d   1      -5.705  73.245 115.805  0.00  0.00     0.028 C 
ATOM     12  C   LIG d   1      -6.455  72.449 116.885  0.00  0.00     0.006 C 
ENDBRANCH   8  11
ENDBRANCH   7   8
ENDBRANCH   1   7
BRANCH   6  13
ATOM     13  N   LIG d   1      -1.056  74.639 117.544  0.00  0.00    -0.311 N 
ATOM     14  C   LIG d   1      -0.341  73.539 117.778  0.00  0.00     0.210 C 
ATOM     15  C   LIG d   1       0.203  73.412 119.204  0.00  0.00     0.109 C 
ATOM     16  O   LIG d   1      -0.080  72.672 116.930  0.00  0.00    -0.276 OA
ATOM     17  H   LIG d   1      -1.191  75.304 118.280  0.00  0.00     0.149 HD
ENDBRANCH   6  13
BRANCH   5  18
ATOM     18  N   LIG d   1       0.473  75.180 114.955  0.00  0.00     0.381 N 
ATOM     19  H   LIG d   1       1.094  75.855 114.556  0.00  0.00    -0.090 HD
ATOM     20  H   LIG d   1       0.279  74.480 114.261  0.00  0.00    -0.090 HD
ATOM     21  H   LIG d   1       0.897  74.760 115.753  0.00  0.00    -0.090 HD
ENDBRANCH   5  18
BRANCH   3  22
ATOM     22  C   LIG d   1      -3.360  77.571 113.365  0.00  0.00     0.382 C 
ATOM     23  O   LIG d   1      -4.084  77.152 112.430  0.00  0.00    -0.241 OA
ATOM     24  O   LIG d   1      -3.084  78.784 113.430  0.00  0.00    -0.241 OA
ENDBRANCH   3  22
TORSDOF 7
ENDMDL
MODEL 2
REMARK VINA RESULT:      -5.3      1.677      4.902
REMARK  7 active torsions:
REMARK  status: ('A' for Active; 'I' for Inactive)
REMARK    1  A    between atoms: C_2  and  C_3 
REMARK    2  A    between atoms: C_3  and  O_6 
REMARK    3  A    between atoms: C_3  and  C_4 
REMARK    4  A    between atoms: C_7  and  O_6 
REMARK    5  A    between atoms: C_9  and  C_10 
REMARK    6  A    between atoms: N_15  and  C_14 
REMARK    7  A    between atoms: N_20  and  C_19 
REMARK       I    between atoms: C_22  and  N_20 
ROOT
ATOM      1  C   LIG d   1      -1.957  74.592 115.396  0.00  0.00     0.161 C 
ATOM      2  C   LIG d   1      -1.632  73.754 116.476  0.00  0.00     0.016 C 
ATOM      3  C   LIG d   1      -0.687  74.097 117.470  0.00  0.00     0.038 C 
ATOM      4  C   LIG d   1      -0.110  75.374 117.536  0.00  0.00     0.028 C 
ATOM      5  C   LIG d   1      -0.028  76.071 116.182  0.00  0.00    -0.047 C 
ATOM      6  C   LIG d   1      -1.420  76.034 115.512  0.00  0.00     0.091 C 
ENDROOT
BRANCH   1   7
ATOM      7  O   LIG d   1      -3.384  74.603 115.198  0.00  0.00    -0.368 OA
BRANCH   7   8
ATOM      8  C   LIG d   1      -4.192  74.351 116.374  0.00  0.00     0.119 C 
BRANCH   8   9
ATOM      9  C   LIG d   1      -5.428  73.549 115.924  0.00  0.00     0.028 C 
ATOM     10  C   LIG d   1      -6.604  73.680 116.907  0.00  0.00     0.006 C 
ENDBRANCH   8   9
BRANCH   8  11
ATOM     11  C   LIG d   1      -4.746  75.654 116.959  0.00  0.00     0.028 C 
ATOM     12  C   LIG d   1      -3.962  76.134 118.191  0.00  0.00     0.006 C 
ENDBRANCH   8  11
ENDBRANCH   7   8
ENDBRANCH   1   7
BRANCH   6  13
ATOM     13  N   LIG d   1      -1.408  76.621 114.147  0.00  0.00    -0.311 N 
ATOM     14  C   LIG d   1      -2.355  77.441 113.693  0.00  0.00     0.210 C 
ATOM     15  C   LIG d   1      -2.161  77.916 112.250  0.00  0.00     0.109 C 
ATOM     16  O   LIG d   1      -3.319  77.845 114.360  0.00  0.00    -0.276 OA
ATOM     17  H   LIG d   1      -0.645  76.371 113.550  0.00  0.00     0.149 HD
ENDBRANCH   6  13
BRANCH   5  18
ATOM     18  N   LIG d   1       0.464  77.442 116.417  0.00  0.00     0.381 N 
ATOM     19  H   LIG d   1       1.360  77.559 115.986  0.00  0.00    -0.090 HD
ATOM     20  H   LIG d   1       0.569  77.585 117.406  0.00  0.00    -0.090 HD
ATOM     21  H   LIG d   1      -0.180  78.104 116.045  0.00  0.00    -0.090 HD
ENDBRANCH   5  18
BRANCH   3  22
ATOM     22  C   LIG d   1      -0.281  73.142 118.390  0.00  0.00     0.382 C 
ATOM     23  O   LIG d   1      -0.651  71.950 118.262  0.00  0.00    -0.241 OA
ATOM     24  O   LIG d   1       0.415  73.467 119.372  0.00  0.00    -0.241 OA
ENDBRANCH   3  22
TORSDOF 7
ENDMDL
MODEL 3
REMARK VINA RESULT:      -4.9     15.197     18.161
REMARK  7 active torsions:
REMARK  status: ('A' for Active; 'I' for Inactive)
REMARK    1  A    between atoms: C_2  and  C_3 
REMARK    2  A    between atoms: C_3  and  O_6 
REMARK    3  A    between atoms: C_3  and  C_4 
REMARK    4  A    between atoms: C_7  and  O_6 
REMARK    5  A    between atoms: C_9  and  C_10 
REMARK    6  A    between atoms: N_15  and  C_14 
REMARK    7  A    between atoms: N_20  and  C_19 
REMARK       I    between atoms: C_22  and  N_20 
ROOT
ATOM      1  C   LIG d   1     -15.996  63.135 116.571  0.00  0.00     0.161 C 
ATOM      2  C   LIG d   1     -16.262  61.793 116.249  0.00  0.00     0.016 C 
ATOM      3  C   LIG d   1     -16.816  61.384 115.015  0.00  0.00     0.038 C 
ATOM      4  C   LIG d   1     -17.003  62.281 113.952  0.00  0.00     0.028 C 
ATOM      5  C   LIG d   1     -17.221  63.721 114.406  0.00  0.00    -0.047 C 
ATOM      6  C   LIG d   1     -16.090  64.115 115.383  0.00  0.00     0.091 C 
ENDROOT
BRANCH   1   7
ATOM      7  O   LIG d   1     -14.706  63.239 117.206  0.00  0.00    -0.368 OA
BRANCH   7   8
ATOM      8  C   LIG d   1     -14.712  63.311 118.653  0.00  0.00     0.119 C 
BRANCH   8   9
ATOM      9  C   LIG d   1     -14.077  64.658 119.051  0.00  0.00     0.028 C 
ATOM     10  C   LIG d   1     -15.002  65.501 119.945  0.00  0.00     0.006 C 
ENDBRANCH   8   9
BRANCH   8  11
ATOM     11  C   LIG d   1     -13.807  62.239 119.268  0.00  0.00     0.028 C 
ATOM     12  C   LIG d   1     -12.397  62.760 119.587  0.00  0.00     0.006 C 
ENDBRANCH   8  11
ENDBRANCH   7   8
ENDBRANCH   1   7
BRANCH   6  13
ATOM     13  N   LIG d   1     -16.273  65.481 115.941  0.00  0.00    -0.311 N 
ATOM     14  C   LIG d   1     -15.279  66.358 116.074  0.00  0.00     0.210 C 
ATOM     15  C   LIG d   1     -15.681  67.701 116.690  0.00  0.00     0.109 C 
ATOM     16  O   LIG d   1     -14.110  66.162 115.711  0.00  0.00    -0.276 OA
ATOM     17  H   LIG d   1     -17.197  65.734 116.232  0.00  0.00     0.149 HD
ENDBRANCH   6  13
BRANCH   5  18
ATOM     18  N   LIG d   1     -17.264  64.567 113.199  0.00  0.00     0.381 N 
ATOM     19  H   LIG d   1     -17.102  64.006 112.386  0.00  0.00    -0.090 HD
ATOM     20  H   LIG d   1     -16.533  65.255 113.258  0.00  0.00    -0.090 HD
ATOM     21  H   LIG d   1     -18.149  65.018 113.130  0.00  0.00    -0.090 HD
ENDBRANCH   5  18
BRANCH   3  22
ATOM     22  C   LIG d   1     -17.227  60.070 114.847  0.00  0.00     0.382 C 
ATOM     23  O   LIG d   1     -16.375  59.161 114.701  0.00  0.00    -0.241 OA
ATOM     24  O   LIG d   1     -18.439  59.789 114.797  0.00  0.00    -0.241 OA
ENDBRANCH   3  22
TORSDOF 7
ENDMDL
MODEL 4
REMARK VINA RESULT:      -4.9      2.538      4.037
REMARK  7 active torsions:
REMARK  status: ('A' for Active; 'I' for Inactive)
REMARK    1  A    between atoms: C_2  and  C_3 
REMARK    2  A    between atoms: C_3  and  O_6 
REMARK    3  A    between atoms: C_3  and  C_4 
REMARK    4  A    between atoms: C_7  and  O_6 
REMARK    5  A    between atoms: C_9  and  C_10 
REMARK    6  A    between atoms: N_15  and  C_14 
REMARK    7  A    between atoms: N_20  and  C_19 
REMARK       I    between atoms: C_22  and  N_20 
ROOT
ATOM      1  C   LIG d   1      -3.598  75.549 115.883  0.00  0.00     0.161 C 
ATOM      2  C   LIG d   1      -2.729  74.539 115.436  0.00  0.00     0.016 C 
ATOM      3  C   LIG d   1      -1.320  74.657 115.462  0.00  0.00     0.038 C 
ATOM      4  C   LIG d   1      -0.678  75.740 116.081  0.00  0.00     0.028 C 
ATOM      5  C   LIG d   1      -1.515  77.014 116.093  0.00  0.00    -0.047 C 
ATOM      6  C   LIG d   1      -2.915  76.690 116.665  0.00  0.00     0.091 C 
ENDROOT
BRANCH   1   7
ATOM      7  O   LIG d   1      -4.658  74.968 116.668  0.00  0.00    -0.368 OA
BRANCH   7   8
ATOM      8  C   LIG d   1      -5.765  74.402 115.925  0.00  0.00     0.119 C 
BRANCH   8   9
ATOM      9  C   LIG d   1      -6.587  75.574 115.355  0.00  0.00     0.028 C 
ATOM     10  C   LIG d   1      -7.468  76.247 116.420  0.00  0.00     0.006 C 
ENDBRANCH   8   9
BRANCH   8  11
ATOM     11  C   LIG d   1      -6.726  73.645 116.847  0.00  0.00     0.028 C 
ATOM     12  C   LIG d   1      -6.636  72.120 116.677  0.00  0.00     0.006 C 
ENDBRANCH   8  11
ENDBRANCH   7   8
ENDBRANCH   1   7
BRANCH   6  13
ATOM     13  N   LIG d   1      -3.825  77.864 116.633  0.00  0.00    -0.311 N 
ATOM     14  C   LIG d   1      -4.417  78.362 117.718  0.00  0.00     0.210 C 
ATOM     15  C   LIG d   1      -5.333  79.563 117.461  0.00  0.00     0.109 C 
ATOM     16  O   LIG d   1      -4.246  77.943 118.872  0.00  0.00    -0.276 OA
ATOM     17  H   LIG d   1      -3.996  78.286 115.741  0.00  0.00     0.149 HD
ENDBRANCH   6  13
BRANCH   5  18
ATOM     18  N   LIG d   1      -0.785  78.020 116.888  0.00  0.00     0.381 N 
ATOM     19  H   LIG d   1      -0.018  77.585 117.362  0.00  0.00    -0.090 HD
ATOM     20  H   LIG d   1      -1.406  78.402 117.579  0.00  0.00    -0.090 HD
ATOM     21  H   LIG d   1      -0.449  78.746 116.294  0.00  0.00    -0.090 HD
ENDBRANCH   5  18
BRANCH   3  22
ATOM     22  C   LIG d   1      -0.539  73.704 114.827  0.00  0.00     0.382 C 
ATOM     23  O   LIG d   1      -0.542  73.623 113.575  0.00  0.00    -0.241 OA
ATOM     24  O   LIG d   1       0.134  72.894 115.493  0.00  0.00    -0.241 OA
ENDBRANCH   3  22
TORSDOF 7
ENDMDL
MODEL 5
REMARK VINA RESULT:      -4.9     16.230     18.346
REMARK  7 active torsions:
REMARK  status: ('A' for Active; 'I' for Inactive)
REMARK    1  A    between atoms: C_2  and  C_3 
REMARK    2  A    between atoms: C_3  and  O_6 
REMARK    3  A    between atoms: C_3  and  C_4 
REMARK    4  A    between atoms: C_7  and  O_6 
REMARK    5  A    between atoms: C_9  and  C_10 
REMARK    6  A    between atoms: N_15  and  C_14 
REMARK    7  A    between atoms: N_20  and  C_19 
REMARK       I    between atoms: C_22  and  N_20 
ROOT
ATOM      1  C   LIG d   1      -4.688  92.877 118.074  0.00  0.00     0.161 C 
ATOM      2  C   LIG d   1      -4.994  94.030 118.816  0.00  0.00     0.016 C 
ATOM      3  C   LIG d   1      -6.236  94.700 118.735  0.00  0.00     0.038 C 
ATOM      4  C   LIG d   1      -7.318  94.172 118.014  0.00  0.00     0.028 C 
ATOM      5  C   LIG d   1      -6.894  93.283 116.850  0.00  0.00    -0.047 C 
ATOM      6  C   LIG d   1      -5.893  92.224 117.367  0.00  0.00     0.091 C 
ENDROOT
BRANCH   1   7
ATOM      7  O   LIG d   1      -4.020  91.917 118.917  0.00  0.00    -0.368 OA
BRANCH   7   8
ATOM      8  C   LIG d   1      -2.681  91.538 118.515  0.00  0.00     0.119 C 
BRANCH   8   9
ATOM      9  C   LIG d   1      -2.457  90.082 118.967  0.00  0.00     0.028 C 
ATOM     10  C   LIG d   1      -2.553  89.083 117.802  0.00  0.00     0.006 C 
ENDBRANCH   8   9
BRANCH   8  11
ATOM     11  C   LIG d   1      -1.623  92.361 119.255  0.00  0.00     0.028 C 
ATOM     12  C   LIG d   1      -0.987  93.446 118.372  0.00  0.00     0.006 C 
ENDBRANCH   8  11
ENDBRANCH   7   8
ENDBRANCH   1   7
BRANCH   6  13
ATOM     13  N   LIG d   1      -5.363  91.365 116.276  0.00  0.00    -0.311 N 
ATOM     14  C   LIG d   1      -5.891  90.186 115.949  0.00  0.00     0.210 C 
ATOM     15  C   LIG d   1      -5.179  89.453 114.808  0.00  0.00     0.109 C 
ATOM     16  O   LIG d   1      -6.901  89.693 116.474  0.00  0.00    -0.276 OA
ATOM     17  H   LIG d   1      -4.564  91.702 115.777  0.00  0.00     0.149 HD
ENDBRANCH   6  13
BRANCH   5  18
ATOM     18  N   LIG d   1      -8.115  92.691 116.273  0.00  0.00     0.381 N 
ATOM     19  H   LIG d   1      -8.477  91.991 116.890  0.00  0.00    -0.090 HD
ATOM     20  H   LIG d   1      -7.883  92.252 115.400  0.00  0.00    -0.090 HD
ATOM     21  H   LIG d   1      -8.800  93.399 116.125  0.00  0.00    -0.090 HD
ENDBRANCH   5  18
BRANCH   3  22
ATOM     22  C   LIG d   1      -6.393  95.934 119.348  0.00  0.00     0.382 C 
ATOM     23  O   LIG d   1      -7.531  96.457 119.424  0.00  0.00    -0.241 OA
ATOM     24  O   LIG d   1      -5.404  96.552 119.786  0.00  0.00    -0.241 OA
ENDBRANCH   3  22
TORSDOF 7
ENDMDL
MODEL 6
REMARK VINA RESULT:      -4.8      2.380      5.031
REMARK  7 active torsions:
REMARK  status: ('A' for Active; 'I' for Inactive)
REMARK    1  A    between atoms: C_2  and  C_3 
REMARK    2  A    between atoms: C_3  and  O_6 
REMARK    3  A    between atoms: C_3  and  C_4 
REMARK    4  A    between atoms: C_7  and  O_6 
REMARK    5  A    between atoms: C_9  and  C_10 
REMARK    6  A    between atoms: N_15  and  C_14 
REMARK    7  A    between atoms: N_20  and  C_19 
REMARK       I    between atoms: C_22  and  N_20 
ROOT
ATOM      1  C   LIG d   1      -3.207  74.583 115.666  0.00  0.00     0.161 C 
ATOM      2  C   LIG d   1      -2.645  75.869 115.604  0.00  0.00     0.016 C 
ATOM      3  C   LIG d   1      -3.377  77.052 115.859  0.00  0.00     0.038 C 
ATOM      4  C   LIG d   1      -4.693  77.019 116.345  0.00  0.00     0.028 C 
ATOM      5  C   LIG d   1      -5.457  75.764 115.940  0.00  0.00    -0.047 C 
ATOM      6  C   LIG d   1      -4.612  74.522 116.303  0.00  0.00     0.091 C 
ENDROOT
BRANCH   1   7
ATOM      7  O   LIG d   1      -2.307  73.690 116.351  0.00  0.00    -0.368 OA
BRANCH   7   8
ATOM      8  C   LIG d   1      -1.007  74.231 116.690  0.00  0.00     0.119 C 
BRANCH   8   9
ATOM      9  C   LIG d   1       0.049  73.416 115.918  0.00  0.00     0.028 C 
ATOM     10  C   LIG d   1       0.810  74.267 114.888  0.00  0.00     0.006 C 
ENDBRANCH   8   9
BRANCH   8  11
ATOM     11  C   LIG d   1      -0.682  74.016 118.171  0.00  0.00     0.028 C 
ATOM     12  C   LIG d   1      -0.339  72.554 118.499  0.00  0.00     0.006 C 
ENDBRANCH   8  11
ENDBRANCH   7   8
ENDBRANCH   1   7
BRANCH   6  13
ATOM     13  N   LIG d   1      -5.249  73.253 115.864  0.00  0.00    -0.311 N 
ATOM     14  C   LIG d   1      -6.101  72.561 116.619  0.00  0.00     0.210 C 
ATOM     15  C   LIG d   1      -6.627  71.271 115.983  0.00  0.00     0.109 C 
ATOM     16  O   LIG d   1      -6.496  72.911 117.742  0.00  0.00    -0.276 OA
ATOM     17  H   LIG d   1      -5.009  72.914 114.953  0.00  0.00     0.149 HD
ENDBRANCH   6  13
BRANCH   5  18
ATOM     18  N   LIG d   1      -6.763  75.796 116.626  0.00  0.00     0.381 N 
ATOM     19  H   LIG d   1      -7.464  75.392 116.038  0.00  0.00    -0.090 HD
ATOM     20  H   LIG d   1      -7.013  76.752 116.804  0.00  0.00    -0.090 HD
ATOM     21  H   LIG d   1      -6.709  75.293 117.485  0.00  0.00    -0.090 HD
ENDBRANCH   5  18
BRANCH   3  22
ATOM     22  C   LIG d   1      -2.805  78.286 115.589  0.00  0.00     0.382 C 
ATOM     23  O   LIG d   1      -3.463  79.161 114.977  0.00  0.00    -0.241 OA
ATOM     24  O   LIG d   1      -1.625  78.519 115.911  0.00  0.00    -0.241 OA
ENDBRANCH   3  22
TORSDOF 7
ENDMDL
MODEL 7
REMARK VINA RESULT:      -4.8      2.383      5.727
REMARK  7 active torsions:
REMARK  status: ('A' for Active; 'I' for Inactive)
REMARK    1  A    between atoms: C_2  and  C_3 
REMARK    2  A    between atoms: C_3  and  O_6 
REMARK    3  A    between atoms: C_3  and  C_4 
REMARK    4  A    between atoms: C_7  and  O_6 
REMARK    5  A    between atoms: C_9  and  C_10 
REMARK    6  A    between atoms: N_15  and  C_14 
REMARK    7  A    between atoms: N_20  and  C_19 
REMARK       I    between atoms: C_22  and  N_20 
ROOT
ATOM      1  C   LIG d   1      -3.063  75.138 115.885  0.00  0.00     0.161 C 
ATOM      2  C   LIG d   1      -3.875  74.111 116.391  0.00  0.00     0.016 C 
ATOM      3  C   LIG d   1      -5.168  73.825 115.895  0.00  0.00     0.038 C 
ATOM      4  C   LIG d   1      -5.678  74.454 114.750  0.00  0.00     0.028 C 
ATOM      5  C   LIG d   1      -5.100  75.845 114.514  0.00  0.00    -0.047 C 
ATOM      6  C   LIG d   1      -3.558  75.762 114.563  0.00  0.00     0.091 C 
ENDROOT
BRANCH   1   7
ATOM      7  O   LIG d   1      -1.709  74.664 115.739  0.00  0.00    -0.368 OA
BRANCH   7   8
ATOM      8  C   LIG d   1      -0.871  74.758 116.916  0.00  0.00     0.119 C 
BRANCH   8   9
ATOM      9  C   LIG d   1       0.368  75.592 116.538  0.00  0.00     0.028 C 
ATOM     10  C   LIG d   1       1.186  74.948 115.406  0.00  0.00     0.006 C 
ENDBRANCH   8   9
BRANCH   8  11
ATOM     11  C   LIG d   1      -0.326  73.385 117.323  0.00  0.00     0.028 C 
ATOM     12  C   LIG d   1      -0.164  73.235 118.844  0.00  0.00     0.006 C 
ENDBRANCH   8  11
ENDBRANCH   7   8
ENDBRANCH   1   7
BRANCH   6  13
ATOM     13  N   LIG d   1      -2.914  77.095 114.426  0.00  0.00    -0.311 N 
ATOM     14  C   LIG d   1      -2.472  77.580 113.266  0.00  0.00     0.210 C 
ATOM     15  C   LIG d   1      -1.823  78.965 113.350  0.00  0.00     0.109 C 
ATOM     16  O   LIG d   1      -2.586  77.009 112.171  0.00  0.00    -0.276 OA
ATOM     17  H   LIG d   1      -2.809  77.639 115.260  0.00  0.00     0.149 HD
ENDBRANCH   6  13
BRANCH   5  18
ATOM     18  N   LIG d   1      -5.613  76.328 113.218  0.00  0.00     0.381 N 
ATOM     19  H   LIG d   1      -5.057  75.956 112.474  0.00  0.00    -0.090 HD
ATOM     20  H   LIG d   1      -5.543  77.330 113.193  0.00  0.00    -0.090 HD
ATOM     21  H   LIG d   1      -6.563  76.051 113.103  0.00  0.00    -0.090 HD
ENDBRANCH   5  18
BRANCH   3  22
ATOM     22  C   LIG d   1      -5.981  72.927 116.571  0.00  0.00     0.382 C 
ATOM     23  O   LIG d   1      -6.232  71.806 116.067  0.00  0.00    -0.241 OA
ATOM     24  O   LIG d   1      -6.502  73.242 117.658  0.00  0.00    -0.241 OA
ENDBRANCH   3  22
TORSDOF 7
ENDMDL
MODEL 8
REMARK VINA RESULT:      -4.8     13.215     15.224
REMARK  7 active torsions:
REMARK  status: ('A' for Active; 'I' for Inactive)
REMARK    1  A    between atoms: C_2  and  C_3 
REMARK    2  A    between atoms: C_3  and  O_6 
REMARK    3  A    between atoms: C_3  and  C_4 
REMARK    4  A    between atoms: C_7  and  O_6 
REMARK    5  A    between atoms: C_9  and  C_10 
REMARK    6  A    between atoms: N_15  and  C_14 
REMARK    7  A    between atoms: N_20  and  C_19 
REMARK       I    between atoms: C_22  and  N_20 
ROOT
ATOM      1  C   LIG d   1       2.975  88.568 115.756  0.00  0.00     0.161 C 
ATOM      2  C   LIG d   1       3.264  89.602 116.662  0.00  0.00     0.016 C 
ATOM      3  C   LIG d   1       4.313  90.531 116.474  0.00  0.00     0.038 C 
ATOM      4  C   LIG d   1       5.054  90.581 115.284  0.00  0.00     0.028 C 
ATOM      5  C   LIG d   1       5.131  89.241 114.560  0.00  0.00    -0.047 C 
ATOM      6  C   LIG d   1       3.701  88.676 114.398  0.00  0.00     0.091 C 
ENDROOT
BRANCH   1   7
ATOM      7  O   LIG d   1       1.550  88.478 115.556  0.00  0.00    -0.368 OA
BRANCH   7   8
ATOM      8  C   LIG d   1       0.891  87.343 116.169  0.00  0.00     0.119 C 
BRANCH   8   9
ATOM      9  C   LIG d   1       0.202  87.845 117.452  0.00  0.00     0.028 C 
ATOM     10  C   LIG d   1      -0.420  89.240 117.277  0.00  0.00     0.006 C 
ENDBRANCH   8   9
BRANCH   8  11
ATOM     11  C   LIG d   1       1.906  86.295 116.636  0.00  0.00     0.028 C 
ATOM     12  C   LIG d   1       1.897  85.028 115.767  0.00  0.00     0.006 C 
ENDBRANCH   8  11
ENDBRANCH   7   8
ENDBRANCH   1   7
BRANCH   6  13
ATOM     13  N   LIG d   1       3.692  87.327 113.775  0.00  0.00    -0.311 N 
ATOM     14  C   LIG d   1       2.978  87.024 112.692  0.00  0.00     0.210 C 
ATOM     15  C   LIG d   1       3.096  85.570 112.225  0.00  0.00     0.109 C 
ATOM     16  O   LIG d   1       2.283  87.831 112.055  0.00  0.00    -0.276 OA
ATOM     17  H   LIG d   1       4.252  86.620 114.209  0.00  0.00     0.149 HD
ENDBRANCH   6  13
BRANCH   5  18
ATOM     18  N   LIG d   1       5.812  89.468 113.272  0.00  0.00     0.381 N 
ATOM     19  H   LIG d   1       5.525  90.345 112.887  0.00  0.00    -0.090 HD
ATOM     20  H   LIG d   1       5.547  88.740 112.631  0.00  0.00    -0.090 HD
ATOM     21  H   LIG d   1       6.800  89.462 113.403  0.00  0.00    -0.090 HD
ENDBRANCH   5  18
BRANCH   3  22
ATOM     22  C   LIG d   1       4.657  91.397 117.501  0.00  0.00     0.382 C 
ATOM     23  O   LIG d   1       4.850  90.952 118.658  0.00  0.00    -0.241 OA
ATOM     24  O   LIG d   1       4.733  92.623 117.295  0.00  0.00    -0.241 OA
ENDBRANCH   3  22
TORSDOF 7
ENDMDL
MODEL 9
REMARK VINA RESULT:      -4.7     11.851     13.745
REMARK  7 active torsions:
REMARK  status: ('A' for Active; 'I' for Inactive)
REMARK    1  A    between atoms: C_2  and  C_3 
REMARK    2  A    between atoms: C_3  and  O_6 
REMARK    3  A    between atoms: C_3  and  C_4 
REMARK    4  A    between atoms: C_7  and  O_6 
REMARK    5  A    between atoms: C_9  and  C_10 
REMARK    6  A    between atoms: N_15  and  C_14 
REMARK    7  A    between atoms: N_20  and  C_19 
REMARK       I    between atoms: C_22  and  N_20 
ROOT
ATOM      1  C   LIG d   1       2.241  87.441 115.405  0.00  0.00     0.161 C 
ATOM      2  C   LIG d   1       3.002  88.594 115.151  0.00  0.00     0.016 C 
ATOM      3  C   LIG d   1       3.823  88.748 114.011  0.00  0.00     0.038 C 
ATOM      4  C   LIG d   1       3.821  87.814 112.964  0.00  0.00     0.028 C 
ATOM      5  C   LIG d   1       3.456  86.403 113.411  0.00  0.00    -0.047 C 
ATOM      6  C   LIG d   1       2.140  86.458 114.220  0.00  0.00     0.091 C 
ENDROOT
BRANCH   1   7
ATOM      7  O   LIG d   1       0.925  87.814 115.860  0.00  0.00    -0.368 OA
BRANCH   7   8
ATOM      8  C   LIG d   1       0.821  88.217 117.248  0.00  0.00     0.119 C 
BRANCH   8   9
ATOM      9  C   LIG d   1       0.228  87.029 118.031  0.00  0.00     0.028 C 
ATOM     10  C   LIG d   1      -0.952  87.445 118.925  0.00  0.00     0.006 C 
ENDBRANCH   8   9
BRANCH   8  11
ATOM     11  C   LIG d   1      -0.184  89.359 117.423  0.00  0.00     0.028 C 
ATOM     12  C   LIG d   1       0.294  90.675 116.789  0.00  0.00     0.006 C 
ENDBRANCH   8  11
ENDBRANCH   7   8
ENDBRANCH   1   7
BRANCH   6  13
ATOM     13  N   LIG d   1       1.755  85.131 114.767  0.00  0.00    -0.311 N 
ATOM     14  C   LIG d   1       2.584  84.358 115.467  0.00  0.00     0.210 C 
ATOM     15  C   LIG d   1       1.992  83.020 115.921  0.00  0.00     0.109 C 
ATOM     16  O   LIG d   1       3.742  84.668 115.783  0.00  0.00    -0.276 OA
ATOM     17  H   LIG d   1       0.822  84.815 114.584  0.00  0.00     0.149 HD
ENDBRANCH   6  13
BRANCH   5  18
ATOM     18  N   LIG d   1       3.358  85.564 112.202  0.00  0.00     0.381 N 
ATOM     19  H   LIG d   1       2.869  86.060 111.484  0.00  0.00    -0.090 HD
ATOM     20  H   LIG d   1       2.835  84.734 112.424  0.00  0.00    -0.090 HD
ATOM     21  H   LIG d   1       4.268  85.316 111.884  0.00  0.00    -0.090 HD
ENDBRANCH   5  18
BRANCH   3  22
ATOM     22  C   LIG d   1       4.689  89.828 113.928  0.00  0.00     0.382 C 
ATOM     23  O   LIG d   1       5.124  90.364 114.976  0.00  0.00    -0.241 OA
ATOM     24  O   LIG d   1       5.005  90.302 112.820  0.00  0.00    -0.241 OA
ENDBRANCH   3  22
TORSDOF 7
ENDMDL
