MODEL 1
REMARK VINA RESULT:      -6.2      0.000      0.000
REMARK  7 active torsions:
REMARK  status: ('A' for Active; 'I' for Inactive)
REMARK    1  A    between atoms: C_2  and  C_3 
REMARK    2  A    between atoms: C_3  and  O_6 
REMARK    3  A    between atoms: C_3  and  C_4 
REMARK    4  A    between atoms: C_7  and  O_6 
REMARK    5  A    between atoms: C_9  and  C_10 
REMARK    6  A    between atoms: N_15  and  C_14 
REMARK    7  A    between atoms: N_20  and  C_19 
REMARK       I    between atoms: C_22  and  N_20 
ROOT
ATOM      1  C   LIG d   1      -7.610  76.576 117.417  0.00  0.00     0.161 C 
ATOM      2  C   LIG d   1      -8.886  77.015 117.808  0.00  0.00     0.016 C 
ATOM      3  C   LIG d   1      -9.198  78.371 118.064  0.00  0.00     0.038 C 
ATOM      4  C   LIG d   1      -8.288  79.404 117.796  0.00  0.00     0.028 C 
ATOM      5  C   LIG d   1      -6.830  78.965 117.883  0.00  0.00    -0.047 C 
ATOM      6  C   LIG d   1      -6.635  77.701 117.013  0.00  0.00     0.091 C 
ENDROOT
BRANCH   1   7
ATOM      7  O   LIG d   1      -7.731  75.612 116.353  0.00  0.00    -0.368 OA
BRANCH   7   8
ATOM      8  C   LIG d   1      -7.601  74.220 116.736  0.00  0.00     0.119 C 
BRANCH   8   9
ATOM      9  C   LIG d   1      -6.408  73.635 115.955  0.00  0.00     0.028 C 
ATOM     10  C   LIG d   1      -6.008  74.508 114.754  0.00  0.00     0.006 C 
ENDBRANCH   8   9
BRANCH   8  11
ATOM     11  C   LIG d   1      -8.818  73.404 116.291  0.00  0.00     0.028 C 
ATOM     12  C   LIG d   1      -8.912  72.042 116.998  0.00  0.00     0.006 C 
ENDBRANCH   8  11
ENDBRANCH   7   8
ENDBRANCH   1   7
BRANCH   6  13
ATOM     13  N   LIG d   1      -5.256  77.156 117.108  0.00  0.00    -0.311 N 
ATOM     14  C   LIG d   1      -4.288  77.454 116.242  0.00  0.00     0.210 C 
ATOM     15  C   LIG d   1      -2.945  76.768 116.511  0.00  0.00     0.109 C 
ATOM     16  O   LIG d   1      -4.406  78.247 115.296  0.00  0.00    -0.276 OA
ATOM     17  H   LIG d   1      -5.064  76.529 117.864  0.00  0.00     0.149 HD
ENDBRANCH   6  13
BRANCH   5  18
ATOM     18  N   LIG d   1      -5.996  80.101 117.448  0.00  0.00     0.381 N 
ATOM     19  H   LIG d   1      -6.409  80.960 117.751  0.00  0.00    -0.090 HD
ATOM     20  H   LIG d   1      -5.954  80.108 116.444  0.00  0.00    -0.090 HD
ATOM     21  H   LIG d   1      -5.078  80.014 117.825  0.00  0.00    -0.090 HD
ENDBRANCH   5  18
BRANCH   3  22
ATOM     22  C   LIG d   1     -10.421  78.700 118.630  0.00  0.00     0.382 C 
ATOM     23  O   LIG d   1     -11.304  77.819 118.770  0.00  0.00    -0.241 OA
ATOM     24  O   LIG d   1     -10.667  79.875 118.961  0.00  0.00    -0.241 OA
ENDBRANCH   3  22
TORSDOF 7
ENDMDL
MODEL 2
REMARK VINA RESULT:      -5.9      1.890      5.061
REMARK  7 active torsions:
REMARK  status: ('A' for Active; 'I' for Inactive)
REMARK    1  A    between atoms: C_2  and  C_3 
REMARK    2  A    between atoms: C_3  and  O_6 
REMARK    3  A    between atoms: C_3  and  C_4 
REMARK    4  A    between atoms: C_7  and  O_6 
REMARK    5  A    between atoms: C_9  and  C_10 
REMARK    6  A    between atoms: N_15  and  C_14 
REMARK    7  A    between atoms: N_20  and  C_19 
REMARK       I    between atoms: C_22  and  N_20 
ROOT
ATOM      1  C   LIG d   1      -6.582  76.661 115.100  0.00  0.00     0.161 C 
ATOM      2  C   LIG d   1      -5.400  76.489 114.360  0.00  0.00     0.016 C 
ATOM      3  C   LIG d   1      -4.161  77.062 114.728  0.00  0.00     0.038 C 
ATOM      4  C   LIG d   1      -3.986  77.727 115.951  0.00  0.00     0.028 C 
ATOM      5  C   LIG d   1      -5.267  78.357 116.487  0.00  0.00    -0.047 C 
ATOM      6  C   LIG d   1      -6.385  77.290 116.495  0.00  0.00     0.091 C 
ENDROOT
BRANCH   1   7
ATOM      7  O   LIG d   1      -7.276  75.403 115.211  0.00  0.00    -0.368 OA
BRANCH   7   8
ATOM      8  C   LIG d   1      -7.040  74.650 116.426  0.00  0.00     0.119 C 
BRANCH   8   9
ATOM      9  C   LIG d   1      -6.189  73.421 116.051  0.00  0.00     0.028 C 
ATOM     10  C   LIG d   1      -7.040  72.155 115.857  0.00  0.00     0.006 C 
ENDBRANCH   8   9
BRANCH   8  11
ATOM     11  C   LIG d   1      -8.345  74.081 116.992  0.00  0.00     0.028 C 
ATOM     12  C   LIG d   1      -9.593  74.760 116.407  0.00  0.00     0.006 C 
ENDBRANCH   8  11
ENDBRANCH   7   8
ENDBRANCH   1   7
BRANCH   6  13
ATOM     13  N   LIG d   1      -7.695  77.845 116.926  0.00  0.00    -0.311 N 
ATOM     14  C   LIG d   1      -8.158  77.749 118.172  0.00  0.00     0.210 C 
ATOM     15  C   LIG d   1      -9.539  78.372 118.398  0.00  0.00     0.109 C 
ATOM     16  O   LIG d   1      -7.541  77.235 119.117  0.00  0.00    -0.276 OA
ATOM     17  H   LIG d   1      -8.247  78.306 116.230  0.00  0.00     0.149 HD
ENDBRANCH   6  13
BRANCH   5  18
ATOM     18  N   LIG d   1      -4.971  78.896 117.828  0.00  0.00     0.381 N 
ATOM     19  H   LIG d   1      -4.751  78.146 118.453  0.00  0.00    -0.090 HD
ATOM     20  H   LIG d   1      -5.788  79.367 118.176  0.00  0.00    -0.090 HD
ATOM     21  H   LIG d   1      -4.207  79.532 117.779  0.00  0.00    -0.090 HD
ENDBRANCH   5  18
BRANCH   3  22
ATOM     22  C   LIG d   1      -3.090  77.008 113.849  0.00  0.00     0.382 C 
ATOM     23  O   LIG d   1      -3.235  77.384 112.661  0.00  0.00    -0.241 OA
ATOM     24  O   LIG d   1      -1.994  76.546 114.217  0.00  0.00    -0.241 OA
ENDBRANCH   3  22
TORSDOF 7
ENDMDL
MODEL 3
REMARK VINA RESULT:      -5.7      1.725      2.328
REMARK  7 active torsions:
REMARK  status: ('A' for Active; 'I' for Inactive)
REMARK    1  A    between atoms: C_2  and  C_3 
REMARK    2  A    between atoms: C_3  and  O_6 
REMARK    3  A    between atoms: C_3  and  C_4 
REMARK    4  A    between atoms: C_7  and  O_6 
REMARK    5  A    between atoms: C_9  and  C_10 
REMARK    6  A    between atoms: N_15  and  C_14 
REMARK    7  A    between atoms: N_20  and  C_19 
REMARK       I    between atoms: C_22  and  N_20 
ROOT
ATOM      1  C   LIG d   1      -6.339  76.702 116.993  0.00  0.00     0.161 C 
ATOM      2  C   LIG d   1      -7.284  77.650 117.418  0.00  0.00     0.016 C 
ATOM      3  C   LIG d   1      -7.050  79.044 117.401  0.00  0.00     0.038 C 
ATOM      4  C   LIG d   1      -5.902  79.596 116.813  0.00  0.00     0.028 C 
ATOM      5  C   LIG d   1      -4.701  78.657 116.831  0.00  0.00    -0.047 C 
ATOM      6  C   LIG d   1      -5.124  77.290 116.245  0.00  0.00     0.091 C 
ENDROOT
BRANCH   1   7
ATOM      7  O   LIG d   1      -6.983  75.695 116.188  0.00  0.00    -0.368 OA
BRANCH   7   8
ATOM      8  C   LIG d   1      -7.244  74.428 116.840  0.00  0.00     0.119 C 
BRANCH   8   9
ATOM      9  C   LIG d   1      -6.277  73.390 116.237  0.00  0.00     0.028 C 
ATOM     10  C   LIG d   1      -7.001  72.114 115.775  0.00  0.00     0.006 C 
ENDBRANCH   8   9
BRANCH   8  11
ATOM     11  C   LIG d   1      -8.648  73.912 116.514  0.00  0.00     0.028 C 
ATOM     12  C   LIG d   1      -9.634  75.041 116.173  0.00  0.00     0.006 C 
ENDBRANCH   8  11
ENDBRANCH   7   8
ENDBRANCH   1   7
BRANCH   6  13
ATOM     13  N   LIG d   1      -4.030  76.286 116.304  0.00  0.00    -0.311 N 
ATOM     14  C   LIG d   1      -3.495  75.722 115.222  0.00  0.00     0.210 C 
ATOM     15  C   LIG d   1      -2.393  74.696 115.507  0.00  0.00     0.109 C 
ATOM     16  O   LIG d   1      -3.805  75.997 114.054  0.00  0.00    -0.276 OA
ATOM     17  H   LIG d   1      -3.696  76.027 117.211  0.00  0.00     0.149 HD
ENDBRANCH   6  13
BRANCH   5  18
ATOM     18  N   LIG d   1      -3.618  79.304 116.067  0.00  0.00     0.381 N 
ATOM     19  H   LIG d   1      -3.401  78.757 115.258  0.00  0.00    -0.090 HD
ATOM     20  H   LIG d   1      -2.797  79.352 116.644  0.00  0.00    -0.090 HD
ATOM     21  H   LIG d   1      -3.895  80.220 115.792  0.00  0.00    -0.090 HD
ENDBRANCH   5  18
BRANCH   3  22
ATOM     22  C   LIG d   1      -7.953  79.900 118.013  0.00  0.00     0.382 C 
ATOM     23  O   LIG d   1      -7.541  80.925 118.608  0.00  0.00    -0.241 OA
ATOM     24  O   LIG d   1      -9.171  79.637 118.017  0.00  0.00    -0.241 OA
ENDBRANCH   3  22
TORSDOF 7
ENDMDL
MODEL 4
REMARK VINA RESULT:      -5.6      2.318      4.767
REMARK  7 active torsions:
REMARK  status: ('A' for Active; 'I' for Inactive)
REMARK    1  A    between atoms: C_2  and  C_3 
REMARK    2  A    between atoms: C_3  and  O_6 
REMARK    3  A    between atoms: C_3  and  C_4 
REMARK    4  A    between atoms: C_7  and  O_6 
REMARK    5  A    between atoms: C_9  and  C_10 
REMARK    6  A    between atoms: N_15  and  C_14 
REMARK    7  A    between atoms: N_20  and  C_19 
REMARK       I    between atoms: C_22  and  N_20 
ROOT
ATOM      1  C   LIG d   1      -6.438  75.727 117.285  0.00  0.00     0.161 C 
ATOM      2  C   LIG d   1      -6.669  74.408 116.861  0.00  0.00     0.016 C 
ATOM      3  C   LIG d   1      -7.961  73.854 116.710  0.00  0.00     0.038 C 
ATOM      4  C   LIG d   1      -9.121  74.634 116.828  0.00  0.00     0.028 C 
ATOM      5  C   LIG d   1      -8.949  75.839 117.746  0.00  0.00    -0.047 C 
ATOM      6  C   LIG d   1      -7.692  76.627 117.311  0.00  0.00     0.091 C 
ENDROOT
BRANCH   1   7
ATOM      7  O   LIG d   1      -5.408  76.327 116.475  0.00  0.00    -0.368 OA
BRANCH   7   8
ATOM      8  C   LIG d   1      -4.744  75.448 115.534  0.00  0.00     0.119 C 
BRANCH   8   9
ATOM      9  C   LIG d   1      -3.234  75.499 115.840  0.00  0.00     0.028 C 
ATOM     10  C   LIG d   1      -2.869  76.641 116.803  0.00  0.00     0.006 C 
ENDBRANCH   8   9
BRANCH   8  11
ATOM     11  C   LIG d   1      -4.885  75.960 114.098  0.00  0.00     0.028 C 
ATOM     12  C   LIG d   1      -6.332  76.331 113.737  0.00  0.00     0.006 C 
ENDBRANCH   8  11
ENDBRANCH   7   8
ENDBRANCH   1   7
BRANCH   6  13
ATOM     13  N   LIG d   1      -7.403  77.775 118.210  0.00  0.00    -0.311 N 
ATOM     14  C   LIG d   1      -6.948  78.949 117.775  0.00  0.00     0.210 C 
ATOM     15  C   LIG d   1      -6.697  79.990 118.871  0.00  0.00     0.109 C 
ATOM     16  O   LIG d   1      -6.758  79.237 116.584  0.00  0.00    -0.276 OA
ATOM     17  H   LIG d   1      -7.558  77.638 119.189  0.00  0.00     0.149 HD
ENDBRANCH   6  13
BRANCH   5  18
ATOM     18  N   LIG d   1     -10.187  76.638 117.669  0.00  0.00     0.381 N 
ATOM     19  H   LIG d   1     -10.939  76.139 118.100  0.00  0.00    -0.090 HD
ATOM     20  H   LIG d   1     -10.418  76.786 116.703  0.00  0.00    -0.090 HD
ATOM     21  H   LIG d   1     -10.056  77.514 118.125  0.00  0.00    -0.090 HD
ENDBRANCH   5  18
BRANCH   3  22
ATOM     22  C   LIG d   1      -8.103  72.494 116.476  0.00  0.00     0.382 C 
ATOM     23  O   LIG d   1      -9.096  71.880 116.935  0.00  0.00    -0.241 OA
ATOM     24  O   LIG d   1      -7.228  71.866 115.850  0.00  0.00    -0.241 OA
ENDBRANCH   3  22
TORSDOF 7
ENDMDL
MODEL 5
REMARK VINA RESULT:      -5.6      2.358      4.248
REMARK  7 active torsions:
REMARK  status: ('A' for Active; 'I' for Inactive)
REMARK    1  A    between atoms: C_2  and  C_3 
REMARK    2  A    between atoms: C_3  and  O_6 
REMARK    3  A    between atoms: C_3  and  C_4 
REMARK    4  A    between atoms: C_7  and  O_6 
REMARK    5  A    between atoms: C_9  and  C_10 
REMARK    6  A    between atoms: N_15  and  C_14 
REMARK    7  A    between atoms: N_20  and  C_19 
REMARK       I    between atoms: C_22  and  N_20 
ROOT
ATOM      1  C   LIG d   1      -6.433  77.313 116.666  0.00  0.00     0.161 C 
ATOM      2  C   LIG d   1      -6.294  78.676 116.978  0.00  0.00     0.016 C 
ATOM      3  C   LIG d   1      -7.309  79.440 117.600  0.00  0.00     0.038 C 
ATOM      4  C   LIG d   1      -8.483  78.851 118.092  0.00  0.00     0.028 C 
ATOM      5  C   LIG d   1      -8.881  77.580 117.350  0.00  0.00    -0.047 C 
ATOM      6  C   LIG d   1      -7.664  76.628 117.296  0.00  0.00     0.091 C 
ENDROOT
BRANCH   1   7
ATOM      7  O   LIG d   1      -5.229  76.606 117.022  0.00  0.00    -0.368 OA
BRANCH   7   8
ATOM      8  C   LIG d   1      -4.271  76.401 115.954  0.00  0.00     0.119 C 
BRANCH   8   9
ATOM      9  C   LIG d   1      -4.527  75.001 115.365  0.00  0.00     0.028 C 
ATOM     10  C   LIG d   1      -5.336  75.053 114.058  0.00  0.00     0.006 C 
ENDBRANCH   8   9
BRANCH   8  11
ATOM     11  C   LIG d   1      -2.838  76.359 116.492  0.00  0.00     0.028 C 
ATOM     12  C   LIG d   1      -2.078  75.093 116.065  0.00  0.00     0.006 C 
ENDBRANCH   8  11
ENDBRANCH   7   8
ENDBRANCH   1   7
BRANCH   6  13
ATOM     13  N   LIG d   1      -7.942  75.396 116.513  0.00  0.00    -0.311 N 
ATOM     14  C   LIG d   1      -7.692  74.168 116.966  0.00  0.00     0.210 C 
ATOM     15  C   LIG d   1      -8.035  73.038 115.990  0.00  0.00     0.109 C 
ATOM     16  O   LIG d   1      -7.248  73.907 118.094  0.00  0.00    -0.276 OA
ATOM     17  H   LIG d   1      -8.332  75.514 115.599  0.00  0.00     0.149 HD
ENDBRANCH   6  13
BRANCH   5  18
ATOM     18  N   LIG d   1     -10.040  76.997 118.052  0.00  0.00     0.381 N 
ATOM     19  H   LIG d   1     -10.739  76.731 117.388  0.00  0.00    -0.090 HD
ATOM     20  H   LIG d   1     -10.432  77.692 118.663  0.00  0.00    -0.090 HD
ATOM     21  H   LIG d   1      -9.754  76.203 118.581  0.00  0.00    -0.090 HD
ENDBRANCH   5  18
BRANCH   3  22
ATOM     22  C   LIG d   1      -7.170  80.816 117.699  0.00  0.00     0.382 C 
ATOM     23  O   LIG d   1      -6.489  81.312 118.628  0.00  0.00    -0.241 OA
ATOM     24  O   LIG d   1      -7.755  81.568 116.897  0.00  0.00    -0.241 OA
ENDBRANCH   3  22
TORSDOF 7
ENDMDL
MODEL 6
REMARK VINA RESULT:      -5.3      2.167      4.828
REMARK  7 active torsions:
REMARK  status: ('A' for Active; 'I' for Inactive)
REMARK    1  A    between atoms: C_2  and  C_3 
REMARK    2  A    between atoms: C_3  and  O_6 
REMARK    3  A    between atoms: C_3  and  C_4 
REMARK    4  A    between atoms: C_7  and  O_6 
REMARK    5  A    between atoms: C_9  and  C_10 
REMARK    6  A    between atoms: N_15  and  C_14 
REMARK    7  A    between atoms: N_20  and  C_19 
REMARK       I    between atoms: C_22  and  N_20 
ROOT
ATOM      1  C   LIG d   1      -6.618  77.790 116.766  0.00  0.00     0.161 C 
ATOM      2  C   LIG d   1      -6.195  77.093 115.622  0.00  0.00     0.016 C 
ATOM      3  C   LIG d   1      -4.850  77.052 115.188  0.00  0.00     0.038 C 
ATOM      4  C   LIG d   1      -3.806  77.584 115.959  0.00  0.00     0.028 C 
ATOM      5  C   LIG d   1      -4.244  78.732 116.863  0.00  0.00    -0.047 C 
ATOM      6  C   LIG d   1      -5.477  78.283 117.681  0.00  0.00     0.091 C 
ENDROOT
BRANCH   1   7
ATOM      7  O   LIG d   1      -7.547  76.982 117.515  0.00  0.00    -0.368 OA
BRANCH   7   8
ATOM      8  C   LIG d   1      -7.941  75.730 116.901  0.00  0.00     0.119 C 
BRANCH   8   9
ATOM      9  C   LIG d   1      -9.482  75.692 116.878  0.00  0.00     0.028 C 
ATOM     10  C   LIG d   1     -10.109  76.733 117.820  0.00  0.00     0.006 C 
ENDBRANCH   8   9
BRANCH   8  11
ATOM     11  C   LIG d   1      -7.518  74.532 117.757  0.00  0.00     0.028 C 
ATOM     12  C   LIG d   1      -6.944  73.377 116.921  0.00  0.00     0.006 C 
ENDBRANCH   8  11
ENDBRANCH   7   8
ENDBRANCH   1   7
BRANCH   6  13
ATOM     13  N   LIG d   1      -6.021  79.375 118.529  0.00  0.00    -0.311 N 
ATOM     14  C   LIG d   1      -6.506  80.514 118.038  0.00  0.00     0.210 C 
ATOM     15  C   LIG d   1      -6.999  81.514 119.088  0.00  0.00     0.109 C 
ATOM     16  O   LIG d   1      -6.605  80.777 116.830  0.00  0.00    -0.276 OA
ATOM     17  H   LIG d   1      -6.009  79.232 119.520  0.00  0.00     0.149 HD
ENDBRANCH   6  13
BRANCH   5  18
ATOM     18  N   LIG d   1      -3.092  79.098 117.708  0.00  0.00     0.381 N 
ATOM     19  H   LIG d   1      -3.415  79.465 118.581  0.00  0.00    -0.090 HD
ATOM     20  H   LIG d   1      -2.562  79.814 117.242  0.00  0.00    -0.090 HD
ATOM     21  H   LIG d   1      -2.518  78.300 117.867  0.00  0.00    -0.090 HD
ENDBRANCH   5  18
BRANCH   3  22
ATOM     22  C   LIG d   1      -4.543  76.508 113.950  0.00  0.00     0.382 C 
ATOM     23  O   LIG d   1      -4.175  77.255 113.011  0.00  0.00    -0.241 OA
ATOM     24  O   LIG d   1      -4.673  75.286 113.747  0.00  0.00    -0.241 OA
ENDBRANCH   3  22
TORSDOF 7
ENDMDL
MODEL 7
REMARK VINA RESULT:      -5.3      2.157      5.291
REMARK  7 active torsions:
REMARK  status: ('A' for Active; 'I' for Inactive)
REMARK    1  A    between atoms: C_2  and  C_3 
REMARK    2  A    between atoms: C_3  and  O_6 
REMARK    3  A    between atoms: C_3  and  C_4 
REMARK    4  A    between atoms: C_7  and  O_6 
REMARK    5  A    between atoms: C_9  and  C_10 
REMARK    6  A    between atoms: N_15  and  C_14 
REMARK    7  A    between atoms: N_20  and  C_19 
REMARK       I    between atoms: C_22  and  N_20 
ROOT
ATOM      1  C   LIG d   1      -5.426  77.225 115.791  0.00  0.00     0.161 C 
ATOM      2  C   LIG d   1      -4.503  76.194 115.550  0.00  0.00     0.016 C 
ATOM      3  C   LIG d   1      -3.264  76.085 116.223  0.00  0.00     0.038 C 
ATOM      4  C   LIG d   1      -2.929  76.920 117.299  0.00  0.00     0.028 C 
ATOM      5  C   LIG d   1      -3.607  78.285 117.240  0.00  0.00    -0.047 C 
ATOM      6  C   LIG d   1      -5.126  78.082 117.039  0.00  0.00     0.091 C 
ENDROOT
BRANCH   1   7
ATOM      7  O   LIG d   1      -6.758  76.681 115.865  0.00  0.00    -0.368 OA
BRANCH   7   8
ATOM      8  C   LIG d   1      -6.920  75.501 116.690  0.00  0.00     0.119 C 
BRANCH   8   9
ATOM      9  C   LIG d   1      -7.600  74.422 115.825  0.00  0.00     0.028 C 
ATOM     10  C   LIG d   1      -6.733  73.160 115.672  0.00  0.00     0.006 C 
ENDBRANCH   8   9
BRANCH   8  11
ATOM     11  C   LIG d   1      -7.886  75.759 117.849  0.00  0.00     0.028 C 
ATOM     12  C   LIG d   1      -9.360  75.735 117.413  0.00  0.00     0.006 C 
ENDBRANCH   8  11
ENDBRANCH   7   8
ENDBRANCH   1   7
BRANCH   6  13
ATOM     13  N   LIG d   1      -5.854  79.369 116.887  0.00  0.00    -0.311 N 
ATOM     14  C   LIG d   1      -6.804  79.777 117.727  0.00  0.00     0.210 C 
ATOM     15  C   LIG d   1      -7.442  81.125 117.376  0.00  0.00     0.109 C 
ATOM     16  O   LIG d   1      -7.157  79.166 118.747  0.00  0.00    -0.276 OA
ATOM     17  H   LIG d   1      -5.609  79.942 116.104  0.00  0.00     0.149 HD
ENDBRANCH   6  13
BRANCH   5  18
ATOM     18  N   LIG d   1      -3.279  78.999 118.489  0.00  0.00     0.381 N 
ATOM     19  H   LIG d   1      -3.746  79.884 118.505  0.00  0.00    -0.090 HD
ATOM     20  H   LIG d   1      -2.288  79.165 118.518  0.00  0.00    -0.090 HD
ATOM     21  H   LIG d   1      -3.555  78.454 119.276  0.00  0.00    -0.090 HD
ENDBRANCH   5  18
BRANCH   3  22
ATOM     22  C   LIG d   1      -2.329  75.155 115.794  0.00  0.00     0.382 C 
ATOM     23  O   LIG d   1      -1.790  75.282 114.668  0.00  0.00    -0.241 OA
ATOM     24  O   LIG d   1      -2.050  74.168 116.500  0.00  0.00    -0.241 OA
ENDBRANCH   3  22
TORSDOF 7
ENDMDL
MODEL 8
REMARK VINA RESULT:      -5.2      1.956      4.749
REMARK  7 active torsions:
REMARK  status: ('A' for Active; 'I' for Inactive)
REMARK    1  A    between atoms: C_2  and  C_3 
REMARK    2  A    between atoms: C_3  and  O_6 
REMARK    3  A    between atoms: C_3  and  C_4 
REMARK    4  A    between atoms: C_7  and  O_6 
REMARK    5  A    between atoms: C_9  and  C_10 
REMARK    6  A    between atoms: N_15  and  C_14 
REMARK    7  A    between atoms: N_20  and  C_19 
REMARK       I    between atoms: C_22  and  N_20 
ROOT
ATOM      1  C   LIG d   1      -7.121  76.575 116.886  0.00  0.00     0.161 C 
ATOM      2  C   LIG d   1      -6.510  76.114 115.708  0.00  0.00     0.016 C 
ATOM      3  C   LIG d   1      -5.285  76.621 115.217  0.00  0.00     0.038 C 
ATOM      4  C   LIG d   1      -4.507  77.524 115.956  0.00  0.00     0.028 C 
ATOM      5  C   LIG d   1      -5.325  78.392 116.906  0.00  0.00    -0.047 C 
ATOM      6  C   LIG d   1      -6.232  77.481 117.764  0.00  0.00     0.091 C 
ENDROOT
BRANCH   1   7
ATOM      7  O   LIG d   1      -7.608  75.456 117.654  0.00  0.00    -0.368 OA
BRANCH   7   8
ATOM      8  C   LIG d   1      -9.030  75.190 117.560  0.00  0.00     0.119 C 
BRANCH   8   9
ATOM      9  C   LIG d   1      -9.231  74.134 116.456  0.00  0.00     0.028 C 
ATOM     10  C   LIG d   1      -8.376  72.876 116.684  0.00  0.00     0.006 C 
ENDBRANCH   8   9
BRANCH   8  11
ATOM     11  C   LIG d   1      -9.798  76.426 117.084  0.00  0.00     0.028 C 
ATOM     12  C   LIG d   1     -10.554  77.132 118.221  0.00  0.00     0.006 C 
ENDBRANCH   8  11
ENDBRANCH   7   8
ENDBRANCH   1   7
BRANCH   6  13
ATOM     13  N   LIG d   1      -7.128  78.255 118.662  0.00  0.00    -0.311 N 
ATOM     14  C   LIG d   1      -7.686  79.415 118.319  0.00  0.00     0.210 C 
ATOM     15  C   LIG d   1      -8.559  80.057 119.401  0.00  0.00     0.109 C 
ATOM     16  O   LIG d   1      -7.566  79.956 117.210  0.00  0.00    -0.276 OA
ATOM     17  H   LIG d   1      -7.304  77.873 119.571  0.00  0.00     0.149 HD
ENDBRANCH   6  13
BRANCH   5  18
ATOM     18  N   LIG d   1      -4.379  79.188 117.711  0.00  0.00     0.381 N 
ATOM     19  H   LIG d   1      -4.779  79.387 118.606  0.00  0.00    -0.090 HD
ATOM     20  H   LIG d   1      -4.205  80.059 117.242  0.00  0.00    -0.090 HD
ATOM     21  H   LIG d   1      -3.525  78.687 117.825  0.00  0.00    -0.090 HD
ENDBRANCH   5  18
BRANCH   3  22
ATOM     22  C   LIG d   1      -4.847  76.254 113.954  0.00  0.00     0.382 C 
ATOM     23  O   LIG d   1      -4.380  77.121 113.176  0.00  0.00    -0.241 OA
ATOM     24  O   LIG d   1      -4.953  75.076 113.566  0.00  0.00    -0.241 OA
ENDBRANCH   3  22
TORSDOF 7
ENDMDL
MODEL 9
REMARK VINA RESULT:      -5.2      2.311      6.081
REMARK  7 active torsions:
REMARK  status: ('A' for Active; 'I' for Inactive)
REMARK    1  A    between atoms: C_2  and  C_3 
REMARK    2  A    between atoms: C_3  and  O_6 
REMARK    3  A    between atoms: C_3  and  C_4 
REMARK    4  A    between atoms: C_7  and  O_6 
REMARK    5  A    between atoms: C_9  and  C_10 
REMARK    6  A    between atoms: N_15  and  C_14 
REMARK    7  A    between atoms: N_20  and  C_19 
REMARK       I    between atoms: C_22  and  N_20 
ROOT
ATOM      1  C   LIG d   1      -6.154  77.551 116.742  0.00  0.00     0.161 C 
ATOM      2  C   LIG d   1      -5.110  78.431 116.410  0.00  0.00     0.016 C 
ATOM      3  C   LIG d   1      -4.145  78.153 115.415  0.00  0.00     0.038 C 
ATOM      4  C   LIG d   1      -4.249  77.036 114.573  0.00  0.00     0.028 C 
ATOM      5  C   LIG d   1      -4.998  75.868 115.206  0.00  0.00    -0.047 C 
ATOM      6  C   LIG d   1      -6.349  76.379 115.758  0.00  0.00     0.091 C 
ENDROOT
BRANCH   1   7
ATOM      7  O   LIG d   1      -7.384  78.288 116.893  0.00  0.00    -0.368 OA
BRANCH   7   8
ATOM      8  C   LIG d   1      -7.882  78.425 118.246  0.00  0.00     0.119 C 
BRANCH   8   9
ATOM      9  C   LIG d   1      -9.357  77.978 118.244  0.00  0.00     0.028 C 
ATOM     10  C   LIG d   1     -10.254  78.909 119.077  0.00  0.00     0.006 C 
ENDBRANCH   8   9
BRANCH   8  11
ATOM     11  C   LIG d   1      -7.904  79.892 118.686  0.00  0.00     0.028 C 
ATOM     12  C   LIG d   1      -7.504  80.858 117.559  0.00  0.00     0.006 C 
ENDBRANCH   8  11
ENDBRANCH   7   8
ENDBRANCH   1   7
BRANCH   6  13
ATOM     13  N   LIG d   1      -7.108  75.317 116.469  0.00  0.00    -0.311 N 
ATOM     14  C   LIG d   1      -8.404  75.083 116.268  0.00  0.00     0.210 C 
ATOM     15  C   LIG d   1      -8.997  73.955 117.118  0.00  0.00     0.109 C 
ATOM     16  O   LIG d   1      -9.110  75.680 115.442  0.00  0.00    -0.276 OA
ATOM     17  H   LIG d   1      -6.605  74.764 117.135  0.00  0.00     0.149 HD
ENDBRANCH   6  13
BRANCH   5  18
ATOM     18  N   LIG d   1      -5.153  74.825 114.174  0.00  0.00     0.381 N 
ATOM     19  H   LIG d   1      -4.253  74.534 113.849  0.00  0.00    -0.090 HD
ATOM     20  H   LIG d   1      -5.660  75.211 113.396  0.00  0.00    -0.090 HD
ATOM     21  H   LIG d   1      -5.647  74.046 114.548  0.00  0.00    -0.090 HD
ENDBRANCH   5  18
BRANCH   3  22
ATOM     22  C   LIG d   1      -3.039  78.978 115.280  0.00  0.00     0.382 C 
ATOM     23  O   LIG d   1      -2.917  79.702 114.263  0.00  0.00    -0.241 OA
ATOM     24  O   LIG d   1      -2.140  78.975 116.143  0.00  0.00    -0.241 OA
ENDBRANCH   3  22
TORSDOF 7
ENDMDL
