MODEL 1
REMARK VINA RESULT:      -5.8      0.000      0.000
REMARK  7 active torsions:
REMARK  status: ('A' for Active; 'I' for Inactive)
REMARK    1  A    between atoms: C_2  and  C_3 
REMARK    2  A    between atoms: C_3  and  O_6 
REMARK    3  A    between atoms: C_3  and  C_4 
REMARK    4  A    between atoms: C_7  and  O_6 
REMARK    5  A    between atoms: C_9  and  C_10 
REMARK    6  A    between atoms: N_15  and  C_14 
REMARK    7  A    between atoms: N_20  and  C_19 
REMARK       I    between atoms: C_22  and  N_20 
ROOT
ATOM      1  C   LIG d   1      -3.091  76.842 115.718  0.00  0.00     0.161 C 
ATOM      2  C   LIG d   1      -3.264  77.881 114.789  0.00  0.00     0.016 C 
ATOM      3  C   LIG d   1      -2.216  78.394 113.991  0.00  0.00     0.038 C 
ATOM      4  C   LIG d   1      -0.947  77.797 113.960  0.00  0.00     0.028 C 
ATOM      5  C   LIG d   1      -0.589  77.068 115.251  0.00  0.00    -0.047 C 
ATOM      6  C   LIG d   1      -1.740  76.104 115.619  0.00  0.00     0.091 C 
ENDROOT
BRANCH   1   7
ATOM      7  O   LIG d   1      -4.182  75.906 115.614  0.00  0.00    -0.368 OA
BRANCH   7   8
ATOM      8  C   LIG d   1      -5.495  76.480 115.398  0.00  0.00     0.119 C 
BRANCH   8   9
ATOM      9  C   LIG d   1      -6.078  76.835 116.779  0.00  0.00     0.028 C 
ATOM     10  C   LIG d   1      -6.381  78.337 116.920  0.00  0.00     0.006 C 
ENDBRANCH   8   9
BRANCH   8  11
ATOM     11  C   LIG d   1      -6.461  75.451 114.802  0.00  0.00     0.028 C 
ATOM     12  C   LIG d   1      -6.819  74.329 115.789  0.00  0.00     0.006 C 
ENDBRANCH   8  11
ENDBRANCH   7   8
ENDBRANCH   1   7
BRANCH   6  13
ATOM     13  N   LIG d   1      -1.508  75.412 116.914  0.00  0.00    -0.311 N 
ATOM     14  C   LIG d   1      -0.951  74.206 117.012  0.00  0.00     0.210 C 
ATOM     15  C   LIG d   1      -0.823  73.668 118.440  0.00  0.00     0.109 C 
ATOM     16  O   LIG d   1      -0.522  73.546 116.054  0.00  0.00    -0.276 OA
ATOM     17  H   LIG d   1      -1.799  75.890 117.744  0.00  0.00     0.149 HD
ENDBRANCH   6  13
BRANCH   5  18
ATOM     18  N   LIG d   1       0.696  76.378 115.032  0.00  0.00     0.381 N 
ATOM     19  H   LIG d   1       0.540  75.519 114.543  0.00  0.00    -0.090 HD
ATOM     20  H   LIG d   1       1.106  76.163 115.924  0.00  0.00    -0.090 HD
ATOM     21  H   LIG d   1       1.311  76.960 114.507  0.00  0.00    -0.090 HD
ENDBRANCH   5  18
BRANCH   3  22
ATOM     22  C   LIG d   1      -2.421  79.543 113.242  0.00  0.00     0.382 C 
ATOM     23  O   LIG d   1      -3.044  80.512 113.739  0.00  0.00    -0.241 OA
ATOM     24  O   LIG d   1      -2.030  79.605 112.061  0.00  0.00    -0.241 OA
ENDBRANCH   3  22
TORSDOF 7
ENDMDL
MODEL 2
REMARK VINA RESULT:      -5.7      1.543      2.039
REMARK  7 active torsions:
REMARK  status: ('A' for Active; 'I' for Inactive)
REMARK    1  A    between atoms: C_2  and  C_3 
REMARK    2  A    between atoms: C_3  and  O_6 
REMARK    3  A    between atoms: C_3  and  C_4 
REMARK    4  A    between atoms: C_7  and  O_6 
REMARK    5  A    between atoms: C_9  and  C_10 
REMARK    6  A    between atoms: N_15  and  C_14 
REMARK    7  A    between atoms: N_20  and  C_19 
REMARK       I    between atoms: C_22  and  N_20 
ROOT
ATOM      1  C   LIG d   1      -2.835  78.280 115.328  0.00  0.00     0.161 C 
ATOM      2  C   LIG d   1      -2.999  79.444 114.557  0.00  0.00     0.016 C 
ATOM      3  C   LIG d   1      -2.230  79.730 113.406  0.00  0.00     0.038 C 
ATOM      4  C   LIG d   1      -1.341  78.794 112.857  0.00  0.00     0.028 C 
ATOM      5  C   LIG d   1      -0.777  77.819 113.885  0.00  0.00    -0.047 C 
ATOM      6  C   LIG d   1      -1.947  77.197 114.681  0.00  0.00     0.091 C 
ENDROOT
BRANCH   1   7
ATOM      7  O   LIG d   1      -4.124  77.734 115.669  0.00  0.00    -0.368 OA
BRANCH   7   8
ATOM      8  C   LIG d   1      -4.811  78.367 116.777  0.00  0.00     0.119 C 
BRANCH   8   9
ATOM      9  C   LIG d   1      -4.246  77.764 118.078  0.00  0.00     0.028 C 
ATOM     10  C   LIG d   1      -4.973  78.284 119.329  0.00  0.00     0.006 C 
ENDBRANCH   8   9
BRANCH   8  11
ATOM     11  C   LIG d   1      -6.302  78.015 116.781  0.00  0.00     0.028 C 
ATOM     12  C   LIG d   1      -6.600  76.673 116.095  0.00  0.00     0.006 C 
ENDBRANCH   8  11
ENDBRANCH   7   8
ENDBRANCH   1   7
BRANCH   6  13
ATOM     13  N   LIG d   1      -1.478  76.294 115.764  0.00  0.00    -0.311 N 
ATOM     14  C   LIG d   1      -1.256  74.992 115.589  0.00  0.00     0.210 C 
ATOM     15  C   LIG d   1      -0.795  74.240 116.842  0.00  0.00     0.109 C 
ATOM     16  O   LIG d   1      -1.364  74.396 114.507  0.00  0.00    -0.276 OA
ATOM     17  H   LIG d   1      -1.334  76.701 116.668  0.00  0.00     0.149 HD
ENDBRANCH   6  13
BRANCH   5  18
ATOM     18  N   LIG d   1       0.023  76.817 113.156  0.00  0.00     0.381 N 
ATOM     19  H   LIG d   1      -0.565  76.303 112.530  0.00  0.00    -0.090 HD
ATOM     20  H   LIG d   1       0.419  76.172 113.818  0.00  0.00    -0.090 HD
ATOM     21  H   LIG d   1       0.750  77.267 112.645  0.00  0.00    -0.090 HD
ENDBRANCH   5  18
BRANCH   3  22
ATOM     22  C   LIG d   1      -2.318  80.981 112.814  0.00  0.00     0.382 C 
ATOM     23  O   LIG d   1      -1.279  81.558 112.412  0.00  0.00    -0.241 OA
ATOM     24  O   LIG d   1      -3.417  81.558 112.718  0.00  0.00    -0.241 OA
ENDBRANCH   3  22
TORSDOF 7
ENDMDL
MODEL 3
REMARK VINA RESULT:      -5.2     15.287     17.616
REMARK  7 active torsions:
REMARK  status: ('A' for Active; 'I' for Inactive)
REMARK    1  A    between atoms: C_2  and  C_3 
REMARK    2  A    between atoms: C_3  and  O_6 
REMARK    3  A    between atoms: C_3  and  C_4 
REMARK    4  A    between atoms: C_7  and  O_6 
REMARK    5  A    between atoms: C_9  and  C_10 
REMARK    6  A    between atoms: N_15  and  C_14 
REMARK    7  A    between atoms: N_20  and  C_19 
REMARK       I    between atoms: C_22  and  N_20 
ROOT
ATOM      1  C   LIG d   1      -4.919  93.526 117.920  0.00  0.00     0.161 C 
ATOM      2  C   LIG d   1      -4.893  94.750 118.610  0.00  0.00     0.016 C 
ATOM      3  C   LIG d   1      -5.904  95.732 118.491  0.00  0.00     0.038 C 
ATOM      4  C   LIG d   1      -7.092  95.491 117.785  0.00  0.00     0.028 C 
ATOM      5  C   LIG d   1      -6.934  94.470 116.664  0.00  0.00    -0.047 C 
ATOM      6  C   LIG d   1      -6.261  93.200 117.233  0.00  0.00     0.091 C 
ENDROOT
BRANCH   1   7
ATOM      7  O   LIG d   1      -4.538  92.457 118.808  0.00  0.00    -0.368 OA
BRANCH   7   8
ATOM      8  C   LIG d   1      -3.309  91.763 118.480  0.00  0.00     0.119 C 
BRANCH   8   9
ATOM      9  C   LIG d   1      -3.494  90.284 118.867  0.00  0.00     0.028 C 
ATOM     10  C   LIG d   1      -2.820  89.327 117.870  0.00  0.00     0.006 C 
ENDBRANCH   8   9
BRANCH   8  11
ATOM     11  C   LIG d   1      -2.141  92.263 119.336  0.00  0.00     0.028 C 
ATOM     12  C   LIG d   1      -0.860  92.497 118.518  0.00  0.00     0.006 C 
ENDBRANCH   8  11
ENDBRANCH   7   8
ENDBRANCH   1   7
BRANCH   6  13
ATOM     13  N   LIG d   1      -5.993  92.182 116.184  0.00  0.00    -0.311 N 
ATOM     14  C   LIG d   1      -6.231  90.881 116.346  0.00  0.00     0.210 C 
ATOM     15  C   LIG d   1      -5.864  90.002 115.147  0.00  0.00     0.109 C 
ATOM     16  O   LIG d   1      -6.741  90.377 117.358  0.00  0.00    -0.276 OA
ATOM     17  H   LIG d   1      -5.608  92.508 115.319  0.00  0.00     0.149 HD
ENDBRANCH   6  13
BRANCH   5  18
ATOM     18  N   LIG d   1      -8.274  94.213 116.104  0.00  0.00     0.381 N 
ATOM     19  H   LIG d   1      -8.201  94.018 115.125  0.00  0.00    -0.090 HD
ATOM     20  H   LIG d   1      -8.839  95.036 116.220  0.00  0.00    -0.090 HD
ATOM     21  H   LIG d   1      -8.697  93.442 116.572  0.00  0.00    -0.090 HD
ENDBRANCH   5  18
BRANCH   3  22
ATOM     22  C   LIG d   1      -5.712  96.986 119.049  0.00  0.00     0.382 C 
ATOM     23  O   LIG d   1      -4.741  97.693 118.685  0.00  0.00    -0.241 OA
ATOM     24  O   LIG d   1      -6.472  97.402 119.945  0.00  0.00    -0.241 OA
ENDBRANCH   3  22
TORSDOF 7
ENDMDL
MODEL 4
REMARK VINA RESULT:      -5.1     15.780     17.260
REMARK  7 active torsions:
REMARK  status: ('A' for Active; 'I' for Inactive)
REMARK    1  A    between atoms: C_2  and  C_3 
REMARK    2  A    between atoms: C_3  and  O_6 
REMARK    3  A    between atoms: C_3  and  C_4 
REMARK    4  A    between atoms: C_7  and  O_6 
REMARK    5  A    between atoms: C_9  and  C_10 
REMARK    6  A    between atoms: N_15  and  C_14 
REMARK    7  A    between atoms: N_20  and  C_19 
REMARK       I    between atoms: C_22  and  N_20 
ROOT
ATOM      1  C   LIG d   1     -14.854  65.857 116.527  0.00  0.00     0.161 C 
ATOM      2  C   LIG d   1     -14.888  66.879 115.564  0.00  0.00     0.016 C 
ATOM      3  C   LIG d   1     -15.571  66.765 114.332  0.00  0.00     0.038 C 
ATOM      4  C   LIG d   1     -16.400  65.671 114.042  0.00  0.00     0.028 C 
ATOM      5  C   LIG d   1     -15.992  64.394 114.769  0.00  0.00    -0.047 C 
ATOM      6  C   LIG d   1     -15.843  64.700 116.277  0.00  0.00     0.091 C 
ENDROOT
BRANCH   1   7
ATOM      7  O   LIG d   1     -15.059  66.416 117.840  0.00  0.00    -0.368 OA
BRANCH   7   8
ATOM      8  C   LIG d   1     -15.923  67.576 117.911  0.00  0.00     0.119 C 
BRANCH   8   9
ATOM      9  C   LIG d   1     -15.444  68.439 119.095  0.00  0.00     0.028 C 
ATOM     10  C   LIG d   1     -16.475  69.507 119.497  0.00  0.00     0.006 C 
ENDBRANCH   8   9
BRANCH   8  11
ATOM     11  C   LIG d   1     -17.362  67.179 118.255  0.00  0.00     0.028 C 
ATOM     12  C   LIG d   1     -18.314  67.290 117.053  0.00  0.00     0.006 C 
ENDBRANCH   8  11
ENDBRANCH   7   8
ENDBRANCH   1   7
BRANCH   6  13
ATOM     13  N   LIG d   1     -15.364  63.524 117.049  0.00  0.00    -0.311 N 
ATOM     14  C   LIG d   1     -16.181  62.660 117.650  0.00  0.00     0.210 C 
ATOM     15  C   LIG d   1     -15.480  61.530 118.411  0.00  0.00     0.109 C 
ATOM     16  O   LIG d   1     -17.419  62.704 117.599  0.00  0.00    -0.276 OA
ATOM     17  H   LIG d   1     -14.374  63.394 117.116  0.00  0.00     0.149 HD
ENDBRANCH   6  13
BRANCH   5  18
ATOM     18  N   LIG d   1     -17.017  63.372 114.485  0.00  0.00     0.381 N 
ATOM     19  H   LIG d   1     -16.587  62.473 114.404  0.00  0.00    -0.090 HD
ATOM     20  H   LIG d   1     -17.459  63.590 113.609  0.00  0.00    -0.090 HD
ATOM     21  H   LIG d   1     -17.697  63.359 115.213  0.00  0.00    -0.090 HD
ENDBRANCH   5  18
BRANCH   3  22
ATOM     22  C   LIG d   1     -15.398  67.736 113.357  0.00  0.00     0.382 C 
ATOM     23  O   LIG d   1     -15.446  67.422 112.144  0.00  0.00    -0.241 OA
ATOM     24  O   LIG d   1     -15.150  68.914 113.676  0.00  0.00    -0.241 OA
ENDBRANCH   3  22
TORSDOF 7
ENDMDL
MODEL 5
REMARK VINA RESULT:      -5.0     17.799     20.385
REMARK  7 active torsions:
REMARK  status: ('A' for Active; 'I' for Inactive)
REMARK    1  A    between atoms: C_2  and  C_3 
REMARK    2  A    between atoms: C_3  and  O_6 
REMARK    3  A    between atoms: C_3  and  C_4 
REMARK    4  A    between atoms: C_7  and  O_6 
REMARK    5  A    between atoms: C_9  and  C_10 
REMARK    6  A    between atoms: N_15  and  C_14 
REMARK    7  A    between atoms: N_20  and  C_19 
REMARK       I    between atoms: C_22  and  N_20 
ROOT
ATOM      1  C   LIG d   1      -0.612  56.965 118.336  0.00  0.00     0.161 C 
ATOM      2  C   LIG d   1      -1.996  56.759 118.206  0.00  0.00     0.016 C 
ATOM      3  C   LIG d   1      -2.947  57.804 118.266  0.00  0.00     0.038 C 
ATOM      4  C   LIG d   1      -2.564  59.153 118.309  0.00  0.00     0.028 C 
ATOM      5  C   LIG d   1      -1.198  59.375 118.949  0.00  0.00    -0.047 C 
ATOM      6  C   LIG d   1      -0.169  58.442 118.272  0.00  0.00     0.091 C 
ENDROOT
BRANCH   1   7
ATOM      7  O   LIG d   1       0.092  56.187 117.348  0.00  0.00    -0.368 OA
BRANCH   7   8
ATOM      8  C   LIG d   1       0.101  54.753 117.553  0.00  0.00     0.119 C 
BRANCH   8   9
ATOM      9  C   LIG d   1       0.725  54.488 118.937  0.00  0.00     0.028 C 
ATOM     10  C   LIG d   1      -0.174  53.615 119.829  0.00  0.00     0.006 C 
ENDBRANCH   8   9
BRANCH   8  11
ATOM     11  C   LIG d   1       1.024  54.052 116.552  0.00  0.00     0.028 C 
ATOM     12  C   LIG d   1       2.386  53.679 117.157  0.00  0.00     0.006 C 
ENDBRANCH   8  11
ENDBRANCH   7   8
ENDBRANCH   1   7
BRANCH   6  13
ATOM     13  N   LIG d   1       1.177  58.535 118.895  0.00  0.00    -0.311 N 
ATOM     14  C   LIG d   1       2.140  59.336 118.444  0.00  0.00     0.210 C 
ATOM     15  C   LIG d   1       3.459  59.263 119.221  0.00  0.00     0.109 C 
ATOM     16  O   LIG d   1       2.018  60.124 117.494  0.00  0.00    -0.276 OA
ATOM     17  H   LIG d   1       1.352  57.953 119.691  0.00  0.00     0.149 HD
ENDBRANCH   6  13
BRANCH   5  18
ATOM     18  N   LIG d   1      -0.865  60.805 118.803  0.00  0.00     0.381 N 
ATOM     19  H   LIG d   1      -1.476  61.229 118.133  0.00  0.00    -0.090 HD
ATOM     20  H   LIG d   1       0.078  60.886 118.466  0.00  0.00    -0.090 HD
ATOM     21  H   LIG d   1      -0.952  61.267 119.682  0.00  0.00    -0.090 HD
ENDBRANCH   5  18
BRANCH   3  22
ATOM     22  C   LIG d   1      -4.298  57.501 118.323  0.00  0.00     0.382 C 
ATOM     23  O   LIG d   1      -4.672  56.303 118.327  0.00  0.00    -0.241 OA
ATOM     24  O   LIG d   1      -5.150  58.409 118.326  0.00  0.00    -0.241 OA
ENDBRANCH   3  22
TORSDOF 7
ENDMDL
MODEL 6
REMARK VINA RESULT:      -5.0      3.098      6.387
REMARK  7 active torsions:
REMARK  status: ('A' for Active; 'I' for Inactive)
REMARK    1  A    between atoms: C_2  and  C_3 
REMARK    2  A    between atoms: C_3  and  O_6 
REMARK    3  A    between atoms: C_3  and  C_4 
REMARK    4  A    between atoms: C_7  and  O_6 
REMARK    5  A    between atoms: C_9  and  C_10 
REMARK    6  A    between atoms: N_15  and  C_14 
REMARK    7  A    between atoms: N_20  and  C_19 
REMARK       I    between atoms: C_22  and  N_20 
ROOT
ATOM      1  C   LIG d   1      -4.273  78.051 116.249  0.00  0.00     0.161 C 
ATOM      2  C   LIG d   1      -4.372  76.823 115.573  0.00  0.00     0.016 C 
ATOM      3  C   LIG d   1      -5.578  76.095 115.455  0.00  0.00     0.038 C 
ATOM      4  C   LIG d   1      -6.807  76.623 115.878  0.00  0.00     0.028 C 
ATOM      5  C   LIG d   1      -6.674  77.631 117.015  0.00  0.00    -0.047 C 
ATOM      6  C   LIG d   1      -5.624  78.696 116.621  0.00  0.00     0.091 C 
ENDROOT
BRANCH   1   7
ATOM      7  O   LIG d   1      -3.474  78.970 115.478  0.00  0.00    -0.368 OA
BRANCH   7   8
ATOM      8  C   LIG d   1      -2.478  78.376 114.610  0.00  0.00     0.119 C 
BRANCH   8   9
ATOM      9  C   LIG d   1      -1.114  78.503 115.316  0.00  0.00     0.028 C 
ATOM     10  C   LIG d   1      -0.235  77.256 115.124  0.00  0.00     0.006 C 
ENDBRANCH   8   9
BRANCH   8  11
ATOM     11  C   LIG d   1      -2.334  79.165 113.305  0.00  0.00     0.028 C 
ATOM     12  C   LIG d   1      -2.466  78.280 112.056  0.00  0.00     0.006 C 
ENDBRANCH   8  11
ENDBRANCH   7   8
ENDBRANCH   1   7
BRANCH   6  13
ATOM     13  N   LIG d   1      -5.372  79.673 117.712  0.00  0.00    -0.311 N 
ATOM     14  C   LIG d   1      -5.986  80.851 117.797  0.00  0.00     0.210 C 
ATOM     15  C   LIG d   1      -5.564  81.716 118.989  0.00  0.00     0.109 C 
ATOM     16  O   LIG d   1      -6.864  81.249 117.017  0.00  0.00    -0.276 OA
ATOM     17  H   LIG d   1      -4.696  79.418 118.405  0.00  0.00     0.149 HD
ENDBRANCH   6  13
BRANCH   5  18
ATOM     18  N   LIG d   1      -8.011  78.203 117.262  0.00  0.00     0.381 N 
ATOM     19  H   LIG d   1      -7.931  79.179 117.463  0.00  0.00    -0.090 HD
ATOM     20  H   LIG d   1      -8.415  77.749 118.063  0.00  0.00    -0.090 HD
ATOM     21  H   LIG d   1      -8.593  78.066 116.465  0.00  0.00    -0.090 HD
ENDBRANCH   5  18
BRANCH   3  22
ATOM     22  C   LIG d   1      -5.556  74.807 114.944  0.00  0.00     0.382 C 
ATOM     23  O   LIG d   1      -4.965  74.572 113.862  0.00  0.00    -0.241 OA
ATOM     24  O   LIG d   1      -6.157  73.885 115.527  0.00  0.00    -0.241 OA
ENDBRANCH   3  22
TORSDOF 7
ENDMDL
MODEL 7
REMARK VINA RESULT:      -4.9      2.382      5.583
REMARK  7 active torsions:
REMARK  status: ('A' for Active; 'I' for Inactive)
REMARK    1  A    between atoms: C_2  and  C_3 
REMARK    2  A    between atoms: C_3  and  O_6 
REMARK    3  A    between atoms: C_3  and  C_4 
REMARK    4  A    between atoms: C_7  and  O_6 
REMARK    5  A    between atoms: C_9  and  C_10 
REMARK    6  A    between atoms: N_15  and  C_14 
REMARK    7  A    between atoms: N_20  and  C_19 
REMARK       I    between atoms: C_22  and  N_20 
ROOT
ATOM      1  C   LIG d   1      -3.178  76.079 115.809  0.00  0.00     0.161 C 
ATOM      2  C   LIG d   1      -4.327  75.296 115.608  0.00  0.00     0.016 C 
ATOM      3  C   LIG d   1      -5.642  75.781 115.798  0.00  0.00     0.038 C 
ATOM      4  C   LIG d   1      -5.902  77.134 116.058  0.00  0.00     0.028 C 
ATOM      5  C   LIG d   1      -4.755  77.847 116.765  0.00  0.00    -0.047 C 
ATOM      6  C   LIG d   1      -3.446  77.588 115.985  0.00  0.00     0.091 C 
ENDROOT
BRANCH   1   7
ATOM      7  O   LIG d   1      -2.242  75.858 114.734  0.00  0.00    -0.368 OA
BRANCH   7   8
ATOM      8  C   LIG d   1      -0.881  75.555 115.127  0.00  0.00     0.119 C 
BRANCH   8   9
ATOM      9  C   LIG d   1       0.053  76.143 114.052  0.00  0.00     0.028 C 
ATOM     10  C   LIG d   1      -0.658  77.172 113.156  0.00  0.00     0.006 C 
ENDBRANCH   8   9
BRANCH   8  11
ATOM     11  C   LIG d   1      -0.619  74.046 115.109  0.00  0.00     0.028 C 
ATOM     12  C   LIG d   1       0.083  73.578 113.825  0.00  0.00     0.006 C 
ENDBRANCH   8  11
ENDBRANCH   7   8
ENDBRANCH   1   7
BRANCH   6  13
ATOM     13  N   LIG d   1      -2.259  78.181 116.655  0.00  0.00    -0.311 N 
ATOM     14  C   LIG d   1      -1.551  79.184 116.140  0.00  0.00     0.210 C 
ATOM     15  C   LIG d   1      -0.354  79.631 116.984  0.00  0.00     0.109 C 
ATOM     16  O   LIG d   1      -1.820  79.768 115.079  0.00  0.00    -0.276 OA
ATOM     17  H   LIG d   1      -1.989  77.788 117.535  0.00  0.00     0.149 HD
ENDBRANCH   6  13
BRANCH   5  18
ATOM     18  N   LIG d   1      -5.104  79.278 116.851  0.00  0.00     0.381 N 
ATOM     19  H   LIG d   1      -5.751  79.512 116.125  0.00  0.00    -0.090 HD
ATOM     20  H   LIG d   1      -4.271  79.824 116.718  0.00  0.00    -0.090 HD
ATOM     21  H   LIG d   1      -5.504  79.479 117.741  0.00  0.00    -0.090 HD
ENDBRANCH   5  18
BRANCH   3  22
ATOM     22  C   LIG d   1      -6.710  74.898 115.768  0.00  0.00     0.382 C 
ATOM     23  O   LIG d   1      -7.885  75.337 115.733  0.00  0.00    -0.241 OA
ATOM     24  O   LIG d   1      -6.516  73.669 115.820  0.00  0.00    -0.241 OA
ENDBRANCH   3  22
TORSDOF 7
ENDMDL
MODEL 8
REMARK VINA RESULT:      -4.9      1.613      4.886
REMARK  7 active torsions:
REMARK  status: ('A' for Active; 'I' for Inactive)
REMARK    1  A    between atoms: C_2  and  C_3 
REMARK    2  A    between atoms: C_3  and  O_6 
REMARK    3  A    between atoms: C_3  and  C_4 
REMARK    4  A    between atoms: C_7  and  O_6 
REMARK    5  A    between atoms: C_9  and  C_10 
REMARK    6  A    between atoms: N_15  and  C_14 
REMARK    7  A    between atoms: N_20  and  C_19 
REMARK       I    between atoms: C_22  and  N_20 
ROOT
ATOM      1  C   LIG d   1      -2.620  76.536 115.010  0.00  0.00     0.161 C 
ATOM      2  C   LIG d   1      -2.528  75.471 115.921  0.00  0.00     0.016 C 
ATOM      3  C   LIG d   1      -1.575  75.419 116.964  0.00  0.00     0.038 C 
ATOM      4  C   LIG d   1      -0.742  76.508 117.261  0.00  0.00     0.028 C 
ATOM      5  C   LIG d   1      -0.454  77.398 116.057  0.00  0.00    -0.047 C 
ATOM      6  C   LIG d   1      -1.793  77.783 115.386  0.00  0.00     0.091 C 
ENDROOT
BRANCH   1   7
ATOM      7  O   LIG d   1      -4.003  76.892 114.813  0.00  0.00    -0.368 OA
BRANCH   7   8
ATOM      8  C   LIG d   1      -4.924  76.464 115.845  0.00  0.00     0.119 C 
BRANCH   8   9
ATOM      9  C   LIG d   1      -6.203  75.964 115.146  0.00  0.00     0.028 C 
ATOM     10  C   LIG d   1      -6.924  74.871 115.952  0.00  0.00     0.006 C 
ENDBRANCH   8   9
BRANCH   8  11
ATOM     11  C   LIG d   1      -5.372  77.642 116.716  0.00  0.00     0.028 C 
ATOM     12  C   LIG d   1      -4.646  77.691 118.070  0.00  0.00     0.006 C 
ENDBRANCH   8  11
ENDBRANCH   7   8
ENDBRANCH   1   7
BRANCH   6  13
ATOM     13  N   LIG d   1      -1.598  78.584 114.150  0.00  0.00    -0.311 N 
ATOM     14  C   LIG d   1      -2.314  79.669 113.859  0.00  0.00     0.210 C 
ATOM     15  C   LIG d   1      -1.965  80.334 112.524  0.00  0.00     0.109 C 
ATOM     16  O   LIG d   1      -3.183  80.161 114.594  0.00  0.00    -0.276 OA
ATOM     17  H   LIG d   1      -0.892  78.273 113.511  0.00  0.00     0.149 HD
ENDBRANCH   6  13
BRANCH   5  18
ATOM     18  N   LIG d   1       0.309  78.566 116.536  0.00  0.00     0.381 N 
ATOM     19  H   LIG d   1       1.283  78.433 116.352  0.00  0.00    -0.090 HD
ATOM     20  H   LIG d   1       0.185  78.649 117.530  0.00  0.00    -0.090 HD
ATOM     21  H   LIG d   1      -0.013  79.393 116.084  0.00  0.00    -0.090 HD
ENDBRANCH   5  18
BRANCH   3  22
ATOM     22  C   LIG d   1      -1.421  74.253 117.698  0.00  0.00     0.382 C 
ATOM     23  O   LIG d   1      -1.790  74.213 118.896  0.00  0.00    -0.241 OA
ATOM     24  O   LIG d   1      -0.877  73.254 117.190  0.00  0.00    -0.241 OA
ENDBRANCH   3  22
TORSDOF 7
ENDMDL
MODEL 9
REMARK VINA RESULT:      -4.8     15.267     17.898
REMARK  7 active torsions:
REMARK  status: ('A' for Active; 'I' for Inactive)
REMARK    1  A    between atoms: C_2  and  C_3 
REMARK    2  A    between atoms: C_3  and  O_6 
REMARK    3  A    between atoms: C_3  and  C_4 
REMARK    4  A    between atoms: C_7  and  O_6 
REMARK    5  A    between atoms: C_9  and  C_10 
REMARK    6  A    between atoms: N_15  and  C_14 
REMARK    7  A    between atoms: N_20  and  C_19 
REMARK       I    between atoms: C_22  and  N_20 
ROOT
ATOM      1  C   LIG d   1     -16.572  65.057 115.638  0.00  0.00     0.161 C 
ATOM      2  C   LIG d   1     -16.394  65.866 114.503  0.00  0.00     0.016 C 
ATOM      3  C   LIG d   1     -15.352  66.813 114.377  0.00  0.00     0.038 C 
ATOM      4  C   LIG d   1     -14.321  66.910 115.323  0.00  0.00     0.028 C 
ATOM      5  C   LIG d   1     -14.737  66.468 116.721  0.00  0.00    -0.047 C 
ATOM      6  C   LIG d   1     -15.392  65.070 116.632  0.00  0.00     0.091 C 
ENDROOT
BRANCH   1   7
ATOM      7  O   LIG d   1     -16.871  63.707 115.234  0.00  0.00    -0.368 OA
BRANCH   7   8
ATOM      8  C   LIG d   1     -18.263  63.420 114.951  0.00  0.00     0.119 C 
BRANCH   8   9
ATOM      9  C   LIG d   1     -19.018  63.415 116.294  0.00  0.00     0.028 C 
ATOM     10  C   LIG d   1     -20.532  63.213 116.117  0.00  0.00     0.006 C 
ENDBRANCH   8   9
BRANCH   8  11
ATOM     11  C   LIG d   1     -18.437  62.008 114.383  0.00  0.00     0.028 C 
ATOM     12  C   LIG d   1     -17.520  60.977 115.059  0.00  0.00     0.006 C 
ENDBRANCH   8  11
ENDBRANCH   7   8
ENDBRANCH   1   7
BRANCH   6  13
ATOM     13  N   LIG d   1     -15.904  64.599 117.945  0.00  0.00    -0.311 N 
ATOM     14  C   LIG d   1     -15.220  63.789 118.751  0.00  0.00     0.210 C 
ATOM     15  C   LIG d   1     -15.940  63.409 120.048  0.00  0.00     0.109 C 
ATOM     16  O   LIG d   1     -14.072  63.375 118.529  0.00  0.00    -0.276 OA
ATOM     17  H   LIG d   1     -16.815  64.912 118.218  0.00  0.00     0.149 HD
ENDBRANCH   6  13
BRANCH   5  18
ATOM     18  N   LIG d   1     -13.533  66.489 117.573  0.00  0.00     0.381 N 
ATOM     19  H   LIG d   1     -13.409  67.402 117.962  0.00  0.00    -0.090 HD
ATOM     20  H   LIG d   1     -12.731  66.276 117.006  0.00  0.00    -0.090 HD
ATOM     21  H   LIG d   1     -13.620  65.818 118.304  0.00  0.00    -0.090 HD
ENDBRANCH   5  18
BRANCH   3  22
ATOM     22  C   LIG d   1     -15.358  67.704 113.315  0.00  0.00     0.382 C 
ATOM     23  O   LIG d   1     -15.205  68.932 113.526  0.00  0.00    -0.241 OA
ATOM     24  O   LIG d   1     -15.559  67.302 112.154  0.00  0.00    -0.241 OA
ENDBRANCH   3  22
TORSDOF 7
ENDMDL
