MODEL 1
REMARK VINA RESULT:      -5.8      0.000      0.000
REMARK  7 active torsions:
REMARK  status: ('A' for Active; 'I' for Inactive)
REMARK    1  A    between atoms: C_2  and  C_3 
REMARK    2  A    between atoms: C_3  and  O_6 
REMARK    3  A    between atoms: C_3  and  C_4 
REMARK    4  A    between atoms: C_7  and  O_6 
REMARK    5  A    between atoms: C_9  and  C_10 
REMARK    6  A    between atoms: N_15  and  C_14 
REMARK    7  A    between atoms: N_20  and  C_19 
REMARK       I    between atoms: C_22  and  N_20 
ROOT
ATOM      1  C   LIG d   1      -8.212  76.220 116.608  0.00  0.00     0.161 C 
ATOM      2  C   LIG d   1      -7.285  75.662 115.713  0.00  0.00     0.016 C 
ATOM      3  C   LIG d   1      -5.981  76.175 115.523  0.00  0.00     0.038 C 
ATOM      4  C   LIG d   1      -5.461  77.197 116.331  0.00  0.00     0.028 C 
ATOM      5  C   LIG d   1      -6.531  78.122 116.901  0.00  0.00    -0.047 C 
ATOM      6  C   LIG d   1      -7.625  77.266 117.579  0.00  0.00     0.091 C 
ENDROOT
BRANCH   1   7
ATOM      7  O   LIG d   1      -8.875  75.171 117.342  0.00  0.00    -0.368 OA
BRANCH   7   8
ATOM      8  C   LIG d   1     -10.276  74.967 117.037  0.00  0.00     0.119 C 
BRANCH   8   9
ATOM      9  C   LIG d   1     -11.086  75.387 118.279  0.00  0.00     0.028 C 
ATOM     10  C   LIG d   1     -12.529  74.855 118.246  0.00  0.00     0.006 C 
ENDBRANCH   8   9
BRANCH   8  11
ATOM     11  C   LIG d   1     -10.591  73.482 116.831  0.00  0.00     0.028 C 
ATOM     12  C   LIG d   1      -9.337  72.595 116.876  0.00  0.00     0.006 C 
ENDBRANCH   8  11
ENDBRANCH   7   8
ENDBRANCH   1   7
BRANCH   6  13
ATOM     13  N   LIG d   1      -8.753  78.088 118.090  0.00  0.00    -0.311 N 
ATOM     14  C   LIG d   1      -9.084  78.160 119.378  0.00  0.00     0.210 C 
ATOM     15  C   LIG d   1     -10.292  79.050 119.687  0.00  0.00     0.109 C 
ATOM     16  O   LIG d   1      -8.471  77.597 120.298  0.00  0.00    -0.276 OA
ATOM     17  H   LIG d   1      -9.285  78.602 117.415  0.00  0.00     0.149 HD
ENDBRANCH   6  13
BRANCH   5  18
ATOM     18  N   LIG d   1      -5.866  79.053 117.832  0.00  0.00     0.381 N 
ATOM     19  H   LIG d   1      -5.516  79.843 117.329  0.00  0.00    -0.090 HD
ATOM     20  H   LIG d   1      -5.089  78.583 118.262  0.00  0.00    -0.090 HD
ATOM     21  H   LIG d   1      -6.509  79.353 118.531  0.00  0.00    -0.090 HD
ENDBRANCH   5  18
BRANCH   3  22
ATOM     22  C   LIG d   1      -5.196  75.691 114.487  0.00  0.00     0.382 C 
ATOM     23  O   LIG d   1      -4.535  76.487 113.777  0.00  0.00    -0.241 OA
ATOM     24  O   LIG d   1      -5.176  74.474 114.226  0.00  0.00    -0.241 OA
ENDBRANCH   3  22
TORSDOF 7
ENDMDL
MODEL 2
REMARK VINA RESULT:      -5.3     15.521     17.778
REMARK  7 active torsions:
REMARK  status: ('A' for Active; 'I' for Inactive)
REMARK    1  A    between atoms: C_2  and  C_3 
REMARK    2  A    between atoms: C_3  and  O_6 
REMARK    3  A    between atoms: C_3  and  C_4 
REMARK    4  A    between atoms: C_7  and  O_6 
REMARK    5  A    between atoms: C_9  and  C_10 
REMARK    6  A    between atoms: N_15  and  C_14 
REMARK    7  A    between atoms: N_20  and  C_19 
REMARK       I    between atoms: C_22  and  N_20 
ROOT
ATOM      1  C   LIG d   1      -4.996  92.939 117.593  0.00  0.00     0.161 C 
ATOM      2  C   LIG d   1      -5.158  91.800 116.787  0.00  0.00     0.016 C 
ATOM      3  C   LIG d   1      -6.325  91.541 116.032  0.00  0.00     0.038 C 
ATOM      4  C   LIG d   1      -7.355  92.485 115.912  0.00  0.00     0.028 C 
ATOM      5  C   LIG d   1      -7.457  93.427 117.108  0.00  0.00    -0.047 C 
ATOM      6  C   LIG d   1      -6.063  94.034 117.387  0.00  0.00     0.091 C 
ENDROOT
BRANCH   1   7
ATOM      7  O   LIG d   1      -3.675  93.486 117.406  0.00  0.00    -0.368 OA
BRANCH   7   8
ATOM      8  C   LIG d   1      -2.785  93.407 118.546  0.00  0.00     0.119 C 
BRANCH   8   9
ATOM      9  C   LIG d   1      -1.711  94.498 118.372  0.00  0.00     0.028 C 
ATOM     10  C   LIG d   1      -0.652  94.118 117.325  0.00  0.00     0.006 C 
ENDBRANCH   8   9
BRANCH   8  11
ATOM     11  C   LIG d   1      -2.017  92.082 118.563  0.00  0.00     0.028 C 
ATOM     12  C   LIG d   1      -2.415  91.177 119.740  0.00  0.00     0.006 C 
ENDBRANCH   8  11
ENDBRANCH   7   8
ENDBRANCH   1   7
BRANCH   6  13
ATOM     13  N   LIG d   1      -6.055  94.903 118.594  0.00  0.00    -0.311 N 
ATOM     14  C   LIG d   1      -6.375  96.195 118.569  0.00  0.00     0.210 C 
ATOM     15  C   LIG d   1      -6.282  96.910 119.920  0.00  0.00     0.109 C 
ATOM     16  O   LIG d   1      -6.759  96.810 117.562  0.00  0.00    -0.276 OA
ATOM     17  H   LIG d   1      -5.786  94.478 119.459  0.00  0.00     0.149 HD
ENDBRANCH   6  13
BRANCH   5  18
ATOM     18  N   LIG d   1      -8.478  94.443 116.790  0.00  0.00     0.381 N 
ATOM     19  H   LIG d   1      -9.389  94.081 116.989  0.00  0.00    -0.090 HD
ATOM     20  H   LIG d   1      -8.430  94.655 115.809  0.00  0.00    -0.090 HD
ATOM     21  H   LIG d   1      -8.315  95.268 117.324  0.00  0.00    -0.090 HD
ENDBRANCH   5  18
BRANCH   3  22
ATOM     22  C   LIG d   1      -6.487  90.308 115.418  0.00  0.00     0.382 C 
ATOM     23  O   LIG d   1      -7.574  89.691 115.528  0.00  0.00    -0.241 OA
ATOM     24  O   LIG d   1      -5.545  89.785 114.794  0.00  0.00    -0.241 OA
ENDBRANCH   3  22
TORSDOF 7
ENDMDL
MODEL 3
REMARK VINA RESULT:      -5.3      1.766      4.922
REMARK  7 active torsions:
REMARK  status: ('A' for Active; 'I' for Inactive)
REMARK    1  A    between atoms: C_2  and  C_3 
REMARK    2  A    between atoms: C_3  and  O_6 
REMARK    3  A    between atoms: C_3  and  C_4 
REMARK    4  A    between atoms: C_7  and  O_6 
REMARK    5  A    between atoms: C_9  and  C_10 
REMARK    6  A    between atoms: N_15  and  C_14 
REMARK    7  A    between atoms: N_20  and  C_19 
REMARK       I    between atoms: C_22  and  N_20 
ROOT
ATOM      1  C   LIG d   1      -8.032  76.642 117.787  0.00  0.00     0.161 C 
ATOM      2  C   LIG d   1      -9.087  77.448 118.246  0.00  0.00     0.016 C 
ATOM      3  C   LIG d   1      -9.024  78.859 118.296  0.00  0.00     0.038 C 
ATOM      4  C   LIG d   1      -7.950  79.573 117.745  0.00  0.00     0.028 C 
ATOM      5  C   LIG d   1      -6.643  78.787 117.731  0.00  0.00    -0.047 C 
ATOM      6  C   LIG d   1      -6.895  77.408 117.078  0.00  0.00     0.091 C 
ENDROOT
BRANCH   1   7
ATOM      7  O   LIG d   1      -8.546  75.604 116.930  0.00  0.00    -0.368 OA
BRANCH   7   8
ATOM      8  C   LIG d   1      -8.725  74.303 117.542  0.00  0.00     0.119 C 
BRANCH   8   9
ATOM      9  C   LIG d   1      -7.553  73.413 117.088  0.00  0.00     0.028 C 
ATOM     10  C   LIG d   1      -7.974  71.948 116.878  0.00  0.00     0.006 C 
ENDBRANCH   8   9
BRANCH   8  11
ATOM     11  C   LIG d   1      -9.987  73.610 117.018  0.00  0.00     0.028 C 
ATOM     12  C   LIG d   1     -11.274  74.374 117.366  0.00  0.00     0.006 C 
ENDBRANCH   8  11
ENDBRANCH   7   8
ENDBRANCH   1   7
BRANCH   6  13
ATOM     13  N   LIG d   1      -5.687  76.542 117.100  0.00  0.00    -0.311 N 
ATOM     14  C   LIG d   1      -5.019  76.188 116.003  0.00  0.00     0.210 C 
ATOM     15  C   LIG d   1      -3.815  75.274 116.247  0.00  0.00     0.109 C 
ATOM     16  O   LIG d   1      -5.291  76.571 114.855  0.00  0.00    -0.276 OA
ATOM     17  H   LIG d   1      -5.379  76.212 117.993  0.00  0.00     0.149 HD
ENDBRANCH   6  13
BRANCH   5  18
ATOM     18  N   LIG d   1      -5.644  79.595 117.007  0.00  0.00     0.381 N 
ATOM     19  H   LIG d   1      -6.015  79.880 116.123  0.00  0.00    -0.090 HD
ATOM     20  H   LIG d   1      -4.829  79.032 116.840  0.00  0.00    -0.090 HD
ATOM     21  H   LIG d   1      -5.399  80.397 117.546  0.00  0.00    -0.090 HD
ENDBRANCH   5  18
BRANCH   3  22
ATOM     22  C   LIG d   1     -10.026  79.569 118.939  0.00  0.00     0.382 C 
ATOM     23  O   LIG d   1     -10.296  80.740 118.578  0.00  0.00    -0.241 OA
ATOM     24  O   LIG d   1     -10.635  79.070 119.905  0.00  0.00    -0.241 OA
ENDBRANCH   3  22
TORSDOF 7
ENDMDL
MODEL 4
REMARK VINA RESULT:      -5.3      2.331      4.138
REMARK  7 active torsions:
REMARK  status: ('A' for Active; 'I' for Inactive)
REMARK    1  A    between atoms: C_2  and  C_3 
REMARK    2  A    between atoms: C_3  and  O_6 
REMARK    3  A    between atoms: C_3  and  C_4 
REMARK    4  A    between atoms: C_7  and  O_6 
REMARK    5  A    between atoms: C_9  and  C_10 
REMARK    6  A    between atoms: N_15  and  C_14 
REMARK    7  A    between atoms: N_20  and  C_19 
REMARK       I    between atoms: C_22  and  N_20 
ROOT
ATOM      1  C   LIG d   1      -7.865  77.026 117.340  0.00  0.00     0.161 C 
ATOM      2  C   LIG d   1      -6.892  78.035 117.246  0.00  0.00     0.016 C 
ATOM      3  C   LIG d   1      -7.058  79.329 117.790  0.00  0.00     0.038 C 
ATOM      4  C   LIG d   1      -8.154  79.658 118.602  0.00  0.00     0.028 C 
ATOM      5  C   LIG d   1      -9.399  78.829 118.303  0.00  0.00    -0.047 C 
ATOM      6  C   LIG d   1      -9.020  77.331 118.317  0.00  0.00     0.091 C 
ENDROOT
BRANCH   1   7
ATOM      7  O   LIG d   1      -7.239  75.773 117.679  0.00  0.00    -0.368 OA
BRANCH   7   8
ATOM      8  C   LIG d   1      -7.393  74.703 116.715  0.00  0.00     0.119 C 
BRANCH   8   9
ATOM      9  C   LIG d   1      -8.148  73.556 117.413  0.00  0.00     0.028 C 
ATOM     10  C   LIG d   1      -7.636  72.170 116.986  0.00  0.00     0.006 C 
ENDBRANCH   8   9
BRANCH   8  11
ATOM     11  C   LIG d   1      -6.037  74.112 116.317  0.00  0.00     0.028 C 
ATOM     12  C   LIG d   1      -5.423  74.803 115.089  0.00  0.00     0.006 C 
ENDBRANCH   8  11
ENDBRANCH   7   8
ENDBRANCH   1   7
BRANCH   6  13
ATOM     13  N   LIG d   1     -10.163  76.454 117.951  0.00  0.00    -0.311 N 
ATOM     14  C   LIG d   1     -10.960  75.876 118.847  0.00  0.00     0.210 C 
ATOM     15  C   LIG d   1     -12.066  74.995 118.256  0.00  0.00     0.109 C 
ATOM     16  O   LIG d   1     -10.878  76.036 120.074  0.00  0.00    -0.276 OA
ATOM     17  H   LIG d   1     -10.321  76.295 116.975  0.00  0.00     0.149 HD
ENDBRANCH   6  13
BRANCH   5  18
ATOM     18  N   LIG d   1     -10.419  79.178 119.310  0.00  0.00     0.381 N 
ATOM     19  H   LIG d   1     -10.517  78.428 119.966  0.00  0.00    -0.090 HD
ATOM     20  H   LIG d   1     -11.301  79.310 118.848  0.00  0.00    -0.090 HD
ATOM     21  H   LIG d   1     -10.157  80.013 119.786  0.00  0.00    -0.090 HD
ENDBRANCH   5  18
BRANCH   3  22
ATOM     22  C   LIG d   1      -6.139  80.324 117.491  0.00  0.00     0.382 C 
ATOM     23  O   LIG d   1      -5.472  80.262 116.430  0.00  0.00    -0.241 OA
ATOM     24  O   LIG d   1      -5.937  81.259 118.289  0.00  0.00    -0.241 OA
ENDBRANCH   3  22
TORSDOF 7
ENDMDL
MODEL 5
REMARK VINA RESULT:      -5.2      2.602      6.203
REMARK  7 active torsions:
REMARK  status: ('A' for Active; 'I' for Inactive)
REMARK    1  A    between atoms: C_2  and  C_3 
REMARK    2  A    between atoms: C_3  and  O_6 
REMARK    3  A    between atoms: C_3  and  C_4 
REMARK    4  A    between atoms: C_7  and  O_6 
REMARK    5  A    between atoms: C_9  and  C_10 
REMARK    6  A    between atoms: N_15  and  C_14 
REMARK    7  A    between atoms: N_20  and  C_19 
REMARK       I    between atoms: C_22  and  N_20 
ROOT
ATOM      1  C   LIG d   1      -7.332  76.900 117.010  0.00  0.00     0.161 C 
ATOM      2  C   LIG d   1      -8.672  76.633 117.338  0.00  0.00     0.016 C 
ATOM      3  C   LIG d   1      -9.208  75.327 117.420  0.00  0.00     0.038 C 
ATOM      4  C   LIG d   1      -8.397  74.186 117.329  0.00  0.00     0.028 C 
ATOM      5  C   LIG d   1      -7.136  74.404 116.499  0.00  0.00    -0.047 C 
ATOM      6  C   LIG d   1      -6.407  75.665 117.016  0.00  0.00     0.091 C 
ENDROOT
BRANCH   1   7
ATOM      7  O   LIG d   1      -6.810  77.922 117.883  0.00  0.00    -0.368 OA
BRANCH   7   8
ATOM      8  C   LIG d   1      -6.548  79.209 117.272  0.00  0.00     0.119 C 
BRANCH   8   9
ATOM      9  C   LIG d   1      -5.110  79.615 117.647  0.00  0.00     0.028 C 
ATOM     10  C   LIG d   1      -4.139  79.499 116.461  0.00  0.00     0.006 C 
ENDBRANCH   8   9
BRANCH   8  11
ATOM     11  C   LIG d   1      -7.445  80.300 117.865  0.00  0.00     0.028 C 
ATOM     12  C   LIG d   1      -7.056  81.711 117.398  0.00  0.00     0.006 C 
ENDBRANCH   8  11
ENDBRANCH   7   8
ENDBRANCH   1   7
BRANCH   6  13
ATOM     13  N   LIG d   1      -5.207  75.999 116.206  0.00  0.00    -0.311 N 
ATOM     14  C   LIG d   1      -3.981  75.568 116.499  0.00  0.00     0.210 C 
ATOM     15  C   LIG d   1      -2.882  76.044 115.544  0.00  0.00     0.109 C 
ATOM     16  O   LIG d   1      -3.704  74.809 117.440  0.00  0.00    -0.276 OA
ATOM     17  H   LIG d   1      -5.345  76.584 115.405  0.00  0.00     0.149 HD
ENDBRANCH   6  13
BRANCH   5  18
ATOM     18  N   LIG d   1      -6.318  73.181 116.602  0.00  0.00     0.381 N 
ATOM     19  H   LIG d   1      -6.461  72.609 115.793  0.00  0.00    -0.090 HD
ATOM     20  H   LIG d   1      -6.610  72.662 117.411  0.00  0.00    -0.090 HD
ATOM     21  H   LIG d   1      -5.354  73.420 116.681  0.00  0.00    -0.090 HD
ENDBRANCH   5  18
BRANCH   3  22
ATOM     22  C   LIG d   1     -10.576  75.154 117.557  0.00  0.00     0.382 C 
ATOM     23  O   LIG d   1     -11.100  74.050 117.270  0.00  0.00    -0.241 OA
ATOM     24  O   LIG d   1     -11.300  76.099 117.922  0.00  0.00    -0.241 OA
ENDBRANCH   3  22
TORSDOF 7
ENDMDL
MODEL 6
REMARK VINA RESULT:      -5.2      2.020      4.977
REMARK  7 active torsions:
REMARK  status: ('A' for Active; 'I' for Inactive)
REMARK    1  A    between atoms: C_2  and  C_3 
REMARK    2  A    between atoms: C_3  and  O_6 
REMARK    3  A    between atoms: C_3  and  C_4 
REMARK    4  A    between atoms: C_7  and  O_6 
REMARK    5  A    between atoms: C_9  and  C_10 
REMARK    6  A    between atoms: N_15  and  C_14 
REMARK    7  A    between atoms: N_20  and  C_19 
REMARK       I    between atoms: C_22  and  N_20 
ROOT
ATOM      1  C   LIG d   1      -7.573  75.444 117.998  0.00  0.00     0.161 C 
ATOM      2  C   LIG d   1      -8.491  74.514 117.483  0.00  0.00     0.016 C 
ATOM      3  C   LIG d   1      -9.883  74.751 117.412  0.00  0.00     0.038 C 
ATOM      4  C   LIG d   1     -10.438  76.003 117.715  0.00  0.00     0.028 C 
ATOM      5  C   LIG d   1      -9.613  76.805 118.716  0.00  0.00    -0.047 C 
ATOM      6  C   LIG d   1      -8.147  76.858 118.230  0.00  0.00     0.091 C 
ENDROOT
BRANCH   1   7
ATOM      7  O   LIG d   1      -6.412  75.508 117.146  0.00  0.00    -0.368 OA
BRANCH   7   8
ATOM      8  C   LIG d   1      -6.413  76.556 116.145  0.00  0.00     0.119 C 
BRANCH   8   9
ATOM      9  C   LIG d   1      -6.347  75.877 114.764  0.00  0.00     0.028 C 
ATOM     10  C   LIG d   1      -5.435  74.639 114.762  0.00  0.00     0.006 C 
ENDBRANCH   8   9
BRANCH   8  11
ATOM     11  C   LIG d   1      -5.147  77.414 116.236  0.00  0.00     0.028 C 
ATOM     12  C   LIG d   1      -4.198  76.960 117.356  0.00  0.00     0.006 C 
ENDBRANCH   8  11
ENDBRANCH   7   8
ENDBRANCH   1   7
BRANCH   6  13
ATOM     13  N   LIG d   1      -7.255  77.553 119.194  0.00  0.00    -0.311 N 
ATOM     14  C   LIG d   1      -6.948  78.846 119.107  0.00  0.00     0.210 C 
ATOM     15  C   LIG d   1      -5.995  79.358 120.192  0.00  0.00     0.109 C 
ATOM     16  O   LIG d   1      -7.399  79.625 118.254  0.00  0.00    -0.276 OA
ATOM     17  H   LIG d   1      -6.869  77.003 119.936  0.00  0.00     0.149 HD
ENDBRANCH   6  13
BRANCH   5  18
ATOM     18  N   LIG d   1     -10.231  78.139 118.835  0.00  0.00     0.381 N 
ATOM     19  H   LIG d   1     -11.213  78.075 118.655  0.00  0.00    -0.090 HD
ATOM     20  H   LIG d   1      -9.824  78.749 118.148  0.00  0.00    -0.090 HD
ATOM     21  H   LIG d   1     -10.077  78.506 119.748  0.00  0.00    -0.090 HD
ENDBRANCH   5  18
BRANCH   3  22
ATOM     22  C   LIG d   1     -10.740  73.715 117.073  0.00  0.00     0.382 C 
ATOM     23  O   LIG d   1     -11.973  73.830 117.274  0.00  0.00    -0.241 OA
ATOM     24  O   LIG d   1     -10.291  72.649 116.611  0.00  0.00    -0.241 OA
ENDBRANCH   3  22
TORSDOF 7
ENDMDL
MODEL 7
REMARK VINA RESULT:      -5.0     15.186     17.707
REMARK  7 active torsions:
REMARK  status: ('A' for Active; 'I' for Inactive)
REMARK    1  A    between atoms: C_2  and  C_3 
REMARK    2  A    between atoms: C_3  and  O_6 
REMARK    3  A    between atoms: C_3  and  C_4 
REMARK    4  A    between atoms: C_7  and  O_6 
REMARK    5  A    between atoms: C_9  and  C_10 
REMARK    6  A    between atoms: N_15  and  C_14 
REMARK    7  A    between atoms: N_20  and  C_19 
REMARK       I    between atoms: C_22  and  N_20 
ROOT
ATOM      1  C   LIG d   1      -4.814  92.956 117.644  0.00  0.00     0.161 C 
ATOM      2  C   LIG d   1      -4.591  94.030 118.522  0.00  0.00     0.016 C 
ATOM      3  C   LIG d   1      -5.512  95.086 118.709  0.00  0.00     0.038 C 
ATOM      4  C   LIG d   1      -6.794  95.061 118.140  0.00  0.00     0.028 C 
ATOM      5  C   LIG d   1      -6.869  94.251 116.851  0.00  0.00    -0.047 C 
ATOM      6  C   LIG d   1      -6.254  92.855 117.099  0.00  0.00     0.091 C 
ENDROOT
BRANCH   1   7
ATOM      7  O   LIG d   1      -4.430  91.719 118.278  0.00  0.00    -0.368 OA
BRANCH   7   8
ATOM      8  C   LIG d   1      -3.034  91.349 118.160  0.00  0.00     0.119 C 
BRANCH   8   9
ATOM      9  C   LIG d   1      -2.975  89.990 117.436  0.00  0.00     0.028 C 
ATOM     10  C   LIG d   1      -2.401  88.875 118.328  0.00  0.00     0.006 C 
ENDBRANCH   8   9
BRANCH   8  11
ATOM     11  C   LIG d   1      -2.404  91.105 119.534  0.00  0.00     0.028 C 
ATOM     12  C   LIG d   1      -1.572  92.299 120.029  0.00  0.00     0.006 C 
ENDBRANCH   8  11
ENDBRANCH   7   8
ENDBRANCH   1   7
BRANCH   6  13
ATOM     13  N   LIG d   1      -6.211  92.027 115.866  0.00  0.00    -0.311 N 
ATOM     14  C   LIG d   1      -6.973  90.950 115.678  0.00  0.00     0.210 C 
ATOM     15  C   LIG d   1      -6.756  90.229 114.344  0.00  0.00     0.109 C 
ATOM     16  O   LIG d   1      -7.830  90.543 116.476  0.00  0.00    -0.276 OA
ATOM     17  H   LIG d   1      -5.565  92.304 115.153  0.00  0.00     0.149 HD
ENDBRANCH   6  13
BRANCH   5  18
ATOM     18  N   LIG d   1      -8.285  94.195 116.441  0.00  0.00     0.381 N 
ATOM     19  H   LIG d   1      -8.593  95.105 116.163  0.00  0.00    -0.090 HD
ATOM     20  H   LIG d   1      -8.839  93.901 117.226  0.00  0.00    -0.090 HD
ATOM     21  H   LIG d   1      -8.396  93.553 115.687  0.00  0.00    -0.090 HD
ENDBRANCH   5  18
BRANCH   3  22
ATOM     22  C   LIG d   1      -5.137  96.202 119.442  0.00  0.00     0.382 C 
ATOM     23  O   LIG d   1      -3.931  96.543 119.494  0.00  0.00    -0.241 OA
ATOM     24  O   LIG d   1      -5.985  96.847 120.088  0.00  0.00    -0.241 OA
ENDBRANCH   3  22
TORSDOF 7
ENDMDL
MODEL 8
REMARK VINA RESULT:      -5.0      2.230      5.191
REMARK  7 active torsions:
REMARK  status: ('A' for Active; 'I' for Inactive)
REMARK    1  A    between atoms: C_2  and  C_3 
REMARK    2  A    between atoms: C_3  and  O_6 
REMARK    3  A    between atoms: C_3  and  C_4 
REMARK    4  A    between atoms: C_7  and  O_6 
REMARK    5  A    between atoms: C_9  and  C_10 
REMARK    6  A    between atoms: N_15  and  C_14 
REMARK    7  A    between atoms: N_20  and  C_19 
REMARK       I    between atoms: C_22  and  N_20 
ROOT
ATOM      1  C   LIG d   1      -6.862  77.344 117.296  0.00  0.00     0.161 C 
ATOM      2  C   LIG d   1      -7.425  76.077 117.068  0.00  0.00     0.016 C 
ATOM      3  C   LIG d   1      -8.764  75.752 117.385  0.00  0.00     0.038 C 
ATOM      4  C   LIG d   1      -9.681  76.723 117.814  0.00  0.00     0.028 C 
ATOM      5  C   LIG d   1      -9.027  77.897 118.535  0.00  0.00    -0.047 C 
ATOM      6  C   LIG d   1      -7.878  78.447 117.660  0.00  0.00     0.091 C 
ENDROOT
BRANCH   1   7
ATOM      7  O   LIG d   1      -6.078  77.742 116.154  0.00  0.00    -0.368 OA
BRANCH   7   8
ATOM      8  C   LIG d   1      -4.680  77.363 116.178  0.00  0.00     0.119 C 
BRANCH   8   9
ATOM      9  C   LIG d   1      -3.848  78.656 116.072  0.00  0.00     0.028 C 
ATOM     10  C   LIG d   1      -3.618  79.320 117.440  0.00  0.00     0.006 C 
ENDBRANCH   8   9
BRANCH   8  11
ATOM     11  C   LIG d   1      -4.305  76.537 114.944  0.00  0.00     0.028 C 
ATOM     12  C   LIG d   1      -4.425  75.024 115.181  0.00  0.00     0.006 C 
ENDBRANCH   8  11
ENDBRANCH   7   8
ENDBRANCH   1   7
BRANCH   6  13
ATOM     13  N   LIG d   1      -7.131  79.543 118.329  0.00  0.00    -0.311 N 
ATOM     14  C   LIG d   1      -7.087  80.791 117.864  0.00  0.00     0.210 C 
ATOM     15  C   LIG d   1      -6.243  81.762 118.695  0.00  0.00     0.109 C 
ATOM     16  O   LIG d   1      -7.694  81.193 116.860  0.00  0.00    -0.276 OA
ATOM     17  H   LIG d   1      -6.635  79.312 119.167  0.00  0.00     0.149 HD
ENDBRANCH   6  13
BRANCH   5  18
ATOM     18  N   LIG d   1     -10.078  78.896 118.804  0.00  0.00     0.381 N 
ATOM     19  H   LIG d   1     -10.936  78.609 118.377  0.00  0.00    -0.090 HD
ATOM     20  H   LIG d   1      -9.803  79.774 118.400  0.00  0.00    -0.090 HD
ATOM     21  H   LIG d   1     -10.207  79.000 119.787  0.00  0.00    -0.090 HD
ENDBRANCH   5  18
BRANCH   3  22
ATOM     22  C   LIG d   1      -9.188  74.434 117.311  0.00  0.00     0.382 C 
ATOM     23  O   LIG d   1      -8.347  73.503 117.342  0.00  0.00    -0.241 OA
ATOM     24  O   LIG d   1     -10.396  74.165 117.169  0.00  0.00    -0.241 OA
ENDBRANCH   3  22
TORSDOF 7
ENDMDL
MODEL 9
REMARK VINA RESULT:      -5.0     17.577     21.065
REMARK  7 active torsions:
REMARK  status: ('A' for Active; 'I' for Inactive)
REMARK    1  A    between atoms: C_2  and  C_3 
REMARK    2  A    between atoms: C_3  and  O_6 
REMARK    3  A    between atoms: C_3  and  C_4 
REMARK    4  A    between atoms: C_7  and  O_6 
REMARK    5  A    between atoms: C_9  and  C_10 
REMARK    6  A    between atoms: N_15  and  C_14 
REMARK    7  A    between atoms: N_20  and  C_19 
REMARK       I    between atoms: C_22  and  N_20 
ROOT
ATOM      1  C   LIG d   1      11.780  78.289 114.742  0.00  0.00     0.161 C 
ATOM      2  C   LIG d   1      10.467  78.662 115.073  0.00  0.00     0.016 C 
ATOM      3  C   LIG d   1       9.489  77.748 115.528  0.00  0.00     0.038 C 
ATOM      4  C   LIG d   1       9.804  76.414 115.829  0.00  0.00     0.028 C 
ATOM      5  C   LIG d   1      10.988  75.877 115.032  0.00  0.00    -0.047 C 
ATOM      6  C   LIG d   1      12.173  76.859 115.169  0.00  0.00     0.091 C 
ENDROOT
BRANCH   1   7
ATOM      7  O   LIG d   1      12.711  79.247 115.281  0.00  0.00    -0.368 OA
BRANCH   7   8
ATOM      8  C   LIG d   1      13.046  80.364 114.422  0.00  0.00     0.119 C 
BRANCH   8   9
ATOM      9  C   LIG d   1      13.011  79.856 112.967  0.00  0.00     0.028 C 
ATOM     10  C   LIG d   1      12.029  80.652 112.091  0.00  0.00     0.006 C 
ENDBRANCH   8   9
BRANCH   8  11
ATOM     11  C   LIG d   1      14.485  80.834 114.653  0.00  0.00     0.028 C 
ATOM     12  C   LIG d   1      15.528  79.880 114.048  0.00  0.00     0.006 C 
ENDBRANCH   8  11
ENDBRANCH   7   8
ENDBRANCH   1   7
BRANCH   6  13
ATOM     13  N   LIG d   1      13.345  76.451 114.352  0.00  0.00    -0.311 N 
ATOM     14  C   LIG d   1      14.588  76.398 114.827  0.00  0.00     0.210 C 
ATOM     15  C   LIG d   1      15.652  75.972 113.811  0.00  0.00     0.109 C 
ATOM     16  O   LIG d   1      14.906  76.633 116.003  0.00  0.00    -0.276 OA
ATOM     17  H   LIG d   1      13.173  76.214 113.394  0.00  0.00     0.149 HD
ENDBRANCH   6  13
BRANCH   5  18
ATOM     18  N   LIG d   1      11.293  74.527 115.543  0.00  0.00     0.381 N 
ATOM     19  H   LIG d   1      12.003  74.104 114.979  0.00  0.00    -0.090 HD
ATOM     20  H   LIG d   1      10.464  73.962 115.484  0.00  0.00    -0.090 HD
ATOM     21  H   LIG d   1      11.599  74.582 116.489  0.00  0.00    -0.090 HD
ENDBRANCH   5  18
BRANCH   3  22
ATOM     22  C   LIG d   1       8.170  78.156 115.648  0.00  0.00     0.382 C 
ATOM     23  O   LIG d   1       7.285  77.643 114.921  0.00  0.00    -0.241 OA
ATOM     24  O   LIG d   1       7.859  79.063 116.444  0.00  0.00    -0.241 OA
ENDBRANCH   3  22
TORSDOF 7
ENDMDL
