MODEL 1
REMARK VINA RESULT:      -6.1      0.000      0.000
REMARK  7 active torsions:
REMARK  status: ('A' for Active; 'I' for Inactive)
REMARK    1  A    between atoms: C_2  and  C_3 
REMARK    2  A    between atoms: C_3  and  O_6 
REMARK    3  A    between atoms: C_3  and  C_4 
REMARK    4  A    between atoms: C_7  and  O_6 
REMARK    5  A    between atoms: C_9  and  C_10 
REMARK    6  A    between atoms: N_15  and  C_14 
REMARK    7  A    between atoms: N_20  and  C_19 
REMARK       I    between atoms: C_22  and  N_20 
ROOT
ATOM      1  C   LIG d   1      -3.070  76.735 115.995  0.00  0.00     0.161 C 
ATOM      2  C   LIG d   1      -3.484  77.340 114.796  0.00  0.00     0.016 C 
ATOM      3  C   LIG d   1      -2.677  77.404 113.637  0.00  0.00     0.038 C 
ATOM      4  C   LIG d   1      -1.450  76.730 113.551  0.00  0.00     0.028 C 
ATOM      5  C   LIG d   1      -0.770  76.534 114.901  0.00  0.00    -0.047 C 
ATOM      6  C   LIG d   1      -1.779  75.898 115.884  0.00  0.00     0.091 C 
ENDROOT
BRANCH   1   7
ATOM      7  O   LIG d   1      -4.141  75.936 116.534  0.00  0.00    -0.368 OA
BRANCH   7   8
ATOM      8  C   LIG d   1      -5.236  75.644 115.631  0.00  0.00     0.119 C 
BRANCH   8   9
ATOM      9  C   LIG d   1      -6.548  75.938 116.384  0.00  0.00     0.028 C 
ATOM     10  C   LIG d   1      -6.481  77.246 117.191  0.00  0.00     0.006 C 
ENDBRANCH   8   9
BRANCH   8  11
ATOM     11  C   LIG d   1      -5.292  74.153 115.287  0.00  0.00     0.028 C 
ATOM     12  C   LIG d   1      -6.392  73.404 116.056  0.00  0.00     0.006 C 
ENDBRANCH   8  11
ENDBRANCH   7   8
ENDBRANCH   1   7
BRANCH   6  13
ATOM     13  N   LIG d   1      -1.220  75.749 117.253  0.00  0.00    -0.311 N 
ATOM     14  C   LIG d   1      -0.613  74.644 117.681  0.00  0.00     0.210 C 
ATOM     15  C   LIG d   1      -0.128  74.693 119.133  0.00  0.00     0.109 C 
ATOM     16  O   LIG d   1      -0.400  73.639 116.986  0.00  0.00    -0.276 OA
ATOM     17  H   LIG d   1      -1.321  76.528 117.874  0.00  0.00     0.149 HD
ENDBRANCH   6  13
BRANCH   5  18
ATOM     18  N   LIG d   1       0.427  75.700 114.681  0.00  0.00     0.381 N 
ATOM     19  H   LIG d   1       1.186  76.043 115.235  0.00  0.00    -0.090 HD
ATOM     20  H   LIG d   1       0.691  75.760 113.713  0.00  0.00    -0.090 HD
ATOM     21  H   LIG d   1       0.232  74.753 114.921  0.00  0.00    -0.090 HD
ENDBRANCH   5  18
BRANCH   3  22
ATOM     22  C   LIG d   1      -3.079  78.183 112.562  0.00  0.00     0.382 C 
ATOM     23  O   LIG d   1      -2.323  79.082 112.123  0.00  0.00    -0.241 OA
ATOM     24  O   LIG d   1      -4.205  78.026 112.055  0.00  0.00    -0.241 OA
ENDBRANCH   3  22
TORSDOF 7
ENDMDL
MODEL 2
REMARK VINA RESULT:      -5.2      3.150      4.969
REMARK  7 active torsions:
REMARK  status: ('A' for Active; 'I' for Inactive)
REMARK    1  A    between atoms: C_2  and  C_3 
REMARK    2  A    between atoms: C_3  and  O_6 
REMARK    3  A    between atoms: C_3  and  C_4 
REMARK    4  A    between atoms: C_7  and  O_6 
REMARK    5  A    between atoms: C_9  and  C_10 
REMARK    6  A    between atoms: N_15  and  C_14 
REMARK    7  A    between atoms: N_20  and  C_19 
REMARK       I    between atoms: C_22  and  N_20 
ROOT
ATOM      1  C   LIG d   1      -5.691  77.616 117.252  0.00  0.00     0.161 C 
ATOM      2  C   LIG d   1      -6.818  78.435 117.433  0.00  0.00     0.016 C 
ATOM      3  C   LIG d   1      -6.740  79.788 117.835  0.00  0.00     0.038 C 
ATOM      4  C   LIG d   1      -5.514  80.462 117.938  0.00  0.00     0.028 C 
ATOM      5  C   LIG d   1      -4.341  79.540 118.255  0.00  0.00    -0.047 C 
ATOM      6  C   LIG d   1      -4.341  78.365 117.251  0.00  0.00     0.091 C 
ENDROOT
BRANCH   1   7
ATOM      7  O   LIG d   1      -5.837  76.845 116.043  0.00  0.00    -0.368 OA
BRANCH   7   8
ATOM      8  C   LIG d   1      -5.484  75.443 116.134  0.00  0.00     0.119 C 
BRANCH   8   9
ATOM      9  C   LIG d   1      -4.797  75.051 114.812  0.00  0.00     0.028 C 
ATOM     10  C   LIG d   1      -4.742  76.217 113.811  0.00  0.00     0.006 C 
ENDBRANCH   8   9
BRANCH   8  11
ATOM     11  C   LIG d   1      -6.732  74.559 116.221  0.00  0.00     0.028 C 
ATOM     12  C   LIG d   1      -6.436  73.080 115.925  0.00  0.00     0.006 C 
ENDBRANCH   8  11
ENDBRANCH   7   8
ENDBRANCH   1   7
BRANCH   6  13
ATOM     13  N   LIG d   1      -3.276  77.370 117.542  0.00  0.00    -0.311 N 
ATOM     14  C   LIG d   1      -2.272  77.106 116.708  0.00  0.00     0.210 C 
ATOM     15  C   LIG d   1      -1.293  76.032 117.193  0.00  0.00     0.109 C 
ATOM     16  O   LIG d   1      -2.080  77.683 115.627  0.00  0.00    -0.276 OA
ATOM     17  H   LIG d   1      -3.336  76.878 118.412  0.00  0.00     0.149 HD
ENDBRANCH   6  13
BRANCH   5  18
ATOM     18  N   LIG d   1      -3.109  80.350 118.197  0.00  0.00     0.381 N 
ATOM     19  H   LIG d   1      -3.341  81.306 118.014  0.00  0.00    -0.090 HD
ATOM     20  H   LIG d   1      -2.535  80.014 117.443  0.00  0.00    -0.090 HD
ATOM     21  H   LIG d   1      -2.614  80.279 119.058  0.00  0.00    -0.090 HD
ENDBRANCH   5  18
BRANCH   3  22
ATOM     22  C   LIG d   1      -7.897  80.471 118.179  0.00  0.00     0.382 C 
ATOM     23  O   LIG d   1      -8.621  80.048 119.112  0.00  0.00    -0.241 OA
ATOM     24  O   LIG d   1      -8.249  81.479 117.538  0.00  0.00    -0.241 OA
ENDBRANCH   3  22
TORSDOF 7
ENDMDL
MODEL 3
REMARK VINA RESULT:      -5.1      2.551      3.518
REMARK  7 active torsions:
REMARK  status: ('A' for Active; 'I' for Inactive)
REMARK    1  A    between atoms: C_2  and  C_3 
REMARK    2  A    between atoms: C_3  and  O_6 
REMARK    3  A    between atoms: C_3  and  C_4 
REMARK    4  A    between atoms: C_7  and  O_6 
REMARK    5  A    between atoms: C_9  and  C_10 
REMARK    6  A    between atoms: N_15  and  C_14 
REMARK    7  A    between atoms: N_20  and  C_19 
REMARK       I    between atoms: C_22  and  N_20 
ROOT
ATOM      1  C   LIG d   1      -3.101  76.088 115.351  0.00  0.00     0.161 C 
ATOM      2  C   LIG d   1      -2.303  75.159 114.661  0.00  0.00     0.016 C 
ATOM      3  C   LIG d   1      -0.901  75.283 114.532  0.00  0.00     0.038 C 
ATOM      4  C   LIG d   1      -0.177  76.271 115.217  0.00  0.00     0.028 C 
ATOM      5  C   LIG d   1      -0.994  77.524 115.513  0.00  0.00    -0.047 C 
ATOM      6  C   LIG d   1      -2.316  77.111 116.198  0.00  0.00     0.091 C 
ENDROOT
BRANCH   1   7
ATOM      7  O   LIG d   1      -4.063  75.393 116.169  0.00  0.00    -0.368 OA
BRANCH   7   8
ATOM      8  C   LIG d   1      -5.382  75.221 115.594  0.00  0.00     0.119 C 
BRANCH   8   9
ATOM      9  C   LIG d   1      -6.412  75.591 116.679  0.00  0.00     0.028 C 
ATOM     10  C   LIG d   1      -6.690  77.103 116.733  0.00  0.00     0.006 C 
ENDBRANCH   8   9
BRANCH   8  11
ATOM     11  C   LIG d   1      -5.656  73.751 115.260  0.00  0.00     0.028 C 
ATOM     12  C   LIG d   1      -6.771  73.142 116.124  0.00  0.00     0.006 C 
ENDBRANCH   8  11
ENDBRANCH   7   8
ENDBRANCH   1   7
BRANCH   6  13
ATOM     13  N   LIG d   1      -3.212  78.271 116.446  0.00  0.00    -0.311 N 
ATOM     14  C   LIG d   1      -3.281  78.907 117.614  0.00  0.00     0.210 C 
ATOM     15  C   LIG d   1      -4.285  80.063 117.662  0.00  0.00     0.109 C 
ATOM     16  O   LIG d   1      -2.584  78.644 118.605  0.00  0.00    -0.276 OA
ATOM     17  H   LIG d   1      -3.791  78.571 115.686  0.00  0.00     0.149 HD
ENDBRANCH   6  13
BRANCH   5  18
ATOM     18  N   LIG d   1      -0.162  78.411 116.348  0.00  0.00     0.381 N 
ATOM     19  H   LIG d   1       0.364  77.866 117.001  0.00  0.00    -0.090 HD
ATOM     20  H   LIG d   1      -0.763  79.029 116.864  0.00  0.00    -0.090 HD
ATOM     21  H   LIG d   1       0.455  78.941 115.772  0.00  0.00    -0.090 HD
ENDBRANCH   5  18
BRANCH   3  22
ATOM     22  C   LIG d   1      -0.212  74.436 113.677  0.00  0.00     0.382 C 
ATOM     23  O   LIG d   1       0.302  73.381 114.121  0.00  0.00    -0.241 OA
ATOM     24  O   LIG d   1      -0.062  74.734 112.477  0.00  0.00    -0.241 OA
ENDBRANCH   3  22
TORSDOF 7
ENDMDL
MODEL 4
REMARK VINA RESULT:      -4.9      2.697      3.670
REMARK  7 active torsions:
REMARK  status: ('A' for Active; 'I' for Inactive)
REMARK    1  A    between atoms: C_2  and  C_3 
REMARK    2  A    between atoms: C_3  and  O_6 
REMARK    3  A    between atoms: C_3  and  C_4 
REMARK    4  A    between atoms: C_7  and  O_6 
REMARK    5  A    between atoms: C_9  and  C_10 
REMARK    6  A    between atoms: N_15  and  C_14 
REMARK    7  A    between atoms: N_20  and  C_19 
REMARK       I    between atoms: C_22  and  N_20 
ROOT
ATOM      1  C   LIG d   1      -2.095  78.739 115.677  0.00  0.00     0.161 C 
ATOM      2  C   LIG d   1      -2.395  79.913 114.967  0.00  0.00     0.016 C 
ATOM      3  C   LIG d   1      -2.266  80.027 113.563  0.00  0.00     0.038 C 
ATOM      4  C   LIG d   1      -1.971  78.921 112.753  0.00  0.00     0.028 C 
ATOM      5  C   LIG d   1      -1.168  77.841 113.471  0.00  0.00    -0.047 C 
ATOM      6  C   LIG d   1      -1.878  77.489 114.799  0.00  0.00     0.091 C 
ENDROOT
BRANCH   1   7
ATOM      7  O   LIG d   1      -3.118  78.488 116.661  0.00  0.00    -0.368 OA
BRANCH   7   8
ATOM      8  C   LIG d   1      -3.675  79.655 117.313  0.00  0.00     0.119 C 
BRANCH   8   9
ATOM      9  C   LIG d   1      -2.989  79.791 118.686  0.00  0.00     0.028 C 
ATOM     10  C   LIG d   1      -3.407  78.681 119.664  0.00  0.00     0.006 C 
ENDBRANCH   8   9
BRANCH   8  11
ATOM     11  C   LIG d   1      -5.163  79.465 117.621  0.00  0.00     0.028 C 
ATOM     12  C   LIG d   1      -5.935  80.792 117.677  0.00  0.00     0.006 C 
ENDBRANCH   8  11
ENDBRANCH   7   8
ENDBRANCH   1   7
BRANCH   6  13
ATOM     13  N   LIG d   1      -1.114  76.500 115.604  0.00  0.00    -0.311 N 
ATOM     14  C   LIG d   1      -1.555  75.271 115.865  0.00  0.00     0.210 C 
ATOM     15  C   LIG d   1      -0.621  74.419 116.731  0.00  0.00     0.109 C 
ATOM     16  O   LIG d   1      -2.616  74.794 115.436  0.00  0.00    -0.276 OA
ATOM     17  H   LIG d   1      -0.228  76.793 115.966  0.00  0.00     0.149 HD
ENDBRANCH   6  13
BRANCH   5  18
ATOM     18  N   LIG d   1      -1.050  76.691 112.556  0.00  0.00     0.381 N 
ATOM     19  H   LIG d   1      -0.437  76.922 111.799  0.00  0.00    -0.090 HD
ATOM     20  H   LIG d   1      -1.956  76.484 112.175  0.00  0.00    -0.090 HD
ATOM     21  H   LIG d   1      -0.699  75.899 113.047  0.00  0.00    -0.090 HD
ENDBRANCH   5  18
BRANCH   3  22
ATOM     22  C   LIG d   1      -2.395  81.270 112.961  0.00  0.00     0.382 C 
ATOM     23  O   LIG d   1      -1.477  81.709 112.227  0.00  0.00    -0.241 OA
ATOM     24  O   LIG d   1      -3.398  81.976 113.177  0.00  0.00    -0.241 OA
ENDBRANCH   3  22
TORSDOF 7
ENDMDL
MODEL 5
REMARK VINA RESULT:      -4.8     16.194     17.695
REMARK  7 active torsions:
REMARK  status: ('A' for Active; 'I' for Inactive)
REMARK    1  A    between atoms: C_2  and  C_3 
REMARK    2  A    between atoms: C_3  and  O_6 
REMARK    3  A    between atoms: C_3  and  C_4 
REMARK    4  A    between atoms: C_7  and  O_6 
REMARK    5  A    between atoms: C_9  and  C_10 
REMARK    6  A    between atoms: N_15  and  C_14 
REMARK    7  A    between atoms: N_20  and  C_19 
REMARK       I    between atoms: C_22  and  N_20 
ROOT
ATOM      1  C   LIG d   1      -5.848  93.108 118.419  0.00  0.00     0.161 C 
ATOM      2  C   LIG d   1      -6.699  92.809 117.342  0.00  0.00     0.016 C 
ATOM      3  C   LIG d   1      -6.404  91.830 116.365  0.00  0.00     0.038 C 
ATOM      4  C   LIG d   1      -5.299  90.973 116.485  0.00  0.00     0.028 C 
ATOM      5  C   LIG d   1      -4.148  91.577 117.282  0.00  0.00    -0.047 C 
ATOM      6  C   LIG d   1      -4.693  92.107 118.628  0.00  0.00     0.091 C 
ENDROOT
BRANCH   1   7
ATOM      7  O   LIG d   1      -6.620  93.242 119.629  0.00  0.00    -0.368 OA
BRANCH   7   8
ATOM      8  C   LIG d   1      -6.866  94.596 120.081  0.00  0.00     0.119 C 
BRANCH   8   9
ATOM      9  C   LIG d   1      -8.294  94.978 119.644  0.00  0.00     0.028 C 
ATOM     10  C   LIG d   1      -8.302  95.984 118.480  0.00  0.00     0.006 C 
ENDBRANCH   8   9
BRANCH   8  11
ATOM     11  C   LIG d   1      -5.945  95.596 119.375  0.00  0.00     0.028 C 
ATOM     12  C   LIG d   1      -4.864  96.169 120.305  0.00  0.00     0.006 C 
ENDBRANCH   8  11
ENDBRANCH   7   8
ENDBRANCH   1   7
BRANCH   6  13
ATOM     13  N   LIG d   1      -3.647  92.789 119.433  0.00  0.00    -0.311 N 
ATOM     14  C   LIG d   1      -2.662  93.508 118.898  0.00  0.00     0.210 C 
ATOM     15  C   LIG d   1      -1.678  94.110 119.907  0.00  0.00     0.109 C 
ATOM     16  O   LIG d   1      -2.527  93.732 117.685  0.00  0.00    -0.276 OA
ATOM     17  H   LIG d   1      -3.698  92.687 120.428  0.00  0.00     0.149 HD
ENDBRANCH   6  13
BRANCH   5  18
ATOM     18  N   LIG d   1      -3.122  90.530 117.445  0.00  0.00     0.381 N 
ATOM     19  H   LIG d   1      -2.792  90.523 118.390  0.00  0.00    -0.090 HD
ATOM     20  H   LIG d   1      -2.346  90.738 116.842  0.00  0.00    -0.090 HD
ATOM     21  H   LIG d   1      -3.504  89.639 117.213  0.00  0.00    -0.090 HD
ENDBRANCH   5  18
BRANCH   3  22
ATOM     22  C   LIG d   1      -7.197  91.728 115.232  0.00  0.00     0.382 C 
ATOM     23  O   LIG d   1      -8.289  91.114 115.285  0.00  0.00    -0.241 OA
ATOM     24  O   LIG d   1      -6.813  92.205 114.147  0.00  0.00    -0.241 OA
ENDBRANCH   3  22
TORSDOF 7
ENDMDL
MODEL 6
REMARK VINA RESULT:      -4.5     21.750     23.593
REMARK  7 active torsions:
REMARK  status: ('A' for Active; 'I' for Inactive)
REMARK    1  A    between atoms: C_2  and  C_3 
REMARK    2  A    between atoms: C_3  and  O_6 
REMARK    3  A    between atoms: C_3  and  C_4 
REMARK    4  A    between atoms: C_7  and  O_6 
REMARK    5  A    between atoms: C_9  and  C_10 
REMARK    6  A    between atoms: N_15  and  C_14 
REMARK    7  A    between atoms: N_20  and  C_19 
REMARK       I    between atoms: C_22  and  N_20 
ROOT
ATOM      1  C   LIG d   1     -24.559  84.625 116.164  0.00  0.00     0.161 C 
ATOM      2  C   LIG d   1     -24.465  86.008 115.942  0.00  0.00     0.016 C 
ATOM      3  C   LIG d   1     -23.865  86.573 114.793  0.00  0.00     0.038 C 
ATOM      4  C   LIG d   1     -23.451  85.784 113.709  0.00  0.00     0.028 C 
ATOM      5  C   LIG d   1     -23.066  84.363 114.107  0.00  0.00    -0.047 C 
ATOM      6  C   LIG d   1     -24.212  83.748 114.943  0.00  0.00     0.091 C 
ENDROOT
BRANCH   1   7
ATOM      7  O   LIG d   1     -25.872  84.297 116.659  0.00  0.00    -0.368 OA
BRANCH   7   8
ATOM      8  C   LIG d   1     -26.896  84.082 115.657  0.00  0.00     0.119 C 
BRANCH   8   9
ATOM      9  C   LIG d   1     -27.960  85.182 115.838  0.00  0.00     0.028 C 
ATOM     10  C   LIG d   1     -27.969  86.188 114.676  0.00  0.00     0.006 C 
ENDBRANCH   8   9
BRANCH   8  11
ATOM     11  C   LIG d   1     -27.634  82.761 115.889  0.00  0.00     0.028 C 
ATOM     12  C   LIG d   1     -27.146  82.017 117.142  0.00  0.00     0.006 C 
ENDBRANCH   8  11
ENDBRANCH   7   8
ENDBRANCH   1   7
BRANCH   6  13
ATOM     13  N   LIG d   1     -23.882  82.388 115.444  0.00  0.00    -0.311 N 
ATOM     14  C   LIG d   1     -24.294  81.269 114.851  0.00  0.00     0.210 C 
ATOM     15  C   LIG d   1     -23.858  79.973 115.543  0.00  0.00     0.109 C 
ATOM     16  O   LIG d   1     -24.951  81.225 113.800  0.00  0.00    -0.276 OA
ATOM     17  H   LIG d   1     -23.326  82.331 116.274  0.00  0.00     0.149 HD
ENDBRANCH   6  13
BRANCH   5  18
ATOM     18  N   LIG d   1     -22.788  83.613 112.868  0.00  0.00     0.381 N 
ATOM     19  H   LIG d   1     -22.347  84.214 112.200  0.00  0.00    -0.090 HD
ATOM     20  H   LIG d   1     -23.658  83.294 112.479  0.00  0.00    -0.090 HD
ATOM     21  H   LIG d   1     -22.198  82.835 113.065  0.00  0.00    -0.090 HD
ENDBRANCH   5  18
BRANCH   3  22
ATOM     22  C   LIG d   1     -23.639  87.940 114.737  0.00  0.00     0.382 C 
ATOM     23  O   LIG d   1     -22.472  88.376 114.589  0.00  0.00    -0.241 OA
ATOM     24  O   LIG d   1     -24.581  88.742 114.877  0.00  0.00    -0.241 OA
ENDBRANCH   3  22
TORSDOF 7
ENDMDL
MODEL 7
REMARK VINA RESULT:      -4.4      2.479      3.332
REMARK  7 active torsions:
REMARK  status: ('A' for Active; 'I' for Inactive)
REMARK    1  A    between atoms: C_2  and  C_3 
REMARK    2  A    between atoms: C_3  and  O_6 
REMARK    3  A    between atoms: C_3  and  C_4 
REMARK    4  A    between atoms: C_7  and  O_6 
REMARK    5  A    between atoms: C_9  and  C_10 
REMARK    6  A    between atoms: N_15  and  C_14 
REMARK    7  A    between atoms: N_20  and  C_19 
REMARK       I    between atoms: C_22  and  N_20 
ROOT
ATOM      1  C   LIG d   1      -3.642  77.522 115.875  0.00  0.00     0.161 C 
ATOM      2  C   LIG d   1      -3.165  77.400 114.559  0.00  0.00     0.016 C 
ATOM      3  C   LIG d   1      -1.963  77.992 114.109  0.00  0.00     0.038 C 
ATOM      4  C   LIG d   1      -1.073  78.625 114.990  0.00  0.00     0.028 C 
ATOM      5  C   LIG d   1      -1.754  79.208 116.224  0.00  0.00    -0.047 C 
ATOM      6  C   LIG d   1      -2.630  78.115 116.877  0.00  0.00     0.091 C 
ENDROOT
BRANCH   1   7
ATOM      7  O   LIG d   1      -4.120  76.245 116.342  0.00  0.00    -0.368 OA
BRANCH   7   8
ATOM      8  C   LIG d   1      -5.356  75.772 115.751  0.00  0.00     0.119 C 
BRANCH   8   9
ATOM      9  C   LIG d   1      -6.456  75.888 116.824  0.00  0.00     0.028 C 
ATOM     10  C   LIG d   1      -7.021  77.315 116.934  0.00  0.00     0.006 C 
ENDBRANCH   8   9
BRANCH   8  11
ATOM     11  C   LIG d   1      -5.277  74.281 115.412  0.00  0.00     0.028 C 
ATOM     12  C   LIG d   1      -6.433  73.470 116.017  0.00  0.00     0.006 C 
ENDBRANCH   8  11
ENDBRANCH   7   8
ENDBRANCH   1   7
BRANCH   6  13
ATOM     13  N   LIG d   1      -3.397  78.625 118.043  0.00  0.00    -0.311 N 
ATOM     14  C   LIG d   1      -4.315  79.586 117.953  0.00  0.00     0.210 C 
ATOM     15  C   LIG d   1      -4.974  79.977 119.279  0.00  0.00     0.109 C 
ATOM     16  O   LIG d   1      -4.669  80.129 116.895  0.00  0.00    -0.276 OA
ATOM     17  H   LIG d   1      -3.196  78.218 118.935  0.00  0.00     0.149 HD
ENDBRANCH   6  13
BRANCH   5  18
ATOM     18  N   LIG d   1      -0.696  79.714 117.119  0.00  0.00     0.381 N 
ATOM     19  H   LIG d   1      -0.084  80.321 116.611  0.00  0.00    -0.090 HD
ATOM     20  H   LIG d   1      -0.159  78.936 117.459  0.00  0.00    -0.090 HD
ATOM     21  H   LIG d   1      -1.103  80.205 117.884  0.00  0.00    -0.090 HD
ENDBRANCH   5  18
BRANCH   3  22
ATOM     22  C   LIG d   1      -1.660  77.989 112.756  0.00  0.00     0.382 C 
ATOM     23  O   LIG d   1      -1.182  79.017 112.218  0.00  0.00    -0.241 OA
ATOM     24  O   LIG d   1      -1.899  76.986 112.057  0.00  0.00    -0.241 OA
ENDBRANCH   3  22
TORSDOF 7
ENDMDL
MODEL 8
REMARK VINA RESULT:      -4.4     10.292     11.841
REMARK  7 active torsions:
REMARK  status: ('A' for Active; 'I' for Inactive)
REMARK    1  A    between atoms: C_2  and  C_3 
REMARK    2  A    between atoms: C_3  and  O_6 
REMARK    3  A    between atoms: C_3  and  C_4 
REMARK    4  A    between atoms: C_7  and  O_6 
REMARK    5  A    between atoms: C_9  and  C_10 
REMARK    6  A    between atoms: N_15  and  C_14 
REMARK    7  A    between atoms: N_20  and  C_19 
REMARK       I    between atoms: C_22  and  N_20 
ROOT
ATOM      1  C   LIG d   1       4.100  86.137 115.446  0.00  0.00     0.161 C 
ATOM      2  C   LIG d   1       4.243  87.385 114.817  0.00  0.00     0.016 C 
ATOM      3  C   LIG d   1       4.089  87.578 113.425  0.00  0.00     0.038 C 
ATOM      4  C   LIG d   1       3.630  86.555 112.582  0.00  0.00     0.028 C 
ATOM      5  C   LIG d   1       3.961  85.156 113.090  0.00  0.00    -0.047 C 
ATOM      6  C   LIG d   1       3.491  85.032 114.558  0.00  0.00     0.091 C 
ENDROOT
BRANCH   1   7
ATOM      7  O   LIG d   1       3.335  86.285 116.658  0.00  0.00    -0.368 OA
BRANCH   7   8
ATOM      8  C   LIG d   1       1.895  86.321 116.502  0.00  0.00     0.119 C 
BRANCH   8   9
ATOM      9  C   LIG d   1       1.416  87.717 116.944  0.00  0.00     0.028 C 
ATOM     10  C   LIG d   1       0.154  87.655 117.821  0.00  0.00     0.006 C 
ENDBRANCH   8   9
BRANCH   8  11
ATOM     11  C   LIG d   1       1.206  85.336 117.451  0.00  0.00     0.028 C 
ATOM     12  C   LIG d   1       2.201  84.555 118.324  0.00  0.00     0.006 C 
ENDBRANCH   8  11
ENDBRANCH   7   8
ENDBRANCH   1   7
BRANCH   6  13
ATOM     13  N   LIG d   1       3.852  83.721 115.159  0.00  0.00    -0.311 N 
ATOM     14  C   LIG d   1       3.011  82.691 115.229  0.00  0.00     0.210 C 
ATOM     15  C   LIG d   1       3.578  81.439 115.906  0.00  0.00     0.109 C 
ATOM     16  O   LIG d   1       1.861  82.683 114.766  0.00  0.00    -0.276 OA
ATOM     17  H   LIG d   1       4.776  83.630 115.532  0.00  0.00     0.149 HD
ENDBRANCH   6  13
BRANCH   5  18
ATOM     18  N   LIG d   1       3.307  84.188 112.190  0.00  0.00     0.381 N 
ATOM     19  H   LIG d   1       2.874  83.464 112.728  0.00  0.00    -0.090 HD
ATOM     20  H   LIG d   1       4.004  83.769 111.601  0.00  0.00    -0.090 HD
ATOM     21  H   LIG d   1       2.624  84.650 111.631  0.00  0.00    -0.090 HD
ENDBRANCH   5  18
BRANCH   3  22
ATOM     22  C   LIG d   1       4.434  88.795 112.858  0.00  0.00     0.382 C 
ATOM     23  O   LIG d   1       3.561  89.680 112.694  0.00  0.00    -0.241 OA
ATOM     24  O   LIG d   1       5.599  89.002 112.466  0.00  0.00    -0.241 OA
ENDBRANCH   3  22
TORSDOF 7
ENDMDL
MODEL 9
REMARK VINA RESULT:      -4.4      2.508      3.728
REMARK  7 active torsions:
REMARK  status: ('A' for Active; 'I' for Inactive)
REMARK    1  A    between atoms: C_2  and  C_3 
REMARK    2  A    between atoms: C_3  and  O_6 
REMARK    3  A    between atoms: C_3  and  C_4 
REMARK    4  A    between atoms: C_7  and  O_6 
REMARK    5  A    between atoms: C_9  and  C_10 
REMARK    6  A    between atoms: N_15  and  C_14 
REMARK    7  A    between atoms: N_20  and  C_19 
REMARK       I    between atoms: C_22  and  N_20 
ROOT
ATOM      1  C   LIG d   1      -2.288  77.391 117.289  0.00  0.00     0.161 C 
ATOM      2  C   LIG d   1      -3.424  77.348 116.464  0.00  0.00     0.016 C 
ATOM      3  C   LIG d   1      -3.725  76.263 115.609  0.00  0.00     0.038 C 
ATOM      4  C   LIG d   1      -2.982  75.073 115.632  0.00  0.00     0.028 C 
ATOM      5  C   LIG d   1      -1.538  75.268 116.079  0.00  0.00    -0.047 C 
ATOM      6  C   LIG d   1      -1.526  76.054 117.410  0.00  0.00     0.091 C 
ENDROOT
BRANCH   1   7
ATOM      7  O   LIG d   1      -2.650  77.882 118.595  0.00  0.00    -0.368 OA
BRANCH   7   8
ATOM      8  C   LIG d   1      -3.548  79.018 118.622  0.00  0.00     0.119 C 
BRANCH   8   9
ATOM      9  C   LIG d   1      -2.779  80.201 119.241  0.00  0.00     0.028 C 
ATOM     10  C   LIG d   1      -1.588  80.645 118.375  0.00  0.00     0.006 C 
ENDBRANCH   8   9
BRANCH   8  11
ATOM     11  C   LIG d   1      -4.733  78.769 119.559  0.00  0.00     0.028 C 
ATOM     12  C   LIG d   1      -6.012  78.364 118.809  0.00  0.00     0.006 C 
ENDBRANCH   8  11
ENDBRANCH   7   8
ENDBRANCH   1   7
BRANCH   6  13
ATOM     13  N   LIG d   1      -0.148  76.362 117.875  0.00  0.00    -0.311 N 
ATOM     14  C   LIG d   1       0.546  75.568 118.688  0.00  0.00     0.210 C 
ATOM     15  C   LIG d   1       1.940  76.083 119.060  0.00  0.00     0.109 C 
ATOM     16  O   LIG d   1       0.152  74.471 119.112  0.00  0.00    -0.276 OA
ATOM     17  H   LIG d   1       0.260  77.218 117.554  0.00  0.00     0.149 HD
ENDBRANCH   6  13
BRANCH   5  18
ATOM     18  N   LIG d   1      -0.921  73.933 116.190  0.00  0.00     0.381 N 
ATOM     19  H   LIG d   1      -1.184  73.510 117.058  0.00  0.00    -0.090 HD
ATOM     20  H   LIG d   1       0.079  74.035 116.180  0.00  0.00    -0.090 HD
ATOM     21  H   LIG d   1      -1.211  73.359 115.430  0.00  0.00    -0.090 HD
ENDBRANCH   5  18
BRANCH   3  22
ATOM     22  C   LIG d   1      -4.755  76.378 114.688  0.00  0.00     0.382 C 
ATOM     23  O   LIG d   1      -5.902  76.716 115.070  0.00  0.00    -0.241 OA
ATOM     24  O   LIG d   1      -4.563  76.106 113.488  0.00  0.00    -0.241 OA
ENDBRANCH   3  22
TORSDOF 7
ENDMDL
