MODEL 1
REMARK VINA RESULT:      -5.6      0.000      0.000
REMARK  7 active torsions:
REMARK  status: ('A' for Active; 'I' for Inactive)
REMARK    1  A    between atoms: C_2  and  C_3 
REMARK    2  A    between atoms: C_3  and  O_6 
REMARK    3  A    between atoms: C_3  and  C_4 
REMARK    4  A    between atoms: C_7  and  O_6 
REMARK    5  A    between atoms: C_9  and  C_10 
REMARK    6  A    between atoms: N_15  and  C_14 
REMARK    7  A    between atoms: N_20  and  C_19 
REMARK       I    between atoms: C_22  and  N_20 
ROOT
ATOM      1  C   LIG d   1      -2.192  76.222 114.887  0.00  0.00     0.161 C 
ATOM      2  C   LIG d   1      -2.153  75.279 115.927  0.00  0.00     0.016 C 
ATOM      3  C   LIG d   1      -1.368  75.437 117.092  0.00  0.00     0.038 C 
ATOM      4  C   LIG d   1      -0.680  76.629 117.366  0.00  0.00     0.028 C 
ATOM      5  C   LIG d   1      -0.286  77.403 116.112  0.00  0.00    -0.047 C 
ATOM      6  C   LIG d   1      -1.535  77.578 115.218  0.00  0.00     0.091 C 
ENDROOT
BRANCH   1   7
ATOM      7  O   LIG d   1      -3.553  76.418 114.455  0.00  0.00    -0.368 OA
BRANCH   7   8
ATOM      8  C   LIG d   1      -4.577  75.802 115.275  0.00  0.00     0.119 C 
BRANCH   8   9
ATOM      9  C   LIG d   1      -5.453  74.936 114.349  0.00  0.00     0.028 C 
ATOM     10  C   LIG d   1      -6.833  75.564 114.091  0.00  0.00     0.006 C 
ENDBRANCH   8   9
BRANCH   8  11
ATOM     11  C   LIG d   1      -5.524  76.851 115.865  0.00  0.00     0.028 C 
ATOM     12  C   LIG d   1      -4.827  77.788 116.864  0.00  0.00     0.006 C 
ENDBRANCH   8  11
ENDBRANCH   7   8
ENDBRANCH   1   7
BRANCH   6  13
ATOM     13  N   LIG d   1      -1.220  78.252 113.931  0.00  0.00    -0.311 N 
ATOM     14  C   LIG d   1      -1.981  79.207 113.399  0.00  0.00     0.210 C 
ATOM     15  C   LIG d   1      -1.486  79.754 112.056  0.00  0.00     0.109 C 
ATOM     16  O   LIG d   1      -3.001  79.675 113.926  0.00  0.00    -0.276 OA
ATOM     17  H   LIG d   1      -0.393  77.956 113.451  0.00  0.00     0.149 HD
ENDBRANCH   6  13
BRANCH   5  18
ATOM     18  N   LIG d   1       0.299  78.685 116.546  0.00  0.00     0.381 N 
ATOM     19  H   LIG d   1       0.342  78.718 117.545  0.00  0.00    -0.090 HD
ATOM     20  H   LIG d   1      -0.291  79.435 116.231  0.00  0.00    -0.090 HD
ATOM     21  H   LIG d   1       1.213  78.790 116.163  0.00  0.00    -0.090 HD
ENDBRANCH   5  18
BRANCH   3  22
ATOM     22  C   LIG d   1      -1.234  74.380 117.979  0.00  0.00     0.382 C 
ATOM     23  O   LIG d   1      -2.059  73.435 117.958  0.00  0.00    -0.241 OA
ATOM     24  O   LIG d   1      -0.324  74.381 118.830  0.00  0.00    -0.241 OA
ENDBRANCH   3  22
TORSDOF 7
ENDMDL
MODEL 2
REMARK VINA RESULT:      -5.6      1.629      4.993
REMARK  7 active torsions:
REMARK  status: ('A' for Active; 'I' for Inactive)
REMARK    1  A    between atoms: C_2  and  C_3 
REMARK    2  A    between atoms: C_3  and  O_6 
REMARK    3  A    between atoms: C_3  and  C_4 
REMARK    4  A    between atoms: C_7  and  O_6 
REMARK    5  A    between atoms: C_9  and  C_10 
REMARK    6  A    between atoms: N_15  and  C_14 
REMARK    7  A    between atoms: N_20  and  C_19 
REMARK       I    between atoms: C_22  and  N_20 
ROOT
ATOM      1  C   LIG d   1      -2.634  77.378 116.329  0.00  0.00     0.161 C 
ATOM      2  C   LIG d   1      -2.905  78.297 115.302  0.00  0.00     0.016 C 
ATOM      3  C   LIG d   1      -2.182  78.342 114.088  0.00  0.00     0.038 C 
ATOM      4  C   LIG d   1      -1.230  77.367 113.755  0.00  0.00     0.028 C 
ATOM      5  C   LIG d   1      -0.571  76.724 114.970  0.00  0.00    -0.047 C 
ATOM      6  C   LIG d   1      -1.673  76.236 115.939  0.00  0.00     0.091 C 
ENDROOT
BRANCH   1   7
ATOM      7  O   LIG d   1      -3.869  76.841 116.843  0.00  0.00    -0.368 OA
BRANCH   7   8
ATOM      8  C   LIG d   1      -5.013  76.915 115.957  0.00  0.00     0.119 C 
BRANCH   8   9
ATOM      9  C   LIG d   1      -6.218  77.383 116.796  0.00  0.00     0.028 C 
ATOM     10  C   LIG d   1      -5.981  78.755 117.449  0.00  0.00     0.006 C 
ENDBRANCH   8   9
BRANCH   8  11
ATOM     11  C   LIG d   1      -5.400  75.530 115.430  0.00  0.00     0.028 C 
ATOM     12  C   LIG d   1      -5.846  75.555 113.960  0.00  0.00     0.006 C 
ENDBRANCH   8  11
ENDBRANCH   7   8
ENDBRANCH   1   7
BRANCH   6  13
ATOM     13  N   LIG d   1      -1.114  75.669 117.194  0.00  0.00    -0.311 N 
ATOM     14  C   LIG d   1      -1.523  74.518 117.724  0.00  0.00     0.210 C 
ATOM     15  C   LIG d   1      -0.830  74.126 119.032  0.00  0.00     0.109 C 
ATOM     16  O   LIG d   1      -2.371  73.768 117.218  0.00  0.00    -0.276 OA
ATOM     17  H   LIG d   1      -0.399  76.198 117.654  0.00  0.00     0.149 HD
ENDBRANCH   6  13
BRANCH   5  18
ATOM     18  N   LIG d   1       0.295  75.634 114.483  0.00  0.00     0.381 N 
ATOM     19  H   LIG d   1       1.234  75.965 114.387  0.00  0.00    -0.090 HD
ATOM     20  H   LIG d   1      -0.031  75.339 113.579  0.00  0.00    -0.090 HD
ATOM     21  H   LIG d   1       0.269  74.867 115.120  0.00  0.00    -0.090 HD
ENDBRANCH   5  18
BRANCH   3  22
ATOM     22  C   LIG d   1      -2.381  79.396 113.208  0.00  0.00     0.382 C 
ATOM     23  O   LIG d   1      -3.080  80.378 113.555  0.00  0.00    -0.241 OA
ATOM     24  O   LIG d   1      -1.906  79.356 112.057  0.00  0.00    -0.241 OA
ENDBRANCH   3  22
TORSDOF 7
ENDMDL
MODEL 3
REMARK VINA RESULT:      -5.2     12.728     15.055
REMARK  7 active torsions:
REMARK  status: ('A' for Active; 'I' for Inactive)
REMARK    1  A    between atoms: C_2  and  C_3 
REMARK    2  A    between atoms: C_3  and  O_6 
REMARK    3  A    between atoms: C_3  and  C_4 
REMARK    4  A    between atoms: C_7  and  O_6 
REMARK    5  A    between atoms: C_9  and  C_10 
REMARK    6  A    between atoms: N_15  and  C_14 
REMARK    7  A    between atoms: N_20  and  C_19 
REMARK       I    between atoms: C_22  and  N_20 
ROOT
ATOM      1  C   LIG d   1      -3.969  90.531 117.683  0.00  0.00     0.161 C 
ATOM      2  C   LIG d   1      -4.936  89.835 116.938  0.00  0.00     0.016 C 
ATOM      3  C   LIG d   1      -6.147  90.417 116.499  0.00  0.00     0.038 C 
ATOM      4  C   LIG d   1      -6.407  91.788 116.646  0.00  0.00     0.028 C 
ATOM      5  C   LIG d   1      -5.686  92.417 117.833  0.00  0.00    -0.047 C 
ATOM      6  C   LIG d   1      -4.185  92.057 117.757  0.00  0.00     0.091 C 
ENDROOT
BRANCH   1   7
ATOM      7  O   LIG d   1      -2.654  90.235 117.173  0.00  0.00    -0.368 OA
BRANCH   7   8
ATOM      8  C   LIG d   1      -1.845  89.340 117.976  0.00  0.00     0.119 C 
BRANCH   8   9
ATOM      9  C   LIG d   1      -1.943  87.937 117.347  0.00  0.00     0.028 C 
ATOM     10  C   LIG d   1      -0.585  87.425 116.839  0.00  0.00     0.006 C 
ENDBRANCH   8   9
BRANCH   8  11
ATOM     11  C   LIG d   1      -2.415  89.192 119.390  0.00  0.00     0.028 C 
ATOM     12  C   LIG d   1      -2.735  87.734 119.753  0.00  0.00     0.006 C 
ENDBRANCH   8  11
ENDBRANCH   7   8
ENDBRANCH   1   7
BRANCH   6  13
ATOM     13  N   LIG d   1      -3.421  92.563 118.927  0.00  0.00    -0.311 N 
ATOM     14  C   LIG d   1      -2.300  93.275 118.818  0.00  0.00     0.210 C 
ATOM     15  C   LIG d   1      -1.660  93.680 120.149  0.00  0.00     0.109 C 
ATOM     16  O   LIG d   1      -1.793  93.637 117.745  0.00  0.00    -0.276 OA
ATOM     17  H   LIG d   1      -3.778  92.342 119.835  0.00  0.00     0.149 HD
ENDBRANCH   6  13
BRANCH   5  18
ATOM     18  N   LIG d   1      -5.935  93.870 117.786  0.00  0.00     0.381 N 
ATOM     19  H   LIG d   1      -6.310  94.178 118.661  0.00  0.00    -0.090 HD
ATOM     20  H   LIG d   1      -6.612  94.061 117.069  0.00  0.00    -0.090 HD
ATOM     21  H   LIG d   1      -5.087  94.355 117.591  0.00  0.00    -0.090 HD
ENDBRANCH   5  18
BRANCH   3  22
ATOM     22  C   LIG d   1      -7.131  89.616 115.940  0.00  0.00     0.382 C 
ATOM     23  O   LIG d   1      -7.881  88.934 116.680  0.00  0.00    -0.241 OA
ATOM     24  O   LIG d   1      -7.250  89.532 114.703  0.00  0.00    -0.241 OA
ENDBRANCH   3  22
TORSDOF 7
ENDMDL
MODEL 4
REMARK VINA RESULT:      -5.0     15.382     17.652
REMARK  7 active torsions:
REMARK  status: ('A' for Active; 'I' for Inactive)
REMARK    1  A    between atoms: C_2  and  C_3 
REMARK    2  A    between atoms: C_3  and  O_6 
REMARK    3  A    between atoms: C_3  and  C_4 
REMARK    4  A    between atoms: C_7  and  O_6 
REMARK    5  A    between atoms: C_9  and  C_10 
REMARK    6  A    between atoms: N_15  and  C_14 
REMARK    7  A    between atoms: N_20  and  C_19 
REMARK       I    between atoms: C_22  and  N_20 
ROOT
ATOM      1  C   LIG d   1      -6.046  92.649 118.961  0.00  0.00     0.161 C 
ATOM      2  C   LIG d   1      -7.296  93.285 118.876  0.00  0.00     0.016 C 
ATOM      3  C   LIG d   1      -7.452  94.690 118.824  0.00  0.00     0.038 C 
ATOM      4  C   LIG d   1      -6.353  95.553 118.700  0.00  0.00     0.028 C 
ATOM      5  C   LIG d   1      -5.066  94.986 119.289  0.00  0.00    -0.047 C 
ATOM      6  C   LIG d   1      -4.833  93.570 118.715  0.00  0.00     0.091 C 
ENDROOT
BRANCH   1   7
ATOM      7  O   LIG d   1      -6.010  91.522 118.063  0.00  0.00    -0.368 OA
BRANCH   7   8
ATOM      8  C   LIG d   1      -5.395  91.755 116.773  0.00  0.00     0.119 C 
BRANCH   8   9
ATOM      9  C   LIG d   1      -6.514  92.158 115.793  0.00  0.00     0.028 C 
ATOM     10  C   LIG d   1      -6.386  91.450 114.433  0.00  0.00     0.006 C 
ENDBRANCH   8   9
BRANCH   8  11
ATOM     11  C   LIG d   1      -4.798  90.466 116.199  0.00  0.00     0.028 C 
ATOM     12  C   LIG d   1      -3.760  89.823 117.132  0.00  0.00     0.006 C 
ENDBRANCH   8  11
ENDBRANCH   7   8
ENDBRANCH   1   7
BRANCH   6  13
ATOM     13  N   LIG d   1      -3.639  92.909 119.304  0.00  0.00    -0.311 N 
ATOM     14  C   LIG d   1      -2.443  92.901 118.720  0.00  0.00     0.210 C 
ATOM     15  C   LIG d   1      -1.353  92.145 119.487  0.00  0.00     0.109 C 
ATOM     16  O   LIG d   1      -2.172  93.475 117.654  0.00  0.00    -0.276 OA
ATOM     17  H   LIG d   1      -3.762  92.445 120.183  0.00  0.00     0.149 HD
ENDBRANCH   6  13
BRANCH   5  18
ATOM     18  N   LIG d   1      -3.976  95.927 118.969  0.00  0.00     0.381 N 
ATOM     19  H   LIG d   1      -3.210  95.782 119.595  0.00  0.00    -0.090 HD
ATOM     20  H   LIG d   1      -4.311  96.866 119.092  0.00  0.00    -0.090 HD
ATOM     21  H   LIG d   1      -3.676  95.794 118.029  0.00  0.00    -0.090 HD
ENDBRANCH   5  18
BRANCH   3  22
ATOM     22  C   LIG d   1      -8.717  95.245 118.936  0.00  0.00     0.382 C 
ATOM     23  O   LIG d   1      -9.714  94.504 119.111  0.00  0.00    -0.241 OA
ATOM     24  O   LIG d   1      -8.880  96.475 118.820  0.00  0.00    -0.241 OA
ENDBRANCH   3  22
TORSDOF 7
ENDMDL
MODEL 5
REMARK VINA RESULT:      -4.9      3.797      6.052
REMARK  7 active torsions:
REMARK  status: ('A' for Active; 'I' for Inactive)
REMARK    1  A    between atoms: C_2  and  C_3 
REMARK    2  A    between atoms: C_3  and  O_6 
REMARK    3  A    between atoms: C_3  and  C_4 
REMARK    4  A    between atoms: C_7  and  O_6 
REMARK    5  A    between atoms: C_9  and  C_10 
REMARK    6  A    between atoms: N_15  and  C_14 
REMARK    7  A    between atoms: N_20  and  C_19 
REMARK       I    between atoms: C_22  and  N_20 
ROOT
ATOM      1  C   LIG d   1      -6.045  77.884 117.500  0.00  0.00     0.161 C 
ATOM      2  C   LIG d   1      -7.335  78.433 117.590  0.00  0.00     0.016 C 
ATOM      3  C   LIG d   1      -7.651  79.551 118.396  0.00  0.00     0.038 C 
ATOM      4  C   LIG d   1      -6.660  80.293 119.055  0.00  0.00     0.028 C 
ATOM      5  C   LIG d   1      -5.418  79.477 119.397  0.00  0.00    -0.047 C 
ATOM      6  C   LIG d   1      -4.930  78.749 118.124  0.00  0.00     0.091 C 
ENDROOT
BRANCH   1   7
ATOM      7  O   LIG d   1      -5.737  77.585 116.124  0.00  0.00    -0.368 OA
BRANCH   7   8
ATOM      8  C   LIG d   1      -5.630  76.180 115.786  0.00  0.00     0.119 C 
BRANCH   8   9
ATOM      9  C   LIG d   1      -4.418  76.021 114.847  0.00  0.00     0.028 C 
ATOM     10  C   LIG d   1      -3.424  74.959 115.347  0.00  0.00     0.006 C 
ENDBRANCH   8   9
BRANCH   8  11
ATOM     11  C   LIG d   1      -6.838  75.710 114.971  0.00  0.00     0.028 C 
ATOM     12  C   LIG d   1      -6.581  75.733 113.456  0.00  0.00     0.006 C 
ENDBRANCH   8  11
ENDBRANCH   7   8
ENDBRANCH   1   7
BRANCH   6  13
ATOM     13  N   LIG d   1      -3.768  77.861 118.390  0.00  0.00    -0.311 N 
ATOM     14  C   LIG d   1      -2.673  77.839 117.631  0.00  0.00     0.210 C 
ATOM     15  C   LIG d   1      -1.603  76.835 118.070  0.00  0.00     0.109 C 
ATOM     16  O   LIG d   1      -2.474  78.579 116.656  0.00  0.00    -0.276 OA
ATOM     17  H   LIG d   1      -3.832  77.249 119.180  0.00  0.00     0.149 HD
ENDBRANCH   6  13
BRANCH   5  18
ATOM     18  N   LIG d   1      -4.415  80.404 119.954  0.00  0.00     0.381 N 
ATOM     19  H   LIG d   1      -4.384  81.239 119.405  0.00  0.00    -0.090 HD
ATOM     20  H   LIG d   1      -3.511  79.966 119.915  0.00  0.00    -0.090 HD
ATOM     21  H   LIG d   1      -4.643  80.627 120.898  0.00  0.00    -0.090 HD
ENDBRANCH   5  18
BRANCH   3  22
ATOM     22  C   LIG d   1      -8.977  79.911 118.582  0.00  0.00     0.382 C 
ATOM     23  O   LIG d   1      -9.887  79.067 118.404  0.00  0.00    -0.241 OA
ATOM     24  O   LIG d   1      -9.277  81.083 118.881  0.00  0.00    -0.241 OA
ENDBRANCH   3  22
TORSDOF 7
ENDMDL
MODEL 6
REMARK VINA RESULT:      -4.9     13.688     16.084
REMARK  7 active torsions:
REMARK  status: ('A' for Active; 'I' for Inactive)
REMARK    1  A    between atoms: C_2  and  C_3 
REMARK    2  A    between atoms: C_3  and  O_6 
REMARK    3  A    between atoms: C_3  and  C_4 
REMARK    4  A    between atoms: C_7  and  O_6 
REMARK    5  A    between atoms: C_9  and  C_10 
REMARK    6  A    between atoms: N_15  and  C_14 
REMARK    7  A    between atoms: N_20  and  C_19 
REMARK       I    between atoms: C_22  and  N_20 
ROOT
ATOM      1  C   LIG d   1      -5.129  91.663 118.000  0.00  0.00     0.161 C 
ATOM      2  C   LIG d   1      -5.887  91.704 116.818  0.00  0.00     0.016 C 
ATOM      3  C   LIG d   1      -5.720  90.787 115.755  0.00  0.00     0.038 C 
ATOM      4  C   LIG d   1      -4.883  89.668 115.866  0.00  0.00     0.028 C 
ATOM      5  C   LIG d   1      -3.727  89.870 116.839  0.00  0.00    -0.047 C 
ATOM      6  C   LIG d   1      -4.288  90.383 118.185  0.00  0.00     0.091 C 
ENDROOT
BRANCH   1   7
ATOM      7  O   LIG d   1      -5.988  91.868 119.139  0.00  0.00    -0.368 OA
BRANCH   7   8
ATOM      8  C   LIG d   1      -5.912  93.170 119.769  0.00  0.00     0.119 C 
BRANCH   8   9
ATOM      9  C   LIG d   1      -7.212  93.925 119.430  0.00  0.00     0.028 C 
ATOM     10  C   LIG d   1      -7.026  94.926 118.278  0.00  0.00     0.006 C 
ENDBRANCH   8   9
BRANCH   8  11
ATOM     11  C   LIG d   1      -4.785  94.015 119.169  0.00  0.00     0.028 C 
ATOM     12  C   LIG d   1      -3.808  94.546 120.231  0.00  0.00     0.006 C 
ENDBRANCH   8  11
ENDBRANCH   7   8
ENDBRANCH   1   7
BRANCH   6  13
ATOM     13  N   LIG d   1      -3.216  90.687 119.168  0.00  0.00    -0.311 N 
ATOM     14  C   LIG d   1      -2.189  91.494 118.906  0.00  0.00     0.210 C 
ATOM     15  C   LIG d   1      -1.185  91.656 120.052  0.00  0.00     0.109 C 
ATOM     16  O   LIG d   1      -2.032  92.117 117.845  0.00  0.00    -0.276 OA
ATOM     17  H   LIG d   1      -3.282  90.248 120.066  0.00  0.00     0.149 HD
ENDBRANCH   6  13
BRANCH   5  18
ATOM     18  N   LIG d   1      -3.017  88.583 116.962  0.00  0.00     0.381 N 
ATOM     19  H   LIG d   1      -2.037  88.720 116.810  0.00  0.00    -0.090 HD
ATOM     20  H   LIG d   1      -3.360  87.954 116.258  0.00  0.00    -0.090 HD
ATOM     21  H   LIG d   1      -3.168  88.195 117.867  0.00  0.00    -0.090 HD
ENDBRANCH   5  18
BRANCH   3  22
ATOM     22  C   LIG d   1      -6.367  91.009 114.548  0.00  0.00     0.382 C 
ATOM     23  O   LIG d   1      -6.348  92.150 114.028  0.00  0.00    -0.241 OA
ATOM     24  O   LIG d   1      -7.006  90.093 113.996  0.00  0.00    -0.241 OA
ENDBRANCH   3  22
TORSDOF 7
ENDMDL
MODEL 7
REMARK VINA RESULT:      -4.8      4.788      7.075
REMARK  7 active torsions:
REMARK  status: ('A' for Active; 'I' for Inactive)
REMARK    1  A    between atoms: C_2  and  C_3 
REMARK    2  A    between atoms: C_3  and  O_6 
REMARK    3  A    between atoms: C_3  and  C_4 
REMARK    4  A    between atoms: C_7  and  O_6 
REMARK    5  A    between atoms: C_9  and  C_10 
REMARK    6  A    between atoms: N_15  and  C_14 
REMARK    7  A    between atoms: N_20  and  C_19 
REMARK       I    between atoms: C_22  and  N_20 
ROOT
ATOM      1  C   LIG d   1      -6.966  77.099 117.352  0.00  0.00     0.161 C 
ATOM      2  C   LIG d   1      -7.671  75.999 116.837  0.00  0.00     0.016 C 
ATOM      3  C   LIG d   1      -9.056  75.797 117.042  0.00  0.00     0.038 C 
ATOM      4  C   LIG d   1      -9.864  76.767 117.652  0.00  0.00     0.028 C 
ATOM      5  C   LIG d   1      -9.107  77.659 118.630  0.00  0.00    -0.047 C 
ATOM      6  C   LIG d   1      -7.852  78.224 117.926  0.00  0.00     0.091 C 
ENDROOT
BRANCH   1   7
ATOM      7  O   LIG d   1      -6.077  77.624 116.346  0.00  0.00    -0.368 OA
BRANCH   7   8
ATOM      8  C   LIG d   1      -4.748  77.049 116.307  0.00  0.00     0.119 C 
BRANCH   8   9
ATOM      9  C   LIG d   1      -3.739  78.208 116.415  0.00  0.00     0.028 C 
ATOM     10  C   LIG d   1      -2.754  78.241 115.234  0.00  0.00     0.006 C 
ENDBRANCH   8   9
BRANCH   8  11
ATOM     11  C   LIG d   1      -4.466  76.391 114.953  0.00  0.00     0.028 C 
ATOM     12  C   LIG d   1      -4.682  74.869 114.974  0.00  0.00     0.006 C 
ENDBRANCH   8  11
ENDBRANCH   7   8
ENDBRANCH   1   7
BRANCH   6  13
ATOM     13  N   LIG d   1      -7.009  79.040 118.838  0.00  0.00    -0.311 N 
ATOM     14  C   LIG d   1      -7.085  80.368 118.916  0.00  0.00     0.210 C 
ATOM     15  C   LIG d   1      -6.112  81.014 119.907  0.00  0.00     0.109 C 
ATOM     16  O   LIG d   1      -7.888  81.068 118.281  0.00  0.00    -0.276 OA
ATOM     17  H   LIG d   1      -6.352  78.550 119.412  0.00  0.00     0.149 HD
ENDBRANCH   6  13
BRANCH   5  18
ATOM     18  N   LIG d   1     -10.036  78.709 119.087  0.00  0.00     0.381 N 
ATOM     19  H   LIG d   1     -10.821  78.760 118.468  0.00  0.00    -0.090 HD
ATOM     20  H   LIG d   1      -9.561  79.595 119.067  0.00  0.00    -0.090 HD
ATOM     21  H   LIG d   1     -10.346  78.511 120.013  0.00  0.00    -0.090 HD
ENDBRANCH   5  18
BRANCH   3  22
ATOM     22  C   LIG d   1      -9.637  74.595 116.668  0.00  0.00     0.382 C 
ATOM     23  O   LIG d   1     -10.604  74.588 115.869  0.00  0.00    -0.241 OA
ATOM     24  O   LIG d   1      -9.236  73.521 117.155  0.00  0.00    -0.241 OA
ENDBRANCH   3  22
TORSDOF 7
ENDMDL
MODEL 8
REMARK VINA RESULT:      -4.8     12.171     14.474
REMARK  7 active torsions:
REMARK  status: ('A' for Active; 'I' for Inactive)
REMARK    1  A    between atoms: C_2  and  C_3 
REMARK    2  A    between atoms: C_3  and  O_6 
REMARK    3  A    between atoms: C_3  and  C_4 
REMARK    4  A    between atoms: C_7  and  O_6 
REMARK    5  A    between atoms: C_9  and  C_10 
REMARK    6  A    between atoms: N_15  and  C_14 
REMARK    7  A    between atoms: N_20  and  C_19 
REMARK       I    between atoms: C_22  and  N_20 
ROOT
ATOM      1  C   LIG d   1      -2.719  89.782 117.641  0.00  0.00     0.161 C 
ATOM      2  C   LIG d   1      -3.918  89.424 117.002  0.00  0.00     0.016 C 
ATOM      3  C   LIG d   1      -4.957  90.341 116.726  0.00  0.00     0.038 C 
ATOM      4  C   LIG d   1      -4.805  91.720 116.937  0.00  0.00     0.028 C 
ATOM      5  C   LIG d   1      -3.811  92.057 118.043  0.00  0.00    -0.047 C 
ATOM      6  C   LIG d   1      -2.489  91.302 117.777  0.00  0.00     0.091 C 
ENDROOT
BRANCH   1   7
ATOM      7  O   LIG d   1      -1.603  89.165 116.969  0.00  0.00    -0.368 OA
BRANCH   7   8
ATOM      8  C   LIG d   1      -1.223  87.850 117.443  0.00  0.00     0.119 C 
BRANCH   8   9
ATOM      9  C   LIG d   1      -0.936  87.967 118.953  0.00  0.00     0.028 C 
ATOM     10  C   LIG d   1      -1.820  87.028 119.792  0.00  0.00     0.006 C 
ENDBRANCH   8   9
BRANCH   8  11
ATOM     11  C   LIG d   1       0.097  87.391 116.814  0.00  0.00     0.028 C 
ATOM     12  C   LIG d   1       1.233  88.408 117.006  0.00  0.00     0.006 C 
ENDBRANCH   8  11
ENDBRANCH   7   8
ENDBRANCH   1   7
BRANCH   6  13
ATOM     13  N   LIG d   1      -1.490  91.510 118.858  0.00  0.00    -0.311 N 
ATOM     14  C   LIG d   1      -0.213  91.812 118.628  0.00  0.00     0.210 C 
ATOM     15  C   LIG d   1       0.651  91.964 119.884  0.00  0.00     0.109 C 
ATOM     16  O   LIG d   1       0.278  91.999 117.505  0.00  0.00    -0.276 OA
ATOM     17  H   LIG d   1      -1.811  91.409 119.801  0.00  0.00     0.149 HD
ENDBRANCH   6  13
BRANCH   5  18
ATOM     18  N   LIG d   1      -3.646  93.523 118.062  0.00  0.00     0.381 N 
ATOM     19  H   LIG d   1      -3.702  93.882 117.130  0.00  0.00    -0.090 HD
ATOM     20  H   LIG d   1      -2.738  93.743 118.431  0.00  0.00    -0.090 HD
ATOM     21  H   LIG d   1      -4.352  93.939 118.628  0.00  0.00    -0.090 HD
ENDBRANCH   5  18
BRANCH   3  22
ATOM     22  C   LIG d   1      -6.182  89.876 116.271  0.00  0.00     0.382 C 
ATOM     23  O   LIG d   1      -6.299  89.474 115.088  0.00  0.00    -0.241 OA
ATOM     24  O   LIG d   1      -7.181  89.895 117.015  0.00  0.00    -0.241 OA
ENDBRANCH   3  22
TORSDOF 7
ENDMDL
MODEL 9
REMARK VINA RESULT:      -4.6      9.791     12.924
REMARK  7 active torsions:
REMARK  status: ('A' for Active; 'I' for Inactive)
REMARK    1  A    between atoms: C_2  and  C_3 
REMARK    2  A    between atoms: C_3  and  O_6 
REMARK    3  A    between atoms: C_3  and  C_4 
REMARK    4  A    between atoms: C_7  and  O_6 
REMARK    5  A    between atoms: C_9  and  C_10 
REMARK    6  A    between atoms: N_15  and  C_14 
REMARK    7  A    between atoms: N_20  and  C_19 
REMARK       I    between atoms: C_22  and  N_20 
ROOT
ATOM      1  C   LIG d   1       4.803  85.586 115.106  0.00  0.00     0.161 C 
ATOM      2  C   LIG d   1       4.215  86.436 114.155  0.00  0.00     0.016 C 
ATOM      3  C   LIG d   1       4.697  87.735 113.869  0.00  0.00     0.038 C 
ATOM      4  C   LIG d   1       5.897  88.216 114.412  0.00  0.00     0.028 C 
ATOM      5  C   LIG d   1       6.249  87.589 115.757  0.00  0.00    -0.047 C 
ATOM      6  C   LIG d   1       6.178  86.051 115.628  0.00  0.00     0.091 C 
ENDROOT
BRANCH   1   7
ATOM      7  O   LIG d   1       4.893  84.248 114.576  0.00  0.00    -0.368 OA
BRANCH   7   8
ATOM      8  C   LIG d   1       4.260  84.027 113.292  0.00  0.00     0.119 C 
BRANCH   8   9
ATOM      9  C   LIG d   1       3.114  83.019 113.509  0.00  0.00     0.028 C 
ATOM     10  C   LIG d   1       1.731  83.638 113.250  0.00  0.00     0.006 C 
ENDBRANCH   8   9
BRANCH   8  11
ATOM     11  C   LIG d   1       5.217  83.349 112.308  0.00  0.00     0.028 C 
ATOM     12  C   LIG d   1       4.864  81.874 112.055  0.00  0.00     0.006 C 
ENDBRANCH   8  11
ENDBRANCH   7   8
ENDBRANCH   1   7
BRANCH   6  13
ATOM     13  N   LIG d   1       6.426  85.361 116.921  0.00  0.00    -0.311 N 
ATOM     14  C   LIG d   1       7.420  84.495 117.111  0.00  0.00     0.210 C 
ATOM     15  C   LIG d   1       7.484  83.883 118.514  0.00  0.00     0.109 C 
ATOM     16  O   LIG d   1       8.274  84.200 116.261  0.00  0.00    -0.276 OA
ATOM     17  H   LIG d   1       5.799  85.565 117.674  0.00  0.00     0.149 HD
ENDBRANCH   6  13
BRANCH   5  18
ATOM     18  N   LIG d   1       7.587  88.077 116.140  0.00  0.00     0.381 N 
ATOM     19  H   LIG d   1       7.593  89.077 116.150  0.00  0.00    -0.090 HD
ATOM     20  H   LIG d   1       8.255  87.764 115.458  0.00  0.00    -0.090 HD
ATOM     21  H   LIG d   1       7.832  87.728 117.041  0.00  0.00    -0.090 HD
ENDBRANCH   5  18
BRANCH   3  22
ATOM     22  C   LIG d   1       3.952  88.582 113.063  0.00  0.00     0.382 C 
ATOM     23  O   LIG d   1       4.429  89.685 112.703  0.00  0.00    -0.241 OA
ATOM     24  O   LIG d   1       2.793  88.276 112.726  0.00  0.00    -0.241 OA
ENDBRANCH   3  22
TORSDOF 7
ENDMDL
