MODEL 1
REMARK VINA RESULT:      -5.4      0.000      0.000
REMARK  7 active torsions:
REMARK  status: ('A' for Active; 'I' for Inactive)
REMARK    1  A    between atoms: C_2  and  C_3 
REMARK    2  A    between atoms: C_3  and  O_6 
REMARK    3  A    between atoms: C_3  and  C_4 
REMARK    4  A    between atoms: C_7  and  O_6 
REMARK    5  A    between atoms: C_9  and  C_10 
REMARK    6  A    between atoms: N_15  and  C_14 
REMARK    7  A    between atoms: N_20  and  C_19 
REMARK       I    between atoms: C_22  and  N_20 
ROOT
ATOM      1  C   LIG d   1      -7.344  76.907 117.661  0.00  0.00     0.161 C 
ATOM      2  C   LIG d   1      -8.091  75.718 117.686  0.00  0.00     0.016 C 
ATOM      3  C   LIG d   1      -9.452  75.661 118.065  0.00  0.00     0.038 C 
ATOM      4  C   LIG d   1     -10.205  76.820 118.301  0.00  0.00     0.028 C 
ATOM      5  C   LIG d   1      -9.366  78.001 118.779  0.00  0.00    -0.047 C 
ATOM      6  C   LIG d   1      -8.178  78.197 117.809  0.00  0.00     0.091 C 
ENDROOT
BRANCH   1   7
ATOM      7  O   LIG d   1      -6.548  76.960 116.461  0.00  0.00    -0.368 OA
BRANCH   7   8
ATOM      8  C   LIG d   1      -6.241  75.686 115.844  0.00  0.00     0.119 C 
BRANCH   8   9
ATOM      9  C   LIG d   1      -4.732  75.432 116.032  0.00  0.00     0.028 C 
ATOM     10  C   LIG d   1      -4.435  74.523 117.236  0.00  0.00     0.006 C 
ENDBRANCH   8   9
BRANCH   8  11
ATOM     11  C   LIG d   1      -6.458  75.733 114.328  0.00  0.00     0.028 C 
ATOM     12  C   LIG d   1      -5.358  75.000 113.545  0.00  0.00     0.006 C 
ENDBRANCH   8  11
ENDBRANCH   7   8
ENDBRANCH   1   7
BRANCH   6  13
ATOM     13  N   LIG d   1      -7.260  79.279 118.249  0.00  0.00    -0.311 N 
ATOM     14  C   LIG d   1      -7.317  80.525 117.782  0.00  0.00     0.210 C 
ATOM     15  C   LIG d   1      -6.264  81.479 118.354  0.00  0.00     0.109 C 
ATOM     16  O   LIG d   1      -8.161  80.939 116.973  0.00  0.00    -0.276 OA
ATOM     17  H   LIG d   1      -6.564  79.039 118.927  0.00  0.00     0.149 HD
ENDBRANCH   6  13
BRANCH   5  18
ATOM     18  N   LIG d   1     -10.252  79.177 118.853  0.00  0.00     0.381 N 
ATOM     19  H   LIG d   1     -10.547  79.319 119.799  0.00  0.00    -0.090 HD
ATOM     20  H   LIG d   1     -11.067  79.006 118.291  0.00  0.00    -0.090 HD
ATOM     21  H   LIG d   1      -9.775  79.986 118.521  0.00  0.00    -0.090 HD
ENDBRANCH   5  18
BRANCH   3  22
ATOM     22  C   LIG d   1     -10.063  74.430 118.250  0.00  0.00     0.382 C 
ATOM     23  O   LIG d   1      -9.375  73.430 118.569  0.00  0.00    -0.241 OA
ATOM     24  O   LIG d   1     -11.286  74.296 118.058  0.00  0.00    -0.241 OA
ENDBRANCH   3  22
TORSDOF 7
ENDMDL
MODEL 2
REMARK VINA RESULT:      -5.3      1.287      1.625
REMARK  7 active torsions:
REMARK  status: ('A' for Active; 'I' for Inactive)
REMARK    1  A    between atoms: C_2  and  C_3 
REMARK    2  A    between atoms: C_3  and  O_6 
REMARK    3  A    between atoms: C_3  and  C_4 
REMARK    4  A    between atoms: C_7  and  O_6 
REMARK    5  A    between atoms: C_9  and  C_10 
REMARK    6  A    between atoms: N_15  and  C_14 
REMARK    7  A    between atoms: N_20  and  C_19 
REMARK       I    between atoms: C_22  and  N_20 
ROOT
ATOM      1  C   LIG d   1      -6.867  77.542 117.325  0.00  0.00     0.161 C 
ATOM      2  C   LIG d   1      -7.981  76.699 117.475  0.00  0.00     0.016 C 
ATOM      3  C   LIG d   1      -9.224  77.135 117.988  0.00  0.00     0.038 C 
ATOM      4  C   LIG d   1      -9.485  78.489 118.248  0.00  0.00     0.028 C 
ATOM      5  C   LIG d   1      -8.234  79.292 118.589  0.00  0.00    -0.047 C 
ATOM      6  C   LIG d   1      -7.167  79.046 117.498  0.00  0.00     0.091 C 
ENDROOT
BRANCH   1   7
ATOM      7  O   LIG d   1      -6.239  77.300 116.050  0.00  0.00    -0.368 OA
BRANCH   7   8
ATOM      8  C   LIG d   1      -6.116  75.912 115.654  0.00  0.00     0.119 C 
BRANCH   8   9
ATOM      9  C   LIG d   1      -4.666  75.476 115.938  0.00  0.00     0.028 C 
ATOM     10  C   LIG d   1      -4.557  74.574 117.179  0.00  0.00     0.006 C 
ENDBRANCH   8   9
BRANCH   8  11
ATOM     11  C   LIG d   1      -6.300  75.746 114.143  0.00  0.00     0.028 C 
ATOM     12  C   LIG d   1      -5.239  74.831 113.510  0.00  0.00     0.006 C 
ENDBRANCH   8  11
ENDBRANCH   7   8
ENDBRANCH   1   7
BRANCH   6  13
ATOM     13  N   LIG d   1      -5.881  79.729 117.799  0.00  0.00    -0.311 N 
ATOM     14  C   LIG d   1      -5.531  80.899 117.268  0.00  0.00     0.210 C 
ATOM     15  C   LIG d   1      -4.155  81.417 117.696  0.00  0.00     0.109 C 
ATOM     16  O   LIG d   1      -6.244  81.573 116.510  0.00  0.00    -0.276 OA
ATOM     17  H   LIG d   1      -5.256  79.266 118.430  0.00  0.00     0.149 HD
ENDBRANCH   6  13
BRANCH   5  18
ATOM     18  N   LIG d   1      -8.631  80.709 118.700  0.00  0.00     0.381 N 
ATOM     19  H   LIG d   1      -7.864  81.297 118.441  0.00  0.00    -0.090 HD
ATOM     20  H   LIG d   1      -8.870  80.905 119.656  0.00  0.00    -0.090 HD
ATOM     21  H   LIG d   1      -9.413  80.891 118.110  0.00  0.00    -0.090 HD
ENDBRANCH   5  18
BRANCH   3  22
ATOM     22  C   LIG d   1     -10.209  76.206 118.286  0.00  0.00     0.382 C 
ATOM     23  O   LIG d   1     -11.412  76.469 118.046  0.00  0.00    -0.241 OA
ATOM     24  O   LIG d   1      -9.915  75.126 118.831  0.00  0.00    -0.241 OA
ENDBRANCH   3  22
TORSDOF 7
ENDMDL
MODEL 3
REMARK VINA RESULT:      -5.3      4.280      5.171
REMARK  7 active torsions:
REMARK  status: ('A' for Active; 'I' for Inactive)
REMARK    1  A    between atoms: C_2  and  C_3 
REMARK    2  A    between atoms: C_3  and  O_6 
REMARK    3  A    between atoms: C_3  and  C_4 
REMARK    4  A    between atoms: C_7  and  O_6 
REMARK    5  A    between atoms: C_9  and  C_10 
REMARK    6  A    between atoms: N_15  and  C_14 
REMARK    7  A    between atoms: N_20  and  C_19 
REMARK       I    between atoms: C_22  and  N_20 
ROOT
ATOM      1  C   LIG d   1      -4.639  75.582 116.755  0.00  0.00     0.161 C 
ATOM      2  C   LIG d   1      -5.501  74.512 117.045  0.00  0.00     0.016 C 
ATOM      3  C   LIG d   1      -6.273  73.847 116.065  0.00  0.00     0.038 C 
ATOM      4  C   LIG d   1      -6.121  74.112 114.695  0.00  0.00     0.028 C 
ATOM      5  C   LIG d   1      -5.636  75.528 114.403  0.00  0.00    -0.047 C 
ATOM      6  C   LIG d   1      -4.376  75.812 115.252  0.00  0.00     0.091 C 
ENDROOT
BRANCH   1   7
ATOM      7  O   LIG d   1      -3.394  75.413 117.461  0.00  0.00    -0.368 OA
BRANCH   7   8
ATOM      8  C   LIG d   1      -2.830  74.078 117.447  0.00  0.00     0.119 C 
BRANCH   8   9
ATOM      9  C   LIG d   1      -2.551  73.678 118.908  0.00  0.00     0.028 C 
ATOM     10  C   LIG d   1      -2.917  74.793 119.902  0.00  0.00     0.006 C 
ENDBRANCH   8   9
BRANCH   8  11
ATOM     11  C   LIG d   1      -1.464  74.058 116.754  0.00  0.00     0.028 C 
ATOM     12  C   LIG d   1      -0.855  75.460 116.595  0.00  0.00     0.006 C 
ENDBRANCH   8  11
ENDBRANCH   7   8
ENDBRANCH   1   7
BRANCH   6  13
ATOM     13  N   LIG d   1      -3.885  77.205 115.088  0.00  0.00    -0.311 N 
ATOM     14  C   LIG d   1      -2.943  77.553 114.213  0.00  0.00     0.210 C 
ATOM     15  C   LIG d   1      -2.570  79.039 114.222  0.00  0.00     0.109 C 
ATOM     16  O   LIG d   1      -2.405  76.778 113.409  0.00  0.00    -0.276 OA
ATOM     17  H   LIG d   1      -4.291  77.904 115.680  0.00  0.00     0.149 HD
ENDBRANCH   6  13
BRANCH   5  18
ATOM     18  N   LIG d   1      -5.389  75.623 112.951  0.00  0.00     0.381 N 
ATOM     19  H   LIG d   1      -5.792  74.834 112.487  0.00  0.00    -0.090 HD
ATOM     20  H   LIG d   1      -4.397  75.612 112.789  0.00  0.00    -0.090 HD
ATOM     21  H   LIG d   1      -5.782  76.465 112.593  0.00  0.00    -0.090 HD
ENDBRANCH   5  18
BRANCH   3  22
ATOM     22  C   LIG d   1      -7.240  72.933 116.455  0.00  0.00     0.382 C 
ATOM     23  O   LIG d   1      -7.343  71.835 115.857  0.00  0.00    -0.241 OA
ATOM     24  O   LIG d   1      -8.039  73.210 117.369  0.00  0.00    -0.241 OA
ENDBRANCH   3  22
TORSDOF 7
ENDMDL
MODEL 4
REMARK VINA RESULT:      -5.2      1.617      4.799
REMARK  7 active torsions:
REMARK  status: ('A' for Active; 'I' for Inactive)
REMARK    1  A    between atoms: C_2  and  C_3 
REMARK    2  A    between atoms: C_3  and  O_6 
REMARK    3  A    between atoms: C_3  and  C_4 
REMARK    4  A    between atoms: C_7  and  O_6 
REMARK    5  A    between atoms: C_9  and  C_10 
REMARK    6  A    between atoms: N_15  and  C_14 
REMARK    7  A    between atoms: N_20  and  C_19 
REMARK       I    between atoms: C_22  and  N_20 
ROOT
ATOM      1  C   LIG d   1      -7.292  77.164 117.443  0.00  0.00     0.161 C 
ATOM      2  C   LIG d   1      -6.845  78.495 117.410  0.00  0.00     0.016 C 
ATOM      3  C   LIG d   1      -7.595  79.581 117.918  0.00  0.00     0.038 C 
ATOM      4  C   LIG d   1      -8.785  79.389 118.634  0.00  0.00     0.028 C 
ATOM      5  C   LIG d   1      -9.524  78.111 118.250  0.00  0.00    -0.047 C 
ATOM      6  C   LIG d   1      -8.539  76.922 118.320  0.00  0.00     0.091 C 
ENDROOT
BRANCH   1   7
ATOM      7  O   LIG d   1      -6.216  76.297 117.852  0.00  0.00    -0.368 OA
BRANCH   7   8
ATOM      8  C   LIG d   1      -5.384  75.769 116.790  0.00  0.00     0.119 C 
BRANCH   8   9
ATOM      9  C   LIG d   1      -6.301  74.987 115.829  0.00  0.00     0.028 C 
ATOM     10  C   LIG d   1      -6.644  73.584 116.357  0.00  0.00     0.006 C 
ENDBRANCH   8   9
BRANCH   8  11
ATOM     11  C   LIG d   1      -4.384  74.739 117.324  0.00  0.00     0.028 C 
ATOM     12  C   LIG d   1      -3.014  74.825 116.634  0.00  0.00     0.006 C 
ENDBRANCH   8  11
ENDBRANCH   7   8
ENDBRANCH   1   7
BRANCH   6  13
ATOM     13  N   LIG d   1      -9.159  75.646 117.879  0.00  0.00    -0.311 N 
ATOM     14  C   LIG d   1      -9.748  74.790 118.712  0.00  0.00     0.210 C 
ATOM     15  C   LIG d   1     -10.305  73.525 118.053  0.00  0.00     0.109 C 
ATOM     16  O   LIG d   1      -9.891  74.975 119.930  0.00  0.00    -0.276 OA
ATOM     17  H   LIG d   1      -9.116  75.432 116.902  0.00  0.00     0.149 HD
ENDBRANCH   6  13
BRANCH   5  18
ATOM     18  N   LIG d   1     -10.670  77.967 119.167  0.00  0.00     0.381 N 
ATOM     19  H   LIG d   1     -10.547  77.154 119.738  0.00  0.00    -0.090 HD
ATOM     20  H   LIG d   1     -11.507  77.847 118.625  0.00  0.00    -0.090 HD
ATOM     21  H   LIG d   1     -10.751  78.776 119.742  0.00  0.00    -0.090 HD
ENDBRANCH   5  18
BRANCH   3  22
ATOM     22  C   LIG d   1      -7.174  80.880 117.675  0.00  0.00     0.382 C 
ATOM     23  O   LIG d   1      -6.559  81.152 116.616  0.00  0.00    -0.241 OA
ATOM     24  O   LIG d   1      -7.362  81.773 118.522  0.00  0.00    -0.241 OA
ENDBRANCH   3  22
TORSDOF 7
ENDMDL
MODEL 5
REMARK VINA RESULT:      -5.0      4.407      7.652
REMARK  7 active torsions:
REMARK  status: ('A' for Active; 'I' for Inactive)
REMARK    1  A    between atoms: C_2  and  C_3 
REMARK    2  A    between atoms: C_3  and  O_6 
REMARK    3  A    between atoms: C_3  and  C_4 
REMARK    4  A    between atoms: C_7  and  O_6 
REMARK    5  A    between atoms: C_9  and  C_10 
REMARK    6  A    between atoms: N_15  and  C_14 
REMARK    7  A    between atoms: N_20  and  C_19 
REMARK       I    between atoms: C_22  and  N_20 
ROOT
ATOM      1  C   LIG d   1      -3.139  76.277 116.121  0.00  0.00     0.161 C 
ATOM      2  C   LIG d   1      -3.406  76.961 114.923  0.00  0.00     0.016 C 
ATOM      3  C   LIG d   1      -2.404  77.319 113.992  0.00  0.00     0.038 C 
ATOM      4  C   LIG d   1      -1.078  76.881 114.124  0.00  0.00     0.028 C 
ATOM      5  C   LIG d   1      -0.668  76.621 115.570  0.00  0.00    -0.047 C 
ATOM      6  C   LIG d   1      -1.715  75.694 116.229  0.00  0.00     0.091 C 
ENDROOT
BRANCH   1   7
ATOM      7  O   LIG d   1      -4.121  75.241 116.321  0.00  0.00    -0.368 OA
BRANCH   7   8
ATOM      8  C   LIG d   1      -5.418  75.466 115.716  0.00  0.00     0.119 C 
BRANCH   8   9
ATOM      9  C   LIG d   1      -6.473  75.377 116.835  0.00  0.00     0.028 C 
ATOM     10  C   LIG d   1      -7.329  76.651 116.938  0.00  0.00     0.006 C 
ENDBRANCH   8   9
BRANCH   8  11
ATOM     11  C   LIG d   1      -5.776  74.349 114.731  0.00  0.00     0.028 C 
ATOM     12  C   LIG d   1      -5.313  74.648 113.297  0.00  0.00     0.006 C 
ENDBRANCH   8  11
ENDBRANCH   7   8
ENDBRANCH   1   7
BRANCH   6  13
ATOM     13  N   LIG d   1      -1.434  75.456 117.669  0.00  0.00    -0.311 N 
ATOM     14  C   LIG d   1      -1.173  74.252 118.176  0.00  0.00     0.210 C 
ATOM     15  C   LIG d   1      -0.932  74.226 119.688  0.00  0.00     0.109 C 
ATOM     16  O   LIG d   1      -1.086  73.209 117.511  0.00  0.00    -0.276 OA
ATOM     17  H   LIG d   1      -1.453  76.253 118.275  0.00  0.00     0.149 HD
ENDBRANCH   6  13
BRANCH   5  18
ATOM     18  N   LIG d   1       0.688  76.040 115.550  0.00  0.00     0.381 N 
ATOM     19  H   LIG d   1       1.279  76.539 116.184  0.00  0.00    -0.090 HD
ATOM     20  H   LIG d   1       1.068  76.133 114.625  0.00  0.00    -0.090 HD
ATOM     21  H   LIG d   1       0.651  75.078 115.807  0.00  0.00    -0.090 HD
ENDBRANCH   5  18
BRANCH   3  22
ATOM     22  C   LIG d   1      -2.718  78.158 112.933  0.00  0.00     0.382 C 
ATOM     23  O   LIG d   1      -2.219  79.307 112.875  0.00  0.00    -0.241 OA
ATOM     24  O   LIG d   1      -3.529  77.796 112.060  0.00  0.00    -0.241 OA
ENDBRANCH   3  22
TORSDOF 7
ENDMDL
MODEL 6
REMARK VINA RESULT:      -4.8      4.628      7.328
REMARK  7 active torsions:
REMARK  status: ('A' for Active; 'I' for Inactive)
REMARK    1  A    between atoms: C_2  and  C_3 
REMARK    2  A    between atoms: C_3  and  O_6 
REMARK    3  A    between atoms: C_3  and  C_4 
REMARK    4  A    between atoms: C_7  and  O_6 
REMARK    5  A    between atoms: C_9  and  C_10 
REMARK    6  A    between atoms: N_15  and  C_14 
REMARK    7  A    between atoms: N_20  and  C_19 
REMARK       I    between atoms: C_22  and  N_20 
ROOT
ATOM      1  C   LIG d   1      -3.744  76.033 116.361  0.00  0.00     0.161 C 
ATOM      2  C   LIG d   1      -3.497  76.869 115.260  0.00  0.00     0.016 C 
ATOM      3  C   LIG d   1      -2.426  76.671 114.358  0.00  0.00     0.038 C 
ATOM      4  C   LIG d   1      -1.614  75.528 114.409  0.00  0.00     0.028 C 
ATOM      5  C   LIG d   1      -1.512  74.921 115.804  0.00  0.00    -0.047 C 
ATOM      6  C   LIG d   1      -2.936  74.718 116.369  0.00  0.00     0.091 C 
ENDROOT
BRANCH   1   7
ATOM      7  O   LIG d   1      -5.155  75.754 116.456  0.00  0.00    -0.368 OA
BRANCH   7   8
ATOM      8  C   LIG d   1      -5.600  74.507 115.868  0.00  0.00     0.119 C 
BRANCH   8   9
ATOM      9  C   LIG d   1      -6.116  74.822 114.451  0.00  0.00     0.028 C 
ATOM     10  C   LIG d   1      -5.243  74.189 113.354  0.00  0.00     0.006 C 
ENDBRANCH   8   9
BRANCH   8  11
ATOM     11  C   LIG d   1      -6.804  73.934 116.621  0.00  0.00     0.028 C 
ATOM     12  C   LIG d   1      -7.134  72.492 116.207  0.00  0.00     0.006 C 
ENDBRANCH   8  11
ENDBRANCH   7   8
ENDBRANCH   1   7
BRANCH   6  13
ATOM     13  N   LIG d   1      -2.925  74.205 117.764  0.00  0.00    -0.311 N 
ATOM     14  C   LIG d   1      -2.344  74.847 118.777  0.00  0.00     0.210 C 
ATOM     15  C   LIG d   1      -2.431  74.134 120.130  0.00  0.00     0.109 C 
ATOM     16  O   LIG d   1      -1.793  75.955 118.689  0.00  0.00    -0.276 OA
ATOM     17  H   LIG d   1      -3.377  73.328 117.932  0.00  0.00     0.149 HD
ENDBRANCH   6  13
BRANCH   5  18
ATOM     18  N   LIG d   1      -0.751  73.662 115.687  0.00  0.00     0.381 N 
ATOM     19  H   LIG d   1       0.197  73.812 115.969  0.00  0.00    -0.090 HD
ATOM     20  H   LIG d   1      -0.752  73.370 114.726  0.00  0.00    -0.090 HD
ATOM     21  H   LIG d   1      -1.168  72.958 116.257  0.00  0.00    -0.090 HD
ENDBRANCH   5  18
BRANCH   3  22
ATOM     22  C   LIG d   1      -2.134  77.644 113.414  0.00  0.00     0.382 C 
ATOM     23  O   LIG d   1      -1.321  78.560 113.689  0.00  0.00    -0.241 OA
ATOM     24  O   LIG d   1      -2.706  77.644 112.308  0.00  0.00    -0.241 OA
ENDBRANCH   3  22
TORSDOF 7
ENDMDL
MODEL 7
REMARK VINA RESULT:      -4.8      2.271      5.008
REMARK  7 active torsions:
REMARK  status: ('A' for Active; 'I' for Inactive)
REMARK    1  A    between atoms: C_2  and  C_3 
REMARK    2  A    between atoms: C_3  and  O_6 
REMARK    3  A    between atoms: C_3  and  C_4 
REMARK    4  A    between atoms: C_7  and  O_6 
REMARK    5  A    between atoms: C_9  and  C_10 
REMARK    6  A    between atoms: N_15  and  C_14 
REMARK    7  A    between atoms: N_20  and  C_19 
REMARK       I    between atoms: C_22  and  N_20 
ROOT
ATOM      1  C   LIG d   1      -6.831  75.926 116.682  0.00  0.00     0.161 C 
ATOM      2  C   LIG d   1      -6.653  75.400 115.392  0.00  0.00     0.016 C 
ATOM      3  C   LIG d   1      -5.494  75.625 114.613  0.00  0.00     0.038 C 
ATOM      4  C   LIG d   1      -4.364  76.271 115.135  0.00  0.00     0.028 C 
ATOM      5  C   LIG d   1      -4.691  77.254 116.254  0.00  0.00    -0.047 C 
ATOM      6  C   LIG d   1      -5.562  76.540 117.311  0.00  0.00     0.091 C 
ENDROOT
BRANCH   1   7
ATOM      7  O   LIG d   1      -7.381  74.915 117.550  0.00  0.00    -0.368 OA
BRANCH   7   8
ATOM      8  C   LIG d   1      -8.815  74.962 117.753  0.00  0.00     0.119 C 
BRANCH   8   9
ATOM      9  C   LIG d   1      -9.088  75.951 118.903  0.00  0.00     0.028 C 
ATOM     10  C   LIG d   1     -10.045  77.081 118.491  0.00  0.00     0.006 C 
ENDBRANCH   8   9
BRANCH   8  11
ATOM     11  C   LIG d   1      -9.353  73.614 118.242  0.00  0.00     0.028 C 
ATOM     12  C   LIG d   1      -8.712  72.419 117.519  0.00  0.00     0.006 C 
ENDBRANCH   8  11
ENDBRANCH   7   8
ENDBRANCH   1   7
BRANCH   6  13
ATOM     13  N   LIG d   1      -5.997  77.454 118.399  0.00  0.00    -0.311 N 
ATOM     14  C   LIG d   1      -6.636  78.602 118.180  0.00  0.00     0.210 C 
ATOM     15  C   LIG d   1      -6.976  79.403 119.441  0.00  0.00     0.109 C 
ATOM     16  O   LIG d   1      -6.983  79.017 117.064  0.00  0.00    -0.276 OA
ATOM     17  H   LIG d   1      -5.784  77.179 119.338  0.00  0.00     0.149 HD
ENDBRANCH   6  13
BRANCH   5  18
ATOM     18  N   LIG d   1      -3.413  77.751 116.798  0.00  0.00     0.381 N 
ATOM     19  H   LIG d   1      -3.578  78.555 117.370  0.00  0.00    -0.090 HD
ATOM     20  H   LIG d   1      -2.819  78.024 116.035  0.00  0.00    -0.090 HD
ATOM     21  H   LIG d   1      -2.970  77.037 117.334  0.00  0.00    -0.090 HD
ENDBRANCH   5  18
BRANCH   3  22
ATOM     22  C   LIG d   1      -5.475  75.236 113.282  0.00  0.00     0.382 C 
ATOM     23  O   LIG d   1      -5.200  74.050 112.979  0.00  0.00    -0.241 OA
ATOM     24  O   LIG d   1      -5.686  76.067 112.378  0.00  0.00    -0.241 OA
ENDBRANCH   3  22
TORSDOF 7
ENDMDL
MODEL 8
REMARK VINA RESULT:      -4.7      2.630      5.719
REMARK  7 active torsions:
REMARK  status: ('A' for Active; 'I' for Inactive)
REMARK    1  A    between atoms: C_2  and  C_3 
REMARK    2  A    between atoms: C_3  and  O_6 
REMARK    3  A    between atoms: C_3  and  C_4 
REMARK    4  A    between atoms: C_7  and  O_6 
REMARK    5  A    between atoms: C_9  and  C_10 
REMARK    6  A    between atoms: N_15  and  C_14 
REMARK    7  A    between atoms: N_20  and  C_19 
REMARK       I    between atoms: C_22  and  N_20 
ROOT
ATOM      1  C   LIG d   1      -5.925  76.967 116.610  0.00  0.00     0.161 C 
ATOM      2  C   LIG d   1      -5.064  76.821 115.509  0.00  0.00     0.016 C 
ATOM      3  C   LIG d   1      -4.920  75.612 114.789  0.00  0.00     0.038 C 
ATOM      4  C   LIG d   1      -5.745  74.504 115.029  0.00  0.00     0.028 C 
ATOM      5  C   LIG d   1      -6.275  74.441 116.458  0.00  0.00    -0.047 C 
ATOM      6  C   LIG d   1      -6.914  75.802 116.816  0.00  0.00     0.091 C 
ENDROOT
BRANCH   1   7
ATOM      7  O   LIG d   1      -6.636  78.217 116.511  0.00  0.00    -0.368 OA
BRANCH   7   8
ATOM      8  C   LIG d   1      -6.388  79.177 117.567  0.00  0.00     0.119 C 
BRANCH   8   9
ATOM      9  C   LIG d   1      -7.642  80.063 117.691  0.00  0.00     0.028 C 
ATOM     10  C   LIG d   1      -8.316  79.937 119.068  0.00  0.00     0.006 C 
ENDBRANCH   8   9
BRANCH   8  11
ATOM     11  C   LIG d   1      -5.251  80.133 117.196  0.00  0.00     0.028 C 
ATOM     12  C   LIG d   1      -5.744  81.558 116.899  0.00  0.00     0.006 C 
ENDBRANCH   8  11
ENDBRANCH   7   8
ENDBRANCH   1   7
BRANCH   6  13
ATOM     13  N   LIG d   1      -7.383  75.854 118.226  0.00  0.00    -0.311 N 
ATOM     14  C   LIG d   1      -8.596  76.276 118.580  0.00  0.00     0.210 C 
ATOM     15  C   LIG d   1      -8.868  76.269 120.088  0.00  0.00     0.109 C 
ATOM     16  O   LIG d   1      -9.483  76.626 117.787  0.00  0.00    -0.276 OA
ATOM     17  H   LIG d   1      -6.738  75.559 118.932  0.00  0.00     0.149 HD
ENDBRANCH   6  13
BRANCH   5  18
ATOM     18  N   LIG d   1      -7.228  73.317 116.531  0.00  0.00     0.381 N 
ATOM     19  H   LIG d   1      -8.089  73.575 116.092  0.00  0.00    -0.090 HD
ATOM     20  H   LIG d   1      -7.415  73.112 117.497  0.00  0.00    -0.090 HD
ATOM     21  H   LIG d   1      -6.845  72.515 116.082  0.00  0.00    -0.090 HD
ENDBRANCH   5  18
BRANCH   3  22
ATOM     22  C   LIG d   1      -3.914  75.492 113.843  0.00  0.00     0.382 C 
ATOM     23  O   LIG d   1      -3.657  76.450 113.076  0.00  0.00    -0.241 OA
ATOM     24  O   LIG d   1      -3.290  74.421 113.717  0.00  0.00    -0.241 OA
ENDBRANCH   3  22
TORSDOF 7
ENDMDL
MODEL 9
REMARK VINA RESULT:      -4.7      4.632      6.760
REMARK  7 active torsions:
REMARK  status: ('A' for Active; 'I' for Inactive)
REMARK    1  A    between atoms: C_2  and  C_3 
REMARK    2  A    between atoms: C_3  and  O_6 
REMARK    3  A    between atoms: C_3  and  C_4 
REMARK    4  A    between atoms: C_7  and  O_6 
REMARK    5  A    between atoms: C_9  and  C_10 
REMARK    6  A    between atoms: N_15  and  C_14 
REMARK    7  A    between atoms: N_20  and  C_19 
REMARK       I    between atoms: C_22  and  N_20 
ROOT
ATOM      1  C   LIG d   1      -2.971  76.596 114.527  0.00  0.00     0.161 C 
ATOM      2  C   LIG d   1      -2.797  75.438 115.303  0.00  0.00     0.016 C 
ATOM      3  C   LIG d   1      -1.762  75.287 116.254  0.00  0.00     0.038 C 
ATOM      4  C   LIG d   1      -0.915  76.349 116.603  0.00  0.00     0.028 C 
ATOM      5  C   LIG d   1      -0.732  77.371 115.486  0.00  0.00    -0.047 C 
ATOM      6  C   LIG d   1      -2.124  77.807 114.973  0.00  0.00     0.091 C 
ENDROOT
BRANCH   1   7
ATOM      7  O   LIG d   1      -4.367  76.951 114.483  0.00  0.00    -0.368 OA
BRANCH   7   8
ATOM      8  C   LIG d   1      -5.304  75.890 114.792  0.00  0.00     0.119 C 
BRANCH   8   9
ATOM      9  C   LIG d   1      -5.817  75.320 113.456  0.00  0.00     0.028 C 
ATOM     10  C   LIG d   1      -5.341  73.878 113.211  0.00  0.00     0.006 C 
ENDBRANCH   8   9
BRANCH   8  11
ATOM     11  C   LIG d   1      -6.546  76.434 115.505  0.00  0.00     0.028 C 
ATOM     12  C   LIG d   1      -6.202  77.416 116.636  0.00  0.00     0.006 C 
ENDBRANCH   8  11
ENDBRANCH   7   8
ENDBRANCH   1   7
BRANCH   6  13
ATOM     13  N   LIG d   1      -2.036  78.742 113.821  0.00  0.00    -0.311 N 
ATOM     14  C   LIG d   1      -2.754  79.860 113.728  0.00  0.00     0.210 C 
ATOM     15  C   LIG d   1      -2.525  80.672 112.449  0.00  0.00     0.109 C 
ATOM     16  O   LIG d   1      -3.535  80.273 114.599  0.00  0.00    -0.276 OA
ATOM     17  H   LIG d   1      -1.403  78.500 113.084  0.00  0.00     0.149 HD
ENDBRANCH   6  13
BRANCH   5  18
ATOM     18  N   LIG d   1       0.060  78.490 116.030  0.00  0.00     0.381 N 
ATOM     19  H   LIG d   1       0.945  78.535 115.566  0.00  0.00    -0.090 HD
ATOM     20  H   LIG d   1       0.224  78.326 117.008  0.00  0.00    -0.090 HD
ATOM     21  H   LIG d   1      -0.432  79.347 115.907  0.00  0.00    -0.090 HD
ENDBRANCH   5  18
BRANCH   3  22
ATOM     22  C   LIG d   1      -1.542  74.049 116.838  0.00  0.00     0.382 C 
ATOM     23  O   LIG d   1      -0.686  73.270 116.353  0.00  0.00    -0.241 OA
ATOM     24  O   LIG d   1      -2.218  73.683 117.818  0.00  0.00    -0.241 OA
ENDBRANCH   3  22
TORSDOF 7
ENDMDL
