MODEL 1
REMARK VINA RESULT:      -5.5      0.000      0.000
REMARK  7 active torsions:
REMARK  status: ('A' for Active; 'I' for Inactive)
REMARK    1  A    between atoms: C_2  and  C_3 
REMARK    2  A    between atoms: C_3  and  O_6 
REMARK    3  A    between atoms: C_3  and  C_4 
REMARK    4  A    between atoms: C_7  and  O_6 
REMARK    5  A    between atoms: C_9  and  C_10 
REMARK    6  A    between atoms: N_15  and  C_14 
REMARK    7  A    between atoms: N_20  and  C_19 
REMARK       I    between atoms: C_22  and  N_20 
ROOT
ATOM      1  C   LIG d   1      -7.040  77.229 117.557  0.00  0.00     0.161 C 
ATOM      2  C   LIG d   1      -8.319  77.762 117.787  0.00  0.00     0.016 C 
ATOM      3  C   LIG d   1      -8.597  79.148 117.785  0.00  0.00     0.038 C 
ATOM      4  C   LIG d   1      -7.637  80.096 117.400  0.00  0.00     0.028 C 
ATOM      5  C   LIG d   1      -6.203  79.642 117.650  0.00  0.00    -0.047 C 
ATOM      6  C   LIG d   1      -6.004  78.242 117.025  0.00  0.00     0.091 C 
ENDROOT
BRANCH   1   7
ATOM      7  O   LIG d   1      -7.134  76.097 116.669  0.00  0.00    -0.368 OA
BRANCH   7   8
ATOM      8  C   LIG d   1      -6.744  74.817 117.226  0.00  0.00     0.119 C 
BRANCH   8   9
ATOM      9  C   LIG d   1      -5.809  74.136 116.208  0.00  0.00     0.028 C 
ATOM     10  C   LIG d   1      -5.636  74.964 114.924  0.00  0.00     0.006 C 
ENDBRANCH   8   9
BRANCH   8  11
ATOM     11  C   LIG d   1      -7.947  73.879 117.363  0.00  0.00     0.028 C 
ATOM     12  C   LIG d   1      -7.632  72.439 116.928  0.00  0.00     0.006 C 
ENDBRANCH   8  11
ENDBRANCH   7   8
ENDBRANCH   1   7
BRANCH   6  13
ATOM     13  N   LIG d   1      -4.652  77.688 117.297  0.00  0.00    -0.311 N 
ATOM     14  C   LIG d   1      -3.635  77.784 116.443  0.00  0.00     0.210 C 
ATOM     15  C   LIG d   1      -2.333  77.126 116.911  0.00  0.00     0.109 C 
ATOM     16  O   LIG d   1      -3.678  78.380 115.356  0.00  0.00    -0.276 OA
ATOM     17  H   LIG d   1      -4.520  77.215 118.170  0.00  0.00     0.149 HD
ENDBRANCH   6  13
BRANCH   5  18
ATOM     18  N   LIG d   1      -5.306  80.664 117.078  0.00  0.00     0.381 N 
ATOM     19  H   LIG d   1      -5.081  80.426 116.132  0.00  0.00    -0.090 HD
ATOM     20  H   LIG d   1      -4.454  80.682 117.609  0.00  0.00    -0.090 HD
ATOM     21  H   LIG d   1      -5.745  81.558 117.107  0.00  0.00    -0.090 HD
ENDBRANCH   5  18
BRANCH   3  22
ATOM     22  C   LIG d   1      -9.837  79.601 118.209  0.00  0.00     0.382 C 
ATOM     23  O   LIG d   1     -10.540  78.888 118.965  0.00  0.00    -0.241 OA
ATOM     24  O   LIG d   1     -10.281  80.694 117.810  0.00  0.00    -0.241 OA
ENDBRANCH   3  22
TORSDOF 7
ENDMDL
MODEL 2
REMARK VINA RESULT:      -5.3      2.371      5.632
REMARK  7 active torsions:
REMARK  status: ('A' for Active; 'I' for Inactive)
REMARK    1  A    between atoms: C_2  and  C_3 
REMARK    2  A    between atoms: C_3  and  O_6 
REMARK    3  A    between atoms: C_3  and  C_4 
REMARK    4  A    between atoms: C_7  and  O_6 
REMARK    5  A    between atoms: C_9  and  C_10 
REMARK    6  A    between atoms: N_15  and  C_14 
REMARK    7  A    between atoms: N_20  and  C_19 
REMARK       I    between atoms: C_22  and  N_20 
ROOT
ATOM      1  C   LIG d   1      -4.917  76.028 115.654  0.00  0.00     0.161 C 
ATOM      2  C   LIG d   1      -3.979  75.016 115.387  0.00  0.00     0.016 C 
ATOM      3  C   LIG d   1      -2.706  74.954 115.999  0.00  0.00     0.038 C 
ATOM      4  C   LIG d   1      -2.340  75.822 117.039  0.00  0.00     0.028 C 
ATOM      5  C   LIG d   1      -3.057  77.167 116.986  0.00  0.00    -0.047 C 
ATOM      6  C   LIG d   1      -4.579  76.920 116.867  0.00  0.00     0.091 C 
ENDROOT
BRANCH   1   7
ATOM      7  O   LIG d   1      -6.229  75.451 115.806  0.00  0.00    -0.368 OA
BRANCH   7   8
ATOM      8  C   LIG d   1      -6.416  74.589 116.955  0.00  0.00     0.119 C 
BRANCH   8   9
ATOM      9  C   LIG d   1      -6.780  73.187 116.427  0.00  0.00     0.028 C 
ATOM     10  C   LIG d   1      -7.820  72.479 117.312  0.00  0.00     0.006 C 
ENDBRANCH   8   9
BRANCH   8  11
ATOM     11  C   LIG d   1      -7.619  75.031 117.794  0.00  0.00     0.028 C 
ATOM     12  C   LIG d   1      -8.407  76.180 117.145  0.00  0.00     0.006 C 
ENDBRANCH   8  11
ENDBRANCH   7   8
ENDBRANCH   1   7
BRANCH   6  13
ATOM     13  N   LIG d   1      -5.348  78.183 116.725  0.00  0.00    -0.311 N 
ATOM     14  C   LIG d   1      -5.915  78.816 117.751  0.00  0.00     0.210 C 
ATOM     15  C   LIG d   1      -6.680  80.091 117.382  0.00  0.00     0.109 C 
ATOM     16  O   LIG d   1      -5.831  78.459 118.935  0.00  0.00    -0.276 OA
ATOM     17  H   LIG d   1      -5.440  78.560 115.802  0.00  0.00     0.149 HD
ENDBRANCH   6  13
BRANCH   5  18
ATOM     18  N   LIG d   1      -2.687  77.917 118.201  0.00  0.00     0.381 N 
ATOM     19  H   LIG d   1      -2.213  77.312 118.841  0.00  0.00    -0.090 HD
ATOM     20  H   LIG d   1      -3.524  78.252 118.644  0.00  0.00    -0.090 HD
ATOM     21  H   LIG d   1      -2.100  78.685 117.961  0.00  0.00    -0.090 HD
ENDBRANCH   5  18
BRANCH   3  22
ATOM     22  C   LIG d   1      -1.769  74.040 115.543  0.00  0.00     0.382 C 
ATOM     23  O   LIG d   1      -1.184  73.284 116.355  0.00  0.00    -0.241 OA
ATOM     24  O   LIG d   1      -1.468  73.993 114.335  0.00  0.00    -0.241 OA
ENDBRANCH   3  22
TORSDOF 7
ENDMDL
MODEL 3
REMARK VINA RESULT:      -5.1      2.145      2.949
REMARK  7 active torsions:
REMARK  status: ('A' for Active; 'I' for Inactive)
REMARK    1  A    between atoms: C_2  and  C_3 
REMARK    2  A    between atoms: C_3  and  O_6 
REMARK    3  A    between atoms: C_3  and  C_4 
REMARK    4  A    between atoms: C_7  and  O_6 
REMARK    5  A    between atoms: C_9  and  C_10 
REMARK    6  A    between atoms: N_15  and  C_14 
REMARK    7  A    between atoms: N_20  and  C_19 
REMARK       I    between atoms: C_22  and  N_20 
ROOT
ATOM      1  C   LIG d   1      -5.661  78.602 117.302  0.00  0.00     0.161 C 
ATOM      2  C   LIG d   1      -6.935  78.014 117.381  0.00  0.00     0.016 C 
ATOM      3  C   LIG d   1      -8.119  78.751 117.613  0.00  0.00     0.038 C 
ATOM      4  C   LIG d   1      -8.128  80.154 117.632  0.00  0.00     0.028 C 
ATOM      5  C   LIG d   1      -6.797  80.762 118.061  0.00  0.00    -0.047 C 
ATOM      6  C   LIG d   1      -5.665  80.142 117.210  0.00  0.00     0.091 C 
ENDROOT
BRANCH   1   7
ATOM      7  O   LIG d   1      -4.929  78.036 116.197  0.00  0.00    -0.368 OA
BRANCH   7   8
ATOM      8  C   LIG d   1      -4.895  76.589 116.130  0.00  0.00     0.119 C 
BRANCH   8   9
ATOM      9  C   LIG d   1      -3.750  76.110 117.043  0.00  0.00     0.028 C 
ATOM     10  C   LIG d   1      -3.426  74.620 116.846  0.00  0.00     0.006 C 
ENDBRANCH   8   9
BRANCH   8  11
ATOM     11  C   LIG d   1      -4.523  76.105 114.725  0.00  0.00     0.028 C 
ATOM     12  C   LIG d   1      -5.723  75.532 113.955  0.00  0.00     0.006 C 
ENDBRANCH   8  11
ENDBRANCH   7   8
ENDBRANCH   1   7
BRANCH   6  13
ATOM     13  N   LIG d   1      -4.319  80.621 117.622  0.00  0.00    -0.311 N 
ATOM     14  C   LIG d   1      -3.582  81.455 116.890  0.00  0.00     0.210 C 
ATOM     15  C   LIG d   1      -2.217  81.806 117.489  0.00  0.00     0.109 C 
ATOM     16  O   LIG d   1      -3.943  81.963 115.818  0.00  0.00    -0.276 OA
ATOM     17  H   LIG d   1      -3.962  80.283 118.494  0.00  0.00     0.149 HD
ENDBRANCH   6  13
BRANCH   5  18
ATOM     18  N   LIG d   1      -6.904  82.225 117.904  0.00  0.00     0.381 N 
ATOM     19  H   LIG d   1      -7.361  82.440 117.040  0.00  0.00    -0.090 HD
ATOM     20  H   LIG d   1      -5.980  82.617 117.878  0.00  0.00    -0.090 HD
ATOM     21  H   LIG d   1      -7.417  82.613 118.665  0.00  0.00    -0.090 HD
ENDBRANCH   5  18
BRANCH   3  22
ATOM     22  C   LIG d   1      -9.306  78.081 117.869  0.00  0.00     0.382 C 
ATOM     23  O   LIG d   1     -10.235  78.663 118.479  0.00  0.00    -0.241 OA
ATOM     24  O   LIG d   1      -9.442  76.888 117.537  0.00  0.00    -0.241 OA
ENDBRANCH   3  22
TORSDOF 7
ENDMDL
MODEL 4
REMARK VINA RESULT:      -5.0     13.056     15.722
REMARK  7 active torsions:
REMARK  status: ('A' for Active; 'I' for Inactive)
REMARK    1  A    between atoms: C_2  and  C_3 
REMARK    2  A    between atoms: C_3  and  O_6 
REMARK    3  A    between atoms: C_3  and  C_4 
REMARK    4  A    between atoms: C_7  and  O_6 
REMARK    5  A    between atoms: C_9  and  C_10 
REMARK    6  A    between atoms: N_15  and  C_14 
REMARK    7  A    between atoms: N_20  and  C_19 
REMARK       I    between atoms: C_22  and  N_20 
ROOT
ATOM      1  C   LIG d   1       3.447  88.672 115.672  0.00  0.00     0.161 C 
ATOM      2  C   LIG d   1       2.562  87.730 115.123  0.00  0.00     0.016 C 
ATOM      3  C   LIG d   1       1.252  87.516 115.612  0.00  0.00     0.038 C 
ATOM      4  C   LIG d   1       0.683  88.341 116.593  0.00  0.00     0.028 C 
ATOM      5  C   LIG d   1       1.712  88.975 117.523  0.00  0.00    -0.047 C 
ATOM      6  C   LIG d   1       2.806  89.658 116.671  0.00  0.00     0.091 C 
ENDROOT
BRANCH   1   7
ATOM      7  O   LIG d   1       4.112  89.391 114.615  0.00  0.00    -0.368 OA
BRANCH   7   8
ATOM      8  C   LIG d   1       5.538  89.168 114.491  0.00  0.00     0.119 C 
BRANCH   8   9
ATOM      9  C   LIG d   1       5.829  88.844 113.012  0.00  0.00     0.028 C 
ATOM     10  C   LIG d   1       5.020  87.639 112.505  0.00  0.00     0.006 C 
ENDBRANCH   8   9
BRANCH   8  11
ATOM     11  C   LIG d   1       5.978  87.925 115.271  0.00  0.00     0.028 C 
ATOM     12  C   LIG d   1       7.168  88.198 116.205  0.00  0.00     0.006 C 
ENDBRANCH   8  11
ENDBRANCH   7   8
ENDBRANCH   1   7
BRANCH   6  13
ATOM     13  N   LIG d   1       3.897  90.231 117.501  0.00  0.00    -0.311 N 
ATOM     14  C   LIG d   1       4.213  91.524 117.506  0.00  0.00     0.210 C 
ATOM     15  C   LIG d   1       5.383  91.901 118.420  0.00  0.00     0.109 C 
ATOM     16  O   LIG d   1       3.614  92.401 116.864  0.00  0.00    -0.276 OA
ATOM     17  H   LIG d   1       4.414  89.595 118.076  0.00  0.00     0.149 HD
ENDBRANCH   6  13
BRANCH   5  18
ATOM     18  N   LIG d   1       0.996  89.914 118.406  0.00  0.00     0.381 N 
ATOM     19  H   LIG d   1       1.331  90.845 118.254  0.00  0.00    -0.090 HD
ATOM     20  H   LIG d   1       1.179  89.666 119.362  0.00  0.00    -0.090 HD
ATOM     21  H   LIG d   1       0.017  89.873 118.226  0.00  0.00    -0.090 HD
ENDBRANCH   5  18
BRANCH   3  22
ATOM     22  C   LIG d   1       0.512  86.441 115.145  0.00  0.00     0.382 C 
ATOM     23  O   LIG d   1       0.064  85.590 115.951  0.00  0.00    -0.241 OA
ATOM     24  O   LIG d   1       0.323  86.286 113.923  0.00  0.00    -0.241 OA
ENDBRANCH   3  22
TORSDOF 7
ENDMDL
MODEL 5
REMARK VINA RESULT:      -4.9      2.433      4.762
REMARK  7 active torsions:
REMARK  status: ('A' for Active; 'I' for Inactive)
REMARK    1  A    between atoms: C_2  and  C_3 
REMARK    2  A    between atoms: C_3  and  O_6 
REMARK    3  A    between atoms: C_3  and  C_4 
REMARK    4  A    between atoms: C_7  and  O_6 
REMARK    5  A    between atoms: C_9  and  C_10 
REMARK    6  A    between atoms: N_15  and  C_14 
REMARK    7  A    between atoms: N_20  and  C_19 
REMARK       I    between atoms: C_22  and  N_20 
ROOT
ATOM      1  C   LIG d   1      -5.637  77.005 116.575  0.00  0.00     0.161 C 
ATOM      2  C   LIG d   1      -6.961  77.322 116.923  0.00  0.00     0.016 C 
ATOM      3  C   LIG d   1      -7.946  76.348 117.203  0.00  0.00     0.038 C 
ATOM      4  C   LIG d   1      -7.633  74.984 117.303  0.00  0.00     0.028 C 
ATOM      5  C   LIG d   1      -6.426  74.577 116.466  0.00  0.00    -0.047 C 
ATOM      6  C   LIG d   1      -5.249  75.526 116.787  0.00  0.00     0.091 C 
ENDROOT
BRANCH   1   7
ATOM      7  O   LIG d   1      -4.726  77.869 117.282  0.00  0.00    -0.368 OA
BRANCH   7   8
ATOM      8  C   LIG d   1      -4.460  79.154 116.669  0.00  0.00     0.119 C 
BRANCH   8   9
ATOM      9  C   LIG d   1      -2.951  79.217 116.362  0.00  0.00     0.028 C 
ATOM     10  C   LIG d   1      -2.635  80.108 115.149  0.00  0.00     0.006 C 
ENDBRANCH   8   9
BRANCH   8  11
ATOM     11  C   LIG d   1      -4.723  80.303 117.646  0.00  0.00     0.028 C 
ATOM     12  C   LIG d   1      -5.952  81.143 117.261  0.00  0.00     0.006 C 
ENDBRANCH   8  11
ENDBRANCH   7   8
ENDBRANCH   1   7
BRANCH   6  13
ATOM     13  N   LIG d   1      -4.053  75.251 115.949  0.00  0.00    -0.311 N 
ATOM     14  C   LIG d   1      -3.100  74.387 116.294  0.00  0.00     0.210 C 
ATOM     15  C   LIG d   1      -1.943  74.268 115.296  0.00  0.00     0.109 C 
ATOM     16  O   LIG d   1      -3.118  73.684 117.316  0.00  0.00    -0.276 OA
ATOM     17  H   LIG d   1      -3.974  75.755 115.088  0.00  0.00     0.149 HD
ENDBRANCH   6  13
BRANCH   5  18
ATOM     18  N   LIG d   1      -6.128  73.164 116.770  0.00  0.00     0.381 N 
ATOM     19  H   LIG d   1      -6.791  72.814 117.432  0.00  0.00    -0.090 HD
ATOM     20  H   LIG d   1      -5.212  73.106 117.179  0.00  0.00    -0.090 HD
ATOM     21  H   LIG d   1      -6.162  72.621 115.936  0.00  0.00    -0.090 HD
ENDBRANCH   5  18
BRANCH   3  22
ATOM     22  C   LIG d   1      -9.271  76.732 117.348  0.00  0.00     0.382 C 
ATOM     23  O   LIG d   1     -10.191  75.933 117.051  0.00  0.00    -0.241 OA
ATOM     24  O   LIG d   1      -9.557  77.882 117.731  0.00  0.00    -0.241 OA
ENDBRANCH   3  22
TORSDOF 7
ENDMDL
MODEL 6
REMARK VINA RESULT:      -4.9     12.677     15.324
REMARK  7 active torsions:
REMARK  status: ('A' for Active; 'I' for Inactive)
REMARK    1  A    between atoms: C_2  and  C_3 
REMARK    2  A    between atoms: C_3  and  O_6 
REMARK    3  A    between atoms: C_3  and  C_4 
REMARK    4  A    between atoms: C_7  and  O_6 
REMARK    5  A    between atoms: C_9  and  C_10 
REMARK    6  A    between atoms: N_15  and  C_14 
REMARK    7  A    between atoms: N_20  and  C_19 
REMARK       I    between atoms: C_22  and  N_20 
ROOT
ATOM      1  C   LIG d   1       2.937  88.982 115.818  0.00  0.00     0.161 C 
ATOM      2  C   LIG d   1       3.418  90.125 116.478  0.00  0.00     0.016 C 
ATOM      3  C   LIG d   1       2.603  90.965 117.272  0.00  0.00     0.038 C 
ATOM      4  C   LIG d   1       1.277  90.632 117.583  0.00  0.00     0.028 C 
ATOM      5  C   LIG d   1       0.608  89.755 116.530  0.00  0.00    -0.047 C 
ATOM      6  C   LIG d   1       1.519  88.541 116.237  0.00  0.00     0.091 C 
ENDROOT
BRANCH   1   7
ATOM      7  O   LIG d   1       3.869  87.894 115.984  0.00  0.00    -0.368 OA
BRANCH   7   8
ATOM      8  C   LIG d   1       4.476  87.385 114.771  0.00  0.00     0.119 C 
BRANCH   8   9
ATOM      9  C   LIG d   1       4.804  85.898 115.006  0.00  0.00     0.028 C 
ATOM     10  C   LIG d   1       4.094  84.975 114.002  0.00  0.00     0.006 C 
ENDBRANCH   8   9
BRANCH   8  11
ATOM     11  C   LIG d   1       5.824  88.059 114.498  0.00  0.00     0.028 C 
ATOM     12  C   LIG d   1       5.824  88.890 113.205  0.00  0.00     0.006 C 
ENDBRANCH   8  11
ENDBRANCH   7   8
ENDBRANCH   1   7
BRANCH   6  13
ATOM     13  N   LIG d   1       0.979  87.676 115.156  0.00  0.00    -0.311 N 
ATOM     14  C   LIG d   1       0.801  86.362 115.288  0.00  0.00     0.210 C 
ATOM     15  C   LIG d   1       0.252  85.656 114.045  0.00  0.00     0.109 C 
ATOM     16  O   LIG d   1       1.015  85.721 116.328  0.00  0.00    -0.276 OA
ATOM     17  H   LIG d   1       0.750  88.119 114.288  0.00  0.00     0.149 HD
ENDBRANCH   6  13
BRANCH   5  18
ATOM     18  N   LIG d   1      -0.719  89.371 117.046  0.00  0.00     0.381 N 
ATOM     19  H   LIG d   1      -0.615  88.711 117.791  0.00  0.00    -0.090 HD
ATOM     20  H   LIG d   1      -1.241  88.934 116.308  0.00  0.00    -0.090 HD
ATOM     21  H   LIG d   1      -1.204  90.178 117.373  0.00  0.00    -0.090 HD
ENDBRANCH   5  18
BRANCH   3  22
ATOM     22  C   LIG d   1       3.104  92.174 117.729  0.00  0.00     0.382 C 
ATOM     23  O   LIG d   1       2.780  92.597 118.865  0.00  0.00    -0.241 OA
ATOM     24  O   LIG d   1       3.840  92.869 117.003  0.00  0.00    -0.241 OA
ENDBRANCH   3  22
TORSDOF 7
ENDMDL
MODEL 7
REMARK VINA RESULT:      -4.8     12.276     14.333
REMARK  7 active torsions:
REMARK  status: ('A' for Active; 'I' for Inactive)
REMARK    1  A    between atoms: C_2  and  C_3 
REMARK    2  A    between atoms: C_3  and  O_6 
REMARK    3  A    between atoms: C_3  and  C_4 
REMARK    4  A    between atoms: C_7  and  O_6 
REMARK    5  A    between atoms: C_9  and  C_10 
REMARK    6  A    between atoms: N_15  and  C_14 
REMARK    7  A    between atoms: N_20  and  C_19 
REMARK       I    between atoms: C_22  and  N_20 
ROOT
ATOM      1  C   LIG d   1       1.873  88.413 115.957  0.00  0.00     0.161 C 
ATOM      2  C   LIG d   1       0.606  88.710 116.486  0.00  0.00     0.016 C 
ATOM      3  C   LIG d   1       0.335  89.868 117.251  0.00  0.00     0.038 C 
ATOM      4  C   LIG d   1       1.283  90.890 117.412  0.00  0.00     0.028 C 
ATOM      5  C   LIG d   1       2.724  90.399 117.322  0.00  0.00    -0.047 C 
ATOM      6  C   LIG d   1       2.892  89.570 116.028  0.00  0.00     0.091 C 
ENDROOT
BRANCH   1   7
ATOM      7  O   LIG d   1       1.738  87.947 114.600  0.00  0.00    -0.368 OA
BRANCH   7   8
ATOM      8  C   LIG d   1       1.896  86.521 114.397  0.00  0.00     0.119 C 
BRANCH   8   9
ATOM      9  C   LIG d   1       2.782  86.326 113.151  0.00  0.00     0.028 C 
ATOM     10  C   LIG d   1       4.088  85.580 113.470  0.00  0.00     0.006 C 
ENDBRANCH   8   9
BRANCH   8  11
ATOM     11  C   LIG d   1       0.560  85.855 114.054  0.00  0.00     0.028 C 
ATOM     12  C   LIG d   1      -0.129  85.236 115.280  0.00  0.00     0.006 C 
ENDBRANCH   8  11
ENDBRANCH   7   8
ENDBRANCH   1   7
BRANCH   6  13
ATOM     13  N   LIG d   1       4.251  88.981 115.904  0.00  0.00    -0.311 N 
ATOM     14  C   LIG d   1       4.951  88.987 114.771  0.00  0.00     0.210 C 
ATOM     15  C   LIG d   1       6.323  88.309 114.856  0.00  0.00     0.109 C 
ATOM     16  O   LIG d   1       4.581  89.517 113.713  0.00  0.00    -0.276 OA
ATOM     17  H   LIG d   1       4.640  88.558 116.723  0.00  0.00     0.149 HD
ENDBRANCH   6  13
BRANCH   5  18
ATOM     18  N   LIG d   1       3.602  91.583 117.368  0.00  0.00     0.381 N 
ATOM     19  H   LIG d   1       3.283  92.214 118.077  0.00  0.00    -0.090 HD
ATOM     20  H   LIG d   1       3.557  92.056 116.482  0.00  0.00    -0.090 HD
ATOM     21  H   LIG d   1       4.539  91.305 117.558  0.00  0.00    -0.090 HD
ENDBRANCH   5  18
BRANCH   3  22
ATOM     22  C   LIG d   1      -0.885  89.994 117.899  0.00  0.00     0.382 C 
ATOM     23  O   LIG d   1      -0.923  90.348 119.102  0.00  0.00    -0.241 OA
ATOM     24  O   LIG d   1      -1.945  89.714 117.308  0.00  0.00    -0.241 OA
ENDBRANCH   3  22
TORSDOF 7
ENDMDL
MODEL 8
REMARK VINA RESULT:      -4.8      3.450      5.624
REMARK  7 active torsions:
REMARK  status: ('A' for Active; 'I' for Inactive)
REMARK    1  A    between atoms: C_2  and  C_3 
REMARK    2  A    between atoms: C_3  and  O_6 
REMARK    3  A    between atoms: C_3  and  C_4 
REMARK    4  A    between atoms: C_7  and  O_6 
REMARK    5  A    between atoms: C_9  and  C_10 
REMARK    6  A    between atoms: N_15  and  C_14 
REMARK    7  A    between atoms: N_20  and  C_19 
REMARK       I    between atoms: C_22  and  N_20 
ROOT
ATOM      1  C   LIG d   1      -3.121  77.293 116.717  0.00  0.00     0.161 C 
ATOM      2  C   LIG d   1      -3.304  78.483 115.994  0.00  0.00     0.016 C 
ATOM      3  C   LIG d   1      -2.506  78.852 114.887  0.00  0.00     0.038 C 
ATOM      4  C   LIG d   1      -1.560  77.978 114.332  0.00  0.00     0.028 C 
ATOM      5  C   LIG d   1      -0.995  76.978 115.335  0.00  0.00    -0.047 C 
ATOM      6  C   LIG d   1      -2.167  76.275 116.057  0.00  0.00     0.091 C 
ENDROOT
BRANCH   1   7
ATOM      7  O   LIG d   1      -4.399  76.681 116.984  0.00  0.00    -0.368 OA
BRANCH   7   8
ATOM      8  C   LIG d   1      -5.519  77.184 116.214  0.00  0.00     0.119 C 
BRANCH   8   9
ATOM      9  C   LIG d   1      -6.580  77.683 117.214  0.00  0.00     0.028 C 
ATOM     10  C   LIG d   1      -7.866  76.840 117.174  0.00  0.00     0.006 C 
ENDBRANCH   8   9
BRANCH   8  11
ATOM     11  C   LIG d   1      -6.201  76.063 115.425  0.00  0.00     0.028 C 
ATOM     12  C   LIG d   1      -5.378  75.603 114.211  0.00  0.00     0.006 C 
ENDBRANCH   8  11
ENDBRANCH   7   8
ENDBRANCH   1   7
BRANCH   6  13
ATOM     13  N   LIG d   1      -1.703  75.342 117.116  0.00  0.00    -0.311 N 
ATOM     14  C   LIG d   1      -2.243  74.142 117.324  0.00  0.00     0.210 C 
ATOM     15  C   LIG d   1      -1.627  73.348 118.480  0.00  0.00     0.109 C 
ATOM     16  O   LIG d   1      -3.151  73.647 116.641  0.00  0.00    -0.276 OA
ATOM     17  H   LIG d   1      -0.948  75.650 117.697  0.00  0.00     0.149 HD
ENDBRANCH   6  13
BRANCH   5  18
ATOM     18  N   LIG d   1      -0.128  76.043 114.594  0.00  0.00     0.381 N 
ATOM     19  H   LIG d   1      -0.041  76.343 113.643  0.00  0.00    -0.090 HD
ATOM     20  H   LIG d   1      -0.553  75.132 114.600  0.00  0.00    -0.090 HD
ATOM     21  H   LIG d   1       0.771  76.001 115.020  0.00  0.00    -0.090 HD
ENDBRANCH   5  18
BRANCH   3  22
ATOM     22  C   LIG d   1      -2.622  80.125 114.350  0.00  0.00     0.382 C 
ATOM     23  O   LIG d   1      -2.743  81.117 115.108  0.00  0.00    -0.241 OA
ATOM     24  O   LIG d   1      -2.652  80.289 113.115  0.00  0.00    -0.241 OA
ENDBRANCH   3  22
TORSDOF 7
ENDMDL
MODEL 9
REMARK VINA RESULT:      -4.8      3.083      4.276
REMARK  7 active torsions:
REMARK  status: ('A' for Active; 'I' for Inactive)
REMARK    1  A    between atoms: C_2  and  C_3 
REMARK    2  A    between atoms: C_3  and  O_6 
REMARK    3  A    between atoms: C_3  and  C_4 
REMARK    4  A    between atoms: C_7  and  O_6 
REMARK    5  A    between atoms: C_9  and  C_10 
REMARK    6  A    between atoms: N_15  and  C_14 
REMARK    7  A    between atoms: N_20  and  C_19 
REMARK       I    between atoms: C_22  and  N_20 
ROOT
ATOM      1  C   LIG d   1      -4.133  77.646 116.493  0.00  0.00     0.161 C 
ATOM      2  C   LIG d   1      -4.472  79.005 116.600  0.00  0.00     0.016 C 
ATOM      3  C   LIG d   1      -3.589  80.056 116.262  0.00  0.00     0.038 C 
ATOM      4  C   LIG d   1      -2.351  79.816 115.647  0.00  0.00     0.028 C 
ATOM      5  C   LIG d   1      -1.762  78.451 115.985  0.00  0.00    -0.047 C 
ATOM      6  C   LIG d   1      -2.828  77.364 115.720  0.00  0.00     0.091 C 
ENDROOT
BRANCH   1   7
ATOM      7  O   LIG d   1      -5.229  76.914 115.911  0.00  0.00    -0.368 OA
BRANCH   7   8
ATOM      8  C   LIG d   1      -5.809  75.872 116.734  0.00  0.00     0.119 C 
BRANCH   8   9
ATOM      9  C   LIG d   1      -5.731  74.555 115.937  0.00  0.00     0.028 C 
ATOM     10  C   LIG d   1      -5.428  74.788 114.448  0.00  0.00     0.006 C 
ENDBRANCH   8   9
BRANCH   8  11
ATOM     11  C   LIG d   1      -7.302  76.115 116.972  0.00  0.00     0.028 C 
ATOM     12  C   LIG d   1      -8.034  74.866 117.488  0.00  0.00     0.006 C 
ENDBRANCH   8  11
ENDBRANCH   7   8
ENDBRANCH   1   7
BRANCH   6  13
ATOM     13  N   LIG d   1      -2.362  76.006 116.104  0.00  0.00    -0.311 N 
ATOM     14  C   LIG d   1      -1.702  75.196 115.278  0.00  0.00     0.210 C 
ATOM     15  C   LIG d   1      -1.331  73.832 115.869  0.00  0.00     0.109 C 
ATOM     16  O   LIG d   1      -1.360  75.490 114.123  0.00  0.00    -0.276 OA
ATOM     17  H   LIG d   1      -2.570  75.699 117.034  0.00  0.00     0.149 HD
ENDBRANCH   6  13
BRANCH   5  18
ATOM     18  N   LIG d   1      -0.544  78.277 115.171  0.00  0.00     0.381 N 
ATOM     19  H   LIG d   1      -0.216  77.335 115.248  0.00  0.00    -0.090 HD
ATOM     20  H   LIG d   1       0.171  78.889 115.521  0.00  0.00    -0.090 HD
ATOM     21  H   LIG d   1      -0.738  78.492 114.218  0.00  0.00    -0.090 HD
ENDBRANCH   5  18
BRANCH   3  22
ATOM     22  C   LIG d   1      -3.925  81.364 116.577  0.00  0.00     0.382 C 
ATOM     23  O   LIG d   1      -3.033  82.174 116.925  0.00  0.00    -0.241 OA
ATOM     24  O   LIG d   1      -5.115  81.732 116.559  0.00  0.00    -0.241 OA
ENDBRANCH   3  22
TORSDOF 7
ENDMDL
