MODEL 1
REMARK VINA RESULT:      -6.0      0.000      0.000
REMARK  7 active torsions:
REMARK  status: ('A' for Active; 'I' for Inactive)
REMARK    1  A    between atoms: C_2  and  C_3 
REMARK    2  A    between atoms: C_3  and  O_6 
REMARK    3  A    between atoms: C_3  and  C_4 
REMARK    4  A    between atoms: C_7  and  O_6 
REMARK    5  A    between atoms: C_9  and  C_10 
REMARK    6  A    between atoms: N_15  and  C_14 
REMARK    7  A    between atoms: N_20  and  C_19 
REMARK       I    between atoms: C_22  and  N_20 
ROOT
ATOM      1  C   LIG d   1      -6.683  76.981 117.132  0.00  0.00     0.161 C 
ATOM      2  C   LIG d   1      -8.027  77.187 117.486  0.00  0.00     0.016 C 
ATOM      3  C   LIG d   1      -8.538  78.436 117.906  0.00  0.00     0.038 C 
ATOM      4  C   LIG d   1      -7.768  79.608 117.854  0.00  0.00     0.028 C 
ATOM      5  C   LIG d   1      -6.270  79.354 117.984  0.00  0.00    -0.047 C 
ATOM      6  C   LIG d   1      -5.854  78.271 116.962  0.00  0.00     0.091 C 
ENDROOT
BRANCH   1   7
ATOM      7  O   LIG d   1      -6.610  76.178 115.937  0.00  0.00    -0.368 OA
BRANCH   7   8
ATOM      8  C   LIG d   1      -6.001  74.872 116.083  0.00  0.00     0.119 C 
BRANCH   8   9
ATOM      9  C   LIG d   1      -5.536  74.419 114.685  0.00  0.00     0.028 C 
ATOM     10  C   LIG d   1      -5.085  75.598 113.806  0.00  0.00     0.006 C 
ENDBRANCH   8   9
BRANCH   8  11
ATOM     11  C   LIG d   1      -7.027  73.825 116.527  0.00  0.00     0.028 C 
ATOM     12  C   LIG d   1      -6.738  72.427 115.957  0.00  0.00     0.006 C 
ENDBRANCH   8  11
ENDBRANCH   7   8
ENDBRANCH   1   7
BRANCH   6  13
ATOM     13  N   LIG d   1      -4.419  77.902 117.080  0.00  0.00    -0.311 N 
ATOM     14  C   LIG d   1      -3.458  78.451 116.339  0.00  0.00     0.210 C 
ATOM     15  C   LIG d   1      -2.048  77.912 116.606  0.00  0.00     0.109 C 
ATOM     16  O   LIG d   1      -3.634  79.355 115.508  0.00  0.00    -0.276 OA
ATOM     17  H   LIG d   1      -4.182  77.198 117.752  0.00  0.00     0.149 HD
ENDBRANCH   6  13
BRANCH   5  18
ATOM     18  N   LIG d   1      -5.580  80.641 117.775  0.00  0.00     0.381 N 
ATOM     19  H   LIG d   1      -4.944  80.811 118.528  0.00  0.00    -0.090 HD
ATOM     20  H   LIG d   1      -6.263  81.378 117.766  0.00  0.00    -0.090 HD
ATOM     21  H   LIG d   1      -5.085  80.627 116.910  0.00  0.00    -0.090 HD
ENDBRANCH   5  18
BRANCH   3  22
ATOM     22  C   LIG d   1      -9.823  78.515 118.421  0.00  0.00     0.382 C 
ATOM     23  O   LIG d   1     -10.702  77.705 118.040  0.00  0.00    -0.241 OA
ATOM     24  O   LIG d   1     -10.125  79.414 119.229  0.00  0.00    -0.241 OA
ENDBRANCH   3  22
TORSDOF 7
ENDMDL
MODEL 2
REMARK VINA RESULT:      -5.8      3.355      5.976
REMARK  7 active torsions:
REMARK  status: ('A' for Active; 'I' for Inactive)
REMARK    1  A    between atoms: C_2  and  C_3 
REMARK    2  A    between atoms: C_3  and  O_6 
REMARK    3  A    between atoms: C_3  and  C_4 
REMARK    4  A    between atoms: C_7  and  O_6 
REMARK    5  A    between atoms: C_9  and  C_10 
REMARK    6  A    between atoms: N_15  and  C_14 
REMARK    7  A    between atoms: N_20  and  C_19 
REMARK       I    between atoms: C_22  and  N_20 
ROOT
ATOM      1  C   LIG d   1      -2.817  77.543 116.567  0.00  0.00     0.161 C 
ATOM      2  C   LIG d   1      -3.122  78.387 115.486  0.00  0.00     0.016 C 
ATOM      3  C   LIG d   1      -2.322  78.483 114.324  0.00  0.00     0.038 C 
ATOM      4  C   LIG d   1      -1.236  77.625 114.098  0.00  0.00     0.028 C 
ATOM      5  C   LIG d   1      -0.595  77.108 115.382  0.00  0.00    -0.047 C 
ATOM      6  C   LIG d   1      -1.697  76.518 116.291  0.00  0.00     0.091 C 
ENDROOT
BRANCH   1   7
ATOM      7  O   LIG d   1      -4.011  76.872 117.015  0.00  0.00    -0.368 OA
BRANCH   7   8
ATOM      8  C   LIG d   1      -5.112  76.833 116.074  0.00  0.00     0.119 C 
BRANCH   8   9
ATOM      9  C   LIG d   1      -6.403  77.139 116.858  0.00  0.00     0.028 C 
ATOM     10  C   LIG d   1      -7.456  76.028 116.711  0.00  0.00     0.006 C 
ENDBRANCH   8   9
BRANCH   8  11
ATOM     11  C   LIG d   1      -5.308  75.425 115.504  0.00  0.00     0.028 C 
ATOM     12  C   LIG d   1      -4.975  75.337 114.006  0.00  0.00     0.006 C 
ENDBRANCH   8  11
ENDBRANCH   7   8
ENDBRANCH   1   7
BRANCH   6  13
ATOM     13  N   LIG d   1      -1.168  76.066 117.604  0.00  0.00    -0.311 N 
ATOM     14  C   LIG d   1      -0.815  74.807 117.858  0.00  0.00     0.210 C 
ATOM     15  C   LIG d   1      -0.313  74.551 119.282  0.00  0.00     0.109 C 
ATOM     16  O   LIG d   1      -0.840  73.884 117.029  0.00  0.00    -0.276 OA
ATOM     17  H   LIG d   1      -1.085  76.756 118.324  0.00  0.00     0.149 HD
ENDBRANCH   6  13
BRANCH   5  18
ATOM     18  N   LIG d   1       0.431  76.120 115.001  0.00  0.00     0.381 N 
ATOM     19  H   LIG d   1       1.042  75.950 115.775  0.00  0.00    -0.090 HD
ATOM     20  H   LIG d   1       0.977  76.493 114.245  0.00  0.00    -0.090 HD
ATOM     21  H   LIG d   1      -0.003  75.269 114.719  0.00  0.00    -0.090 HD
ENDBRANCH   5  18
BRANCH   3  22
ATOM     22  C   LIG d   1      -2.583  79.475 113.391  0.00  0.00     0.382 C 
ATOM     23  O   LIG d   1      -2.252  79.311 112.192  0.00  0.00    -0.241 OA
ATOM     24  O   LIG d   1      -3.105  80.551 113.741  0.00  0.00    -0.241 OA
ENDBRANCH   3  22
TORSDOF 7
ENDMDL
MODEL 3
REMARK VINA RESULT:      -5.7      2.217      5.474
REMARK  7 active torsions:
REMARK  status: ('A' for Active; 'I' for Inactive)
REMARK    1  A    between atoms: C_2  and  C_3 
REMARK    2  A    between atoms: C_3  and  O_6 
REMARK    3  A    between atoms: C_3  and  C_4 
REMARK    4  A    between atoms: C_7  and  O_6 
REMARK    5  A    between atoms: C_9  and  C_10 
REMARK    6  A    between atoms: N_15  and  C_14 
REMARK    7  A    between atoms: N_20  and  C_19 
REMARK       I    between atoms: C_22  and  N_20 
ROOT
ATOM      1  C   LIG d   1      -5.310  78.056 117.018  0.00  0.00     0.161 C 
ATOM      2  C   LIG d   1      -5.181  76.829 116.345  0.00  0.00     0.016 C 
ATOM      3  C   LIG d   1      -6.248  75.918 116.176  0.00  0.00     0.038 C 
ATOM      4  C   LIG d   1      -7.564  76.242 116.540  0.00  0.00     0.028 C 
ATOM      5  C   LIG d   1      -7.646  77.256 117.676  0.00  0.00    -0.047 C 
ATOM      6  C   LIG d   1      -6.763  78.475 117.325  0.00  0.00     0.091 C 
ENDROOT
BRANCH   1   7
ATOM      7  O   LIG d   1      -4.634  79.092 116.279  0.00  0.00    -0.368 OA
BRANCH   7   8
ATOM      8  C   LIG d   1      -3.272  79.377 116.681  0.00  0.00     0.119 C 
BRANCH   8   9
ATOM      9  C   LIG d   1      -3.336  80.305 117.910  0.00  0.00     0.028 C 
ATOM     10  C   LIG d   1      -2.228  80.001 118.933  0.00  0.00     0.006 C 
ENDBRANCH   8   9
BRANCH   8  11
ATOM     11  C   LIG d   1      -2.529  80.178 115.607  0.00  0.00     0.028 C 
ATOM     12  C   LIG d   1      -1.097  79.674 115.372  0.00  0.00     0.006 C 
ENDBRANCH   8  11
ENDBRANCH   7   8
ENDBRANCH   1   7
BRANCH   6  13
ATOM     13  N   LIG d   1      -6.719  79.478 118.421  0.00  0.00    -0.311 N 
ATOM     14  C   LIG d   1      -6.976  80.773 118.240  0.00  0.00     0.210 C 
ATOM     15  C   LIG d   1      -6.856  81.637 119.499  0.00  0.00     0.109 C 
ATOM     16  O   LIG d   1      -7.323  81.282 117.164  0.00  0.00    -0.276 OA
ATOM     17  H   LIG d   1      -6.477  79.146 119.334  0.00  0.00     0.149 HD
ENDBRANCH   6  13
BRANCH   5  18
ATOM     18  N   LIG d   1      -9.067  77.605 117.860  0.00  0.00     0.381 N 
ATOM     19  H   LIG d   1      -9.293  77.602 118.834  0.00  0.00    -0.090 HD
ATOM     20  H   LIG d   1      -9.634  76.913 117.402  0.00  0.00    -0.090 HD
ATOM     21  H   LIG d   1      -9.250  78.505 117.471  0.00  0.00    -0.090 HD
ENDBRANCH   5  18
BRANCH   3  22
ATOM     22  C   LIG d   1      -5.997  74.651 115.673  0.00  0.00     0.382 C 
ATOM     23  O   LIG d   1      -5.338  74.516 114.614  0.00  0.00    -0.241 OA
ATOM     24  O   LIG d   1      -6.459  73.643 116.240  0.00  0.00    -0.241 OA
ENDBRANCH   3  22
TORSDOF 7
ENDMDL
MODEL 4
REMARK VINA RESULT:      -5.5      3.534      7.145
REMARK  7 active torsions:
REMARK  status: ('A' for Active; 'I' for Inactive)
REMARK    1  A    between atoms: C_2  and  C_3 
REMARK    2  A    between atoms: C_3  and  O_6 
REMARK    3  A    between atoms: C_3  and  C_4 
REMARK    4  A    between atoms: C_7  and  O_6 
REMARK    5  A    between atoms: C_9  and  C_10 
REMARK    6  A    between atoms: N_15  and  C_14 
REMARK    7  A    between atoms: N_20  and  C_19 
REMARK       I    between atoms: C_22  and  N_20 
ROOT
ATOM      1  C   LIG d   1      -2.831  79.871 115.512  0.00  0.00     0.161 C 
ATOM      2  C   LIG d   1      -2.533  81.119 114.939  0.00  0.00     0.016 C 
ATOM      3  C   LIG d   1      -1.932  81.267 113.668  0.00  0.00     0.038 C 
ATOM      4  C   LIG d   1      -1.725  80.175 112.813  0.00  0.00     0.028 C 
ATOM      5  C   LIG d   1      -1.546  78.853 113.553  0.00  0.00    -0.047 C 
ATOM      6  C   LIG d   1      -2.715  78.672 114.548  0.00  0.00     0.091 C 
ENDROOT
BRANCH   1   7
ATOM      7  O   LIG d   1      -4.142  79.909 116.109  0.00  0.00    -0.368 OA
BRANCH   7   8
ATOM      8  C   LIG d   1      -4.198  79.688 117.540  0.00  0.00     0.119 C 
BRANCH   8   9
ATOM      9  C   LIG d   1      -5.238  80.667 118.119  0.00  0.00     0.028 C 
ATOM     10  C   LIG d   1      -6.683  80.224 117.835  0.00  0.00     0.006 C 
ENDBRANCH   8   9
BRANCH   8  11
ATOM     11  C   LIG d   1      -2.873  80.058 118.213  0.00  0.00     0.028 C 
ATOM     12  C   LIG d   1      -3.044  80.448 119.690  0.00  0.00     0.006 C 
ENDBRANCH   8  11
ENDBRANCH   7   8
ENDBRANCH   1   7
BRANCH   6  13
ATOM     13  N   LIG d   1      -2.572  77.444 115.373  0.00  0.00    -0.311 N 
ATOM     14  C   LIG d   1      -3.556  76.563 115.552  0.00  0.00     0.210 C 
ATOM     15  C   LIG d   1      -3.204  75.377 116.455  0.00  0.00     0.109 C 
ATOM     16  O   LIG d   1      -4.675  76.636 115.023  0.00  0.00    -0.276 OA
ATOM     17  H   LIG d   1      -1.686  77.290 115.813  0.00  0.00     0.149 HD
ENDBRANCH   6  13
BRANCH   5  18
ATOM     18  N   LIG d   1      -1.478  77.782 112.540  0.00  0.00     0.381 N 
ATOM     19  H   LIG d   1      -2.190  77.102 112.718  0.00  0.00    -0.090 HD
ATOM     20  H   LIG d   1      -0.584  77.328 112.607  0.00  0.00    -0.090 HD
ATOM     21  H   LIG d   1      -1.596  78.166 111.629  0.00  0.00    -0.090 HD
ENDBRANCH   5  18
BRANCH   3  22
ATOM     22  C   LIG d   1      -1.494  82.517 113.257  0.00  0.00     0.382 C 
ATOM     23  O   LIG d   1      -1.609  82.858 112.055  0.00  0.00    -0.241 OA
ATOM     24  O   LIG d   1      -0.944  83.291 114.064  0.00  0.00    -0.241 OA
ENDBRANCH   3  22
TORSDOF 7
ENDMDL
MODEL 5
REMARK VINA RESULT:      -5.5      1.786      2.468
REMARK  7 active torsions:
REMARK  status: ('A' for Active; 'I' for Inactive)
REMARK    1  A    between atoms: C_2  and  C_3 
REMARK    2  A    between atoms: C_3  and  O_6 
REMARK    3  A    between atoms: C_3  and  C_4 
REMARK    4  A    between atoms: C_7  and  O_6 
REMARK    5  A    between atoms: C_9  and  C_10 
REMARK    6  A    between atoms: N_15  and  C_14 
REMARK    7  A    between atoms: N_20  and  C_19 
REMARK       I    between atoms: C_22  and  N_20 
ROOT
ATOM      1  C   LIG d   1      -6.340  76.984 116.958  0.00  0.00     0.161 C 
ATOM      2  C   LIG d   1      -7.611  76.394 116.858  0.00  0.00     0.016 C 
ATOM      3  C   LIG d   1      -8.794  77.012 117.325  0.00  0.00     0.038 C 
ATOM      4  C   LIG d   1      -8.806  78.335 117.790  0.00  0.00     0.028 C 
ATOM      5  C   LIG d   1      -7.471  78.782 118.377  0.00  0.00    -0.047 C 
ATOM      6  C   LIG d   1      -6.348  78.473 117.362  0.00  0.00     0.091 C 
ENDROOT
BRANCH   1   7
ATOM      7  O   LIG d   1      -5.619  76.803 115.723  0.00  0.00    -0.368 OA
BRANCH   7   8
ATOM      8  C   LIG d   1      -4.739  75.654 115.661  0.00  0.00     0.119 C 
BRANCH   8   9
ATOM      9  C   LIG d   1      -3.311  76.148 115.964  0.00  0.00     0.028 C 
ATOM     10  C   LIG d   1      -2.581  75.248 116.976  0.00  0.00     0.006 C 
ENDBRANCH   8   9
BRANCH   8  11
ATOM     11  C   LIG d   1      -4.676  75.076 114.244  0.00  0.00     0.028 C 
ATOM     12  C   LIG d   1      -5.488  75.897 113.229  0.00  0.00     0.006 C 
ENDBRANCH   8  11
ENDBRANCH   7   8
ENDBRANCH   1   7
BRANCH   6  13
ATOM     13  N   LIG d   1      -4.999  78.802 117.892  0.00  0.00    -0.311 N 
ATOM     14  C   LIG d   1      -4.364  79.942 117.624  0.00  0.00     0.210 C 
ATOM     15  C   LIG d   1      -2.974  80.072 118.255  0.00  0.00     0.109 C 
ATOM     16  O   LIG d   1      -4.834  80.872 116.952  0.00  0.00    -0.276 OA
ATOM     17  H   LIG d   1      -4.557  78.117 118.472  0.00  0.00     0.149 HD
ENDBRANCH   6  13
BRANCH   5  18
ATOM     18  N   LIG d   1      -7.583  80.218 118.696  0.00  0.00     0.381 N 
ATOM     19  H   LIG d   1      -7.747  80.739 117.858  0.00  0.00    -0.090 HD
ATOM     20  H   LIG d   1      -6.717  80.530 119.098  0.00  0.00    -0.090 HD
ATOM     21  H   LIG d   1      -8.330  80.367 119.339  0.00  0.00    -0.090 HD
ENDBRANCH   5  18
BRANCH   3  22
ATOM     22  C   LIG d   1      -9.977  76.289 117.365  0.00  0.00     0.382 C 
ATOM     23  O   LIG d   1     -10.008  75.113 116.929  0.00  0.00    -0.241 OA
ATOM     24  O   LIG d   1     -11.023  76.813 117.792  0.00  0.00    -0.241 OA
ENDBRANCH   3  22
TORSDOF 7
ENDMDL
MODEL 6
REMARK VINA RESULT:      -5.5      2.206      4.475
REMARK  7 active torsions:
REMARK  status: ('A' for Active; 'I' for Inactive)
REMARK    1  A    between atoms: C_2  and  C_3 
REMARK    2  A    between atoms: C_3  and  O_6 
REMARK    3  A    between atoms: C_3  and  C_4 
REMARK    4  A    between atoms: C_7  and  O_6 
REMARK    5  A    between atoms: C_9  and  C_10 
REMARK    6  A    between atoms: N_15  and  C_14 
REMARK    7  A    between atoms: N_20  and  C_19 
REMARK       I    between atoms: C_22  and  N_20 
ROOT
ATOM      1  C   LIG d   1      -5.799  77.726 116.844  0.00  0.00     0.161 C 
ATOM      2  C   LIG d   1      -7.145  77.765 117.246  0.00  0.00     0.016 C 
ATOM      3  C   LIG d   1      -8.004  76.643 117.199  0.00  0.00     0.038 C 
ATOM      4  C   LIG d   1      -7.531  75.360 116.887  0.00  0.00     0.028 C 
ATOM      5  C   LIG d   1      -6.299  75.370 115.989  0.00  0.00    -0.047 C 
ATOM      6  C   LIG d   1      -5.237  76.309 116.605  0.00  0.00     0.091 C 
ENDROOT
BRANCH   1   7
ATOM      7  O   LIG d   1      -4.983  78.435 117.797  0.00  0.00    -0.368 OA
BRANCH   7   8
ATOM      8  C   LIG d   1      -4.807  79.853 117.555  0.00  0.00     0.119 C 
BRANCH   8   9
ATOM      9  C   LIG d   1      -3.307  80.094 117.292  0.00  0.00     0.028 C 
ATOM     10  C   LIG d   1      -2.942  79.952 115.805  0.00  0.00     0.006 C 
ENDBRANCH   8   9
BRANCH   8  11
ATOM     11  C   LIG d   1      -5.137  80.677 118.803  0.00  0.00     0.028 C 
ATOM     12  C   LIG d   1      -6.601  81.144 118.838  0.00  0.00     0.006 C 
ENDBRANCH   8  11
ENDBRANCH   7   8
ENDBRANCH   1   7
BRANCH   6  13
ATOM     13  N   LIG d   1      -4.031  76.443 115.746  0.00  0.00    -0.311 N 
ATOM     14  C   LIG d   1      -2.871  75.845 116.013  0.00  0.00     0.210 C 
ATOM     15  C   LIG d   1      -1.750  76.131 115.009  0.00  0.00     0.109 C 
ATOM     16  O   LIG d   1      -2.674  75.078 116.968  0.00  0.00    -0.276 OA
ATOM     17  H   LIG d   1      -4.112  77.021 114.933  0.00  0.00     0.149 HD
ENDBRANCH   6  13
BRANCH   5  18
ATOM     18  N   LIG d   1      -5.832  73.977 115.856  0.00  0.00     0.381 N 
ATOM     19  H   LIG d   1      -5.000  73.846 116.395  0.00  0.00    -0.090 HD
ATOM     20  H   LIG d   1      -5.615  73.798 114.892  0.00  0.00    -0.090 HD
ATOM     21  H   LIG d   1      -6.541  73.350 116.167  0.00  0.00    -0.090 HD
ENDBRANCH   5  18
BRANCH   3  22
ATOM     22  C   LIG d   1      -9.362  76.808 117.428  0.00  0.00     0.382 C 
ATOM     23  O   LIG d   1     -10.154  75.862 117.203  0.00  0.00    -0.241 OA
ATOM     24  O   LIG d   1      -9.809  77.904 117.816  0.00  0.00    -0.241 OA
ENDBRANCH   3  22
TORSDOF 7
ENDMDL
MODEL 7
REMARK VINA RESULT:      -5.5      4.421      6.521
REMARK  7 active torsions:
REMARK  status: ('A' for Active; 'I' for Inactive)
REMARK    1  A    between atoms: C_2  and  C_3 
REMARK    2  A    between atoms: C_3  and  O_6 
REMARK    3  A    between atoms: C_3  and  C_4 
REMARK    4  A    between atoms: C_7  and  O_6 
REMARK    5  A    between atoms: C_9  and  C_10 
REMARK    6  A    between atoms: N_15  and  C_14 
REMARK    7  A    between atoms: N_20  and  C_19 
REMARK       I    between atoms: C_22  and  N_20 
ROOT
ATOM      1  C   LIG d   1      -1.286  77.107 114.856  0.00  0.00     0.161 C 
ATOM      2  C   LIG d   1      -2.530  76.894 114.238  0.00  0.00     0.016 C 
ATOM      3  C   LIG d   1      -3.482  75.961 114.707  0.00  0.00     0.038 C 
ATOM      4  C   LIG d   1      -3.318  75.281 115.923  0.00  0.00     0.028 C 
ATOM      5  C   LIG d   1      -1.857  75.090 116.317  0.00  0.00    -0.047 C 
ATOM      6  C   LIG d   1      -1.135  76.455 116.246  0.00  0.00     0.091 C 
ENDROOT
BRANCH   1   7
ATOM      7  O   LIG d   1      -1.015  78.521 114.933  0.00  0.00    -0.368 OA
BRANCH   7   8
ATOM      8  C   LIG d   1      -2.137  79.400 114.674  0.00  0.00     0.119 C 
BRANCH   8   9
ATOM      9  C   LIG d   1      -1.653  80.494 113.703  0.00  0.00     0.028 C 
ATOM     10  C   LIG d   1      -2.497  81.776 113.795  0.00  0.00     0.006 C 
ENDBRANCH   8   9
BRANCH   8  11
ATOM     11  C   LIG d   1      -2.566  80.144 115.942  0.00  0.00     0.028 C 
ATOM     12  C   LIG d   1      -3.774  79.494 116.635  0.00  0.00     0.006 C 
ENDBRANCH   8  11
ENDBRANCH   7   8
ENDBRANCH   1   7
BRANCH   6  13
ATOM     13  N   LIG d   1       0.318  76.344 116.535  0.00  0.00    -0.311 N 
ATOM     14  C   LIG d   1       0.945  77.092 117.442  0.00  0.00     0.210 C 
ATOM     15  C   LIG d   1       2.449  76.831 117.568  0.00  0.00     0.109 C 
ATOM     16  O   LIG d   1       0.392  77.925 118.176  0.00  0.00    -0.276 OA
ATOM     17  H   LIG d   1       0.838  75.671 116.007  0.00  0.00     0.149 HD
ENDBRANCH   6  13
BRANCH   5  18
ATOM     18  N   LIG d   1      -1.833  74.493 117.666  0.00  0.00     0.381 N 
ATOM     19  H   LIG d   1      -1.643  75.201 118.346  0.00  0.00    -0.090 HD
ATOM     20  H   LIG d   1      -1.097  73.810 117.706  0.00  0.00    -0.090 HD
ATOM     21  H   LIG d   1      -2.709  74.060 117.862  0.00  0.00    -0.090 HD
ENDBRANCH   5  18
BRANCH   3  22
ATOM     22  C   LIG d   1      -4.598  75.670 113.936  0.00  0.00     0.382 C 
ATOM     23  O   LIG d   1      -5.386  74.762 114.292  0.00  0.00    -0.241 OA
ATOM     24  O   LIG d   1      -4.801  76.275 112.867  0.00  0.00    -0.241 OA
ENDBRANCH   3  22
TORSDOF 7
ENDMDL
MODEL 8
REMARK VINA RESULT:      -5.3      1.582      2.292
REMARK  7 active torsions:
REMARK  status: ('A' for Active; 'I' for Inactive)
REMARK    1  A    between atoms: C_2  and  C_3 
REMARK    2  A    between atoms: C_3  and  O_6 
REMARK    3  A    between atoms: C_3  and  C_4 
REMARK    4  A    between atoms: C_7  and  O_6 
REMARK    5  A    between atoms: C_9  and  C_10 
REMARK    6  A    between atoms: N_15  and  C_14 
REMARK    7  A    between atoms: N_20  and  C_19 
REMARK       I    between atoms: C_22  and  N_20 
ROOT
ATOM      1  C   LIG d   1      -5.650  77.781 116.969  0.00  0.00     0.161 C 
ATOM      2  C   LIG d   1      -6.982  77.336 116.965  0.00  0.00     0.016 C 
ATOM      3  C   LIG d   1      -8.049  78.070 117.532  0.00  0.00     0.038 C 
ATOM      4  C   LIG d   1      -7.878  79.378 118.009  0.00  0.00     0.028 C 
ATOM      5  C   LIG d   1      -6.460  79.666 118.491  0.00  0.00    -0.047 C 
ATOM      6  C   LIG d   1      -5.461  79.255 117.386  0.00  0.00     0.091 C 
ENDROOT
BRANCH   1   7
ATOM      7  O   LIG d   1      -5.053  77.546 115.678  0.00  0.00    -0.368 OA
BRANCH   7   8
ATOM      8  C   LIG d   1      -4.056  76.496 115.619  0.00  0.00     0.119 C 
BRANCH   8   9
ATOM      9  C   LIG d   1      -4.757  75.221 115.111  0.00  0.00     0.028 C 
ATOM     10  C   LIG d   1      -5.160  75.322 113.631  0.00  0.00     0.006 C 
ENDBRANCH   8   9
BRANCH   8  11
ATOM     11  C   LIG d   1      -3.534  76.143 117.015  0.00  0.00     0.028 C 
ATOM     12  C   LIG d   1      -2.003  76.222 117.116  0.00  0.00     0.006 C 
ENDBRANCH   8  11
ENDBRANCH   7   8
ENDBRANCH   1   7
BRANCH   6  13
ATOM     13  N   LIG d   1      -4.046  79.425 117.808  0.00  0.00    -0.311 N 
ATOM     14  C   LIG d   1      -3.112  79.976 117.036  0.00  0.00     0.210 C 
ATOM     15  C   LIG d   1      -1.713  80.037 117.657  0.00  0.00     0.109 C 
ATOM     16  O   LIG d   1      -3.316  80.450 115.908  0.00  0.00    -0.276 OA
ATOM     17  H   LIG d   1      -3.800  79.096 118.722  0.00  0.00     0.149 HD
ENDBRANCH   6  13
BRANCH   5  18
ATOM     18  N   LIG d   1      -6.388  81.100 118.832  0.00  0.00     0.381 N 
ATOM     19  H   LIG d   1      -5.810  81.227 119.638  0.00  0.00    -0.090 HD
ATOM     20  H   LIG d   1      -7.311  81.429 119.050  0.00  0.00    -0.090 HD
ATOM     21  H   LIG d   1      -6.017  81.614 118.064  0.00  0.00    -0.090 HD
ENDBRANCH   5  18
BRANCH   3  22
ATOM     22  C   LIG d   1      -9.297  77.480 117.661  0.00  0.00     0.382 C 
ATOM     23  O   LIG d   1     -10.260  78.144 118.115  0.00  0.00    -0.241 OA
ATOM     24  O   LIG d   1      -9.462  76.280 117.370  0.00  0.00    -0.241 OA
ENDBRANCH   3  22
TORSDOF 7
ENDMDL
MODEL 9
REMARK VINA RESULT:      -5.3      4.704      6.338
REMARK  7 active torsions:
REMARK  status: ('A' for Active; 'I' for Inactive)
REMARK    1  A    between atoms: C_2  and  C_3 
REMARK    2  A    between atoms: C_3  and  O_6 
REMARK    3  A    between atoms: C_3  and  C_4 
REMARK    4  A    between atoms: C_7  and  O_6 
REMARK    5  A    between atoms: C_9  and  C_10 
REMARK    6  A    between atoms: N_15  and  C_14 
REMARK    7  A    between atoms: N_20  and  C_19 
REMARK       I    between atoms: C_22  and  N_20 
ROOT
ATOM      1  C   LIG d   1      -2.153  78.652 115.382  0.00  0.00     0.161 C 
ATOM      2  C   LIG d   1      -2.553  79.575 114.401  0.00  0.00     0.016 C 
ATOM      3  C   LIG d   1      -1.785  80.705 114.036  0.00  0.00     0.038 C 
ATOM      4  C   LIG d   1      -0.485  80.907 114.524  0.00  0.00     0.028 C 
ATOM      5  C   LIG d   1      -0.246  80.275 115.891  0.00  0.00    -0.047 C 
ATOM      6  C   LIG d   1      -0.688  78.795 115.844  0.00  0.00     0.091 C 
ENDROOT
BRANCH   1   7
ATOM      7  O   LIG d   1      -2.405  77.310 114.921  0.00  0.00    -0.368 OA
BRANCH   7   8
ATOM      8  C   LIG d   1      -3.698  76.751 115.261  0.00  0.00     0.119 C 
BRANCH   8   9
ATOM      9  C   LIG d   1      -3.622  76.265 116.721  0.00  0.00     0.028 C 
ATOM     10  C   LIG d   1      -2.571  75.159 116.918  0.00  0.00     0.006 C 
ENDBRANCH   8   9
BRANCH   8  11
ATOM     11  C   LIG d   1      -3.999  75.500 114.432  0.00  0.00     0.028 C 
ATOM     12  C   LIG d   1      -5.359  75.570 113.720  0.00  0.00     0.006 C 
ENDBRANCH   8  11
ENDBRANCH   7   8
ENDBRANCH   1   7
BRANCH   6  13
ATOM     13  N   LIG d   1      -0.567  78.125 117.166  0.00  0.00    -0.311 N 
ATOM     14  C   LIG d   1       0.474  77.369 117.512  0.00  0.00     0.210 C 
ATOM     15  C   LIG d   1       0.391  76.756 118.913  0.00  0.00     0.109 C 
ATOM     16  O   LIG d   1       1.473  77.175 116.803  0.00  0.00    -0.276 OA
ATOM     17  H   LIG d   1      -1.318  78.255 117.814  0.00  0.00     0.149 HD
ENDBRANCH   6  13
BRANCH   5  18
ATOM     18  N   LIG d   1       1.183  80.443 116.216  0.00  0.00     0.381 N 
ATOM     19  H   LIG d   1       1.297  80.537 117.205  0.00  0.00    -0.090 HD
ATOM     20  H   LIG d   1       1.520  81.282 115.778  0.00  0.00    -0.090 HD
ATOM     21  H   LIG d   1       1.701  79.657 115.888  0.00  0.00    -0.090 HD
ENDBRANCH   5  18
BRANCH   3  22
ATOM     22  C   LIG d   1      -2.333  81.669 113.204  0.00  0.00     0.382 C 
ATOM     23  O   LIG d   1      -1.594  82.322 112.429  0.00  0.00    -0.241 OA
ATOM     24  O   LIG d   1      -3.552  81.925 113.250  0.00  0.00    -0.241 OA
ENDBRANCH   3  22
TORSDOF 7
ENDMDL
