MODEL 1
REMARK VINA RESULT:      -5.9      0.000      0.000
REMARK  7 active torsions:
REMARK  status: ('A' for Active; 'I' for Inactive)
REMARK    1  A    between atoms: C_2  and  C_3 
REMARK    2  A    between atoms: C_3  and  O_6 
REMARK    3  A    between atoms: C_3  and  C_4 
REMARK    4  A    between atoms: C_7  and  O_6 
REMARK    5  A    between atoms: C_9  and  C_10 
REMARK    6  A    between atoms: N_15  and  C_14 
REMARK    7  A    between atoms: N_20  and  C_19 
REMARK       I    between atoms: C_22  and  N_20 
ROOT
ATOM      1  C   LIG d   1      -7.445  76.036 117.291  0.00  0.00     0.161 C 
ATOM      2  C   LIG d   1      -8.725  76.495 117.642  0.00  0.00     0.016 C 
ATOM      3  C   LIG d   1      -9.018  77.851 117.916  0.00  0.00     0.038 C 
ATOM      4  C   LIG d   1      -8.075  78.869 117.709  0.00  0.00     0.028 C 
ATOM      5  C   LIG d   1      -6.632  78.395 117.842  0.00  0.00    -0.047 C 
ATOM      6  C   LIG d   1      -6.430  77.147 116.952  0.00  0.00     0.091 C 
ENDROOT
BRANCH   1   7
ATOM      7  O   LIG d   1      -7.544  75.098 116.201  0.00  0.00    -0.368 OA
BRANCH   7   8
ATOM      8  C   LIG d   1      -7.401  73.699 116.550  0.00  0.00     0.119 C 
BRANCH   8   9
ATOM      9  C   LIG d   1      -6.633  73.013 115.404  0.00  0.00     0.028 C 
ATOM     10  C   LIG d   1      -5.800  74.007 114.578  0.00  0.00     0.006 C 
ENDBRANCH   8   9
BRANCH   8  11
ATOM     11  C   LIG d   1      -8.761  72.996 116.603  0.00  0.00     0.028 C 
ATOM     12  C   LIG d   1      -8.665  71.490 116.316  0.00  0.00     0.006 C 
ENDBRANCH   8  11
ENDBRANCH   7   8
ENDBRANCH   1   7
BRANCH   6  13
ATOM     13  N   LIG d   1      -5.068  76.569 117.088  0.00  0.00    -0.311 N 
ATOM     14  C   LIG d   1      -4.064  76.854 116.260  0.00  0.00     0.210 C 
ATOM     15  C   LIG d   1      -2.748  76.133 116.568  0.00  0.00     0.109 C 
ATOM     16  O   LIG d   1      -4.130  77.660 115.320  0.00  0.00    -0.276 OA
ATOM     17  H   LIG d   1      -4.917  75.929 117.843  0.00  0.00     0.149 HD
ENDBRANCH   6  13
BRANCH   5  18
ATOM     18  N   LIG d   1      -5.756  79.521 117.466  0.00  0.00     0.381 N 
ATOM     19  H   LIG d   1      -6.308  80.272 117.103  0.00  0.00    -0.090 HD
ATOM     20  H   LIG d   1      -5.125  79.216 116.747  0.00  0.00    -0.090 HD
ATOM     21  H   LIG d   1      -5.241  79.832 118.260  0.00  0.00    -0.090 HD
ENDBRANCH   5  18
BRANCH   3  22
ATOM     22  C   LIG d   1     -10.254  78.195 118.441  0.00  0.00     0.382 C 
ATOM     23  O   LIG d   1     -10.431  79.335 118.934  0.00  0.00    -0.241 OA
ATOM     24  O   LIG d   1     -11.182  77.365 118.468  0.00  0.00    -0.241 OA
ENDBRANCH   3  22
TORSDOF 7
ENDMDL
MODEL 2
REMARK VINA RESULT:      -5.5      3.875      6.041
REMARK  7 active torsions:
REMARK  status: ('A' for Active; 'I' for Inactive)
REMARK    1  A    between atoms: C_2  and  C_3 
REMARK    2  A    between atoms: C_3  and  O_6 
REMARK    3  A    between atoms: C_3  and  C_4 
REMARK    4  A    between atoms: C_7  and  O_6 
REMARK    5  A    between atoms: C_9  and  C_10 
REMARK    6  A    between atoms: N_15  and  C_14 
REMARK    7  A    between atoms: N_20  and  C_19 
REMARK       I    between atoms: C_22  and  N_20 
ROOT
ATOM      1  C   LIG d   1      -2.530  75.653 114.960  0.00  0.00     0.161 C 
ATOM      2  C   LIG d   1      -2.400  74.743 116.022  0.00  0.00     0.016 C 
ATOM      3  C   LIG d   1      -1.840  75.083 117.275  0.00  0.00     0.038 C 
ATOM      4  C   LIG d   1      -1.509  76.406 117.603  0.00  0.00     0.028 C 
ATOM      5  C   LIG d   1      -1.153  77.261 116.391  0.00  0.00    -0.047 C 
ATOM      6  C   LIG d   1      -2.276  77.127 115.337  0.00  0.00     0.091 C 
ENDROOT
BRANCH   1   7
ATOM      7  O   LIG d   1      -3.827  75.509 114.348  0.00  0.00    -0.368 OA
BRANCH   7   8
ATOM      8  C   LIG d   1      -4.886  75.018 115.207  0.00  0.00     0.119 C 
BRANCH   8   9
ATOM      9  C   LIG d   1      -5.613  73.892 114.448  0.00  0.00     0.028 C 
ATOM     10  C   LIG d   1      -6.568  73.096 115.354  0.00  0.00     0.006 C 
ENDBRANCH   8   9
BRANCH   8  11
ATOM     11  C   LIG d   1      -5.948  76.094 115.453  0.00  0.00     0.028 C 
ATOM     12  C   LIG d   1      -5.960  76.599 116.904  0.00  0.00     0.006 C 
ENDBRANCH   8  11
ENDBRANCH   7   8
ENDBRANCH   1   7
BRANCH   6  13
ATOM     13  N   LIG d   1      -1.968  77.865 114.084  0.00  0.00    -0.311 N 
ATOM     14  C   LIG d   1      -2.379  79.110 113.846  0.00  0.00     0.210 C 
ATOM     15  C   LIG d   1      -1.968  79.677 112.484  0.00  0.00     0.109 C 
ATOM     16  O   LIG d   1      -3.018  79.809 114.647  0.00  0.00    -0.276 OA
ATOM     17  H   LIG d   1      -1.427  77.384 113.393  0.00  0.00     0.149 HD
ENDBRANCH   6  13
BRANCH   5  18
ATOM     18  N   LIG d   1      -0.964  78.646 116.862  0.00  0.00     0.381 N 
ATOM     19  H   LIG d   1       0.013  78.848 116.935  0.00  0.00    -0.090 HD
ATOM     20  H   LIG d   1      -1.374  78.738 117.775  0.00  0.00    -0.090 HD
ATOM     21  H   LIG d   1      -1.396  79.283 116.230  0.00  0.00    -0.090 HD
ENDBRANCH   5  18
BRANCH   3  22
ATOM     22  C   LIG d   1      -1.570  74.087 118.201  0.00  0.00     0.382 C 
ATOM     23  O   LIG d   1      -0.943  74.362 119.252  0.00  0.00    -0.241 OA
ATOM     24  O   LIG d   1      -1.908  72.909 117.977  0.00  0.00    -0.241 OA
ENDBRANCH   3  22
TORSDOF 7
ENDMDL
MODEL 3
REMARK VINA RESULT:      -5.2     12.514     15.088
REMARK  7 active torsions:
REMARK  status: ('A' for Active; 'I' for Inactive)
REMARK    1  A    between atoms: C_2  and  C_3 
REMARK    2  A    between atoms: C_3  and  O_6 
REMARK    3  A    between atoms: C_3  and  C_4 
REMARK    4  A    between atoms: C_7  and  O_6 
REMARK    5  A    between atoms: C_9  and  C_10 
REMARK    6  A    between atoms: N_15  and  C_14 
REMARK    7  A    between atoms: N_20  and  C_19 
REMARK       I    between atoms: C_22  and  N_20 
ROOT
ATOM      1  C   LIG d   1     -16.370  65.861 116.091  0.00  0.00     0.161 C 
ATOM      2  C   LIG d   1     -15.884  67.053 115.529  0.00  0.00     0.016 C 
ATOM      3  C   LIG d   1     -15.794  67.277 114.136  0.00  0.00     0.038 C 
ATOM      4  C   LIG d   1     -16.330  66.376 113.204  0.00  0.00     0.028 C 
ATOM      5  C   LIG d   1     -16.372  64.937 113.708  0.00  0.00    -0.047 C 
ATOM      6  C   LIG d   1     -17.062  64.911 115.091  0.00  0.00     0.091 C 
ENDROOT
BRANCH   1   7
ATOM      7  O   LIG d   1     -17.253  66.163 117.189  0.00  0.00    -0.368 OA
BRANCH   7   8
ATOM      8  C   LIG d   1     -16.725  65.925 118.516  0.00  0.00     0.119 C 
BRANCH   8   9
ATOM      9  C   LIG d   1     -16.206  67.271 119.057  0.00  0.00     0.028 C 
ATOM     10  C   LIG d   1     -14.672  67.315 119.151  0.00  0.00     0.006 C 
ENDBRANCH   8   9
BRANCH   8  11
ATOM     11  C   LIG d   1     -15.499  65.007 118.472  0.00  0.00     0.028 C 
ATOM     12  C   LIG d   1     -15.760  63.633 119.108  0.00  0.00     0.006 C 
ENDBRANCH   8  11
ENDBRANCH   7   8
ENDBRANCH   1   7
BRANCH   6  13
ATOM     13  N   LIG d   1     -17.070  63.552 115.695  0.00  0.00    -0.311 N 
ATOM     14  C   LIG d   1     -18.071  62.687 115.538  0.00  0.00     0.210 C 
ATOM     15  C   LIG d   1     -17.887  61.349 116.262  0.00  0.00     0.109 C 
ATOM     16  O   LIG d   1     -19.078  62.888 114.843  0.00  0.00    -0.276 OA
ATOM     17  H   LIG d   1     -16.277  63.295 116.249  0.00  0.00     0.149 HD
ENDBRANCH   6  13
BRANCH   5  18
ATOM     18  N   LIG d   1     -17.078  64.131 112.695  0.00  0.00     0.381 N 
ATOM     19  H   LIG d   1     -17.603  64.730 112.090  0.00  0.00    -0.090 HD
ATOM     20  H   LIG d   1     -17.719  63.512 113.160  0.00  0.00    -0.090 HD
ATOM     21  H   LIG d   1     -16.422  63.602 112.163  0.00  0.00    -0.090 HD
ENDBRANCH   5  18
BRANCH   3  22
ATOM     22  C   LIG d   1     -15.127  68.397 113.661  0.00  0.00     0.382 C 
ATOM     23  O   LIG d   1     -15.017  68.584 112.426  0.00  0.00    -0.241 OA
ATOM     24  O   LIG d   1     -14.596  69.198 114.453  0.00  0.00    -0.241 OA
ENDBRANCH   3  22
TORSDOF 7
ENDMDL
MODEL 4
REMARK VINA RESULT:      -5.0     12.483     15.507
REMARK  7 active torsions:
REMARK  status: ('A' for Active; 'I' for Inactive)
REMARK    1  A    between atoms: C_2  and  C_3 
REMARK    2  A    between atoms: C_3  and  O_6 
REMARK    3  A    between atoms: C_3  and  C_4 
REMARK    4  A    between atoms: C_7  and  O_6 
REMARK    5  A    between atoms: C_9  and  C_10 
REMARK    6  A    between atoms: N_15  and  C_14 
REMARK    7  A    between atoms: N_20  and  C_19 
REMARK       I    between atoms: C_22  and  N_20 
ROOT
ATOM      1  C   LIG d   1     -16.309  65.182 115.901  0.00  0.00     0.161 C 
ATOM      2  C   LIG d   1     -16.967  64.408 114.931  0.00  0.00     0.016 C 
ATOM      3  C   LIG d   1     -17.718  63.250 115.238  0.00  0.00     0.038 C 
ATOM      4  C   LIG d   1     -17.988  62.870 116.561  0.00  0.00     0.028 C 
ATOM      5  C   LIG d   1     -16.926  63.332 117.553  0.00  0.00    -0.047 C 
ATOM      6  C   LIG d   1     -16.685  64.847 117.360  0.00  0.00     0.091 C 
ENDROOT
BRANCH   1   7
ATOM      7  O   LIG d   1     -16.525  66.583 115.638  0.00  0.00    -0.368 OA
BRANCH   7   8
ATOM      8  C   LIG d   1     -15.413  67.298 115.046  0.00  0.00     0.119 C 
BRANCH   8   9
ATOM      9  C   LIG d   1     -15.369  68.699 115.687  0.00  0.00     0.028 C 
ATOM     10  C   LIG d   1     -16.174  68.770 116.995  0.00  0.00     0.006 C 
ENDBRANCH   8   9
BRANCH   8  11
ATOM     11  C   LIG d   1     -15.640  67.543 113.551  0.00  0.00     0.028 C 
ATOM     12  C   LIG d   1     -14.925  68.803 113.038  0.00  0.00     0.006 C 
ENDBRANCH   8  11
ENDBRANCH   7   8
ENDBRANCH   1   7
BRANCH   6  13
ATOM     13  N   LIG d   1     -15.599  65.364 118.234  0.00  0.00    -0.311 N 
ATOM     14  C   LIG d   1     -15.819  65.930 119.419  0.00  0.00     0.210 C 
ATOM     15  C   LIG d   1     -14.562  66.412 120.149  0.00  0.00     0.109 C 
ATOM     16  O   LIG d   1     -16.934  66.049 119.950  0.00  0.00    -0.276 OA
ATOM     17  H   LIG d   1     -14.661  65.279 117.895  0.00  0.00     0.149 HD
ENDBRANCH   6  13
BRANCH   5  18
ATOM     18  N   LIG d   1     -17.401  62.991 118.907  0.00  0.00     0.381 N 
ATOM     19  H   LIG d   1     -16.845  62.250 119.284  0.00  0.00    -0.090 HD
ATOM     20  H   LIG d   1     -18.352  62.671 118.846  0.00  0.00    -0.090 HD
ATOM     21  H   LIG d   1     -17.349  63.790 119.499  0.00  0.00    -0.090 HD
ENDBRANCH   5  18
BRANCH   3  22
ATOM     22  C   LIG d   1     -18.174  62.435 114.213  0.00  0.00     0.382 C 
ATOM     23  O   LIG d   1     -17.678  62.535 113.065  0.00  0.00    -0.241 OA
ATOM     24  O   LIG d   1     -19.105  61.631 114.411  0.00  0.00    -0.241 OA
ENDBRANCH   3  22
TORSDOF 7
ENDMDL
MODEL 5
REMARK VINA RESULT:      -4.9     12.551     15.849
REMARK  7 active torsions:
REMARK  status: ('A' for Active; 'I' for Inactive)
REMARK    1  A    between atoms: C_2  and  C_3 
REMARK    2  A    between atoms: C_3  and  O_6 
REMARK    3  A    between atoms: C_3  and  C_4 
REMARK    4  A    between atoms: C_7  and  O_6 
REMARK    5  A    between atoms: C_9  and  C_10 
REMARK    6  A    between atoms: N_15  and  C_14 
REMARK    7  A    between atoms: N_20  and  C_19 
REMARK       I    between atoms: C_22  and  N_20 
ROOT
ATOM      1  C   LIG d   1     -16.725  64.757 116.172  0.00  0.00     0.161 C 
ATOM      2  C   LIG d   1     -16.114  65.989 116.458  0.00  0.00     0.016 C 
ATOM      3  C   LIG d   1     -15.763  66.933 115.464  0.00  0.00     0.038 C 
ATOM      4  C   LIG d   1     -16.139  66.771 114.123  0.00  0.00     0.028 C 
ATOM      5  C   LIG d   1     -16.309  65.312 113.713  0.00  0.00    -0.047 C 
ATOM      6  C   LIG d   1     -17.243  64.612 114.726  0.00  0.00     0.091 C 
ENDROOT
BRANCH   1   7
ATOM      7  O   LIG d   1     -17.788  64.509 117.113  0.00  0.00    -0.368 OA
BRANCH   7   8
ATOM      8  C   LIG d   1     -19.062  65.133 116.813  0.00  0.00     0.119 C 
BRANCH   8   9
ATOM      9  C   LIG d   1     -19.407  66.067 117.989  0.00  0.00     0.028 C 
ATOM     10  C   LIG d   1     -19.300  67.553 117.608  0.00  0.00     0.006 C 
ENDBRANCH   8   9
BRANCH   8  11
ATOM     11  C   LIG d   1     -20.192  64.099 116.771  0.00  0.00     0.028 C 
ATOM     12  C   LIG d   1     -21.241  64.408 115.691  0.00  0.00     0.006 C 
ENDBRANCH   8  11
ENDBRANCH   7   8
ENDBRANCH   1   7
BRANCH   6  13
ATOM     13  N   LIG d   1     -17.396  63.160 114.447  0.00  0.00    -0.311 N 
ATOM     14  C   LIG d   1     -18.346  62.661 113.658  0.00  0.00     0.210 C 
ATOM     15  C   LIG d   1     -18.337  61.136 113.521  0.00  0.00     0.109 C 
ATOM     16  O   LIG d   1     -19.175  63.340 113.033  0.00  0.00    -0.276 OA
ATOM     17  H   LIG d   1     -16.745  62.540 114.888  0.00  0.00     0.149 HD
ENDBRANCH   6  13
BRANCH   5  18
ATOM     18  N   LIG d   1     -16.834  65.295 112.334  0.00  0.00     0.381 N 
ATOM     19  H   LIG d   1     -17.737  65.725 112.310  0.00  0.00    -0.090 HD
ATOM     20  H   LIG d   1     -16.932  64.340 112.036  0.00  0.00    -0.090 HD
ATOM     21  H   LIG d   1     -16.211  65.778 111.726  0.00  0.00    -0.090 HD
ENDBRANCH   5  18
BRANCH   3  22
ATOM     22  C   LIG d   1     -14.992  68.034 115.804  0.00  0.00     0.382 C 
ATOM     23  O   LIG d   1     -15.098  69.099 115.150  0.00  0.00    -0.241 OA
ATOM     24  O   LIG d   1     -14.160  67.962 116.729  0.00  0.00    -0.241 OA
ENDBRANCH   3  22
TORSDOF 7
ENDMDL
MODEL 6
REMARK VINA RESULT:      -4.8     11.720     14.739
REMARK  7 active torsions:
REMARK  status: ('A' for Active; 'I' for Inactive)
REMARK    1  A    between atoms: C_2  and  C_3 
REMARK    2  A    between atoms: C_3  and  O_6 
REMARK    3  A    between atoms: C_3  and  C_4 
REMARK    4  A    between atoms: C_7  and  O_6 
REMARK    5  A    between atoms: C_9  and  C_10 
REMARK    6  A    between atoms: N_15  and  C_14 
REMARK    7  A    between atoms: N_20  and  C_19 
REMARK       I    between atoms: C_22  and  N_20 
ROOT
ATOM      1  C   LIG d   1     -16.850  65.917 115.124  0.00  0.00     0.161 C 
ATOM      2  C   LIG d   1     -16.113  66.569 114.120  0.00  0.00     0.016 C 
ATOM      3  C   LIG d   1     -15.411  67.778 114.332  0.00  0.00     0.038 C 
ATOM      4  C   LIG d   1     -15.272  68.342 115.609  0.00  0.00     0.028 C 
ATOM      5  C   LIG d   1     -16.417  67.991 116.553  0.00  0.00    -0.047 C 
ATOM      6  C   LIG d   1     -16.619  66.458 116.550  0.00  0.00     0.091 C 
ENDROOT
BRANCH   1   7
ATOM      7  O   LIG d   1     -16.591  64.500 115.077  0.00  0.00    -0.368 OA
BRANCH   7   8
ATOM      8  C   LIG d   1     -17.650  63.676 114.531  0.00  0.00     0.119 C 
BRANCH   8   9
ATOM      9  C   LIG d   1     -17.368  63.496 113.027  0.00  0.00     0.028 C 
ATOM     10  C   LIG d   1     -18.391  64.233 112.146  0.00  0.00     0.006 C 
ENDBRANCH   8   9
BRANCH   8  11
ATOM     11  C   LIG d   1     -19.005  64.387 114.608  0.00  0.00     0.028 C 
ATOM     12  C   LIG d   1     -19.964  63.734 115.615  0.00  0.00     0.006 C 
ENDBRANCH   8  11
ENDBRANCH   7   8
ENDBRANCH   1   7
BRANCH   6  13
ATOM     13  N   LIG d   1     -17.775  66.037 117.384  0.00  0.00    -0.311 N 
ATOM     14  C   LIG d   1     -17.682  65.147 118.370  0.00  0.00     0.210 C 
ATOM     15  C   LIG d   1     -18.998  64.840 119.090  0.00  0.00     0.109 C 
ATOM     16  O   LIG d   1     -16.628  64.606 118.738  0.00  0.00    -0.276 OA
ATOM     17  H   LIG d   1     -18.663  66.449 117.174  0.00  0.00     0.149 HD
ENDBRANCH   6  13
BRANCH   5  18
ATOM     18  N   LIG d   1     -16.077  68.527 117.884  0.00  0.00     0.381 N 
ATOM     19  H   LIG d   1     -16.375  67.887 118.593  0.00  0.00    -0.090 HD
ATOM     20  H   LIG d   1     -16.564  69.396 118.019  0.00  0.00    -0.090 HD
ATOM     21  H   LIG d   1     -15.094  68.675 117.952  0.00  0.00    -0.090 HD
ENDBRANCH   5  18
BRANCH   3  22
ATOM     22  C   LIG d   1     -14.871  68.457 113.250  0.00  0.00     0.382 C 
ATOM     23  O   LIG d   1     -14.309  69.566 113.423  0.00  0.00    -0.241 OA
ATOM     24  O   LIG d   1     -14.978  67.997 112.098  0.00  0.00    -0.241 OA
ENDBRANCH   3  22
TORSDOF 7
ENDMDL
MODEL 7
REMARK VINA RESULT:      -4.8     12.290     15.599
REMARK  7 active torsions:
REMARK  status: ('A' for Active; 'I' for Inactive)
REMARK    1  A    between atoms: C_2  and  C_3 
REMARK    2  A    between atoms: C_3  and  O_6 
REMARK    3  A    between atoms: C_3  and  C_4 
REMARK    4  A    between atoms: C_7  and  O_6 
REMARK    5  A    between atoms: C_9  and  C_10 
REMARK    6  A    between atoms: N_15  and  C_14 
REMARK    7  A    between atoms: N_20  and  C_19 
REMARK       I    between atoms: C_22  and  N_20 
ROOT
ATOM      1  C   LIG d   1     -16.642  64.666 116.300  0.00  0.00     0.161 C 
ATOM      2  C   LIG d   1     -16.056  65.906 116.605  0.00  0.00     0.016 C 
ATOM      3  C   LIG d   1     -15.760  66.887 115.631  0.00  0.00     0.038 C 
ATOM      4  C   LIG d   1     -16.171  66.755 114.297  0.00  0.00     0.028 C 
ATOM      5  C   LIG d   1     -16.314  65.305 113.848  0.00  0.00    -0.047 C 
ATOM      6  C   LIG d   1     -17.199  64.550 114.866  0.00  0.00     0.091 C 
ENDROOT
BRANCH   1   7
ATOM      7  O   LIG d   1     -17.671  64.362 117.263  0.00  0.00    -0.368 OA
BRANCH   7   8
ATOM      8  C   LIG d   1     -17.451  64.855 118.607  0.00  0.00     0.119 C 
BRANCH   8   9
ATOM      9  C   LIG d   1     -17.060  63.651 119.485  0.00  0.00     0.028 C 
ATOM     10  C   LIG d   1     -15.592  63.708 119.939  0.00  0.00     0.006 C 
ENDBRANCH   8   9
BRANCH   8  11
ATOM     11  C   LIG d   1     -18.746  65.399 119.219  0.00  0.00     0.028 C 
ATOM     12  C   LIG d   1     -18.847  66.930 119.136  0.00  0.00     0.006 C 
ENDBRANCH   8  11
ENDBRANCH   7   8
ENDBRANCH   1   7
BRANCH   6  13
ATOM     13  N   LIG d   1     -17.321  63.103 114.547  0.00  0.00    -0.311 N 
ATOM     14  C   LIG d   1     -18.297  62.598 113.795  0.00  0.00     0.210 C 
ATOM     15  C   LIG d   1     -18.249  61.078 113.607  0.00  0.00     0.109 C 
ATOM     16  O   LIG d   1     -19.181  63.268 113.239  0.00  0.00    -0.276 OA
ATOM     17  H   LIG d   1     -16.628  62.491 114.932  0.00  0.00     0.149 HD
ENDBRANCH   6  13
BRANCH   5  18
ATOM     18  N   LIG d   1     -16.879  65.314 112.485  0.00  0.00     0.381 N 
ATOM     19  H   LIG d   1     -17.403  64.476 112.330  0.00  0.00    -0.090 HD
ATOM     20  H   LIG d   1     -16.126  65.341 111.821  0.00  0.00    -0.090 HD
ATOM     21  H   LIG d   1     -17.467  66.109 112.365  0.00  0.00    -0.090 HD
ENDBRANCH   5  18
BRANCH   3  22
ATOM     22  C   LIG d   1     -15.009  67.999 115.982  0.00  0.00     0.382 C 
ATOM     23  O   LIG d   1     -15.192  69.091 115.391  0.00  0.00    -0.241 OA
ATOM     24  O   LIG d   1     -14.122  67.913 116.852  0.00  0.00    -0.241 OA
ENDBRANCH   3  22
TORSDOF 7
ENDMDL
MODEL 8
REMARK VINA RESULT:      -4.7      3.015      6.357
REMARK  7 active torsions:
REMARK  status: ('A' for Active; 'I' for Inactive)
REMARK    1  A    between atoms: C_2  and  C_3 
REMARK    2  A    between atoms: C_3  and  O_6 
REMARK    3  A    between atoms: C_3  and  C_4 
REMARK    4  A    between atoms: C_7  and  O_6 
REMARK    5  A    between atoms: C_9  and  C_10 
REMARK    6  A    between atoms: N_15  and  C_14 
REMARK    7  A    between atoms: N_20  and  C_19 
REMARK       I    between atoms: C_22  and  N_20 
ROOT
ATOM      1  C   LIG d   1      -3.908  77.860 116.802  0.00  0.00     0.161 C 
ATOM      2  C   LIG d   1      -3.023  78.807 117.346  0.00  0.00     0.016 C 
ATOM      3  C   LIG d   1      -1.670  78.922 116.954  0.00  0.00     0.038 C 
ATOM      4  C   LIG d   1      -1.145  78.195 115.875  0.00  0.00     0.028 C 
ATOM      5  C   LIG d   1      -1.863  76.871 115.632  0.00  0.00    -0.047 C 
ATOM      6  C   LIG d   1      -3.384  77.133 115.546  0.00  0.00     0.091 C 
ENDROOT
BRANCH   1   7
ATOM      7  O   LIG d   1      -5.179  78.481 116.527  0.00  0.00    -0.368 OA
BRANCH   7   8
ATOM      8  C   LIG d   1      -6.254  78.167 117.447  0.00  0.00     0.119 C 
BRANCH   8   9
ATOM      9  C   LIG d   1      -7.231  77.228 116.713  0.00  0.00     0.028 C 
ATOM     10  C   LIG d   1      -7.548  75.961 117.524  0.00  0.00     0.006 C 
ENDBRANCH   8   9
BRANCH   8  11
ATOM     11  C   LIG d   1      -7.073  79.414 117.793  0.00  0.00     0.028 C 
ATOM     12  C   LIG d   1      -6.238  80.703 117.761  0.00  0.00     0.006 C 
ENDBRANCH   8  11
ENDBRANCH   7   8
ENDBRANCH   1   7
BRANCH   6  13
ATOM     13  N   LIG d   1      -4.167  75.879 115.393  0.00  0.00    -0.311 N 
ATOM     14  C   LIG d   1      -5.058  75.685 114.423  0.00  0.00     0.210 C 
ATOM     15  C   LIG d   1      -5.769  74.329 114.459  0.00  0.00     0.109 C 
ATOM     16  O   LIG d   1      -5.304  76.495 113.516  0.00  0.00    -0.276 OA
ATOM     17  H   LIG d   1      -4.007  75.156 116.068  0.00  0.00     0.149 HD
ENDBRANCH   6  13
BRANCH   5  18
ATOM     18  N   LIG d   1      -1.306  76.283 114.399  0.00  0.00     0.381 N 
ATOM     19  H   LIG d   1      -1.671  75.360 114.269  0.00  0.00    -0.090 HD
ATOM     20  H   LIG d   1      -0.308  76.217 114.492  0.00  0.00    -0.090 HD
ATOM     21  H   LIG d   1      -1.538  76.852 113.615  0.00  0.00    -0.090 HD
ENDBRANCH   5  18
BRANCH   3  22
ATOM     22  C   LIG d   1      -0.815  79.746 117.670  0.00  0.00     0.382 C 
ATOM     23  O   LIG d   1      -0.991  79.914 118.901  0.00  0.00    -0.241 OA
ATOM     24  O   LIG d   1       0.104  80.358 117.093  0.00  0.00    -0.241 OA
ENDBRANCH   3  22
TORSDOF 7
ENDMDL
MODEL 9
REMARK VINA RESULT:      -4.7      2.618      5.421
REMARK  7 active torsions:
REMARK  status: ('A' for Active; 'I' for Inactive)
REMARK    1  A    between atoms: C_2  and  C_3 
REMARK    2  A    between atoms: C_3  and  O_6 
REMARK    3  A    between atoms: C_3  and  C_4 
REMARK    4  A    between atoms: C_7  and  O_6 
REMARK    5  A    between atoms: C_9  and  C_10 
REMARK    6  A    between atoms: N_15  and  C_14 
REMARK    7  A    between atoms: N_20  and  C_19 
REMARK       I    between atoms: C_22  and  N_20 
ROOT
ATOM      1  C   LIG d   1      -5.529  76.238 114.809  0.00  0.00     0.161 C 
ATOM      2  C   LIG d   1      -6.153  74.985 114.695  0.00  0.00     0.016 C 
ATOM      3  C   LIG d   1      -5.543  73.773 115.091  0.00  0.00     0.038 C 
ATOM      4  C   LIG d   1      -4.317  73.747 115.773  0.00  0.00     0.028 C 
ATOM      5  C   LIG d   1      -3.424  74.942 115.456  0.00  0.00    -0.047 C 
ATOM      6  C   LIG d   1      -4.236  76.242 115.653  0.00  0.00     0.091 C 
ENDROOT
BRANCH   1   7
ATOM      7  O   LIG d   1      -6.465  77.206 115.323  0.00  0.00    -0.368 OA
BRANCH   7   8
ATOM      8  C   LIG d   1      -6.673  77.193 116.757  0.00  0.00     0.119 C 
BRANCH   8   9
ATOM      9  C   LIG d   1      -8.152  76.838 117.006  0.00  0.00     0.028 C 
ATOM     10  C   LIG d   1      -8.340  75.373 117.436  0.00  0.00     0.006 C 
ENDBRANCH   8   9
BRANCH   8  11
ATOM     11  C   LIG d   1      -6.484  78.587 117.360  0.00  0.00     0.028 C 
ATOM     12  C   LIG d   1      -7.800  79.205 117.859  0.00  0.00     0.006 C 
ENDBRANCH   8  11
ENDBRANCH   7   8
ENDBRANCH   1   7
BRANCH   6  13
ATOM     13  N   LIG d   1      -3.462  77.456 115.283  0.00  0.00    -0.311 N 
ATOM     14  C   LIG d   1      -2.875  77.618 114.099  0.00  0.00     0.210 C 
ATOM     15  C   LIG d   1      -2.110  78.935 113.932  0.00  0.00     0.109 C 
ATOM     16  O   LIG d   1      -2.942  76.811 113.159  0.00  0.00    -0.276 OA
ATOM     17  H   LIG d   1      -3.383  78.175 115.975  0.00  0.00     0.149 HD
ENDBRANCH   6  13
BRANCH   5  18
ATOM     18  N   LIG d   1      -2.243  74.860 116.336  0.00  0.00     0.381 N 
ATOM     19  H   LIG d   1      -2.477  74.364 117.173  0.00  0.00    -0.090 HD
ATOM     20  H   LIG d   1      -1.961  75.791 116.590  0.00  0.00    -0.090 HD
ATOM     21  H   LIG d   1      -1.498  74.397 115.864  0.00  0.00    -0.090 HD
ENDBRANCH   5  18
BRANCH   3  22
ATOM     22  C   LIG d   1      -6.143  72.565 114.769  0.00  0.00     0.382 C 
ATOM     23  O   LIG d   1      -7.046  72.098 115.504  0.00  0.00    -0.241 OA
ATOM     24  O   LIG d   1      -5.762  71.914 113.778  0.00  0.00    -0.241 OA
ENDBRANCH   3  22
TORSDOF 7
ENDMDL
