MODEL 1
REMARK VINA RESULT:      -5.3      0.000      0.000
REMARK  7 active torsions:
REMARK  status: ('A' for Active; 'I' for Inactive)
REMARK    1  A    between atoms: C_2  and  C_3 
REMARK    2  A    between atoms: C_3  and  O_6 
REMARK    3  A    between atoms: C_3  and  C_4 
REMARK    4  A    between atoms: C_7  and  O_6 
REMARK    5  A    between atoms: C_9  and  C_10 
REMARK    6  A    between atoms: N_15  and  C_14 
REMARK    7  A    between atoms: N_20  and  C_19 
REMARK       I    between atoms: C_22  and  N_20 
ROOT
ATOM      1  C   LIG d   1      -4.873  75.840 117.649  0.00  0.00     0.161 C 
ATOM      2  C   LIG d   1      -6.042  76.606 117.790  0.00  0.00     0.016 C 
ATOM      3  C   LIG d   1      -6.133  77.964 117.406  0.00  0.00     0.038 C 
ATOM      4  C   LIG d   1      -5.098  78.609 116.712  0.00  0.00     0.028 C 
ATOM      5  C   LIG d   1      -3.719  78.025 116.999  0.00  0.00    -0.047 C 
ATOM      6  C   LIG d   1      -3.770  76.494 116.791  0.00  0.00     0.091 C 
ENDROOT
BRANCH   1   7
ATOM      7  O   LIG d   1      -5.204  74.536 117.130  0.00  0.00    -0.368 OA
BRANCH   7   8
ATOM      8  C   LIG d   1      -6.361  74.471 116.260  0.00  0.00     0.119 C 
BRANCH   8   9
ATOM      9  C   LIG d   1      -7.139  73.190 116.620  0.00  0.00     0.028 C 
ATOM     10  C   LIG d   1      -6.437  71.917 116.119  0.00  0.00     0.006 C 
ENDBRANCH   8   9
BRANCH   8  11
ATOM     11  C   LIG d   1      -5.948  74.297 114.796  0.00  0.00     0.028 C 
ATOM     12  C   LIG d   1      -6.174  75.565 113.958  0.00  0.00     0.006 C 
ENDBRANCH   8  11
ENDBRANCH   7   8
ENDBRANCH   1   7
BRANCH   6  13
ATOM     13  N   LIG d   1      -2.483  75.833 117.133  0.00  0.00    -0.311 N 
ATOM     14  C   LIG d   1      -1.843  75.005 116.309  0.00  0.00     0.210 C 
ATOM     15  C   LIG d   1      -0.543  74.417 116.865  0.00  0.00     0.109 C 
ATOM     16  O   LIG d   1      -2.212  74.728 115.158  0.00  0.00    -0.276 OA
ATOM     17  H   LIG d   1      -2.096  76.027 118.036  0.00  0.00     0.149 HD
ENDBRANCH   6  13
BRANCH   5  18
ATOM     18  N   LIG d   1      -2.756  78.698 116.108  0.00  0.00     0.381 N 
ATOM     19  H   LIG d   1      -2.588  79.630 116.432  0.00  0.00    -0.090 HD
ATOM     20  H   LIG d   1      -3.149  78.751 115.185  0.00  0.00    -0.090 HD
ATOM     21  H   LIG d   1      -1.900  78.188 116.084  0.00  0.00    -0.090 HD
ENDBRANCH   5  18
BRANCH   3  22
ATOM     22  C   LIG d   1      -7.253  78.703 117.754  0.00  0.00     0.382 C 
ATOM     23  O   LIG d   1      -8.240  78.135 118.281  0.00  0.00    -0.241 OA
ATOM     24  O   LIG d   1      -7.308  79.922 117.506  0.00  0.00    -0.241 OA
ENDBRANCH   3  22
TORSDOF 7
ENDMDL
MODEL 2
REMARK VINA RESULT:      -5.1      1.883      4.929
REMARK  7 active torsions:
REMARK  status: ('A' for Active; 'I' for Inactive)
REMARK    1  A    between atoms: C_2  and  C_3 
REMARK    2  A    between atoms: C_3  and  O_6 
REMARK    3  A    between atoms: C_3  and  C_4 
REMARK    4  A    between atoms: C_7  and  O_6 
REMARK    5  A    between atoms: C_9  and  C_10 
REMARK    6  A    between atoms: N_15  and  C_14 
REMARK    7  A    between atoms: N_20  and  C_19 
REMARK       I    between atoms: C_22  and  N_20 
ROOT
ATOM      1  C   LIG d   1      -4.288  75.996 116.320  0.00  0.00     0.161 C 
ATOM      2  C   LIG d   1      -3.144  75.182 116.274  0.00  0.00     0.016 C 
ATOM      3  C   LIG d   1      -2.252  75.032 117.361  0.00  0.00     0.038 C 
ATOM      4  C   LIG d   1      -2.528  75.571 118.627  0.00  0.00     0.028 C 
ATOM      5  C   LIG d   1      -3.411  76.813 118.577  0.00  0.00    -0.047 C 
ATOM      6  C   LIG d   1      -4.665  76.503 117.728  0.00  0.00     0.091 C 
ENDROOT
BRANCH   1   7
ATOM      7  O   LIG d   1      -5.402  75.305 115.721  0.00  0.00    -0.368 OA
BRANCH   7   8
ATOM      8  C   LIG d   1      -6.074  74.332 116.558  0.00  0.00     0.119 C 
BRANCH   8   9
ATOM      9  C   LIG d   1      -6.042  72.982 115.816  0.00  0.00     0.028 C 
ATOM     10  C   LIG d   1      -6.734  71.860 116.609  0.00  0.00     0.006 C 
ENDBRANCH   8   9
BRANCH   8  11
ATOM     11  C   LIG d   1      -7.559  74.669 116.723  0.00  0.00     0.028 C 
ATOM     12  C   LIG d   1      -8.039  75.744 115.735  0.00  0.00     0.006 C 
ENDBRANCH   8  11
ENDBRANCH   7   8
ENDBRANCH   1   7
BRANCH   6  13
ATOM     13  N   LIG d   1      -5.542  77.690 117.558  0.00  0.00    -0.311 N 
ATOM     14  C   LIG d   1      -6.599  77.938 118.330  0.00  0.00     0.210 C 
ATOM     15  C   LIG d   1      -7.379  79.207 117.971  0.00  0.00     0.109 C 
ATOM     16  O   LIG d   1      -6.944  77.245 119.299  0.00  0.00    -0.276 OA
ATOM     17  H   LIG d   1      -5.316  78.322 116.815  0.00  0.00     0.149 HD
ENDBRANCH   6  13
BRANCH   5  18
ATOM     18  N   LIG d   1      -3.732  77.187 119.967  0.00  0.00     0.381 N 
ATOM     19  H   LIG d   1      -3.261  78.037 120.206  0.00  0.00    -0.090 HD
ATOM     20  H   LIG d   1      -3.407  76.462 120.582  0.00  0.00    -0.090 HD
ATOM     21  H   LIG d   1      -4.716  77.304 120.070  0.00  0.00    -0.090 HD
ENDBRANCH   5  18
BRANCH   3  22
ATOM     22  C   LIG d   1      -1.048  74.369 117.176  0.00  0.00     0.382 C 
ATOM     23  O   LIG d   1      -0.010  74.784 117.745  0.00  0.00    -0.241 OA
ATOM     24  O   LIG d   1      -0.978  73.388 116.412  0.00  0.00    -0.241 OA
ENDBRANCH   3  22
TORSDOF 7
ENDMDL
MODEL 3
REMARK VINA RESULT:      -5.0      1.842      4.966
REMARK  7 active torsions:
REMARK  status: ('A' for Active; 'I' for Inactive)
REMARK    1  A    between atoms: C_2  and  C_3 
REMARK    2  A    between atoms: C_3  and  O_6 
REMARK    3  A    between atoms: C_3  and  C_4 
REMARK    4  A    between atoms: C_7  and  O_6 
REMARK    5  A    between atoms: C_9  and  C_10 
REMARK    6  A    between atoms: N_15  and  C_14 
REMARK    7  A    between atoms: N_20  and  C_19 
REMARK       I    between atoms: C_22  and  N_20 
ROOT
ATOM      1  C   LIG d   1      -3.868  75.338 116.457  0.00  0.00     0.161 C 
ATOM      2  C   LIG d   1      -2.767  74.747 115.813  0.00  0.00     0.016 C 
ATOM      3  C   LIG d   1      -1.432  75.165 116.015  0.00  0.00     0.038 C 
ATOM      4  C   LIG d   1      -1.090  76.108 116.995  0.00  0.00     0.028 C 
ATOM      5  C   LIG d   1      -2.214  77.089 117.310  0.00  0.00    -0.047 C 
ATOM      6  C   LIG d   1      -3.504  76.293 117.612  0.00  0.00     0.091 C 
ENDROOT
BRANCH   1   7
ATOM      7  O   LIG d   1      -4.771  74.314 116.918  0.00  0.00    -0.368 OA
BRANCH   7   8
ATOM      8  C   LIG d   1      -5.695  73.788 115.934  0.00  0.00     0.119 C 
BRANCH   8   9
ATOM      9  C   LIG d   1      -6.490  74.979 115.363  0.00  0.00     0.028 C 
ATOM     10  C   LIG d   1      -7.697  75.353 116.240  0.00  0.00     0.006 C 
ENDBRANCH   8   9
BRANCH   8  11
ATOM     11  C   LIG d   1      -6.741  72.876 116.583  0.00  0.00     0.028 C 
ATOM     12  C   LIG d   1      -6.670  71.429 116.068  0.00  0.00     0.006 C 
ENDBRANCH   8  11
ENDBRANCH   7   8
ENDBRANCH   1   7
BRANCH   6  13
ATOM     13  N   LIG d   1      -4.674  77.179 117.848  0.00  0.00    -0.311 N 
ATOM     14  C   LIG d   1      -5.118  78.061 116.955  0.00  0.00     0.210 C 
ATOM     15  C   LIG d   1      -6.325  78.888 117.407  0.00  0.00     0.109 C 
ATOM     16  O   LIG d   1      -4.646  78.215 115.818  0.00  0.00    -0.276 OA
ATOM     17  H   LIG d   1      -5.137  77.098 118.733  0.00  0.00     0.149 HD
ENDBRANCH   6  13
BRANCH   5  18
ATOM     18  N   LIG d   1      -1.772  77.926 118.441  0.00  0.00     0.381 N 
ATOM     19  H   LIG d   1      -2.199  78.828 118.383  0.00  0.00    -0.090 HD
ATOM     20  H   LIG d   1      -0.776  78.045 118.388  0.00  0.00    -0.090 HD
ATOM     21  H   LIG d   1      -2.016  77.490 119.303  0.00  0.00    -0.090 HD
ENDBRANCH   5  18
BRANCH   3  22
ATOM     22  C   LIG d   1      -0.425  74.665 115.202  0.00  0.00     0.382 C 
ATOM     23  O   LIG d   1       0.730  75.149 115.266  0.00  0.00    -0.241 OA
ATOM     24  O   LIG d   1      -0.669  73.766 114.375  0.00  0.00    -0.241 OA
ENDBRANCH   3  22
TORSDOF 7
ENDMDL
MODEL 4
REMARK VINA RESULT:      -4.7      2.822      5.254
REMARK  7 active torsions:
REMARK  status: ('A' for Active; 'I' for Inactive)
REMARK    1  A    between atoms: C_2  and  C_3 
REMARK    2  A    between atoms: C_3  and  O_6 
REMARK    3  A    between atoms: C_3  and  C_4 
REMARK    4  A    between atoms: C_7  and  O_6 
REMARK    5  A    between atoms: C_9  and  C_10 
REMARK    6  A    between atoms: N_15  and  C_14 
REMARK    7  A    between atoms: N_20  and  C_19 
REMARK       I    between atoms: C_22  and  N_20 
ROOT
ATOM      1  C   LIG d   1      -2.830  76.055 114.723  0.00  0.00     0.161 C 
ATOM      2  C   LIG d   1      -2.385  77.263 114.163  0.00  0.00     0.016 C 
ATOM      3  C   LIG d   1      -2.848  78.532 114.581  0.00  0.00     0.038 C 
ATOM      4  C   LIG d   1      -3.681  78.686 115.699  0.00  0.00     0.028 C 
ATOM      5  C   LIG d   1      -4.552  77.466 115.978  0.00  0.00    -0.047 C 
ATOM      6  C   LIG d   1      -3.655  76.208 116.019  0.00  0.00     0.091 C 
ENDROOT
BRANCH   1   7
ATOM      7  O   LIG d   1      -1.709  75.176 114.944  0.00  0.00    -0.368 OA
BRANCH   7   8
ATOM      8  C   LIG d   1      -0.423  75.817 115.124  0.00  0.00     0.119 C 
BRANCH   8   9
ATOM      9  C   LIG d   1       0.647  74.887 114.520  0.00  0.00     0.028 C 
ATOM     10  C   LIG d   1       0.426  74.636 113.019  0.00  0.00     0.006 C 
ENDBRANCH   8   9
BRANCH   8  11
ATOM     11  C   LIG d   1      -0.064  75.939 116.608  0.00  0.00     0.028 C 
ATOM     12  C   LIG d   1      -0.449  74.691 117.418  0.00  0.00     0.006 C 
ENDBRANCH   8  11
ENDBRANCH   7   8
ENDBRANCH   1   7
BRANCH   6  13
ATOM     13  N   LIG d   1      -4.439  74.958 116.203  0.00  0.00    -0.311 N 
ATOM     14  C   LIG d   1      -5.211  74.431 115.255  0.00  0.00     0.210 C 
ATOM     15  C   LIG d   1      -5.948  73.151 115.660  0.00  0.00     0.109 C 
ATOM     16  O   LIG d   1      -5.332  74.885 114.107  0.00  0.00    -0.276 OA
ATOM     17  H   LIG d   1      -4.375  74.507 117.095  0.00  0.00     0.149 HD
ENDBRANCH   6  13
BRANCH   5  18
ATOM     18  N   LIG d   1      -5.265  77.708 117.246  0.00  0.00     0.381 N 
ATOM     19  H   LIG d   1      -5.877  78.494 117.146  0.00  0.00    -0.090 HD
ATOM     20  H   LIG d   1      -4.593  77.921 117.962  0.00  0.00    -0.090 HD
ATOM     21  H   LIG d   1      -5.790  76.901 117.502  0.00  0.00    -0.090 HD
ENDBRANCH   5  18
BRANCH   3  22
ATOM     22  C   LIG d   1      -2.508  79.662 113.852  0.00  0.00     0.382 C 
ATOM     23  O   LIG d   1      -1.302  79.969 113.697  0.00  0.00    -0.241 OA
ATOM     24  O   LIG d   1      -3.394  80.402 113.386  0.00  0.00    -0.241 OA
ENDBRANCH   3  22
TORSDOF 7
ENDMDL
MODEL 5
REMARK VINA RESULT:      -4.7      2.840      5.387
REMARK  7 active torsions:
REMARK  status: ('A' for Active; 'I' for Inactive)
REMARK    1  A    between atoms: C_2  and  C_3 
REMARK    2  A    between atoms: C_3  and  O_6 
REMARK    3  A    between atoms: C_3  and  C_4 
REMARK    4  A    between atoms: C_7  and  O_6 
REMARK    5  A    between atoms: C_9  and  C_10 
REMARK    6  A    between atoms: N_15  and  C_14 
REMARK    7  A    between atoms: N_20  and  C_19 
REMARK       I    between atoms: C_22  and  N_20 
ROOT
ATOM      1  C   LIG d   1      -3.137  74.480 116.039  0.00  0.00     0.161 C 
ATOM      2  C   LIG d   1      -2.320  75.504 115.530  0.00  0.00     0.016 C 
ATOM      3  C   LIG d   1      -2.801  76.545 114.704  0.00  0.00     0.038 C 
ATOM      4  C   LIG d   1      -4.170  76.720 114.452  0.00  0.00     0.028 C 
ATOM      5  C   LIG d   1      -4.970  75.424 114.529  0.00  0.00    -0.047 C 
ATOM      6  C   LIG d   1      -4.652  74.716 115.866  0.00  0.00     0.091 C 
ENDROOT
BRANCH   1   7
ATOM      7  O   LIG d   1      -2.822  74.247 117.426  0.00  0.00    -0.368 OA
BRANCH   7   8
ATOM      8  C   LIG d   1      -2.156  75.331 118.119  0.00  0.00     0.119 C 
BRANCH   8   9
ATOM      9  C   LIG d   1      -1.096  74.705 119.046  0.00  0.00     0.028 C 
ATOM     10  C   LIG d   1       0.270  75.402 118.930  0.00  0.00     0.006 C 
ENDBRANCH   8   9
BRANCH   8  11
ATOM     11  C   LIG d   1      -3.120  76.073 119.049  0.00  0.00     0.028 C 
ATOM     12  C   LIG d   1      -3.658  77.374 118.433  0.00  0.00     0.006 C 
ENDBRANCH   8  11
ENDBRANCH   7   8
ENDBRANCH   1   7
BRANCH   6  13
ATOM     13  N   LIG d   1      -5.329  73.399 115.985  0.00  0.00    -0.311 N 
ATOM     14  C   LIG d   1      -6.536  73.241 116.525  0.00  0.00     0.210 C 
ATOM     15  C   LIG d   1      -7.042  71.795 116.568  0.00  0.00     0.109 C 
ATOM     16  O   LIG d   1      -7.250  74.164 116.944  0.00  0.00    -0.276 OA
ATOM     17  H   LIG d   1      -4.834  72.599 115.641  0.00  0.00     0.149 HD
ENDBRANCH   6  13
BRANCH   5  18
ATOM     18  N   LIG d   1      -6.396  75.771 114.383  0.00  0.00     0.381 N 
ATOM     19  H   LIG d   1      -6.536  76.281 113.534  0.00  0.00    -0.090 HD
ATOM     20  H   LIG d   1      -6.668  76.358 115.152  0.00  0.00    -0.090 HD
ATOM     21  H   LIG d   1      -6.950  74.943 114.376  0.00  0.00    -0.090 HD
ENDBRANCH   5  18
BRANCH   3  22
ATOM     22  C   LIG d   1      -1.904  77.404 114.087  0.00  0.00     0.382 C 
ATOM     23  O   LIG d   1      -1.845  77.455 112.835  0.00  0.00    -0.241 OA
ATOM     24  O   LIG d   1      -1.121  78.094 114.767  0.00  0.00    -0.241 OA
ENDBRANCH   3  22
TORSDOF 7
ENDMDL
MODEL 6
REMARK VINA RESULT:      -4.6      3.039      4.836
REMARK  7 active torsions:
REMARK  status: ('A' for Active; 'I' for Inactive)
REMARK    1  A    between atoms: C_2  and  C_3 
REMARK    2  A    between atoms: C_3  and  O_6 
REMARK    3  A    between atoms: C_3  and  C_4 
REMARK    4  A    between atoms: C_7  and  O_6 
REMARK    5  A    between atoms: C_9  and  C_10 
REMARK    6  A    between atoms: N_15  and  C_14 
REMARK    7  A    between atoms: N_20  and  C_19 
REMARK       I    between atoms: C_22  and  N_20 
ROOT
ATOM      1  C   LIG d   1      -3.436  76.505 117.278  0.00  0.00     0.161 C 
ATOM      2  C   LIG d   1      -4.184  75.784 116.332  0.00  0.00     0.016 C 
ATOM      3  C   LIG d   1      -4.303  76.170 114.977  0.00  0.00     0.038 C 
ATOM      4  C   LIG d   1      -3.556  77.228 114.438  0.00  0.00     0.028 C 
ATOM      5  C   LIG d   1      -3.181  78.289 115.467  0.00  0.00    -0.047 C 
ATOM      6  C   LIG d   1      -2.524  77.599 116.684  0.00  0.00     0.091 C 
ENDROOT
BRANCH   1   7
ATOM      7  O   LIG d   1      -2.666  75.595 118.088  0.00  0.00    -0.368 OA
BRANCH   7   8
ATOM      8  C   LIG d   1      -1.322  75.313 117.627  0.00  0.00     0.119 C 
BRANCH   8   9
ATOM      9  C   LIG d   1      -1.357  73.955 116.901  0.00  0.00     0.028 C 
ATOM     10  C   LIG d   1      -0.723  74.021 115.501  0.00  0.00     0.006 C 
ENDBRANCH   8   9
BRANCH   8  11
ATOM     11  C   LIG d   1      -0.358  75.120 118.802  0.00  0.00     0.028 C 
ATOM     12  C   LIG d   1       0.616  76.296 118.972  0.00  0.00     0.006 C 
ENDBRANCH   8  11
ENDBRANCH   7   8
ENDBRANCH   1   7
BRANCH   6  13
ATOM     13  N   LIG d   1      -2.203  78.557 117.774  0.00  0.00    -0.311 N 
ATOM     14  C   LIG d   1      -1.071  79.258 117.824  0.00  0.00     0.210 C 
ATOM     15  C   LIG d   1      -0.931  80.173 119.044  0.00  0.00     0.109 C 
ATOM     16  O   LIG d   1      -0.185  79.233 116.957  0.00  0.00    -0.276 OA
ATOM     17  H   LIG d   1      -2.881  78.663 118.503  0.00  0.00     0.149 HD
ENDBRANCH   6  13
BRANCH   5  18
ATOM     18  N   LIG d   1      -2.289  79.259 114.802  0.00  0.00     0.381 N 
ATOM     19  H   LIG d   1      -1.502  78.782 114.410  0.00  0.00    -0.090 HD
ATOM     20  H   LIG d   1      -1.953  79.913 115.486  0.00  0.00    -0.090 HD
ATOM     21  H   LIG d   1      -2.785  79.742 114.086  0.00  0.00    -0.090 HD
ENDBRANCH   5  18
BRANCH   3  22
ATOM     22  C   LIG d   1      -5.210  75.519 114.154  0.00  0.00     0.382 C 
ATOM     23  O   LIG d   1      -5.958  76.183 113.397  0.00  0.00    -0.241 OA
ATOM     24  O   LIG d   1      -5.320  74.279 114.193  0.00  0.00    -0.241 OA
ENDBRANCH   3  22
TORSDOF 7
ENDMDL
MODEL 7
REMARK VINA RESULT:      -4.5     11.882     13.711
REMARK  7 active torsions:
REMARK  status: ('A' for Active; 'I' for Inactive)
REMARK    1  A    between atoms: C_2  and  C_3 
REMARK    2  A    between atoms: C_3  and  O_6 
REMARK    3  A    between atoms: C_3  and  C_4 
REMARK    4  A    between atoms: C_7  and  O_6 
REMARK    5  A    between atoms: C_9  and  C_10 
REMARK    6  A    between atoms: N_15  and  C_14 
REMARK    7  A    between atoms: N_20  and  C_19 
REMARK       I    between atoms: C_22  and  N_20 
ROOT
ATOM      1  C   LIG d   1       3.554  85.666 115.051  0.00  0.00     0.161 C 
ATOM      2  C   LIG d   1       3.240  86.736 114.197  0.00  0.00     0.016 C 
ATOM      3  C   LIG d   1       4.112  87.822 113.956  0.00  0.00     0.038 C 
ATOM      4  C   LIG d   1       5.429  87.836 114.440  0.00  0.00     0.028 C 
ATOM      5  C   LIG d   1       5.615  87.023 115.716  0.00  0.00    -0.047 C 
ATOM      6  C   LIG d   1       5.029  85.609 115.500  0.00  0.00     0.091 C 
ENDROOT
BRANCH   1   7
ATOM      7  O   LIG d   1       3.169  84.420 114.437  0.00  0.00    -0.368 OA
BRANCH   7   8
ATOM      8  C   LIG d   1       2.443  84.524 113.187  0.00  0.00     0.119 C 
BRANCH   8   9
ATOM      9  C   LIG d   1       1.044  83.917 113.412  0.00  0.00     0.028 C 
ATOM     10  C   LIG d   1      -0.085  84.879 113.007  0.00  0.00     0.006 C 
ENDBRANCH   8   9
BRANCH   8  11
ATOM     11  C   LIG d   1       3.087  83.664 112.095  0.00  0.00     0.028 C 
ATOM     12  C   LIG d   1       4.553  83.317 112.398  0.00  0.00     0.006 C 
ENDBRANCH   8  11
ENDBRANCH   7   8
ENDBRANCH   1   7
BRANCH   6  13
ATOM     13  N   LIG d   1       5.094  84.774 116.728  0.00  0.00    -0.311 N 
ATOM     14  C   LIG d   1       6.113  83.966 117.013  0.00  0.00     0.210 C 
ATOM     15  C   LIG d   1       5.970  83.180 118.320  0.00  0.00     0.109 C 
ATOM     16  O   LIG d   1       7.137  83.849 116.323  0.00  0.00    -0.276 OA
ATOM     17  H   LIG d   1       4.319  84.831 117.360  0.00  0.00     0.149 HD
ENDBRANCH   6  13
BRANCH   5  18
ATOM     18  N   LIG d   1       7.055  87.010 116.032  0.00  0.00     0.381 N 
ATOM     19  H   LIG d   1       7.378  87.946 116.180  0.00  0.00    -0.090 HD
ATOM     20  H   LIG d   1       7.556  86.625 115.250  0.00  0.00    -0.090 HD
ATOM     21  H   LIG d   1       7.222  86.461 116.846  0.00  0.00    -0.090 HD
ENDBRANCH   5  18
BRANCH   3  22
ATOM     22  C   LIG d   1       3.656  88.928 113.257  0.00  0.00     0.382 C 
ATOM     23  O   LIG d   1       4.361  89.964 113.191  0.00  0.00    -0.241 OA
ATOM     24  O   LIG d   1       2.528  88.920 112.728  0.00  0.00    -0.241 OA
ENDBRANCH   3  22
TORSDOF 7
ENDMDL
MODEL 8
REMARK VINA RESULT:      -4.4     11.142     12.919
REMARK  7 active torsions:
REMARK  status: ('A' for Active; 'I' for Inactive)
REMARK    1  A    between atoms: C_2  and  C_3 
REMARK    2  A    between atoms: C_3  and  O_6 
REMARK    3  A    between atoms: C_3  and  C_4 
REMARK    4  A    between atoms: C_7  and  O_6 
REMARK    5  A    between atoms: C_9  and  C_10 
REMARK    6  A    between atoms: N_15  and  C_14 
REMARK    7  A    between atoms: N_20  and  C_19 
REMARK       I    between atoms: C_22  and  N_20 
ROOT
ATOM      1  C   LIG d   1       3.101  85.198 114.132  0.00  0.00     0.161 C 
ATOM      2  C   LIG d   1       2.966  86.415 113.444  0.00  0.00     0.016 C 
ATOM      3  C   LIG d   1       3.739  87.563 113.735  0.00  0.00     0.038 C 
ATOM      4  C   LIG d   1       4.811  87.525 114.638  0.00  0.00     0.028 C 
ATOM      5  C   LIG d   1       4.656  86.460 115.718  0.00  0.00    -0.047 C 
ATOM      6  C   LIG d   1       4.341  85.105 115.045  0.00  0.00     0.091 C 
ENDROOT
BRANCH   1   7
ATOM      7  O   LIG d   1       3.085  84.103 113.194  0.00  0.00    -0.368 OA
BRANCH   7   8
ATOM      8  C   LIG d   1       1.978  83.177 113.314  0.00  0.00     0.119 C 
BRANCH   8   9
ATOM      9  C   LIG d   1       2.518  81.766 113.011  0.00  0.00     0.028 C 
ATOM     10  C   LIG d   1       4.035  81.658 113.240  0.00  0.00     0.006 C 
ENDBRANCH   8   9
BRANCH   8  11
ATOM     11  C   LIG d   1       0.912  83.441 112.246  0.00  0.00     0.028 C 
ATOM     12  C   LIG d   1      -0.342  84.126 112.813  0.00  0.00     0.006 C 
ENDBRANCH   8  11
ENDBRANCH   7   8
ENDBRANCH   1   7
BRANCH   6  13
ATOM     13  N   LIG d   1       4.091  84.025 116.034  0.00  0.00    -0.311 N 
ATOM     14  C   LIG d   1       5.045  83.220 116.498  0.00  0.00     0.210 C 
ATOM     15  C   LIG d   1       4.569  82.160 117.497  0.00  0.00     0.109 C 
ATOM     16  O   LIG d   1       6.247  83.304 116.202  0.00  0.00    -0.276 OA
ATOM     17  H   LIG d   1       3.149  83.907 116.352  0.00  0.00     0.149 HD
ENDBRANCH   6  13
BRANCH   5  18
ATOM     18  N   LIG d   1       5.903  86.438 116.506  0.00  0.00     0.381 N 
ATOM     19  H   LIG d   1       6.634  86.015 115.971  0.00  0.00    -0.090 HD
ATOM     20  H   LIG d   1       5.756  85.886 117.332  0.00  0.00    -0.090 HD
ATOM     21  H   LIG d   1       6.162  87.366 116.760  0.00  0.00    -0.090 HD
ENDBRANCH   5  18
BRANCH   3  22
ATOM     22  C   LIG d   1       3.416  88.776 113.147  0.00  0.00     0.382 C 
ATOM     23  O   LIG d   1       2.319  88.913 112.552  0.00  0.00    -0.241 OA
ATOM     24  O   LIG d   1       4.225  89.723 113.165  0.00  0.00    -0.241 OA
ENDBRANCH   3  22
TORSDOF 7
ENDMDL
MODEL 9
REMARK VINA RESULT:      -4.3     14.436     16.507
REMARK  7 active torsions:
REMARK  status: ('A' for Active; 'I' for Inactive)
REMARK    1  A    between atoms: C_2  and  C_3 
REMARK    2  A    between atoms: C_3  and  O_6 
REMARK    3  A    between atoms: C_3  and  C_4 
REMARK    4  A    between atoms: C_7  and  O_6 
REMARK    5  A    between atoms: C_9  and  C_10 
REMARK    6  A    between atoms: N_15  and  C_14 
REMARK    7  A    between atoms: N_20  and  C_19 
REMARK       I    between atoms: C_22  and  N_20 
ROOT
ATOM      1  C   LIG d   1     -16.189  64.281 116.563  0.00  0.00     0.161 C 
ATOM      2  C   LIG d   1     -16.354  65.676 116.591  0.00  0.00     0.016 C 
ATOM      3  C   LIG d   1     -15.859  66.497 117.630  0.00  0.00     0.038 C 
ATOM      4  C   LIG d   1     -15.030  65.993 118.642  0.00  0.00     0.028 C 
ATOM      5  C   LIG d   1     -15.256  64.513 118.931  0.00  0.00    -0.047 C 
ATOM      6  C   LIG d   1     -15.191  63.727 117.602  0.00  0.00     0.091 C 
ENDROOT
BRANCH   1   7
ATOM      7  O   LIG d   1     -15.817  63.859 115.236  0.00  0.00    -0.368 OA
BRANCH   7   8
ATOM      8  C   LIG d   1     -16.612  62.795 114.659  0.00  0.00     0.119 C 
BRANCH   8   9
ATOM      9  C   LIG d   1     -16.739  63.078 113.149  0.00  0.00     0.028 C 
ATOM     10  C   LIG d   1     -16.776  64.583 112.836  0.00  0.00     0.006 C 
ENDBRANCH   8   9
BRANCH   8  11
ATOM     11  C   LIG d   1     -18.046  62.817 115.197  0.00  0.00     0.028 C 
ATOM     12  C   LIG d   1     -18.475  61.472 115.806  0.00  0.00     0.006 C 
ENDBRANCH   8  11
ENDBRANCH   7   8
ENDBRANCH   1   7
BRANCH   6  13
ATOM     13  N   LIG d   1     -15.486  62.282 117.783  0.00  0.00    -0.311 N 
ATOM     14  C   LIG d   1     -14.648  61.312 117.422  0.00  0.00     0.210 C 
ATOM     15  C   LIG d   1     -15.156  59.889 117.679  0.00  0.00     0.109 C 
ATOM     16  O   LIG d   1     -13.518  61.494 116.944  0.00  0.00    -0.276 OA
ATOM     17  H   LIG d   1     -16.368  62.044 118.193  0.00  0.00     0.149 HD
ENDBRANCH   6  13
BRANCH   5  18
ATOM     18  N   LIG d   1     -14.234  64.088 119.906  0.00  0.00     0.381 N 
ATOM     19  H   LIG d   1     -14.651  63.981 120.809  0.00  0.00    -0.090 HD
ATOM     20  H   LIG d   1     -13.527  64.799 119.967  0.00  0.00    -0.090 HD
ATOM     21  H   LIG d   1     -13.826  63.226 119.617  0.00  0.00    -0.090 HD
ENDBRANCH   5  18
BRANCH   3  22
ATOM     22  C   LIG d   1     -16.228  67.833 117.684  0.00  0.00     0.382 C 
ATOM     23  O   LIG d   1     -16.273  68.514 116.631  0.00  0.00    -0.241 OA
ATOM     24  O   LIG d   1     -16.473  68.377 118.777  0.00  0.00    -0.241 OA
ENDBRANCH   3  22
TORSDOF 7
ENDMDL
