MODEL 1
REMARK VINA RESULT:      -5.3      0.000      0.000
REMARK  7 active torsions:
REMARK  status: ('A' for Active; 'I' for Inactive)
REMARK    1  A    between atoms: C_2  and  C_3 
REMARK    2  A    between atoms: C_3  and  O_6 
REMARK    3  A    between atoms: C_3  and  C_4 
REMARK    4  A    between atoms: C_7  and  O_6 
REMARK    5  A    between atoms: C_9  and  C_10 
REMARK    6  A    between atoms: N_15  and  C_14 
REMARK    7  A    between atoms: N_20  and  C_19 
REMARK       I    between atoms: C_22  and  N_20 
ROOT
ATOM      1  C   LIG d   1      -4.585  92.585 117.663  0.00  0.00     0.161 C 
ATOM      2  C   LIG d   1      -5.924  93.007 117.620  0.00  0.00     0.016 C 
ATOM      3  C   LIG d   1      -6.914  92.374 116.834  0.00  0.00     0.038 C 
ATOM      4  C   LIG d   1      -6.664  91.176 116.150  0.00  0.00     0.028 C 
ATOM      5  C   LIG d   1      -5.201  90.995 115.760  0.00  0.00    -0.047 C 
ATOM      6  C   LIG d   1      -4.318  91.213 117.010  0.00  0.00     0.091 C 
ENDROOT
BRANCH   1   7
ATOM      7  O   LIG d   1      -4.114  92.592 119.025  0.00  0.00    -0.368 OA
BRANCH   7   8
ATOM      8  C   LIG d   1      -3.137  93.609 119.357  0.00  0.00     0.119 C 
BRANCH   8   9
ATOM      9  C   LIG d   1      -3.864  94.704 120.161  0.00  0.00     0.028 C 
ATOM     10  C   LIG d   1      -4.078  95.989 119.343  0.00  0.00     0.006 C 
ENDBRANCH   8   9
BRANCH   8  11
ATOM     11  C   LIG d   1      -2.613  94.310 118.100  0.00  0.00     0.028 C 
ATOM     12  C   LIG d   1      -1.103  94.111 117.892  0.00  0.00     0.006 C 
ENDBRANCH   8  11
ENDBRANCH   7   8
ENDBRANCH   1   7
BRANCH   6  13
ATOM     13  N   LIG d   1      -2.866  91.137 116.699  0.00  0.00    -0.311 N 
ATOM     14  C   LIG d   1      -1.996  90.438 117.425  0.00  0.00     0.210 C 
ATOM     15  C   LIG d   1      -0.544  90.511 116.942  0.00  0.00     0.109 C 
ATOM     16  O   LIG d   1      -2.294  89.738 118.405  0.00  0.00    -0.276 OA
ATOM     17  H   LIG d   1      -2.543  91.650 115.902  0.00  0.00     0.149 HD
ENDBRANCH   6  13
BRANCH   5  18
ATOM     18  N   LIG d   1      -5.057  89.647 115.178  0.00  0.00     0.381 N 
ATOM     19  H   LIG d   1      -4.343  89.655 114.478  0.00  0.00    -0.090 HD
ATOM     20  H   LIG d   1      -5.924  89.387 114.742  0.00  0.00    -0.090 HD
ATOM     21  H   LIG d   1      -4.826  88.991 115.891  0.00  0.00    -0.090 HD
ENDBRANCH   5  18
BRANCH   3  22
ATOM     22  C   LIG d   1      -8.162  92.964 116.695  0.00  0.00     0.382 C 
ATOM     23  O   LIG d   1      -8.569  93.779 117.558  0.00  0.00    -0.241 OA
ATOM     24  O   LIG d   1      -8.903  92.657 115.742  0.00  0.00    -0.241 OA
ENDBRANCH   3  22
TORSDOF 7
ENDMDL
MODEL 2
REMARK VINA RESULT:      -5.3      2.530      4.302
REMARK  7 active torsions:
REMARK  status: ('A' for Active; 'I' for Inactive)
REMARK    1  A    between atoms: C_2  and  C_3 
REMARK    2  A    between atoms: C_3  and  O_6 
REMARK    3  A    between atoms: C_3  and  C_4 
REMARK    4  A    between atoms: C_7  and  O_6 
REMARK    5  A    between atoms: C_9  and  C_10 
REMARK    6  A    between atoms: N_15  and  C_14 
REMARK    7  A    between atoms: N_20  and  C_19 
REMARK       I    between atoms: C_22  and  N_20 
ROOT
ATOM      1  C   LIG d   1      -4.714  92.769 117.604  0.00  0.00     0.161 C 
ATOM      2  C   LIG d   1      -4.691  91.625 116.789  0.00  0.00     0.016 C 
ATOM      3  C   LIG d   1      -5.822  91.143 116.091  0.00  0.00     0.038 C 
ATOM      4  C   LIG d   1      -7.024  91.865 116.040  0.00  0.00     0.028 C 
ATOM      5  C   LIG d   1      -7.246  92.760 117.254  0.00  0.00    -0.047 C 
ATOM      6  C   LIG d   1      -5.987  93.631 117.472  0.00  0.00     0.091 C 
ENDROOT
BRANCH   1   7
ATOM      7  O   LIG d   1      -3.540  93.568 117.358  0.00  0.00    -0.368 OA
BRANCH   7   8
ATOM      8  C   LIG d   1      -2.433  93.373 118.272  0.00  0.00     0.119 C 
BRANCH   8   9
ATOM      9  C   LIG d   1      -2.600  94.384 119.423  0.00  0.00     0.028 C 
ATOM     10  C   LIG d   1      -2.764  95.827 118.917  0.00  0.00     0.006 C 
ENDBRANCH   8   9
BRANCH   8  11
ATOM     11  C   LIG d   1      -1.097  93.726 117.612  0.00  0.00     0.028 C 
ATOM     12  C   LIG d   1       0.108  93.457 118.527  0.00  0.00     0.006 C 
ENDBRANCH   8  11
ENDBRANCH   7   8
ENDBRANCH   1   7
BRANCH   6  13
ATOM     13  N   LIG d   1      -6.087  94.476 118.690  0.00  0.00    -0.311 N 
ATOM     14  C   LIG d   1      -6.596  95.707 118.689  0.00  0.00     0.210 C 
ATOM     15  C   LIG d   1      -6.586  96.412 120.049  0.00  0.00     0.109 C 
ATOM     16  O   LIG d   1      -7.085  96.269 117.698  0.00  0.00    -0.276 OA
ATOM     17  H   LIG d   1      -5.742  94.086 119.545  0.00  0.00     0.149 HD
ENDBRANCH   6  13
BRANCH   5  18
ATOM     18  N   LIG d   1      -8.463  93.554 117.006  0.00  0.00     0.381 N 
ATOM     19  H   LIG d   1      -8.580  93.698 116.023  0.00  0.00    -0.090 HD
ATOM     20  H   LIG d   1      -8.361  94.452 117.446  0.00  0.00    -0.090 HD
ATOM     21  H   LIG d   1      -9.259  93.084 117.378  0.00  0.00    -0.090 HD
ENDBRANCH   5  18
BRANCH   3  22
ATOM     22  C   LIG d   1      -5.769  89.907 115.466  0.00  0.00     0.382 C 
ATOM     23  O   LIG d   1      -6.635  89.597 114.613  0.00  0.00    -0.241 OA
ATOM     24  O   LIG d   1      -4.892  89.079 115.777  0.00  0.00    -0.241 OA
ENDBRANCH   3  22
TORSDOF 7
ENDMDL
MODEL 3
REMARK VINA RESULT:      -5.2      2.614      4.768
REMARK  7 active torsions:
REMARK  status: ('A' for Active; 'I' for Inactive)
REMARK    1  A    between atoms: C_2  and  C_3 
REMARK    2  A    between atoms: C_3  and  O_6 
REMARK    3  A    between atoms: C_3  and  C_4 
REMARK    4  A    between atoms: C_7  and  O_6 
REMARK    5  A    between atoms: C_9  and  C_10 
REMARK    6  A    between atoms: N_15  and  C_14 
REMARK    7  A    between atoms: N_20  and  C_19 
REMARK       I    between atoms: C_22  and  N_20 
ROOT
ATOM      1  C   LIG d   1      -6.097  91.767 118.386  0.00  0.00     0.161 C 
ATOM      2  C   LIG d   1      -5.502  90.840 117.514  0.00  0.00     0.016 C 
ATOM      3  C   LIG d   1      -5.932  90.636 116.183  0.00  0.00     0.038 C 
ATOM      4  C   LIG d   1      -6.896  91.459 115.581  0.00  0.00     0.028 C 
ATOM      5  C   LIG d   1      -7.875  92.072 116.577  0.00  0.00    -0.047 C 
ATOM      6  C   LIG d   1      -7.076  92.751 117.713  0.00  0.00     0.091 C 
ENDROOT
BRANCH   1   7
ATOM      7  O   LIG d   1      -5.076  92.488 119.103  0.00  0.00    -0.368 OA
BRANCH   7   8
ATOM      8  C   LIG d   1      -4.286  93.419 118.323  0.00  0.00     0.119 C 
BRANCH   8   9
ATOM      9  C   LIG d   1      -2.803  93.053 118.528  0.00  0.00     0.028 C 
ATOM     10  C   LIG d   1      -1.857  93.966 117.729  0.00  0.00     0.006 C 
ENDBRANCH   8   9
BRANCH   8  11
ATOM     11  C   LIG d   1      -4.427  94.849 118.853  0.00  0.00     0.028 C 
ATOM     12  C   LIG d   1      -4.933  94.901 120.303  0.00  0.00     0.006 C 
ENDBRANCH   8  11
ENDBRANCH   7   8
ENDBRANCH   1   7
BRANCH   6  13
ATOM     13  N   LIG d   1      -7.958  93.304 118.774  0.00  0.00    -0.311 N 
ATOM     14  C   LIG d   1      -8.314  94.586 118.837  0.00  0.00     0.210 C 
ATOM     15  C   LIG d   1      -9.213  94.950 120.022  0.00  0.00     0.109 C 
ATOM     16  O   LIG d   1      -7.997  95.450 118.005  0.00  0.00    -0.276 OA
ATOM     17  H   LIG d   1      -8.287  92.666 119.472  0.00  0.00     0.149 HD
ENDBRANCH   6  13
BRANCH   5  18
ATOM     18  N   LIG d   1      -8.735  93.012 115.834  0.00  0.00     0.381 N 
ATOM     19  H   LIG d   1      -8.328  93.211 114.942  0.00  0.00    -0.090 HD
ATOM     20  H   LIG d   1      -8.799  93.872 116.350  0.00  0.00    -0.090 HD
ATOM     21  H   LIG d   1      -9.643  92.621 115.712  0.00  0.00    -0.090 HD
ENDBRANCH   5  18
BRANCH   3  22
ATOM     22  C   LIG d   1      -5.424  89.573 115.452  0.00  0.00     0.382 C 
ATOM     23  O   LIG d   1      -4.469  88.899 115.906  0.00  0.00    -0.241 OA
ATOM     24  O   LIG d   1      -5.879  89.308 114.323  0.00  0.00    -0.241 OA
ENDBRANCH   3  22
TORSDOF 7
ENDMDL
MODEL 4
REMARK VINA RESULT:      -5.2      2.246      3.502
REMARK  7 active torsions:
REMARK  status: ('A' for Active; 'I' for Inactive)
REMARK    1  A    between atoms: C_2  and  C_3 
REMARK    2  A    between atoms: C_3  and  O_6 
REMARK    3  A    between atoms: C_3  and  C_4 
REMARK    4  A    between atoms: C_7  and  O_6 
REMARK    5  A    between atoms: C_9  and  C_10 
REMARK    6  A    between atoms: N_15  and  C_14 
REMARK    7  A    between atoms: N_20  and  C_19 
REMARK       I    between atoms: C_22  and  N_20 
ROOT
ATOM      1  C   LIG d   1      -5.471  93.016 117.924  0.00  0.00     0.161 C 
ATOM      2  C   LIG d   1      -6.010  94.168 118.520  0.00  0.00     0.016 C 
ATOM      3  C   LIG d   1      -7.298  94.669 118.220  0.00  0.00     0.038 C 
ATOM      4  C   LIG d   1      -8.199  93.962 117.410  0.00  0.00     0.028 C 
ATOM      5  C   LIG d   1      -7.516  93.057 116.391  0.00  0.00    -0.047 C 
ATOM      6  C   LIG d   1      -6.482  92.169 117.122  0.00  0.00     0.091 C 
ENDROOT
BRANCH   1   7
ATOM      7  O   LIG d   1      -4.823  92.206 118.924  0.00  0.00    -0.368 OA
BRANCH   7   8
ATOM      8  C   LIG d   1      -3.395  92.404 119.077  0.00  0.00     0.119 C 
BRANCH   8   9
ATOM      9  C   LIG d   1      -2.831  92.786 117.695  0.00  0.00     0.028 C 
ATOM     10  C   LIG d   1      -1.794  93.919 117.778  0.00  0.00     0.006 C 
ENDBRANCH   8   9
BRANCH   8  11
ATOM     11  C   LIG d   1      -2.689  91.099 119.457  0.00  0.00     0.028 C 
ATOM     12  C   LIG d   1      -3.249  89.879 118.708  0.00  0.00     0.006 C 
ENDBRANCH   8  11
ENDBRANCH   7   8
ENDBRANCH   1   7
BRANCH   6  13
ATOM     13  N   LIG d   1      -5.709  91.313 116.186  0.00  0.00    -0.311 N 
ATOM     14  C   LIG d   1      -6.026  90.047 115.918  0.00  0.00     0.210 C 
ATOM     15  C   LIG d   1      -5.084  89.337 114.940  0.00  0.00     0.109 C 
ATOM     16  O   LIG d   1      -7.016  89.455 116.373  0.00  0.00    -0.276 OA
ATOM     17  H   LIG d   1      -4.907  91.723 115.748  0.00  0.00     0.149 HD
ENDBRANCH   6  13
BRANCH   5  18
ATOM     18  N   LIG d   1      -8.568  92.279 115.710  0.00  0.00     0.381 N 
ATOM     19  H   LIG d   1      -8.729  91.423 116.203  0.00  0.00    -0.090 HD
ATOM     20  H   LIG d   1      -8.256  92.054 114.782  0.00  0.00    -0.090 HD
ATOM     21  H   LIG d   1      -9.410  92.809 115.666  0.00  0.00    -0.090 HD
ENDBRANCH   5  18
BRANCH   3  22
ATOM     22  C   LIG d   1      -7.681  95.912 118.702  0.00  0.00     0.382 C 
ATOM     23  O   LIG d   1      -7.951  96.056 119.919  0.00  0.00    -0.241 OA
ATOM     24  O   LIG d   1      -7.802  96.880 117.928  0.00  0.00    -0.241 OA
ENDBRANCH   3  22
TORSDOF 7
ENDMDL
MODEL 5
REMARK VINA RESULT:      -5.2      2.477      4.060
REMARK  7 active torsions:
REMARK  status: ('A' for Active; 'I' for Inactive)
REMARK    1  A    between atoms: C_2  and  C_3 
REMARK    2  A    between atoms: C_3  and  O_6 
REMARK    3  A    between atoms: C_3  and  C_4 
REMARK    4  A    between atoms: C_7  and  O_6 
REMARK    5  A    between atoms: C_9  and  C_10 
REMARK    6  A    between atoms: N_15  and  C_14 
REMARK    7  A    between atoms: N_20  and  C_19 
REMARK       I    between atoms: C_22  and  N_20 
ROOT
ATOM      1  C   LIG d   1      -6.208  93.539 118.025  0.00  0.00     0.161 C 
ATOM      2  C   LIG d   1      -6.945  92.463 117.504  0.00  0.00     0.016 C 
ATOM      3  C   LIG d   1      -6.350  91.320 116.924  0.00  0.00     0.038 C 
ATOM      4  C   LIG d   1      -4.964  91.106 116.962  0.00  0.00     0.028 C 
ATOM      5  C   LIG d   1      -4.153  92.396 117.025  0.00  0.00    -0.047 C 
ATOM      6  C   LIG d   1      -4.695  93.274 118.176  0.00  0.00     0.091 C 
ENDROOT
BRANCH   1   7
ATOM      7  O   LIG d   1      -6.772  93.954 119.285  0.00  0.00    -0.368 OA
BRANCH   7   8
ATOM      8  C   LIG d   1      -7.165  95.345 119.380  0.00  0.00     0.119 C 
BRANCH   8   9
ATOM      9  C   LIG d   1      -8.526  95.393 120.101  0.00  0.00     0.028 C 
ATOM     10  C   LIG d   1      -9.366  94.129 119.854  0.00  0.00     0.006 C 
ENDBRANCH   8   9
BRANCH   8  11
ATOM     11  C   LIG d   1      -7.418  95.949 117.996  0.00  0.00     0.028 C 
ATOM     12  C   LIG d   1      -7.153  97.462 117.948  0.00  0.00     0.006 C 
ENDBRANCH   8  11
ENDBRANCH   7   8
ENDBRANCH   1   7
BRANCH   6  13
ATOM     13  N   LIG d   1      -4.013  94.592 118.254  0.00  0.00    -0.311 N 
ATOM     14  C   LIG d   1      -2.999  94.844 119.080  0.00  0.00     0.210 C 
ATOM     15  C   LIG d   1      -2.453  96.274 119.014  0.00  0.00     0.109 C 
ATOM     16  O   LIG d   1      -2.479  94.011 119.837  0.00  0.00    -0.276 OA
ATOM     17  H   LIG d   1      -4.351  95.316 117.651  0.00  0.00     0.149 HD
ENDBRANCH   6  13
BRANCH   5  18
ATOM     18  N   LIG d   1      -2.736  92.024 117.200  0.00  0.00     0.381 N 
ATOM     19  H   LIG d   1      -2.594  91.652 118.118  0.00  0.00    -0.090 HD
ATOM     20  H   LIG d   1      -2.170  92.848 117.102  0.00  0.00    -0.090 HD
ATOM     21  H   LIG d   1      -2.474  91.349 116.516  0.00  0.00    -0.090 HD
ENDBRANCH   5  18
BRANCH   3  22
ATOM     22  C   LIG d   1      -7.141  90.394 116.261  0.00  0.00     0.382 C 
ATOM     23  O   LIG d   1      -6.761  89.203 116.160  0.00  0.00    -0.241 OA
ATOM     24  O   LIG d   1      -8.209  90.745 115.725  0.00  0.00    -0.241 OA
ENDBRANCH   3  22
TORSDOF 7
ENDMDL
MODEL 6
REMARK VINA RESULT:      -5.0      2.139      4.066
REMARK  7 active torsions:
REMARK  status: ('A' for Active; 'I' for Inactive)
REMARK    1  A    between atoms: C_2  and  C_3 
REMARK    2  A    between atoms: C_3  and  O_6 
REMARK    3  A    between atoms: C_3  and  C_4 
REMARK    4  A    between atoms: C_7  and  O_6 
REMARK    5  A    between atoms: C_9  and  C_10 
REMARK    6  A    between atoms: N_15  and  C_14 
REMARK    7  A    between atoms: N_20  and  C_19 
REMARK       I    between atoms: C_22  and  N_20 
ROOT
ATOM      1  C   LIG d   1      -4.403  91.218 117.538  0.00  0.00     0.161 C 
ATOM      2  C   LIG d   1      -5.387  90.461 116.880  0.00  0.00     0.016 C 
ATOM      3  C   LIG d   1      -6.616  91.002 116.436  0.00  0.00     0.038 C 
ATOM      4  C   LIG d   1      -6.882  92.378 116.487  0.00  0.00     0.028 C 
ATOM      5  C   LIG d   1      -6.130  93.100 117.600  0.00  0.00    -0.047 C 
ATOM      6  C   LIG d   1      -4.629  92.744 117.503  0.00  0.00     0.091 C 
ENDROOT
BRANCH   1   7
ATOM      7  O   LIG d   1      -3.102  90.892 117.010  0.00  0.00    -0.368 OA
BRANCH   7   8
ATOM      8  C   LIG d   1      -2.209  90.184 117.906  0.00  0.00     0.119 C 
BRANCH   8   9
ATOM      9  C   LIG d   1      -0.772  90.632 117.577  0.00  0.00     0.028 C 
ATOM     10  C   LIG d   1      -0.027  91.166 118.812  0.00  0.00     0.006 C 
ENDBRANCH   8   9
BRANCH   8  11
ATOM     11  C   LIG d   1      -2.235  88.676 117.641  0.00  0.00     0.028 C 
ATOM     12  C   LIG d   1      -2.161  87.843 118.931  0.00  0.00     0.006 C 
ENDBRANCH   8  11
ENDBRANCH   7   8
ENDBRANCH   1   7
BRANCH   6  13
ATOM     13  N   LIG d   1      -3.832  93.341 118.606  0.00  0.00    -0.311 N 
ATOM     14  C   LIG d   1      -2.633  93.893 118.429  0.00  0.00     0.210 C 
ATOM     15  C   LIG d   1      -1.974  94.433 119.703  0.00  0.00     0.109 C 
ATOM     16  O   LIG d   1      -2.065  94.015 117.333  0.00  0.00    -0.276 OA
ATOM     17  H   LIG d   1      -4.231  93.313 119.524  0.00  0.00     0.149 HD
ENDBRANCH   6  13
BRANCH   5  18
ATOM     18  N   LIG d   1      -6.392  94.544 117.451  0.00  0.00     0.381 N 
ATOM     19  H   LIG d   1      -5.779  95.063 118.048  0.00  0.00    -0.090 HD
ATOM     20  H   LIG d   1      -7.338  94.733 117.731  0.00  0.00    -0.090 HD
ATOM     21  H   LIG d   1      -6.257  94.819 116.503  0.00  0.00    -0.090 HD
ENDBRANCH   5  18
BRANCH   3  22
ATOM     22  C   LIG d   1      -7.610  90.155 115.971  0.00  0.00     0.382 C 
ATOM     23  O   LIG d   1      -7.667  88.970 116.380  0.00  0.00    -0.241 OA
ATOM     24  O   LIG d   1      -8.425  90.548 115.115  0.00  0.00    -0.241 OA
ENDBRANCH   3  22
TORSDOF 7
ENDMDL
MODEL 7
REMARK VINA RESULT:      -4.9      1.964      2.988
REMARK  7 active torsions:
REMARK  status: ('A' for Active; 'I' for Inactive)
REMARK    1  A    between atoms: C_2  and  C_3 
REMARK    2  A    between atoms: C_3  and  O_6 
REMARK    3  A    between atoms: C_3  and  C_4 
REMARK    4  A    between atoms: C_7  and  O_6 
REMARK    5  A    between atoms: C_9  and  C_10 
REMARK    6  A    between atoms: N_15  and  C_14 
REMARK    7  A    between atoms: N_20  and  C_19 
REMARK       I    between atoms: C_22  and  N_20 
ROOT
ATOM      1  C   LIG d   1      -5.316  93.537 117.338  0.00  0.00     0.161 C 
ATOM      2  C   LIG d   1      -6.602  93.191 116.890  0.00  0.00     0.016 C 
ATOM      3  C   LIG d   1      -6.915  91.936 116.318  0.00  0.00     0.038 C 
ATOM      4  C   LIG d   1      -5.990  90.881 116.294  0.00  0.00     0.028 C 
ATOM      5  C   LIG d   1      -4.539  91.348 116.274  0.00  0.00    -0.047 C 
ATOM      6  C   LIG d   1      -4.322  92.361 117.422  0.00  0.00     0.091 C 
ENDROOT
BRANCH   1   7
ATOM      7  O   LIG d   1      -5.407  94.208 118.611  0.00  0.00    -0.368 OA
BRANCH   7   8
ATOM      8  C   LIG d   1      -6.673  94.848 118.905  0.00  0.00     0.119 C 
BRANCH   8   9
ATOM      9  C   LIG d   1      -6.398  96.352 119.099  0.00  0.00     0.028 C 
ATOM     10  C   LIG d   1      -6.986  97.208 117.965  0.00  0.00     0.006 C 
ENDBRANCH   8   9
BRANCH   8  11
ATOM     11  C   LIG d   1      -7.245  94.365 120.241  0.00  0.00     0.028 C 
ATOM     12  C   LIG d   1      -8.777  94.465 120.305  0.00  0.00     0.006 C 
ENDBRANCH   8  11
ENDBRANCH   7   8
ENDBRANCH   1   7
BRANCH   6  13
ATOM     13  N   LIG d   1      -2.949  92.931 117.423  0.00  0.00    -0.311 N 
ATOM     14  C   LIG d   1      -1.941  92.415 118.124  0.00  0.00     0.210 C 
ATOM     15  C   LIG d   1      -0.614  93.170 117.999  0.00  0.00     0.109 C 
ATOM     16  O   LIG d   1      -2.013  91.386 118.812  0.00  0.00    -0.276 OA
ATOM     17  H   LIG d   1      -2.795  93.749 116.867  0.00  0.00     0.149 HD
ENDBRANCH   6  13
BRANCH   5  18
ATOM     18  N   LIG d   1      -3.684  90.152 116.390  0.00  0.00     0.381 N 
ATOM     19  H   LIG d   1      -4.173  89.432 116.884  0.00  0.00    -0.090 HD
ATOM     20  H   LIG d   1      -2.860  90.390 116.913  0.00  0.00    -0.090 HD
ATOM     21  H   LIG d   1      -3.428  89.827 115.483  0.00  0.00    -0.090 HD
ENDBRANCH   5  18
BRANCH   3  22
ATOM     22  C   LIG d   1      -8.153  91.741 115.726  0.00  0.00     0.382 C 
ATOM     23  O   LIG d   1      -8.396  90.669 115.119  0.00  0.00    -0.241 OA
ATOM     24  O   LIG d   1      -9.015  92.639 115.752  0.00  0.00    -0.241 OA
ENDBRANCH   3  22
TORSDOF 7
ENDMDL
MODEL 8
REMARK VINA RESULT:      -4.8      2.134      3.921
REMARK  7 active torsions:
REMARK  status: ('A' for Active; 'I' for Inactive)
REMARK    1  A    between atoms: C_2  and  C_3 
REMARK    2  A    between atoms: C_3  and  O_6 
REMARK    3  A    between atoms: C_3  and  C_4 
REMARK    4  A    between atoms: C_7  and  O_6 
REMARK    5  A    between atoms: C_9  and  C_10 
REMARK    6  A    between atoms: N_15  and  C_14 
REMARK    7  A    between atoms: N_20  and  C_19 
REMARK       I    between atoms: C_22  and  N_20 
ROOT
ATOM      1  C   LIG d   1      -4.112  91.132 117.539  0.00  0.00     0.161 C 
ATOM      2  C   LIG d   1      -5.152  90.440 116.897  0.00  0.00     0.016 C 
ATOM      3  C   LIG d   1      -6.384  91.038 116.544  0.00  0.00     0.038 C 
ATOM      4  C   LIG d   1      -6.602  92.418 116.675  0.00  0.00     0.028 C 
ATOM      5  C   LIG d   1      -5.772  93.060 117.781  0.00  0.00    -0.047 C 
ATOM      6  C   LIG d   1      -4.290  92.664 117.590  0.00  0.00     0.091 C 
ENDROOT
BRANCH   1   7
ATOM      7  O   LIG d   1      -2.851  90.793 116.930  0.00  0.00    -0.368 OA
BRANCH   7   8
ATOM      8  C   LIG d   1      -2.020  89.859 117.662  0.00  0.00     0.119 C 
BRANCH   8   9
ATOM      9  C   LIG d   1      -2.669  89.646 119.044  0.00  0.00     0.028 C 
ATOM     10  C   LIG d   1      -2.450  88.222 119.582  0.00  0.00     0.006 C 
ENDBRANCH   8   9
BRANCH   8  11
ATOM     11  C   LIG d   1      -0.637  90.451 117.951  0.00  0.00     0.028 C 
ATOM     12  C   LIG d   1       0.155  90.766 116.672  0.00  0.00     0.006 C 
ENDBRANCH   8  11
ENDBRANCH   7   8
ENDBRANCH   1   7
BRANCH   6  13
ATOM     13  N   LIG d   1      -3.420  93.181 118.678  0.00  0.00    -0.311 N 
ATOM     14  C   LIG d   1      -2.240  93.761 118.461  0.00  0.00     0.210 C 
ATOM     15  C   LIG d   1      -1.496  94.205 119.724  0.00  0.00     0.109 C 
ATOM     16  O   LIG d   1      -1.754  93.978 117.341  0.00  0.00    -0.276 OA
ATOM     17  H   LIG d   1      -3.751  93.075 119.617  0.00  0.00     0.149 HD
ENDBRANCH   6  13
BRANCH   5  18
ATOM     18  N   LIG d   1      -5.993  94.517 117.716  0.00  0.00     0.381 N 
ATOM     19  H   LIG d   1      -6.838  94.709 117.215  0.00  0.00    -0.090 HD
ATOM     20  H   LIG d   1      -5.229  94.940 117.220  0.00  0.00    -0.090 HD
ATOM     21  H   LIG d   1      -6.051  94.895 118.636  0.00  0.00    -0.090 HD
ENDBRANCH   5  18
BRANCH   3  22
ATOM     22  C   LIG d   1      -7.428  90.246 116.090  0.00  0.00     0.382 C 
ATOM     23  O   LIG d   1      -8.404  90.772 115.503  0.00  0.00    -0.241 OA
ATOM     24  O   LIG d   1      -7.426  89.019 116.299  0.00  0.00    -0.241 OA
ENDBRANCH   3  22
TORSDOF 7
ENDMDL
MODEL 9
REMARK VINA RESULT:      -4.8      2.343      4.469
REMARK  7 active torsions:
REMARK  status: ('A' for Active; 'I' for Inactive)
REMARK    1  A    between atoms: C_2  and  C_3 
REMARK    2  A    between atoms: C_3  and  O_6 
REMARK    3  A    between atoms: C_3  and  C_4 
REMARK    4  A    between atoms: C_7  and  O_6 
REMARK    5  A    between atoms: C_9  and  C_10 
REMARK    6  A    between atoms: N_15  and  C_14 
REMARK    7  A    between atoms: N_20  and  C_19 
REMARK       I    between atoms: C_22  and  N_20 
ROOT
ATOM      1  C   LIG d   1      -5.460  92.239 118.777  0.00  0.00     0.161 C 
ATOM      2  C   LIG d   1      -6.778  92.727 118.805  0.00  0.00     0.016 C 
ATOM      3  C   LIG d   1      -7.098  94.104 118.807  0.00  0.00     0.038 C 
ATOM      4  C   LIG d   1      -6.119  95.093 118.628  0.00  0.00     0.028 C 
ATOM      5  C   LIG d   1      -4.734  94.667 119.103  0.00  0.00    -0.047 C 
ATOM      6  C   LIG d   1      -4.384  93.301 118.470  0.00  0.00     0.091 C 
ENDROOT
BRANCH   1   7
ATOM      7  O   LIG d   1      -5.364  91.144 117.845  0.00  0.00    -0.368 OA
BRANCH   7   8
ATOM      8  C   LIG d   1      -6.311  91.155 116.749  0.00  0.00     0.119 C 
BRANCH   8   9
ATOM      9  C   LIG d   1      -6.560  89.691 116.337  0.00  0.00     0.028 C 
ATOM     10  C   LIG d   1      -8.053  89.384 116.136  0.00  0.00     0.006 C 
ENDBRANCH   8   9
BRANCH   8  11
ATOM     11  C   LIG d   1      -5.718  91.830 115.508  0.00  0.00     0.028 C 
ATOM     12  C   LIG d   1      -6.749  92.670 114.737  0.00  0.00     0.006 C 
ENDBRANCH   8  11
ENDBRANCH   7   8
ENDBRANCH   1   7
BRANCH   6  13
ATOM     13  N   LIG d   1      -3.080  92.772 118.949  0.00  0.00    -0.311 N 
ATOM     14  C   LIG d   1      -1.919  93.030 118.349  0.00  0.00     0.210 C 
ATOM     15  C   LIG d   1      -0.697  92.369 118.994  0.00  0.00     0.109 C 
ATOM     16  O   LIG d   1      -1.782  93.771 117.364  0.00  0.00    -0.276 OA
ATOM     17  H   LIG d   1      -3.096  92.187 119.761  0.00  0.00     0.149 HD
ENDBRANCH   6  13
BRANCH   5  18
ATOM     18  N   LIG d   1      -3.787  95.736 118.732  0.00  0.00     0.381 N 
ATOM     19  H   LIG d   1      -3.080  95.367 118.128  0.00  0.00    -0.090 HD
ATOM     20  H   LIG d   1      -3.343  96.080 119.565  0.00  0.00    -0.090 HD
ATOM     21  H   LIG d   1      -4.272  96.477 118.275  0.00  0.00    -0.090 HD
ENDBRANCH   5  18
BRANCH   3  22
ATOM     22  C   LIG d   1      -8.406  94.505 119.029  0.00  0.00     0.382 C 
ATOM     23  O   LIG d   1      -9.332  93.659 119.014  0.00  0.00    -0.241 OA
ATOM     24  O   LIG d   1      -8.678  95.708 119.201  0.00  0.00    -0.241 OA
ENDBRANCH   3  22
TORSDOF 7
ENDMDL
