MODEL 1
REMARK VINA RESULT:      -5.9      0.000      0.000
REMARK  7 active torsions:
REMARK  status: ('A' for Active; 'I' for Inactive)
REMARK    1  A    between atoms: C_2  and  C_3 
REMARK    2  A    between atoms: C_3  and  O_6 
REMARK    3  A    between atoms: C_3  and  C_4 
REMARK    4  A    between atoms: C_7  and  O_6 
REMARK    5  A    between atoms: C_9  and  C_10 
REMARK    6  A    between atoms: N_15  and  C_14 
REMARK    7  A    between atoms: N_20  and  C_19 
REMARK       I    between atoms: C_22  and  N_20 
ROOT
ATOM      1  C   LIG d   1       1.641  88.619 115.600  0.00  0.00     0.161 C 
ATOM      2  C   LIG d   1       0.364  88.739 116.173  0.00  0.00     0.016 C 
ATOM      3  C   LIG d   1       0.004  89.778 117.061  0.00  0.00     0.038 C 
ATOM      4  C   LIG d   1       0.857  90.862 117.320  0.00  0.00     0.028 C 
ATOM      5  C   LIG d   1       2.335  90.520 117.160  0.00  0.00    -0.047 C 
ATOM      6  C   LIG d   1       2.550  89.853 115.782  0.00  0.00     0.091 C 
ENDROOT
BRANCH   1   7
ATOM      7  O   LIG d   1       1.520  88.289 114.202  0.00  0.00    -0.368 OA
BRANCH   7   8
ATOM      8  C   LIG d   1       2.012  86.984 113.811  0.00  0.00     0.119 C 
BRANCH   8   9
ATOM      9  C   LIG d   1       2.574  87.110 112.382  0.00  0.00     0.028 C 
ATOM     10  C   LIG d   1       4.047  86.677 112.290  0.00  0.00     0.006 C 
ENDBRANCH   8   9
BRANCH   8  11
ATOM     11  C   LIG d   1       0.872  85.966 113.710  0.00  0.00     0.028 C 
ATOM     12  C   LIG d   1       1.357  84.513 113.840  0.00  0.00     0.006 C 
ENDBRANCH   8  11
ENDBRANCH   7   8
ENDBRANCH   1   7
BRANCH   6  13
ATOM     13  N   LIG d   1       3.954  89.411 115.580  0.00  0.00    -0.311 N 
ATOM     14  C   LIG d   1       4.633  89.621 114.454  0.00  0.00     0.210 C 
ATOM     15  C   LIG d   1       6.061  89.067 114.447  0.00  0.00     0.109 C 
ATOM     16  O   LIG d   1       4.200  90.243 113.472  0.00  0.00    -0.276 OA
ATOM     17  H   LIG d   1       4.394  88.926 116.338  0.00  0.00     0.149 HD
ENDBRANCH   6  13
BRANCH   5  18
ATOM     18  N   LIG d   1       3.101  91.770 117.323  0.00  0.00     0.381 N 
ATOM     19  H   LIG d   1       3.436  91.842 118.263  0.00  0.00    -0.090 HD
ATOM     20  H   LIG d   1       2.492  92.550 117.145  0.00  0.00    -0.090 HD
ATOM     21  H   LIG d   1       3.867  91.786 116.687  0.00  0.00    -0.090 HD
ENDBRANCH   5  18
BRANCH   3  22
ATOM     22  C   LIG d   1      -1.208  89.719 117.733  0.00  0.00     0.382 C 
ATOM     23  O   LIG d   1      -2.238  89.324 117.135  0.00  0.00    -0.241 OA
ATOM     24  O   LIG d   1      -1.293  90.098 118.917  0.00  0.00    -0.241 OA
ENDBRANCH   3  22
TORSDOF 7
ENDMDL
MODEL 2
REMARK VINA RESULT:      -5.7     10.742     12.619
REMARK  7 active torsions:
REMARK  status: ('A' for Active; 'I' for Inactive)
REMARK    1  A    between atoms: C_2  and  C_3 
REMARK    2  A    between atoms: C_3  and  O_6 
REMARK    3  A    between atoms: C_3  and  C_4 
REMARK    4  A    between atoms: C_7  and  O_6 
REMARK    5  A    between atoms: C_9  and  C_10 
REMARK    6  A    between atoms: N_15  and  C_14 
REMARK    7  A    between atoms: N_20  and  C_19 
REMARK       I    between atoms: C_22  and  N_20 
ROOT
ATOM      1  C   LIG d   1      -6.459  79.568 117.614  0.00  0.00     0.161 C 
ATOM      2  C   LIG d   1      -7.792  79.181 117.830  0.00  0.00     0.016 C 
ATOM      3  C   LIG d   1      -8.818  80.086 118.187  0.00  0.00     0.038 C 
ATOM      4  C   LIG d   1      -8.609  81.473 118.205  0.00  0.00     0.028 C 
ATOM      5  C   LIG d   1      -7.163  81.864 118.488  0.00  0.00    -0.047 C 
ATOM      6  C   LIG d   1      -6.236  81.092 117.520  0.00  0.00     0.091 C 
ENDROOT
BRANCH   1   7
ATOM      7  O   LIG d   1      -5.945  78.914 116.437  0.00  0.00    -0.368 OA
BRANCH   7   8
ATOM      8  C   LIG d   1      -5.517  77.540 116.608  0.00  0.00     0.119 C 
BRANCH   8   9
ATOM      9  C   LIG d   1      -4.076  77.434 116.072  0.00  0.00     0.028 C 
ATOM     10  C   LIG d   1      -3.068  78.204 116.941  0.00  0.00     0.006 C 
ENDBRANCH   8   9
BRANCH   8  11
ATOM     11  C   LIG d   1      -6.344  76.587 115.740  0.00  0.00     0.028 C 
ATOM     12  C   LIG d   1      -7.338  75.748 116.558  0.00  0.00     0.006 C 
ENDBRANCH   8  11
ENDBRANCH   7   8
ENDBRANCH   1   7
BRANCH   6  13
ATOM     13  N   LIG d   1      -4.797  81.353 117.785  0.00  0.00    -0.311 N 
ATOM     14  C   LIG d   1      -3.976  81.905 116.893  0.00  0.00     0.210 C 
ATOM     15  C   LIG d   1      -2.527  82.067 117.361  0.00  0.00     0.109 C 
ATOM     16  O   LIG d   1      -4.318  82.305 115.770  0.00  0.00    -0.276 OA
ATOM     17  H   LIG d   1      -4.443  81.088 118.683  0.00  0.00     0.149 HD
ENDBRANCH   6  13
BRANCH   5  18
ATOM     18  N   LIG d   1      -7.061  83.328 118.341  0.00  0.00     0.381 N 
ATOM     19  H   LIG d   1      -6.159  83.571 117.981  0.00  0.00    -0.090 HD
ATOM     20  H   LIG d   1      -7.164  83.754 119.246  0.00  0.00    -0.090 HD
ATOM     21  H   LIG d   1      -7.771  83.660 117.727  0.00  0.00    -0.090 HD
ENDBRANCH   5  18
BRANCH   3  22
ATOM     22  C   LIG d   1     -10.059  79.601 118.570  0.00  0.00     0.382 C 
ATOM     23  O   LIG d   1     -10.594  80.013 119.628  0.00  0.00    -0.241 OA
ATOM     24  O   LIG d   1     -10.631  78.725 117.895  0.00  0.00    -0.241 OA
ENDBRANCH   3  22
TORSDOF 7
ENDMDL
MODEL 3
REMARK VINA RESULT:      -5.7     12.096     14.171
REMARK  7 active torsions:
REMARK  status: ('A' for Active; 'I' for Inactive)
REMARK    1  A    between atoms: C_2  and  C_3 
REMARK    2  A    between atoms: C_3  and  O_6 
REMARK    3  A    between atoms: C_3  and  C_4 
REMARK    4  A    between atoms: C_7  and  O_6 
REMARK    5  A    between atoms: C_9  and  C_10 
REMARK    6  A    between atoms: N_15  and  C_14 
REMARK    7  A    between atoms: N_20  and  C_19 
REMARK       I    between atoms: C_22  and  N_20 
ROOT
ATOM      1  C   LIG d   1      -6.954  77.291 116.975  0.00  0.00     0.161 C 
ATOM      2  C   LIG d   1      -8.237  77.715 117.361  0.00  0.00     0.016 C 
ATOM      3  C   LIG d   1      -8.542  79.051 117.711  0.00  0.00     0.038 C 
ATOM      4  C   LIG d   1      -7.613  80.090 117.552  0.00  0.00     0.028 C 
ATOM      5  C   LIG d   1      -6.163  79.626 117.647  0.00  0.00    -0.047 C 
ATOM      6  C   LIG d   1      -5.955  78.431 116.689  0.00  0.00     0.091 C 
ENDROOT
BRANCH   1   7
ATOM      7  O   LIG d   1      -7.053  76.413 115.836  0.00  0.00    -0.368 OA
BRANCH   7   8
ATOM      8  C   LIG d   1      -6.462  75.099 115.992  0.00  0.00     0.119 C 
BRANCH   8   9
ATOM      9  C   LIG d   1      -5.792  74.731 114.654  0.00  0.00     0.028 C 
ATOM     10  C   LIG d   1      -5.574  75.957 113.750  0.00  0.00     0.006 C 
ENDBRANCH   8   9
BRANCH   8  11
ATOM     11  C   LIG d   1      -7.535  74.029 116.216  0.00  0.00     0.028 C 
ATOM     12  C   LIG d   1      -7.127  72.653 115.666  0.00  0.00     0.006 C 
ENDBRANCH   8  11
ENDBRANCH   7   8
ENDBRANCH   1   7
BRANCH   6  13
ATOM     13  N   LIG d   1      -4.585  77.862 116.781  0.00  0.00    -0.311 N 
ATOM     14  C   LIG d   1      -3.597  78.190 115.950  0.00  0.00     0.210 C 
ATOM     15  C   LIG d   1      -2.269  77.472 116.209  0.00  0.00     0.109 C 
ATOM     16  O   LIG d   1      -3.686  79.031 115.043  0.00  0.00    -0.276 OA
ATOM     17  H   LIG d   1      -4.416  77.195 117.508  0.00  0.00     0.149 HD
ENDBRANCH   6  13
BRANCH   5  18
ATOM     18  N   LIG d   1      -5.304  80.781 117.326  0.00  0.00     0.381 N 
ATOM     19  H   LIG d   1      -4.400  80.655 117.736  0.00  0.00    -0.090 HD
ATOM     20  H   LIG d   1      -5.714  81.610 117.718  0.00  0.00    -0.090 HD
ATOM     21  H   LIG d   1      -5.218  80.879 116.338  0.00  0.00    -0.090 HD
ENDBRANCH   5  18
BRANCH   3  22
ATOM     22  C   LIG d   1      -9.777  79.351 118.265  0.00  0.00     0.382 C 
ATOM     23  O   LIG d   1     -10.739  78.559 118.118  0.00  0.00    -0.241 OA
ATOM     24  O   LIG d   1      -9.954  80.424 118.871  0.00  0.00    -0.241 OA
ENDBRANCH   3  22
TORSDOF 7
ENDMDL
MODEL 4
REMARK VINA RESULT:      -5.2     10.221     13.071
REMARK  7 active torsions:
REMARK  status: ('A' for Active; 'I' for Inactive)
REMARK    1  A    between atoms: C_2  and  C_3 
REMARK    2  A    between atoms: C_3  and  O_6 
REMARK    3  A    between atoms: C_3  and  C_4 
REMARK    4  A    between atoms: C_7  and  O_6 
REMARK    5  A    between atoms: C_9  and  C_10 
REMARK    6  A    between atoms: N_15  and  C_14 
REMARK    7  A    between atoms: N_20  and  C_19 
REMARK       I    between atoms: C_22  and  N_20 
ROOT
ATOM      1  C   LIG d   1      -2.844  77.339 114.963  0.00  0.00     0.161 C 
ATOM      2  C   LIG d   1      -2.483  76.305 115.842  0.00  0.00     0.016 C 
ATOM      3  C   LIG d   1      -1.284  76.303 116.591  0.00  0.00     0.038 C 
ATOM      4  C   LIG d   1      -0.430  77.416 116.626  0.00  0.00     0.028 C 
ATOM      5  C   LIG d   1      -0.500  78.273 115.367  0.00  0.00    -0.047 C 
ATOM      6  C   LIG d   1      -1.979  78.613 115.072  0.00  0.00     0.091 C 
ENDROOT
BRANCH   1   7
ATOM      7  O   LIG d   1      -4.237  77.664 115.137  0.00  0.00    -0.368 OA
BRANCH   7   8
ATOM      8  C   LIG d   1      -5.141  76.540 115.275  0.00  0.00     0.119 C 
BRANCH   8   9
ATOM      9  C   LIG d   1      -5.359  75.947 113.869  0.00  0.00     0.028 C 
ATOM     10  C   LIG d   1      -5.060  74.439 113.816  0.00  0.00     0.006 C 
ENDBRANCH   8   9
BRANCH   8  11
ATOM     11  C   LIG d   1      -6.527  76.994 115.743  0.00  0.00     0.028 C 
ATOM     12  C   LIG d   1      -7.247  75.932 116.589  0.00  0.00     0.006 C 
ENDBRANCH   8  11
ENDBRANCH   7   8
ENDBRANCH   1   7
BRANCH   6  13
ATOM     13  N   LIG d   1      -2.144  79.378 113.810  0.00  0.00    -0.311 N 
ATOM     14  C   LIG d   1      -2.849  80.505 113.722  0.00  0.00     0.210 C 
ATOM     15  C   LIG d   1      -2.908  81.124 112.322  0.00  0.00     0.109 C 
ATOM     16  O   LIG d   1      -3.404  81.068 114.678  0.00  0.00    -0.276 OA
ATOM     17  H   LIG d   1      -1.700  79.010 112.991  0.00  0.00     0.149 HD
ENDBRANCH   6  13
BRANCH   5  18
ATOM     18  N   LIG d   1       0.334  79.469 115.595  0.00  0.00     0.381 N 
ATOM     19  H   LIG d   1       1.207  79.369 115.117  0.00  0.00    -0.090 HD
ATOM     20  H   LIG d   1       0.520  79.552 116.579  0.00  0.00    -0.090 HD
ATOM     21  H   LIG d   1      -0.140  80.282 115.269  0.00  0.00    -0.090 HD
ENDBRANCH   5  18
BRANCH   3  22
ATOM     22  C   LIG d   1      -0.908  75.163 117.285  0.00  0.00     0.382 C 
ATOM     23  O   LIG d   1      -1.154  74.029 116.808  0.00  0.00    -0.241 OA
ATOM     24  O   LIG d   1      -0.367  75.253 118.403  0.00  0.00    -0.241 OA
ENDBRANCH   3  22
TORSDOF 7
ENDMDL
MODEL 5
REMARK VINA RESULT:      -5.0     10.671     13.610
REMARK  7 active torsions:
REMARK  status: ('A' for Active; 'I' for Inactive)
REMARK    1  A    between atoms: C_2  and  C_3 
REMARK    2  A    between atoms: C_3  and  O_6 
REMARK    3  A    between atoms: C_3  and  C_4 
REMARK    4  A    between atoms: C_7  and  O_6 
REMARK    5  A    between atoms: C_9  and  C_10 
REMARK    6  A    between atoms: N_15  and  C_14 
REMARK    7  A    between atoms: N_20  and  C_19 
REMARK       I    between atoms: C_22  and  N_20 
ROOT
ATOM      1  C   LIG d   1      -4.551  78.520 116.369  0.00  0.00     0.161 C 
ATOM      2  C   LIG d   1      -4.028  77.642 115.406  0.00  0.00     0.016 C 
ATOM      3  C   LIG d   1      -4.727  76.513 114.920  0.00  0.00     0.038 C 
ATOM      4  C   LIG d   1      -6.066  76.269 115.257  0.00  0.00     0.028 C 
ATOM      5  C   LIG d   1      -6.464  76.844 116.613  0.00  0.00    -0.047 C 
ATOM      6  C   LIG d   1      -6.054  78.333 116.666  0.00  0.00     0.091 C 
ENDROOT
BRANCH   1   7
ATOM      7  O   LIG d   1      -4.282  79.883 115.986  0.00  0.00    -0.368 OA
BRANCH   7   8
ATOM      8  C   LIG d   1      -3.322  80.598 116.803  0.00  0.00     0.119 C 
BRANCH   8   9
ATOM      9  C   LIG d   1      -3.964  81.940 117.205  0.00  0.00     0.028 C 
ATOM     10  C   LIG d   1      -3.736  82.279 118.688  0.00  0.00     0.006 C 
ENDBRANCH   8   9
BRANCH   8  11
ATOM     11  C   LIG d   1      -2.073  80.970 115.998  0.00  0.00     0.028 C 
ATOM     12  C   LIG d   1      -2.406  81.529 114.606  0.00  0.00     0.006 C 
ENDBRANCH   8  11
ENDBRANCH   7   8
ENDBRANCH   1   7
BRANCH   6  13
ATOM     13  N   LIG d   1      -6.331  78.951 117.989  0.00  0.00    -0.311 N 
ATOM     14  C   LIG d   1      -7.018  80.082 118.141  0.00  0.00     0.210 C 
ATOM     15  C   LIG d   1      -7.172  80.555 119.590  0.00  0.00     0.109 C 
ATOM     16  O   LIG d   1      -7.541  80.721 117.216  0.00  0.00    -0.276 OA
ATOM     17  H   LIG d   1      -5.970  78.481 118.796  0.00  0.00     0.149 HD
ENDBRANCH   6  13
BRANCH   5  18
ATOM     18  N   LIG d   1      -7.916  76.638 116.775  0.00  0.00     0.381 N 
ATOM     19  H   LIG d   1      -8.340  77.475 117.123  0.00  0.00    -0.090 HD
ATOM     20  H   LIG d   1      -8.067  75.905 117.446  0.00  0.00    -0.090 HD
ATOM     21  H   LIG d   1      -8.325  76.388 115.901  0.00  0.00    -0.090 HD
ENDBRANCH   5  18
BRANCH   3  22
ATOM     22  C   LIG d   1      -4.071  75.591 114.119  0.00  0.00     0.382 C 
ATOM     23  O   LIG d   1      -4.731  74.801 113.402  0.00  0.00    -0.241 OA
ATOM     24  O   LIG d   1      -2.828  75.510 114.136  0.00  0.00    -0.241 OA
ENDBRANCH   3  22
TORSDOF 7
ENDMDL
MODEL 6
REMARK VINA RESULT:      -4.8      9.867     12.598
REMARK  7 active torsions:
REMARK  status: ('A' for Active; 'I' for Inactive)
REMARK    1  A    between atoms: C_2  and  C_3 
REMARK    2  A    between atoms: C_3  and  O_6 
REMARK    3  A    between atoms: C_3  and  C_4 
REMARK    4  A    between atoms: C_7  and  O_6 
REMARK    5  A    between atoms: C_9  and  C_10 
REMARK    6  A    between atoms: N_15  and  C_14 
REMARK    7  A    between atoms: N_20  and  C_19 
REMARK       I    between atoms: C_22  and  N_20 
ROOT
ATOM      1  C   LIG d   1      -1.440  77.934 114.241  0.00  0.00     0.161 C 
ATOM      2  C   LIG d   1      -2.736  77.572 113.838  0.00  0.00     0.016 C 
ATOM      3  C   LIG d   1      -3.360  76.362 114.220  0.00  0.00     0.038 C 
ATOM      4  C   LIG d   1      -2.784  75.495 115.161  0.00  0.00     0.028 C 
ATOM      5  C   LIG d   1      -1.262  75.573 115.204  0.00  0.00    -0.047 C 
ATOM      6  C   LIG d   1      -0.839  77.052 115.357  0.00  0.00     0.091 C 
ENDROOT
BRANCH   1   7
ATOM      7  O   LIG d   1      -1.419  79.321 114.633  0.00  0.00    -0.368 OA
BRANCH   7   8
ATOM      8  C   LIG d   1      -2.707  79.978 114.716  0.00  0.00     0.119 C 
BRANCH   8   9
ATOM      9  C   LIG d   1      -2.611  81.288 113.909  0.00  0.00     0.028 C 
ATOM     10  C   LIG d   1      -2.196  81.047 112.448  0.00  0.00     0.006 C 
ENDBRANCH   8   9
BRANCH   8  11
ATOM     11  C   LIG d   1      -3.022  80.409 116.152  0.00  0.00     0.028 C 
ATOM     12  C   LIG d   1      -3.389  81.898 116.260  0.00  0.00     0.006 C 
ENDBRANCH   8  11
ENDBRANCH   7   8
ENDBRANCH   1   7
BRANCH   6  13
ATOM     13  N   LIG d   1       0.636  77.227 115.323  0.00  0.00    -0.311 N 
ATOM     14  C   LIG d   1       1.401  77.209 116.413  0.00  0.00     0.210 C 
ATOM     15  C   LIG d   1       2.896  77.429 116.158  0.00  0.00     0.109 C 
ATOM     16  O   LIG d   1       0.989  77.000 117.564  0.00  0.00    -0.276 OA
ATOM     17  H   LIG d   1       1.058  77.371 114.427  0.00  0.00     0.149 HD
ENDBRANCH   6  13
BRANCH   5  18
ATOM     18  N   LIG d   1      -0.803  74.723 116.319  0.00  0.00     0.381 N 
ATOM     19  H   LIG d   1      -1.548  74.126 116.618  0.00  0.00    -0.090 HD
ATOM     20  H   LIG d   1      -0.541  75.311 117.090  0.00  0.00    -0.090 HD
ATOM     21  H   LIG d   1      -0.023  74.174 116.030  0.00  0.00    -0.090 HD
ENDBRANCH   5  18
BRANCH   3  22
ATOM     22  C   LIG d   1      -4.557  75.990 113.628  0.00  0.00     0.382 C 
ATOM     23  O   LIG d   1      -5.155  76.788 112.867  0.00  0.00    -0.241 OA
ATOM     24  O   LIG d   1      -5.069  74.882 113.880  0.00  0.00    -0.241 OA
ENDBRANCH   3  22
TORSDOF 7
ENDMDL
MODEL 7
REMARK VINA RESULT:      -4.8     11.407     13.689
REMARK  7 active torsions:
REMARK  status: ('A' for Active; 'I' for Inactive)
REMARK    1  A    between atoms: C_2  and  C_3 
REMARK    2  A    between atoms: C_3  and  O_6 
REMARK    3  A    between atoms: C_3  and  C_4 
REMARK    4  A    between atoms: C_7  and  O_6 
REMARK    5  A    between atoms: C_9  and  C_10 
REMARK    6  A    between atoms: N_15  and  C_14 
REMARK    7  A    between atoms: N_20  and  C_19 
REMARK       I    between atoms: C_22  and  N_20 
ROOT
ATOM      1  C   LIG d   1       9.942  78.314 116.198  0.00  0.00     0.161 C 
ATOM      2  C   LIG d   1       9.808  79.711 116.264  0.00  0.00     0.016 C 
ATOM      3  C   LIG d   1      10.403  80.595 115.334  0.00  0.00     0.038 C 
ATOM      4  C   LIG d   1      11.051  80.130 114.180  0.00  0.00     0.028 C 
ATOM      5  C   LIG d   1      11.644  78.734 114.339  0.00  0.00    -0.047 C 
ATOM      6  C   LIG d   1      10.553  77.784 114.883  0.00  0.00     0.091 C 
ENDROOT
BRANCH   1   7
ATOM      7  O   LIG d   1       8.668  77.688 116.445  0.00  0.00    -0.368 OA
BRANCH   7   8
ATOM      8  C   LIG d   1       7.505  78.547 116.341  0.00  0.00     0.119 C 
BRANCH   8   9
ATOM      9  C   LIG d   1       6.582  78.223 117.531  0.00  0.00     0.028 C 
ATOM     10  C   LIG d   1       7.363  78.009 118.839  0.00  0.00     0.006 C 
ENDBRANCH   8   9
BRANCH   8  11
ATOM     11  C   LIG d   1       6.684  78.222 115.090  0.00  0.00     0.028 C 
ATOM     12  C   LIG d   1       5.174  78.423 115.299  0.00  0.00     0.006 C 
ENDBRANCH   8  11
ENDBRANCH   7   8
ENDBRANCH   1   7
BRANCH   6  13
ATOM     13  N   LIG d   1      11.072  76.417 115.147  0.00  0.00    -0.311 N 
ATOM     14  C   LIG d   1      10.365  75.310 114.930  0.00  0.00     0.210 C 
ATOM     15  C   LIG d   1      11.081  74.004 115.288  0.00  0.00     0.109 C 
ATOM     16  O   LIG d   1       9.224  75.283 114.444  0.00  0.00    -0.276 OA
ATOM     17  H   LIG d   1      12.001  76.345 115.513  0.00  0.00     0.149 HD
ENDBRANCH   6  13
BRANCH   5  18
ATOM     18  N   LIG d   1      12.167  78.320 113.023  0.00  0.00     0.381 N 
ATOM     19  H   LIG d   1      12.711  77.486 113.122  0.00  0.00    -0.090 HD
ATOM     20  H   LIG d   1      12.765  79.046 112.668  0.00  0.00    -0.090 HD
ATOM     21  H   LIG d   1      11.414  78.162 112.391  0.00  0.00    -0.090 HD
ENDBRANCH   5  18
BRANCH   3  22
ATOM     22  C   LIG d   1      10.386  81.960 115.576  0.00  0.00     0.382 C 
ATOM     23  O   LIG d   1      11.152  82.453 116.438  0.00  0.00    -0.241 OA
ATOM     24  O   LIG d   1       9.583  82.698 114.975  0.00  0.00    -0.241 OA
ENDBRANCH   3  22
TORSDOF 7
ENDMDL
MODEL 8
REMARK VINA RESULT:      -4.8      3.803      5.448
REMARK  7 active torsions:
REMARK  status: ('A' for Active; 'I' for Inactive)
REMARK    1  A    between atoms: C_2  and  C_3 
REMARK    2  A    between atoms: C_3  and  O_6 
REMARK    3  A    between atoms: C_3  and  C_4 
REMARK    4  A    between atoms: C_7  and  O_6 
REMARK    5  A    between atoms: C_9  and  C_10 
REMARK    6  A    between atoms: N_15  and  C_14 
REMARK    7  A    between atoms: N_20  and  C_19 
REMARK       I    between atoms: C_22  and  N_20 
ROOT
ATOM      1  C   LIG d   1       2.964  86.640 115.314  0.00  0.00     0.161 C 
ATOM      2  C   LIG d   1       3.391  87.722 114.526  0.00  0.00     0.016 C 
ATOM      3  C   LIG d   1       4.692  88.269 114.596  0.00  0.00     0.038 C 
ATOM      4  C   LIG d   1       5.709  87.671 115.355  0.00  0.00     0.028 C 
ATOM      5  C   LIG d   1       5.187  86.881 116.550  0.00  0.00    -0.047 C 
ATOM      6  C   LIG d   1       4.092  85.903 116.067  0.00  0.00     0.091 C 
ENDROOT
BRANCH   1   7
ATOM      7  O   LIG d   1       2.213  85.712 114.505  0.00  0.00    -0.368 OA
BRANCH   7   8
ATOM      8  C   LIG d   1       1.687  86.234 113.260  0.00  0.00     0.119 C 
BRANCH   8   9
ATOM      9  C   LIG d   1       0.172  85.952 113.244  0.00  0.00     0.028 C 
ATOM     10  C   LIG d   1      -0.148  84.454 113.379  0.00  0.00     0.006 C 
ENDBRANCH   8   9
BRANCH   8  11
ATOM     11  C   LIG d   1       2.253  85.477 112.055  0.00  0.00     0.028 C 
ATOM     12  C   LIG d   1       3.481  84.623 112.411  0.00  0.00     0.006 C 
ENDBRANCH   8  11
ENDBRANCH   7   8
ENDBRANCH   1   7
BRANCH   6  13
ATOM     13  N   LIG d   1       3.469  85.151 117.187  0.00  0.00    -0.311 N 
ATOM     14  C   LIG d   1       3.846  83.925 117.546  0.00  0.00     0.210 C 
ATOM     15  C   LIG d   1       3.058  83.323 118.714  0.00  0.00     0.109 C 
ATOM     16  O   LIG d   1       4.778  83.292 117.029  0.00  0.00    -0.276 OA
ATOM     17  H   LIG d   1       2.725  85.603 117.681  0.00  0.00     0.149 HD
ENDBRANCH   6  13
BRANCH   5  18
ATOM     18  N   LIG d   1       6.339  86.199 117.171  0.00  0.00     0.381 N 
ATOM     19  H   LIG d   1       7.127  86.815 117.190  0.00  0.00    -0.090 HD
ATOM     20  H   LIG d   1       6.578  85.397 116.616  0.00  0.00    -0.090 HD
ATOM     21  H   LIG d   1       6.108  85.915 118.097  0.00  0.00    -0.090 HD
ENDBRANCH   5  18
BRANCH   3  22
ATOM     22  C   LIG d   1       4.976  89.453 113.931  0.00  0.00     0.382 C 
ATOM     23  O   LIG d   1       4.056  90.269 113.682  0.00  0.00    -0.241 OA
ATOM     24  O   LIG d   1       6.133  89.694 113.537  0.00  0.00    -0.241 OA
ENDBRANCH   3  22
TORSDOF 7
ENDMDL
MODEL 9
REMARK VINA RESULT:      -4.7      2.263      5.432
REMARK  7 active torsions:
REMARK  status: ('A' for Active; 'I' for Inactive)
REMARK    1  A    between atoms: C_2  and  C_3 
REMARK    2  A    between atoms: C_3  and  O_6 
REMARK    3  A    between atoms: C_3  and  C_4 
REMARK    4  A    between atoms: C_7  and  O_6 
REMARK    5  A    between atoms: C_9  and  C_10 
REMARK    6  A    between atoms: N_15  and  C_14 
REMARK    7  A    between atoms: N_20  and  C_19 
REMARK       I    between atoms: C_22  and  N_20 
ROOT
ATOM      1  C   LIG d   1       2.636  89.572 115.805  0.00  0.00     0.161 C 
ATOM      2  C   LIG d   1       2.365  88.716 114.725  0.00  0.00     0.016 C 
ATOM      3  C   LIG d   1       3.368  88.019 114.013  0.00  0.00     0.038 C 
ATOM      4  C   LIG d   1       4.706  88.013 114.432  0.00  0.00     0.028 C 
ATOM      5  C   LIG d   1       5.102  89.263 115.211  0.00  0.00    -0.047 C 
ATOM      6  C   LIG d   1       4.079  89.492 116.347  0.00  0.00     0.091 C 
ENDROOT
BRANCH   1   7
ATOM      7  O   LIG d   1       1.689  89.337 116.865  0.00  0.00    -0.368 OA
BRANCH   7   8
ATOM      8  C   LIG d   1       0.495  90.158 116.847  0.00  0.00     0.119 C 
BRANCH   8   9
ATOM      9  C   LIG d   1       0.899  91.572 117.308  0.00  0.00     0.028 C 
ATOM     10  C   LIG d   1       1.235  91.627 118.807  0.00  0.00     0.006 C 
ENDBRANCH   8   9
BRANCH   8  11
ATOM     11  C   LIG d   1      -0.530  89.674 117.876  0.00  0.00     0.028 C 
ATOM     12  C   LIG d   1      -1.955  89.596 117.307  0.00  0.00     0.006 C 
ENDBRANCH   8  11
ENDBRANCH   7   8
ENDBRANCH   1   7
BRANCH   6  13
ATOM     13  N   LIG d   1       4.344  90.741 117.106  0.00  0.00    -0.311 N 
ATOM     14  C   LIG d   1       5.047  90.777 118.237  0.00  0.00     0.210 C 
ATOM     15  C   LIG d   1       5.185  92.166 118.869  0.00  0.00     0.109 C 
ATOM     16  O   LIG d   1       5.595  89.795 118.760  0.00  0.00    -0.276 OA
ATOM     17  H   LIG d   1       3.962  91.590 116.736  0.00  0.00     0.149 HD
ENDBRANCH   6  13
BRANCH   5  18
ATOM     18  N   LIG d   1       6.478  89.063 115.705  0.00  0.00     0.381 N 
ATOM     19  H   LIG d   1       6.797  89.893 116.162  0.00  0.00    -0.090 HD
ATOM     20  H   LIG d   1       7.081  88.883 114.921  0.00  0.00    -0.090 HD
ATOM     21  H   LIG d   1       6.505  88.294 116.338  0.00  0.00    -0.090 HD
ENDBRANCH   5  18
BRANCH   3  22
ATOM     22  C   LIG d   1       3.041  87.348 112.844  0.00  0.00     0.382 C 
ATOM     23  O   LIG d   1       3.947  86.985 112.055  0.00  0.00    -0.241 OA
ATOM     24  O   LIG d   1       1.849  87.142 112.546  0.00  0.00    -0.241 OA
ENDBRANCH   3  22
TORSDOF 7
ENDMDL
