MODEL 1
REMARK VINA RESULT:      -5.9      0.000      0.000
REMARK  7 active torsions:
REMARK  status: ('A' for Active; 'I' for Inactive)
REMARK    1  A    between atoms: C_2  and  C_3 
REMARK    2  A    between atoms: C_3  and  O_6 
REMARK    3  A    between atoms: C_3  and  C_4 
REMARK    4  A    between atoms: C_7  and  O_6 
REMARK    5  A    between atoms: C_9  and  C_10 
REMARK    6  A    between atoms: N_15  and  C_14 
REMARK    7  A    between atoms: N_20  and  C_19 
REMARK       I    between atoms: C_22  and  N_20 
ROOT
ATOM      1  C   LIG d   1      -2.833  77.860 114.120  0.00  0.00     0.161 C 
ATOM      2  C   LIG d   1      -3.058  79.056 113.419  0.00  0.00     0.016 C 
ATOM      3  C   LIG d   1      -2.169  80.155 113.447  0.00  0.00     0.038 C 
ATOM      4  C   LIG d   1      -0.911  80.074 114.062  0.00  0.00     0.028 C 
ATOM      5  C   LIG d   1      -0.859  79.067 115.206  0.00  0.00    -0.047 C 
ATOM      6  C   LIG d   1      -1.413  77.713 114.707  0.00  0.00     0.091 C 
ENDROOT
BRANCH   1   7
ATOM      7  O   LIG d   1      -3.147  76.733 113.279  0.00  0.00    -0.368 OA
BRANCH   7   8
ATOM      8  C   LIG d   1      -4.409  76.073 113.542  0.00  0.00     0.119 C 
BRANCH   8   9
ATOM      9  C   LIG d   1      -5.493  76.800 112.723  0.00  0.00     0.028 C 
ATOM     10  C   LIG d   1      -6.848  76.843 113.448  0.00  0.00     0.006 C 
ENDBRANCH   8   9
BRANCH   8  11
ATOM     11  C   LIG d   1      -4.829  76.238 115.006  0.00  0.00     0.028 C 
ATOM     12  C   LIG d   1      -4.848  74.907 115.774  0.00  0.00     0.006 C 
ENDBRANCH   8  11
ENDBRANCH   7   8
ENDBRANCH   1   7
BRANCH   6  13
ATOM     13  N   LIG d   1      -1.477  76.694 115.787  0.00  0.00    -0.311 N 
ATOM     14  C   LIG d   1      -1.105  75.425 115.621  0.00  0.00     0.210 C 
ATOM     15  C   LIG d   1      -1.270  74.536 116.858  0.00  0.00     0.109 C 
ATOM     16  O   LIG d   1      -0.623  74.960 114.577  0.00  0.00    -0.276 OA
ATOM     17  H   LIG d   1      -1.826  76.993 116.676  0.00  0.00     0.149 HD
ENDBRANCH   6  13
BRANCH   5  18
ATOM     18  N   LIG d   1       0.540  78.985 115.665  0.00  0.00     0.381 N 
ATOM     19  H   LIG d   1       1.136  79.472 115.025  0.00  0.00    -0.090 HD
ATOM     20  H   LIG d   1       0.820  78.020 115.684  0.00  0.00    -0.090 HD
ATOM     21  H   LIG d   1       0.624  79.380 116.575  0.00  0.00    -0.090 HD
ENDBRANCH   5  18
BRANCH   3  22
ATOM     22  C   LIG d   1      -2.552  81.364 112.888  0.00  0.00     0.382 C 
ATOM     23  O   LIG d   1      -3.770  81.624 112.730  0.00  0.00    -0.241 OA
ATOM     24  O   LIG d   1      -1.696  82.181 112.500  0.00  0.00    -0.241 OA
ENDBRANCH   3  22
TORSDOF 7
ENDMDL
MODEL 2
REMARK VINA RESULT:      -5.6      2.167      5.281
REMARK  7 active torsions:
REMARK  status: ('A' for Active; 'I' for Inactive)
REMARK    1  A    between atoms: C_2  and  C_3 
REMARK    2  A    between atoms: C_3  and  O_6 
REMARK    3  A    between atoms: C_3  and  C_4 
REMARK    4  A    between atoms: C_7  and  O_6 
REMARK    5  A    between atoms: C_9  and  C_10 
REMARK    6  A    between atoms: N_15  and  C_14 
REMARK    7  A    between atoms: N_20  and  C_19 
REMARK       I    between atoms: C_22  and  N_20 
ROOT
ATOM      1  C   LIG d   1      -1.754  75.545 115.182  0.00  0.00     0.161 C 
ATOM      2  C   LIG d   1      -1.626  74.718 116.311  0.00  0.00     0.016 C 
ATOM      3  C   LIG d   1      -0.902  75.087 117.468  0.00  0.00     0.038 C 
ATOM      4  C   LIG d   1      -0.381  76.379 117.636  0.00  0.00     0.028 C 
ATOM      5  C   LIG d   1      -0.053  77.076 116.320  0.00  0.00    -0.047 C 
ATOM      6  C   LIG d   1      -1.287  77.001 115.391  0.00  0.00     0.091 C 
ENDROOT
BRANCH   1   7
ATOM      7  O   LIG d   1      -3.116  75.519 114.710  0.00  0.00    -0.368 OA
BRANCH   7   8
ATOM      8  C   LIG d   1      -4.138  75.336 115.721  0.00  0.00     0.119 C 
BRANCH   8   9
ATOM      9  C   LIG d   1      -5.200  74.384 115.138  0.00  0.00     0.028 C 
ATOM     10  C   LIG d   1      -6.019  73.678 116.231  0.00  0.00     0.006 C 
ENDBRANCH   8   9
BRANCH   8  11
ATOM     11  C   LIG d   1      -4.879  76.645 116.007  0.00  0.00     0.028 C 
ATOM     12  C   LIG d   1      -4.489  77.268 117.357  0.00  0.00     0.006 C 
ENDBRANCH   8  11
ENDBRANCH   7   8
ENDBRANCH   1   7
BRANCH   6  13
ATOM     13  N   LIG d   1      -1.023  77.585 114.050  0.00  0.00    -0.311 N 
ATOM     14  C   LIG d   1      -1.855  78.429 113.442  0.00  0.00     0.210 C 
ATOM     15  C   LIG d   1      -1.402  78.897 112.055  0.00  0.00     0.109 C 
ATOM     16  O   LIG d   1      -2.909  78.860 113.933  0.00  0.00    -0.276 OA
ATOM     17  H   LIG d   1      -0.175  77.314 113.593  0.00  0.00     0.149 HD
ENDBRANCH   6  13
BRANCH   5  18
ATOM     18  N   LIG d   1       0.349  78.459 116.636  0.00  0.00     0.381 N 
ATOM     19  H   LIG d   1      -0.428  78.959 117.020  0.00  0.00    -0.090 HD
ATOM     20  H   LIG d   1       0.631  78.918 115.787  0.00  0.00    -0.090 HD
ATOM     21  H   LIG d   1       1.105  78.454 117.285  0.00  0.00    -0.090 HD
ENDBRANCH   5  18
BRANCH   3  22
ATOM     22  C   LIG d   1      -0.660  74.146 118.456  0.00  0.00     0.382 C 
ATOM     23  O   LIG d   1      -0.880  74.428 119.659  0.00  0.00    -0.241 OA
ATOM     24  O   LIG d   1      -0.182  73.033 118.165  0.00  0.00    -0.241 OA
ENDBRANCH   3  22
TORSDOF 7
ENDMDL
MODEL 3
REMARK VINA RESULT:      -5.6      4.344      6.336
REMARK  7 active torsions:
REMARK  status: ('A' for Active; 'I' for Inactive)
REMARK    1  A    between atoms: C_2  and  C_3 
REMARK    2  A    between atoms: C_3  and  O_6 
REMARK    3  A    between atoms: C_3  and  C_4 
REMARK    4  A    between atoms: C_7  and  O_6 
REMARK    5  A    between atoms: C_9  and  C_10 
REMARK    6  A    between atoms: N_15  and  C_14 
REMARK    7  A    between atoms: N_20  and  C_19 
REMARK       I    between atoms: C_22  and  N_20 
ROOT
ATOM      1  C   LIG d   1      -7.328  76.389 117.110  0.00  0.00     0.161 C 
ATOM      2  C   LIG d   1      -6.872  76.039 115.829  0.00  0.00     0.016 C 
ATOM      3  C   LIG d   1      -5.679  76.543 115.262  0.00  0.00     0.038 C 
ATOM      4  C   LIG d   1      -4.777  77.321 116.003  0.00  0.00     0.028 C 
ATOM      5  C   LIG d   1      -5.440  78.112 117.126  0.00  0.00    -0.047 C 
ATOM      6  C   LIG d   1      -6.301  77.149 117.976  0.00  0.00     0.091 C 
ENDROOT
BRANCH   1   7
ATOM      7  O   LIG d   1      -7.794  75.214 117.802  0.00  0.00    -0.368 OA
BRANCH   7   8
ATOM      8  C   LIG d   1      -8.085  74.061 116.974  0.00  0.00     0.119 C 
BRANCH   8   9
ATOM      9  C   LIG d   1      -9.581  73.733 117.147  0.00  0.00     0.028 C 
ATOM     10  C   LIG d   1      -9.829  72.235 117.388  0.00  0.00     0.006 C 
ENDBRANCH   8   9
BRANCH   8  11
ATOM     11  C   LIG d   1      -7.338  72.818 117.467  0.00  0.00     0.028 C 
ATOM     12  C   LIG d   1      -6.420  72.210 116.395  0.00  0.00     0.006 C 
ENDBRANCH   8  11
ENDBRANCH   7   8
ENDBRANCH   1   7
BRANCH   6  13
ATOM     13  N   LIG d   1      -7.051  77.856 119.047  0.00  0.00    -0.311 N 
ATOM     14  C   LIG d   1      -7.642  79.037 118.871  0.00  0.00     0.210 C 
ATOM     15  C   LIG d   1      -8.345  79.599 120.111  0.00  0.00     0.109 C 
ATOM     16  O   LIG d   1      -7.678  79.657 117.798  0.00  0.00    -0.276 OA
ATOM     17  H   LIG d   1      -7.099  77.409 119.941  0.00  0.00     0.149 HD
ENDBRANCH   6  13
BRANCH   5  18
ATOM     18  N   LIG d   1      -4.370  78.767 117.901  0.00  0.00     0.381 N 
ATOM     19  H   LIG d   1      -4.675  78.916 118.842  0.00  0.00    -0.090 HD
ATOM     20  H   LIG d   1      -4.171  79.662 117.489  0.00  0.00    -0.090 HD
ATOM     21  H   LIG d   1      -3.550  78.202 117.896  0.00  0.00    -0.090 HD
ENDBRANCH   5  18
BRANCH   3  22
ATOM     22  C   LIG d   1      -5.398  76.303 113.925  0.00  0.00     0.382 C 
ATOM     23  O   LIG d   1      -4.451  75.542 113.611  0.00  0.00    -0.241 OA
ATOM     24  O   LIG d   1      -6.051  76.872 113.030  0.00  0.00    -0.241 OA
ENDBRANCH   3  22
TORSDOF 7
ENDMDL
MODEL 4
REMARK VINA RESULT:      -5.5      5.137      6.377
REMARK  7 active torsions:
REMARK  status: ('A' for Active; 'I' for Inactive)
REMARK    1  A    between atoms: C_2  and  C_3 
REMARK    2  A    between atoms: C_3  and  O_6 
REMARK    3  A    between atoms: C_3  and  C_4 
REMARK    4  A    between atoms: C_7  and  O_6 
REMARK    5  A    between atoms: C_9  and  C_10 
REMARK    6  A    between atoms: N_15  and  C_14 
REMARK    7  A    between atoms: N_20  and  C_19 
REMARK       I    between atoms: C_22  and  N_20 
ROOT
ATOM      1  C   LIG d   1      -7.148  77.383 117.927  0.00  0.00     0.161 C 
ATOM      2  C   LIG d   1      -8.319  78.075 118.280  0.00  0.00     0.016 C 
ATOM      3  C   LIG d   1      -8.380  79.481 118.420  0.00  0.00     0.038 C 
ATOM      4  C   LIG d   1      -7.305  80.308 118.065  0.00  0.00     0.028 C 
ATOM      5  C   LIG d   1      -5.948  79.624 118.187  0.00  0.00    -0.047 C 
ATOM      6  C   LIG d   1      -5.994  78.278 117.428  0.00  0.00     0.091 C 
ENDROOT
BRANCH   1   7
ATOM      7  O   LIG d   1      -7.456  76.370 116.949  0.00  0.00    -0.368 OA
BRANCH   7   8
ATOM      8  C   LIG d   1      -8.023  75.140 117.462  0.00  0.00     0.119 C 
BRANCH   8   9
ATOM      9  C   LIG d   1      -7.185  73.975 116.900  0.00  0.00     0.028 C 
ATOM     10  C   LIG d   1      -6.007  74.461 116.039  0.00  0.00     0.006 C 
ENDBRANCH   8   9
BRANCH   8  11
ATOM     11  C   LIG d   1      -9.440  74.914 116.929  0.00  0.00     0.028 C 
ATOM     12  C   LIG d   1      -9.909  73.458 117.079  0.00  0.00     0.006 C 
ENDBRANCH   8  11
ENDBRANCH   7   8
ENDBRANCH   1   7
BRANCH   6  13
ATOM     13  N   LIG d   1      -4.733  77.504 117.568  0.00  0.00    -0.311 N 
ATOM     14  C   LIG d   1      -3.754  77.530 116.665  0.00  0.00     0.210 C 
ATOM     15  C   LIG d   1      -2.549  76.643 116.994  0.00  0.00     0.109 C 
ATOM     16  O   LIG d   1      -3.755  78.227 115.640  0.00  0.00    -0.276 OA
ATOM     17  H   LIG d   1      -4.635  76.935 118.386  0.00  0.00     0.149 HD
ENDBRANCH   6  13
BRANCH   5  18
ATOM     18  N   LIG d   1      -4.931  80.552 117.657  0.00  0.00     0.381 N 
ATOM     19  H   LIG d   1      -4.708  80.306 116.713  0.00  0.00    -0.090 HD
ATOM     20  H   LIG d   1      -4.096  80.469 118.209  0.00  0.00    -0.090 HD
ATOM     21  H   LIG d   1      -5.271  81.487 117.693  0.00  0.00    -0.090 HD
ENDBRANCH   5  18
BRANCH   3  22
ATOM     22  C   LIG d   1      -9.515  80.069 118.957  0.00  0.00     0.382 C 
ATOM     23  O   LIG d   1      -9.500  81.282 119.278  0.00  0.00    -0.241 OA
ATOM     24  O   LIG d   1     -10.540  79.392 119.165  0.00  0.00    -0.241 OA
ENDBRANCH   3  22
TORSDOF 7
ENDMDL
MODEL 5
REMARK VINA RESULT:      -5.4      2.059      2.642
REMARK  7 active torsions:
REMARK  status: ('A' for Active; 'I' for Inactive)
REMARK    1  A    between atoms: C_2  and  C_3 
REMARK    2  A    between atoms: C_3  and  O_6 
REMARK    3  A    between atoms: C_3  and  C_4 
REMARK    4  A    between atoms: C_7  and  O_6 
REMARK    5  A    between atoms: C_9  and  C_10 
REMARK    6  A    between atoms: N_15  and  C_14 
REMARK    7  A    between atoms: N_20  and  C_19 
REMARK       I    between atoms: C_22  and  N_20 
ROOT
ATOM      1  C   LIG d   1      -3.051  77.508 116.722  0.00  0.00     0.161 C 
ATOM      2  C   LIG d   1      -3.286  78.406 115.668  0.00  0.00     0.016 C 
ATOM      3  C   LIG d   1      -2.417  78.554 114.562  0.00  0.00     0.038 C 
ATOM      4  C   LIG d   1      -1.324  77.698 114.359  0.00  0.00     0.028 C 
ATOM      5  C   LIG d   1      -0.764  77.114 115.651  0.00  0.00    -0.047 C 
ATOM      6  C   LIG d   1      -1.922  76.488 116.462  0.00  0.00     0.091 C 
ENDROOT
BRANCH   1   7
ATOM      7  O   LIG d   1      -4.274  76.825 117.064  0.00  0.00    -0.368 OA
BRANCH   7   8
ATOM      8  C   LIG d   1      -5.303  76.812 116.044  0.00  0.00     0.119 C 
BRANCH   8   9
ATOM      9  C   LIG d   1      -6.646  77.113 116.739  0.00  0.00     0.028 C 
ATOM     10  C   LIG d   1      -7.519  75.856 116.897  0.00  0.00     0.006 C 
ENDBRANCH   8   9
BRANCH   8  11
ATOM     11  C   LIG d   1      -5.465  75.417 115.434  0.00  0.00     0.028 C 
ATOM     12  C   LIG d   1      -4.642  75.229 114.150  0.00  0.00     0.006 C 
ENDBRANCH   8  11
ENDBRANCH   7   8
ENDBRANCH   1   7
BRANCH   6  13
ATOM     13  N   LIG d   1      -1.475  75.968 117.780  0.00  0.00    -0.311 N 
ATOM     14  C   LIG d   1      -1.038  74.723 117.967  0.00  0.00     0.210 C 
ATOM     15  C   LIG d   1      -0.645  74.386 119.409  0.00  0.00     0.109 C 
ATOM     16  O   LIG d   1      -0.910  73.876 117.070  0.00  0.00    -0.276 OA
ATOM     17  H   LIG d   1      -1.516  76.597 118.558  0.00  0.00     0.149 HD
ENDBRANCH   6  13
BRANCH   5  18
ATOM     18  N   LIG d   1       0.278  76.137 115.284  0.00  0.00     0.381 N 
ATOM     19  H   LIG d   1       1.112  76.319 115.806  0.00  0.00    -0.090 HD
ATOM     20  H   LIG d   1       0.489  76.239 114.307  0.00  0.00    -0.090 HD
ATOM     21  H   LIG d   1      -0.042  75.211 115.468  0.00  0.00    -0.090 HD
ENDBRANCH   5  18
BRANCH   3  22
ATOM     22  C   LIG d   1      -2.616  79.592 113.665  0.00  0.00     0.382 C 
ATOM     23  O   LIG d   1      -2.331  79.437 112.453  0.00  0.00    -0.241 OA
ATOM     24  O   LIG d   1      -3.035  80.697 114.061  0.00  0.00    -0.241 OA
ENDBRANCH   3  22
TORSDOF 7
ENDMDL
MODEL 6
REMARK VINA RESULT:      -5.3      5.256      6.464
REMARK  7 active torsions:
REMARK  status: ('A' for Active; 'I' for Inactive)
REMARK    1  A    between atoms: C_2  and  C_3 
REMARK    2  A    between atoms: C_3  and  O_6 
REMARK    3  A    between atoms: C_3  and  C_4 
REMARK    4  A    between atoms: C_7  and  O_6 
REMARK    5  A    between atoms: C_9  and  C_10 
REMARK    6  A    between atoms: N_15  and  C_14 
REMARK    7  A    between atoms: N_20  and  C_19 
REMARK       I    between atoms: C_22  and  N_20 
ROOT
ATOM      1  C   LIG d   1      -6.183  78.844 117.785  0.00  0.00     0.161 C 
ATOM      2  C   LIG d   1      -7.562  78.829 118.051  0.00  0.00     0.016 C 
ATOM      3  C   LIG d   1      -8.308  79.990 118.363  0.00  0.00     0.038 C 
ATOM      4  C   LIG d   1      -7.749  81.274 118.281  0.00  0.00     0.028 C 
ATOM      5  C   LIG d   1      -6.241  81.294 118.509  0.00  0.00    -0.047 C 
ATOM      6  C   LIG d   1      -5.580  80.250 117.581  0.00  0.00     0.091 C 
ENDROOT
BRANCH   1   7
ATOM      7  O   LIG d   1      -5.896  78.006 116.648  0.00  0.00    -0.368 OA
BRANCH   7   8
ATOM      8  C   LIG d   1      -6.886  76.996 116.334  0.00  0.00     0.119 C 
BRANCH   8   9
ATOM      9  C   LIG d   1      -6.503  75.718 117.105  0.00  0.00     0.028 C 
ATOM     10  C   LIG d   1      -7.723  74.840 117.429  0.00  0.00     0.006 C 
ENDBRANCH   8   9
BRANCH   8  11
ATOM     11  C   LIG d   1      -6.837  76.607 114.854  0.00  0.00     0.028 C 
ATOM     12  C   LIG d   1      -5.483  76.008 114.440  0.00  0.00     0.006 C 
ENDBRANCH   8  11
ENDBRANCH   7   8
ENDBRANCH   1   7
BRANCH   6  13
ATOM     13  N   LIG d   1      -4.113  80.145 117.800  0.00  0.00    -0.311 N 
ATOM     14  C   LIG d   1      -3.214  80.315 116.832  0.00  0.00     0.210 C 
ATOM     15  C   LIG d   1      -1.755  80.144 117.269  0.00  0.00     0.109 C 
ATOM     16  O   LIG d   1      -3.483  80.622 115.662  0.00  0.00    -0.276 OA
ATOM     17  H   LIG d   1      -3.805  79.930 118.728  0.00  0.00     0.149 HD
ENDBRANCH   6  13
BRANCH   5  18
ATOM     18  N   LIG d   1      -5.772  82.670 118.258  0.00  0.00     0.381 N 
ATOM     19  H   LIG d   1      -5.569  82.787 117.286  0.00  0.00    -0.090 HD
ATOM     20  H   LIG d   1      -4.925  82.824 118.778  0.00  0.00    -0.090 HD
ATOM     21  H   LIG d   1      -6.467  83.325 118.541  0.00  0.00    -0.090 HD
ENDBRANCH   5  18
BRANCH   3  22
ATOM     22  C   LIG d   1      -9.617  79.868 118.802  0.00  0.00     0.382 C 
ATOM     23  O   LIG d   1     -10.274  78.832 118.536  0.00  0.00    -0.241 OA
ATOM     24  O   LIG d   1     -10.165  80.799 119.422  0.00  0.00    -0.241 OA
ENDBRANCH   3  22
TORSDOF 7
ENDMDL
MODEL 7
REMARK VINA RESULT:      -5.1      1.911      2.723
REMARK  7 active torsions:
REMARK  status: ('A' for Active; 'I' for Inactive)
REMARK    1  A    between atoms: C_2  and  C_3 
REMARK    2  A    between atoms: C_3  and  O_6 
REMARK    3  A    between atoms: C_3  and  C_4 
REMARK    4  A    between atoms: C_7  and  O_6 
REMARK    5  A    between atoms: C_9  and  C_10 
REMARK    6  A    between atoms: N_15  and  C_14 
REMARK    7  A    between atoms: N_20  and  C_19 
REMARK       I    between atoms: C_22  and  N_20 
ROOT
ATOM      1  C   LIG d   1      -1.900  78.497 115.097  0.00  0.00     0.161 C 
ATOM      2  C   LIG d   1      -2.395  79.407 114.149  0.00  0.00     0.016 C 
ATOM      3  C   LIG d   1      -1.684  80.553 113.724  0.00  0.00     0.038 C 
ATOM      4  C   LIG d   1      -0.356  80.786 114.110  0.00  0.00     0.028 C 
ATOM      5  C   LIG d   1       0.002  80.166 115.457  0.00  0.00    -0.047 C 
ATOM      6  C   LIG d   1      -0.407  78.675 115.446  0.00  0.00     0.091 C 
ENDROOT
BRANCH   1   7
ATOM      7  O   LIG d   1      -2.154  77.147 114.659  0.00  0.00    -0.368 OA
BRANCH   7   8
ATOM      8  C   LIG d   1      -3.166  76.418 115.396  0.00  0.00     0.119 C 
BRANCH   8   9
ATOM      9  C   LIG d   1      -2.464  75.246 116.109  0.00  0.00     0.028 C 
ATOM     10  C   LIG d   1      -1.099  74.911 115.485  0.00  0.00     0.006 C 
ENDBRANCH   8   9
BRANCH   8  11
ATOM     11  C   LIG d   1      -4.183  75.769 114.453  0.00  0.00     0.028 C 
ATOM     12  C   LIG d   1      -5.050  74.709 115.150  0.00  0.00     0.006 C 
ENDBRANCH   8  11
ENDBRANCH   7   8
ENDBRANCH   1   7
BRANCH   6  13
ATOM     13  N   LIG d   1      -0.169  78.013 116.756  0.00  0.00    -0.311 N 
ATOM     14  C   LIG d   1      -0.839  78.321 117.865  0.00  0.00     0.210 C 
ATOM     15  C   LIG d   1      -0.424  77.532 119.111  0.00  0.00     0.109 C 
ATOM     16  O   LIG d   1      -1.760  79.149 117.929  0.00  0.00    -0.276 OA
ATOM     17  H   LIG d   1       0.539  77.306 116.787  0.00  0.00     0.149 HD
ENDBRANCH   6  13
BRANCH   5  18
ATOM     18  N   LIG d   1       1.447  80.367 115.671  0.00  0.00     0.381 N 
ATOM     19  H   LIG d   1       1.601  81.234 116.147  0.00  0.00    -0.090 HD
ATOM     20  H   LIG d   1       1.905  80.413 114.777  0.00  0.00    -0.090 HD
ATOM     21  H   LIG d   1       1.821  79.615 116.206  0.00  0.00    -0.090 HD
ENDBRANCH   5  18
BRANCH   3  22
ATOM     22  C   LIG d   1      -2.317  81.501 112.935  0.00  0.00     0.382 C 
ATOM     23  O   LIG d   1      -3.562  81.461 112.784  0.00  0.00    -0.241 OA
ATOM     24  O   LIG d   1      -1.654  82.368 112.336  0.00  0.00    -0.241 OA
ENDBRANCH   3  22
TORSDOF 7
ENDMDL
MODEL 8
REMARK VINA RESULT:      -5.1      2.570      5.022
REMARK  7 active torsions:
REMARK  status: ('A' for Active; 'I' for Inactive)
REMARK    1  A    between atoms: C_2  and  C_3 
REMARK    2  A    between atoms: C_3  and  O_6 
REMARK    3  A    between atoms: C_3  and  C_4 
REMARK    4  A    between atoms: C_7  and  O_6 
REMARK    5  A    between atoms: C_9  and  C_10 
REMARK    6  A    between atoms: N_15  and  C_14 
REMARK    7  A    between atoms: N_20  and  C_19 
REMARK       I    between atoms: C_22  and  N_20 
ROOT
ATOM      1  C   LIG d   1      -0.762  77.099 115.323  0.00  0.00     0.161 C 
ATOM      2  C   LIG d   1      -2.029  76.899 114.750  0.00  0.00     0.016 C 
ATOM      3  C   LIG d   1      -2.886  75.833 115.109  0.00  0.00     0.038 C 
ATOM      4  C   LIG d   1      -2.594  74.976 116.180  0.00  0.00     0.028 C 
ATOM      5  C   LIG d   1      -1.100  74.831 116.451  0.00  0.00    -0.047 C 
ATOM      6  C   LIG d   1      -0.473  76.239 116.571  0.00  0.00     0.091 C 
ENDROOT
BRANCH   1   7
ATOM      7  O   LIG d   1      -0.575  78.496 115.623  0.00  0.00    -0.368 OA
BRANCH   7   8
ATOM      8  C   LIG d   1      -1.540  79.407 115.041  0.00  0.00     0.119 C 
BRANCH   8   9
ATOM      9  C   LIG d   1      -0.775  80.340 114.082  0.00  0.00     0.028 C 
ATOM     10  C   LIG d   1      -1.718  81.147 113.173  0.00  0.00     0.006 C 
ENDBRANCH   8   9
BRANCH   8  11
ATOM     11  C   LIG d   1      -2.148  80.328 116.103  0.00  0.00     0.028 C 
ATOM     12  C   LIG d   1      -3.493  79.811 116.640  0.00  0.00     0.006 C 
ENDBRANCH   8  11
ENDBRANCH   7   8
ENDBRANCH   1   7
BRANCH   6  13
ATOM     13  N   LIG d   1       1.001  76.189 116.752  0.00  0.00    -0.311 N 
ATOM     14  C   LIG d   1       1.618  76.594 117.861  0.00  0.00     0.210 C 
ATOM     15  C   LIG d   1       3.145  76.476 117.832  0.00  0.00     0.109 C 
ATOM     16  O   LIG d   1       1.043  77.011 118.878  0.00  0.00    -0.276 OA
ATOM     17  H   LIG d   1       1.543  75.835 115.988  0.00  0.00     0.149 HD
ENDBRANCH   6  13
BRANCH   5  18
ATOM     18  N   LIG d   1      -0.945  74.022 117.674  0.00  0.00     0.381 N 
ATOM     19  H   LIG d   1      -0.096  73.495 117.627  0.00  0.00    -0.090 HD
ATOM     20  H   LIG d   1      -1.714  73.378 117.738  0.00  0.00    -0.090 HD
ATOM     21  H   LIG d   1      -0.932  74.615 118.475  0.00  0.00    -0.090 HD
ENDBRANCH   5  18
BRANCH   3  22
ATOM     22  C   LIG d   1      -4.032  75.593 114.366  0.00  0.00     0.382 C 
ATOM     23  O   LIG d   1      -4.195  76.166 113.262  0.00  0.00    -0.241 OA
ATOM     24  O   LIG d   1      -4.924  74.844 114.806  0.00  0.00    -0.241 OA
ENDBRANCH   3  22
TORSDOF 7
ENDMDL
MODEL 9
REMARK VINA RESULT:      -5.0      4.567      6.862
REMARK  7 active torsions:
REMARK  status: ('A' for Active; 'I' for Inactive)
REMARK    1  A    between atoms: C_2  and  C_3 
REMARK    2  A    between atoms: C_3  and  O_6 
REMARK    3  A    between atoms: C_3  and  C_4 
REMARK    4  A    between atoms: C_7  and  O_6 
REMARK    5  A    between atoms: C_9  and  C_10 
REMARK    6  A    between atoms: N_15  and  C_14 
REMARK    7  A    between atoms: N_20  and  C_19 
REMARK       I    between atoms: C_22  and  N_20 
ROOT
ATOM      1  C   LIG d   1      -6.103  77.245 116.621  0.00  0.00     0.161 C 
ATOM      2  C   LIG d   1      -7.195  76.370 116.494  0.00  0.00     0.016 C 
ATOM      3  C   LIG d   1      -8.416  76.544 117.185  0.00  0.00     0.038 C 
ATOM      4  C   LIG d   1      -8.684  77.697 117.938  0.00  0.00     0.028 C 
ATOM      5  C   LIG d   1      -7.430  78.358 118.500  0.00  0.00    -0.047 C 
ATOM      6  C   LIG d   1      -6.416  78.567 117.352  0.00  0.00     0.091 C 
ENDROOT
BRANCH   1   7
ATOM      7  O   LIG d   1      -5.537  77.511 115.322  0.00  0.00    -0.368 OA
BRANCH   7   8
ATOM      8  C   LIG d   1      -4.241  76.919 115.058  0.00  0.00     0.119 C 
BRANCH   8   9
ATOM      9  C   LIG d   1      -4.448  75.796 114.024  0.00  0.00     0.028 C 
ATOM     10  C   LIG d   1      -4.722  74.434 114.684  0.00  0.00     0.006 C 
ENDBRANCH   8   9
BRANCH   8  11
ATOM     11  C   LIG d   1      -3.681  76.227 116.304  0.00  0.00     0.028 C 
ATOM     12  C   LIG d   1      -2.391  76.883 116.821  0.00  0.00     0.006 C 
ENDBRANCH   8  11
ENDBRANCH   7   8
ENDBRANCH   1   7
BRANCH   6  13
ATOM     13  N   LIG d   1      -5.127  79.132 117.830  0.00  0.00    -0.311 N 
ATOM     14  C   LIG d   1      -4.886  80.440 117.914  0.00  0.00     0.210 C 
ATOM     15  C   LIG d   1      -3.485  80.808 118.413  0.00  0.00     0.109 C 
ATOM     16  O   LIG d   1      -5.710  81.329 117.654  0.00  0.00    -0.276 OA
ATOM     17  H   LIG d   1      -4.412  78.481 118.091  0.00  0.00     0.149 HD
ENDBRANCH   6  13
BRANCH   5  18
ATOM     18  N   LIG d   1      -7.841  79.620 119.144  0.00  0.00     0.381 N 
ATOM     19  H   LIG d   1      -8.794  79.822 118.916  0.00  0.00    -0.090 HD
ATOM     20  H   LIG d   1      -7.268  80.367 118.793  0.00  0.00    -0.090 HD
ATOM     21  H   LIG d   1      -7.737  79.548 120.132  0.00  0.00    -0.090 HD
ENDBRANCH   5  18
BRANCH   3  22
ATOM     22  C   LIG d   1      -9.371  75.539 117.157  0.00  0.00     0.382 C 
ATOM     23  O   LIG d   1      -9.022  74.347 116.982  0.00  0.00    -0.241 OA
ATOM     24  O   LIG d   1     -10.582  75.815 117.261  0.00  0.00    -0.241 OA
ENDBRANCH   3  22
TORSDOF 7
ENDMDL
