MODEL 1
REMARK VINA RESULT:      -5.2      0.000      0.000
REMARK  7 active torsions:
REMARK  status: ('A' for Active; 'I' for Inactive)
REMARK    1  A    between atoms: C_2  and  C_3 
REMARK    2  A    between atoms: C_3  and  O_6 
REMARK    3  A    between atoms: C_3  and  C_4 
REMARK    4  A    between atoms: C_7  and  O_6 
REMARK    5  A    between atoms: C_9  and  C_10 
REMARK    6  A    between atoms: N_15  and  C_14 
REMARK    7  A    between atoms: N_20  and  C_19 
REMARK       I    between atoms: C_22  and  N_20 
ROOT
ATOM      1  C   LIG d   1      -2.040  75.140 114.886  0.00  0.00     0.161 C 
ATOM      2  C   LIG d   1      -1.832  74.119 115.829  0.00  0.00     0.016 C 
ATOM      3  C   LIG d   1      -1.007  74.269 116.967  0.00  0.00     0.038 C 
ATOM      4  C   LIG d   1      -0.451  75.507 117.323  0.00  0.00     0.028 C 
ATOM      5  C   LIG d   1      -0.223  76.432 116.133  0.00  0.00    -0.047 C 
ATOM      6  C   LIG d   1      -1.531  76.532 115.316  0.00  0.00     0.091 C 
ENDROOT
BRANCH   1   7
ATOM      7  O   LIG d   1      -3.436  75.203 114.535  0.00  0.00    -0.368 OA
BRANCH   7   8
ATOM      8  C   LIG d   1      -4.368  74.736 115.541  0.00  0.00     0.119 C 
BRANCH   8   9
ATOM      9  C   LIG d   1      -5.551  74.076 114.806  0.00  0.00     0.028 C 
ATOM     10  C   LIG d   1      -6.314  73.081 115.696  0.00  0.00     0.006 C 
ENDBRANCH   8   9
BRANCH   8  11
ATOM     11  C   LIG d   1      -4.977  75.904 116.323  0.00  0.00     0.028 C 
ATOM     12  C   LIG d   1      -4.426  76.014 117.754  0.00  0.00     0.006 C 
ENDBRANCH   8  11
ENDBRANCH   7   8
ENDBRANCH   1   7
BRANCH   6  13
ATOM     13  N   LIG d   1      -1.371  77.351 114.087  0.00  0.00    -0.311 N 
ATOM     14  C   LIG d   1      -2.154  78.387 113.789  0.00  0.00     0.210 C 
ATOM     15  C   LIG d   1      -1.829  79.083 112.463  0.00  0.00     0.109 C 
ATOM     16  O   LIG d   1      -3.066  78.814 114.512  0.00  0.00    -0.276 OA
ATOM     17  H   LIG d   1      -0.635  77.093 113.459  0.00  0.00     0.149 HD
ENDBRANCH   6  13
BRANCH   5  18
ATOM     18  N   LIG d   1       0.229  77.734 116.661  0.00  0.00     0.381 N 
ATOM     19  H   LIG d   1      -0.476  78.426 116.504  0.00  0.00    -0.090 HD
ATOM     20  H   LIG d   1       1.060  78.013 116.169  0.00  0.00    -0.090 HD
ATOM     21  H   LIG d   1       0.421  77.658 117.636  0.00  0.00    -0.090 HD
ENDBRANCH   5  18
BRANCH   3  22
ATOM     22  C   LIG d   1      -0.699  73.161 117.743  0.00  0.00     0.382 C 
ATOM     23  O   LIG d   1      -0.282  72.111 117.198  0.00  0.00    -0.241 OA
ATOM     24  O   LIG d   1      -0.875  73.185 118.976  0.00  0.00    -0.241 OA
ENDBRANCH   3  22
TORSDOF 7
ENDMDL
MODEL 2
REMARK VINA RESULT:      -5.1      3.905      5.883
REMARK  7 active torsions:
REMARK  status: ('A' for Active; 'I' for Inactive)
REMARK    1  A    between atoms: C_2  and  C_3 
REMARK    2  A    between atoms: C_3  and  O_6 
REMARK    3  A    between atoms: C_3  and  C_4 
REMARK    4  A    between atoms: C_7  and  O_6 
REMARK    5  A    between atoms: C_9  and  C_10 
REMARK    6  A    between atoms: N_15  and  C_14 
REMARK    7  A    between atoms: N_20  and  C_19 
REMARK       I    between atoms: C_22  and  N_20 
ROOT
ATOM      1  C   LIG d   1      -6.093  76.650 116.734  0.00  0.00     0.161 C 
ATOM      2  C   LIG d   1      -7.450  76.329 116.906  0.00  0.00     0.016 C 
ATOM      3  C   LIG d   1      -8.347  77.120 117.661  0.00  0.00     0.038 C 
ATOM      4  C   LIG d   1      -7.980  78.373 118.173  0.00  0.00     0.028 C 
ATOM      5  C   LIG d   1      -6.487  78.499 118.453  0.00  0.00    -0.047 C 
ATOM      6  C   LIG d   1      -5.701  78.071 117.193  0.00  0.00     0.091 C 
ENDROOT
BRANCH   1   7
ATOM      7  O   LIG d   1      -5.713  76.445 115.359  0.00  0.00    -0.368 OA
BRANCH   7   8
ATOM      8  C   LIG d   1      -4.836  75.320 115.102  0.00  0.00     0.119 C 
BRANCH   8   9
ATOM      9  C   LIG d   1      -5.684  74.215 114.442  0.00  0.00     0.028 C 
ATOM     10  C   LIG d   1      -6.155  73.156 115.453  0.00  0.00     0.006 C 
ENDBRANCH   8   9
BRANCH   8  11
ATOM     11  C   LIG d   1      -4.316  74.709 116.406  0.00  0.00     0.028 C 
ATOM     12  C   LIG d   1      -2.783  74.743 116.509  0.00  0.00     0.006 C 
ENDBRANCH   8  11
ENDBRANCH   7   8
ENDBRANCH   1   7
BRANCH   6  13
ATOM     13  N   LIG d   1      -4.231  78.084 117.409  0.00  0.00    -0.311 N 
ATOM     14  C   LIG d   1      -3.374  78.680 116.582  0.00  0.00     0.210 C 
ATOM     15  C   LIG d   1      -1.900  78.557 116.980  0.00  0.00     0.109 C 
ATOM     16  O   LIG d   1      -3.697  79.326 115.574  0.00  0.00    -0.276 OA
ATOM     17  H   LIG d   1      -3.885  77.610 118.220  0.00  0.00     0.149 HD
ENDBRANCH   6  13
BRANCH   5  18
ATOM     18  N   LIG d   1      -6.224  79.896 118.851  0.00  0.00     0.381 N 
ATOM     19  H   LIG d   1      -5.259  80.004 119.089  0.00  0.00    -0.090 HD
ATOM     20  H   LIG d   1      -6.776  80.112 119.663  0.00  0.00    -0.090 HD
ATOM     21  H   LIG d   1      -6.461  80.513 118.106  0.00  0.00    -0.090 HD
ENDBRANCH   5  18
BRANCH   3  22
ATOM     22  C   LIG d   1      -9.616  76.639 117.944  0.00  0.00     0.382 C 
ATOM     23  O   LIG d   1     -10.435  77.357 118.567  0.00  0.00    -0.241 OA
ATOM     24  O   LIG d   1      -9.938  75.479 117.622  0.00  0.00    -0.241 OA
ENDBRANCH   3  22
TORSDOF 7
ENDMDL
MODEL 3
REMARK VINA RESULT:      -4.9      4.757      6.751
REMARK  7 active torsions:
REMARK  status: ('A' for Active; 'I' for Inactive)
REMARK    1  A    between atoms: C_2  and  C_3 
REMARK    2  A    between atoms: C_3  and  O_6 
REMARK    3  A    between atoms: C_3  and  C_4 
REMARK    4  A    between atoms: C_7  and  O_6 
REMARK    5  A    between atoms: C_9  and  C_10 
REMARK    6  A    between atoms: N_15  and  C_14 
REMARK    7  A    between atoms: N_20  and  C_19 
REMARK       I    between atoms: C_22  and  N_20 
ROOT
ATOM      1  C   LIG d   1      -6.570  77.041 117.363  0.00  0.00     0.161 C 
ATOM      2  C   LIG d   1      -7.247  75.810 117.360  0.00  0.00     0.016 C 
ATOM      3  C   LIG d   1      -8.593  75.662 117.768  0.00  0.00     0.038 C 
ATOM      4  C   LIG d   1      -9.404  76.768 118.063  0.00  0.00     0.028 C 
ATOM      5  C   LIG d   1      -8.621  77.977 118.565  0.00  0.00    -0.047 C 
ATOM      6  C   LIG d   1      -7.471  78.275 117.576  0.00  0.00     0.091 C 
ENDROOT
BRANCH   1   7
ATOM      7  O   LIG d   1      -5.808  77.182 116.147  0.00  0.00    -0.368 OA
BRANCH   7   8
ATOM      8  C   LIG d   1      -4.973  76.055 115.785  0.00  0.00     0.119 C 
BRANCH   8   9
ATOM      9  C   LIG d   1      -3.538  76.584 115.594  0.00  0.00     0.028 C 
ATOM     10  C   LIG d   1      -2.482  75.471 115.702  0.00  0.00     0.006 C 
ENDBRANCH   8   9
BRANCH   8  11
ATOM     11  C   LIG d   1      -5.376  75.477 114.425  0.00  0.00     0.028 C 
ATOM     12  C   LIG d   1      -5.757  73.989 114.500  0.00  0.00     0.006 C 
ENDBRANCH   8  11
ENDBRANCH   7   8
ENDBRANCH   1   7
BRANCH   6  13
ATOM     13  N   LIG d   1      -6.604  79.391 118.036  0.00  0.00    -0.311 N 
ATOM     14  C   LIG d   1      -6.799  80.662 117.688  0.00  0.00     0.210 C 
ATOM     15  C   LIG d   1      -5.777  81.652 118.256  0.00  0.00     0.109 C 
ATOM     16  O   LIG d   1      -7.739  81.068 116.988  0.00  0.00    -0.276 OA
ATOM     17  H   LIG d   1      -5.835  79.156 118.632  0.00  0.00     0.149 HD
ENDBRANCH   6  13
BRANCH   5  18
ATOM     18  N   LIG d   1      -9.571  79.097 118.703  0.00  0.00     0.381 N 
ATOM     19  H   LIG d   1     -10.401  78.783 119.164  0.00  0.00    -0.090 HD
ATOM     20  H   LIG d   1      -9.824  79.423 117.787  0.00  0.00    -0.090 HD
ATOM     21  H   LIG d   1      -9.153  79.836 119.223  0.00  0.00    -0.090 HD
ENDBRANCH   5  18
BRANCH   3  22
ATOM     22  C   LIG d   1      -9.129  74.393 117.920  0.00  0.00     0.382 C 
ATOM     23  O   LIG d   1     -10.347  74.195 117.693  0.00  0.00    -0.241 OA
ATOM     24  O   LIG d   1      -8.420  73.452 118.325  0.00  0.00    -0.241 OA
ENDBRANCH   3  22
TORSDOF 7
ENDMDL
MODEL 4
REMARK VINA RESULT:      -4.9      2.002      4.943
REMARK  7 active torsions:
REMARK  status: ('A' for Active; 'I' for Inactive)
REMARK    1  A    between atoms: C_2  and  C_3 
REMARK    2  A    between atoms: C_3  and  O_6 
REMARK    3  A    between atoms: C_3  and  C_4 
REMARK    4  A    between atoms: C_7  and  O_6 
REMARK    5  A    between atoms: C_9  and  C_10 
REMARK    6  A    between atoms: N_15  and  C_14 
REMARK    7  A    between atoms: N_20  and  C_19 
REMARK       I    between atoms: C_22  and  N_20 
ROOT
ATOM      1  C   LIG d   1      -3.394  76.090 116.654  0.00  0.00     0.161 C 
ATOM      2  C   LIG d   1      -3.431  76.799 115.441  0.00  0.00     0.016 C 
ATOM      3  C   LIG d   1      -2.382  76.774 114.494  0.00  0.00     0.038 C 
ATOM      4  C   LIG d   1      -1.282  75.914 114.628  0.00  0.00     0.028 C 
ATOM      5  C   LIG d   1      -0.962  75.560 116.076  0.00  0.00    -0.047 C 
ATOM      6  C   LIG d   1      -2.252  75.059 116.766  0.00  0.00     0.091 C 
ENDROOT
BRANCH   1   7
ATOM      7  O   LIG d   1      -4.667  75.455 116.888  0.00  0.00    -0.368 OA
BRANCH   7   8
ATOM      8  C   LIG d   1      -5.645  75.580 115.827  0.00  0.00     0.119 C 
BRANCH   8   9
ATOM      9  C   LIG d   1      -6.992  75.947 116.480  0.00  0.00     0.028 C 
ATOM     10  C   LIG d   1      -7.523  74.832 117.397  0.00  0.00     0.006 C 
ENDBRANCH   8   9
BRANCH   8  11
ATOM     11  C   LIG d   1      -5.885  74.237 115.130  0.00  0.00     0.028 C 
ATOM     12  C   LIG d   1      -5.255  74.172 113.730  0.00  0.00     0.006 C 
ENDBRANCH   8  11
ENDBRANCH   7   8
ENDBRANCH   1   7
BRANCH   6  13
ATOM     13  N   LIG d   1      -2.046  74.771 118.210  0.00  0.00    -0.311 N 
ATOM     14  C   LIG d   1      -1.726  73.566 118.679  0.00  0.00     0.210 C 
ATOM     15  C   LIG d   1      -1.581  73.482 120.201  0.00  0.00     0.109 C 
ATOM     16  O   LIG d   1      -1.517  72.567 117.975  0.00  0.00    -0.276 OA
ATOM     17  H   LIG d   1      -2.166  75.533 118.849  0.00  0.00     0.149 HD
ENDBRANCH   6  13
BRANCH   5  18
ATOM     18  N   LIG d   1       0.115  74.552 116.062  0.00  0.00     0.381 N 
ATOM     19  H   LIG d   1       0.992  74.990 116.261  0.00  0.00    -0.090 HD
ATOM     20  H   LIG d   1       0.167  74.145 115.144  0.00  0.00    -0.090 HD
ATOM     21  H   LIG d   1      -0.072  73.844 116.737  0.00  0.00    -0.090 HD
ENDBRANCH   5  18
BRANCH   3  22
ATOM     22  C   LIG d   1      -2.408  77.647 113.417  0.00  0.00     0.382 C 
ATOM     23  O   LIG d   1      -1.696  78.680 113.429  0.00  0.00    -0.241 OA
ATOM     24  O   LIG d   1      -3.168  77.438 112.452  0.00  0.00    -0.241 OA
ENDBRANCH   3  22
TORSDOF 7
ENDMDL
MODEL 5
REMARK VINA RESULT:      -4.6      5.735      8.631
REMARK  7 active torsions:
REMARK  status: ('A' for Active; 'I' for Inactive)
REMARK    1  A    between atoms: C_2  and  C_3 
REMARK    2  A    between atoms: C_3  and  O_6 
REMARK    3  A    between atoms: C_3  and  C_4 
REMARK    4  A    between atoms: C_7  and  O_6 
REMARK    5  A    between atoms: C_9  and  C_10 
REMARK    6  A    between atoms: N_15  and  C_14 
REMARK    7  A    between atoms: N_20  and  C_19 
REMARK       I    between atoms: C_22  and  N_20 
ROOT
ATOM      1  C   LIG d   1      -0.818  83.017 112.703  0.00  0.00     0.161 C 
ATOM      2  C   LIG d   1      -1.819  82.071 112.979  0.00  0.00     0.016 C 
ATOM      3  C   LIG d   1      -1.550  80.777 113.480  0.00  0.00     0.038 C 
ATOM      4  C   LIG d   1      -0.263  80.391 113.884  0.00  0.00     0.028 C 
ATOM      5  C   LIG d   1       0.850  81.134 113.153  0.00  0.00    -0.047 C 
ATOM      6  C   LIG d   1       0.581  82.654 113.242  0.00  0.00     0.091 C 
ENDROOT
BRANCH   1   7
ATOM      7  O   LIG d   1      -1.222  84.312 113.190  0.00  0.00    -0.368 OA
BRANCH   7   8
ATOM      8  C   LIG d   1      -0.760  84.667 114.517  0.00  0.00     0.119 C 
BRANCH   8   9
ATOM      9  C   LIG d   1      -1.969  84.575 115.468  0.00  0.00     0.028 C 
ATOM     10  C   LIG d   1      -1.849  83.402 116.456  0.00  0.00     0.006 C 
ENDBRANCH   8   9
BRANCH   8  11
ATOM     11  C   LIG d   1      -0.307  86.129 114.576  0.00  0.00     0.028 C 
ATOM     12  C   LIG d   1       0.951  86.328 115.436  0.00  0.00     0.006 C 
ENDBRANCH   8  11
ENDBRANCH   7   8
ENDBRANCH   1   7
BRANCH   6  13
ATOM     13  N   LIG d   1       1.577  83.452 112.481  0.00  0.00    -0.311 N 
ATOM     14  C   LIG d   1       2.715  83.901 113.008  0.00  0.00     0.210 C 
ATOM     15  C   LIG d   1       3.591  84.720 112.055  0.00  0.00     0.109 C 
ATOM     16  O   LIG d   1       3.097  83.671 114.166  0.00  0.00    -0.276 OA
ATOM     17  H   LIG d   1       1.362  83.657 111.525  0.00  0.00     0.149 HD
ENDBRANCH   6  13
BRANCH   5  18
ATOM     18  N   LIG d   1       2.130  80.736 113.767  0.00  0.00     0.381 N 
ATOM     19  H   LIG d   1       2.890  81.145 113.261  0.00  0.00    -0.090 HD
ATOM     20  H   LIG d   1       2.218  79.737 113.716  0.00  0.00    -0.090 HD
ATOM     21  H   LIG d   1       2.158  81.032 114.718  0.00  0.00    -0.090 HD
ENDBRANCH   5  18
BRANCH   3  22
ATOM     22  C   LIG d   1      -2.569  79.838 113.543  0.00  0.00     0.382 C 
ATOM     23  O   LIG d   1      -2.931  79.235 112.505  0.00  0.00    -0.241 OA
ATOM     24  O   LIG d   1      -3.160  79.620 114.618  0.00  0.00    -0.241 OA
ENDBRANCH   3  22
TORSDOF 7
ENDMDL
MODEL 6
REMARK VINA RESULT:      -4.6     15.665     18.634
REMARK  7 active torsions:
REMARK  status: ('A' for Active; 'I' for Inactive)
REMARK    1  A    between atoms: C_2  and  C_3 
REMARK    2  A    between atoms: C_3  and  O_6 
REMARK    3  A    between atoms: C_3  and  C_4 
REMARK    4  A    between atoms: C_7  and  O_6 
REMARK    5  A    between atoms: C_9  and  C_10 
REMARK    6  A    between atoms: N_15  and  C_14 
REMARK    7  A    between atoms: N_20  and  C_19 
REMARK       I    between atoms: C_22  and  N_20 
ROOT
ATOM      1  C   LIG d   1     -16.756  64.434 115.411  0.00  0.00     0.161 C 
ATOM      2  C   LIG d   1     -16.336  65.332 114.416  0.00  0.00     0.016 C 
ATOM      3  C   LIG d   1     -15.555  66.480 114.682  0.00  0.00     0.038 C 
ATOM      4  C   LIG d   1     -15.010  66.727 115.951  0.00  0.00     0.028 C 
ATOM      5  C   LIG d   1     -15.824  66.121 117.089  0.00  0.00    -0.047 C 
ATOM      6  C   LIG d   1     -16.078  64.627 116.784  0.00  0.00     0.091 C 
ENDROOT
BRANCH   1   7
ATOM      7  O   LIG d   1     -16.581  63.079 114.952  0.00  0.00    -0.368 OA
BRANCH   7   8
ATOM      8  C   LIG d   1     -17.794  62.312 114.752  0.00  0.00     0.119 C 
BRANCH   8   9
ATOM      9  C   LIG d   1     -17.898  61.994 113.248  0.00  0.00     0.028 C 
ATOM     10  C   LIG d   1     -18.710  63.050 112.480  0.00  0.00     0.006 C 
ENDBRANCH   8   9
BRANCH   8  11
ATOM     11  C   LIG d   1     -19.039  63.144 115.078  0.00  0.00     0.028 C 
ATOM     12  C   LIG d   1     -19.920  62.499 116.160  0.00  0.00     0.006 C 
ENDBRANCH   8  11
ENDBRANCH   7   8
ENDBRANCH   1   7
BRANCH   6  13
ATOM     13  N   LIG d   1     -16.940  63.979 117.806  0.00  0.00    -0.311 N 
ATOM     14  C   LIG d   1     -16.460  63.297 118.845  0.00  0.00     0.210 C 
ATOM     15  C   LIG d   1     -17.522  62.692 119.768  0.00  0.00     0.109 C 
ATOM     16  O   LIG d   1     -15.255  63.164 119.107  0.00  0.00    -0.276 OA
ATOM     17  H   LIG d   1     -17.931  64.064 117.688  0.00  0.00     0.149 HD
ENDBRANCH   6  13
BRANCH   5  18
ATOM     18  N   LIG d   1     -15.072  66.336 118.339  0.00  0.00     0.381 N 
ATOM     19  H   LIG d   1     -14.913  65.459 118.794  0.00  0.00    -0.090 HD
ATOM     20  H   LIG d   1     -15.619  66.915 118.953  0.00  0.00    -0.090 HD
ATOM     21  H   LIG d   1     -14.202  66.779 118.142  0.00  0.00    -0.090 HD
ENDBRANCH   5  18
BRANCH   3  22
ATOM     22  C   LIG d   1     -15.345  67.416 113.681  0.00  0.00     0.382 C 
ATOM     23  O   LIG d   1     -15.180  68.624 113.977  0.00  0.00    -0.241 OA
ATOM     24  O   LIG d   1     -15.362  67.074 112.483  0.00  0.00    -0.241 OA
ENDBRANCH   3  22
TORSDOF 7
ENDMDL
MODEL 7
REMARK VINA RESULT:      -4.6     10.014     12.715
REMARK  7 active torsions:
REMARK  status: ('A' for Active; 'I' for Inactive)
REMARK    1  A    between atoms: C_2  and  C_3 
REMARK    2  A    between atoms: C_3  and  O_6 
REMARK    3  A    between atoms: C_3  and  C_4 
REMARK    4  A    between atoms: C_7  and  O_6 
REMARK    5  A    between atoms: C_9  and  C_10 
REMARK    6  A    between atoms: N_15  and  C_14 
REMARK    7  A    between atoms: N_20  and  C_19 
REMARK       I    between atoms: C_22  and  N_20 
ROOT
ATOM      1  C   LIG d   1       2.594  86.221 115.440  0.00  0.00     0.161 C 
ATOM      2  C   LIG d   1       2.553  87.344 114.597  0.00  0.00     0.016 C 
ATOM      3  C   LIG d   1       3.626  88.255 114.461  0.00  0.00     0.038 C 
ATOM      4  C   LIG d   1       4.877  88.019 115.049  0.00  0.00     0.028 C 
ATOM      5  C   LIG d   1       4.803  87.165 116.310  0.00  0.00    -0.047 C 
ATOM      6  C   LIG d   1       3.991  85.886 116.003  0.00  0.00     0.091 C 
ENDROOT
BRANCH   1   7
ATOM      7  O   LIG d   1       2.041  85.078 114.758  0.00  0.00    -0.368 OA
BRANCH   7   8
ATOM      8  C   LIG d   1       0.748  84.620 115.225  0.00  0.00     0.119 C 
BRANCH   8   9
ATOM      9  C   LIG d   1      -0.292  85.000 114.154  0.00  0.00     0.028 C 
ATOM     10  C   LIG d   1      -1.566  85.610 114.762  0.00  0.00     0.006 C 
ENDBRANCH   8   9
BRANCH   8  11
ATOM     11  C   LIG d   1       0.317  85.367 116.491  0.00  0.00     0.028 C 
ATOM     12  C   LIG d   1       0.220  84.449 117.720  0.00  0.00     0.006 C 
ENDBRANCH   8  11
ENDBRANCH   7   8
ENDBRANCH   1   7
BRANCH   6  13
ATOM     13  N   LIG d   1       3.798  85.035 117.206  0.00  0.00    -0.311 N 
ATOM     14  C   LIG d   1       4.072  83.732 117.234  0.00  0.00     0.210 C 
ATOM     15  C   LIG d   1       3.782  83.038 118.568  0.00  0.00     0.109 C 
ATOM     16  O   LIG d   1       4.558  83.091 116.289  0.00  0.00    -0.276 OA
ATOM     17  H   LIG d   1       3.437  85.480 118.027  0.00  0.00     0.149 HD
ENDBRANCH   6  13
BRANCH   5  18
ATOM     18  N   LIG d   1       6.186  86.882 116.739  0.00  0.00     0.381 N 
ATOM     19  H   LIG d   1       6.275  85.915 116.979  0.00  0.00    -0.090 HD
ATOM     20  H   LIG d   1       6.391  87.430 117.556  0.00  0.00    -0.090 HD
ATOM     21  H   LIG d   1       6.823  87.111 116.008  0.00  0.00    -0.090 HD
ENDBRANCH   5  18
BRANCH   3  22
ATOM     22  C   LIG d   1       3.439  89.438 113.763  0.00  0.00     0.382 C 
ATOM     23  O   LIG d   1       3.049  89.407 112.570  0.00  0.00    -0.241 OA
ATOM     24  O   LIG d   1       3.697  90.534 114.296  0.00  0.00    -0.241 OA
ENDBRANCH   3  22
TORSDOF 7
ENDMDL
MODEL 8
REMARK VINA RESULT:      -4.5     16.169     19.123
REMARK  7 active torsions:
REMARK  status: ('A' for Active; 'I' for Inactive)
REMARK    1  A    between atoms: C_2  and  C_3 
REMARK    2  A    between atoms: C_3  and  O_6 
REMARK    3  A    between atoms: C_3  and  C_4 
REMARK    4  A    between atoms: C_7  and  O_6 
REMARK    5  A    between atoms: C_9  and  C_10 
REMARK    6  A    between atoms: N_15  and  C_14 
REMARK    7  A    between atoms: N_20  and  C_19 
REMARK       I    between atoms: C_22  and  N_20 
ROOT
ATOM      1  C   LIG d   1     -17.446  63.801 115.688  0.00  0.00     0.161 C 
ATOM      2  C   LIG d   1     -17.730  62.538 115.142  0.00  0.00     0.016 C 
ATOM      3  C   LIG d   1     -17.535  62.218 113.778  0.00  0.00     0.038 C 
ATOM      4  C   LIG d   1     -16.896  63.100 112.894  0.00  0.00     0.028 C 
ATOM      5  C   LIG d   1     -17.054  64.566 113.282  0.00  0.00    -0.047 C 
ATOM      6  C   LIG d   1     -16.645  64.740 114.763  0.00  0.00     0.091 C 
ENDROOT
BRANCH   1   7
ATOM      7  O   LIG d   1     -16.771  63.646 116.951  0.00  0.00    -0.368 OA
BRANCH   7   8
ATOM      8  C   LIG d   1     -17.559  63.925 118.134  0.00  0.00     0.119 C 
BRANCH   8   9
ATOM      9  C   LIG d   1     -16.971  65.186 118.796  0.00  0.00     0.028 C 
ATOM     10  C   LIG d   1     -18.026  66.285 119.006  0.00  0.00     0.006 C 
ENDBRANCH   8   9
BRANCH   8  11
ATOM     11  C   LIG d   1     -17.411  62.814 119.178  0.00  0.00     0.028 C 
ATOM     12  C   LIG d   1     -16.006  62.762 119.798  0.00  0.00     0.006 C 
ENDBRANCH   8  11
ENDBRANCH   7   8
ENDBRANCH   1   7
BRANCH   6  13
ATOM     13  N   LIG d   1     -16.850  66.130 115.247  0.00  0.00    -0.311 N 
ATOM     14  C   LIG d   1     -15.880  66.869 115.784  0.00  0.00     0.210 C 
ATOM     15  C   LIG d   1     -16.310  68.269 116.237  0.00  0.00     0.109 C 
ATOM     16  O   LIG d   1     -14.699  66.511 115.899  0.00  0.00    -0.276 OA
ATOM     17  H   LIG d   1     -17.772  66.512 115.164  0.00  0.00     0.149 HD
ENDBRANCH   6  13
BRANCH   5  18
ATOM     18  N   LIG d   1     -16.226  65.363 112.356  0.00  0.00     0.381 N 
ATOM     19  H   LIG d   1     -15.271  65.075 112.422  0.00  0.00    -0.090 HD
ATOM     20  H   LIG d   1     -16.283  66.331 112.621  0.00  0.00    -0.090 HD
ATOM     21  H   LIG d   1     -16.552  65.248 111.422  0.00  0.00    -0.090 HD
ENDBRANCH   5  18
BRANCH   3  22
ATOM     22  C   LIG d   1     -18.017  61.018 113.278  0.00  0.00     0.382 C 
ATOM     23  O   LIG d   1     -17.375  59.957 113.467  0.00  0.00    -0.241 OA
ATOM     24  O   LIG d   1     -19.063  60.990 112.602  0.00  0.00    -0.241 OA
ENDBRANCH   3  22
TORSDOF 7
ENDMDL
MODEL 9
REMARK VINA RESULT:      -4.5     11.943     14.195
REMARK  7 active torsions:
REMARK  status: ('A' for Active; 'I' for Inactive)
REMARK    1  A    between atoms: C_2  and  C_3 
REMARK    2  A    between atoms: C_3  and  O_6 
REMARK    3  A    between atoms: C_3  and  C_4 
REMARK    4  A    between atoms: C_7  and  O_6 
REMARK    5  A    between atoms: C_9  and  C_10 
REMARK    6  A    between atoms: N_15  and  C_14 
REMARK    7  A    between atoms: N_20  and  C_19 
REMARK       I    between atoms: C_22  and  N_20 
ROOT
ATOM      1  C   LIG d   1      10.869  75.898 115.511  0.00  0.00     0.161 C 
ATOM      2  C   LIG d   1       9.475  75.874 115.686  0.00  0.00     0.016 C 
ATOM      3  C   LIG d   1       8.639  76.984 115.423  0.00  0.00     0.038 C 
ATOM      4  C   LIG d   1       9.126  78.152 114.819  0.00  0.00     0.028 C 
ATOM      5  C   LIG d   1      10.605  78.405 115.092  0.00  0.00    -0.047 C 
ATOM      6  C   LIG d   1      11.404  77.127 114.747  0.00  0.00     0.091 C 
ENDROOT
BRANCH   1   7
ATOM      7  O   LIG d   1      11.301  74.682 114.868  0.00  0.00    -0.368 OA
BRANCH   7   8
ATOM      8  C   LIG d   1      11.747  73.620 115.748  0.00  0.00     0.119 C 
BRANCH   8   9
ATOM      9  C   LIG d   1      13.064  74.084 116.401  0.00  0.00     0.028 C 
ATOM     10  C   LIG d   1      14.297  73.719 115.557  0.00  0.00     0.006 C 
ENDBRANCH   8   9
BRANCH   8  11
ATOM     11  C   LIG d   1      12.108  72.358 114.959  0.00  0.00     0.028 C 
ATOM     12  C   LIG d   1      11.417  71.098 115.503  0.00  0.00     0.006 C 
ENDBRANCH   8  11
ENDBRANCH   7   8
ENDBRANCH   1   7
BRANCH   6  13
ATOM     13  N   LIG d   1      12.849  77.260 115.065  0.00  0.00    -0.311 N 
ATOM     14  C   LIG d   1      13.761  77.659 114.180  0.00  0.00     0.210 C 
ATOM     15  C   LIG d   1      15.198  77.707 114.708  0.00  0.00     0.109 C 
ATOM     16  O   LIG d   1      13.512  78.008 113.016  0.00  0.00    -0.276 OA
ATOM     17  H   LIG d   1      13.135  77.026 115.996  0.00  0.00     0.149 HD
ENDBRANCH   6  13
BRANCH   5  18
ATOM     18  N   LIG d   1      11.012  79.575 114.292  0.00  0.00     0.381 N 
ATOM     19  H   LIG d   1      11.527  80.214 114.865  0.00  0.00    -0.090 HD
ATOM     20  H   LIG d   1      10.188  80.044 113.959  0.00  0.00    -0.090 HD
ATOM     21  H   LIG d   1      11.572  79.283 113.522  0.00  0.00    -0.090 HD
ENDBRANCH   5  18
BRANCH   3  22
ATOM     22  C   LIG d   1       7.306  76.945 115.803  0.00  0.00     0.382 C 
ATOM     23  O   LIG d   1       6.435  77.501 115.092  0.00  0.00    -0.241 OA
ATOM     24  O   LIG d   1       6.969  76.399 116.870  0.00  0.00    -0.241 OA
ENDBRANCH   3  22
TORSDOF 7
ENDMDL
