MODEL 1
REMARK VINA RESULT:      -5.8      0.000      0.000
REMARK  7 active torsions:
REMARK  status: ('A' for Active; 'I' for Inactive)
REMARK    1  A    between atoms: C_2  and  C_3 
REMARK    2  A    between atoms: C_3  and  O_6 
REMARK    3  A    between atoms: C_3  and  C_4 
REMARK    4  A    between atoms: C_7  and  O_6 
REMARK    5  A    between atoms: C_9  and  C_10 
REMARK    6  A    between atoms: N_15  and  C_14 
REMARK    7  A    between atoms: N_20  and  C_19 
REMARK       I    between atoms: C_22  and  N_20 
ROOT
ATOM      1  C   LIG d   1      -7.723  75.940 117.882  0.00  0.00     0.161 C 
ATOM      2  C   LIG d   1      -8.956  76.519 118.225  0.00  0.00     0.016 C 
ATOM      3  C   LIG d   1      -9.140  77.909 118.407  0.00  0.00     0.038 C 
ATOM      4  C   LIG d   1      -8.130  78.836 118.109  0.00  0.00     0.028 C 
ATOM      5  C   LIG d   1      -6.723  78.263 118.246  0.00  0.00    -0.047 C 
ATOM      6  C   LIG d   1      -6.637  76.945 117.444  0.00  0.00     0.091 C 
ENDROOT
BRANCH   1   7
ATOM      7  O   LIG d   1      -7.920  74.939 116.864  0.00  0.00    -0.368 OA
BRANCH   7   8
ATOM      8  C   LIG d   1      -7.877  73.561 117.308  0.00  0.00     0.119 C 
BRANCH   8   9
ATOM      9  C   LIG d   1      -6.969  72.788 116.333  0.00  0.00     0.028 C 
ATOM     10  C   LIG d   1      -6.329  73.703 115.276  0.00  0.00     0.006 C 
ENDBRANCH   8   9
BRANCH   8  11
ATOM     11  C   LIG d   1      -9.253  72.897 117.196  0.00  0.00     0.028 C 
ATOM     12  C   LIG d   1      -9.166  71.406 116.832  0.00  0.00     0.006 C 
ENDBRANCH   8  11
ENDBRANCH   7   8
ENDBRANCH   1   7
BRANCH   6  13
ATOM     13  N   LIG d   1      -5.319  76.275 117.593  0.00  0.00    -0.311 N 
ATOM     14  C   LIG d   1      -4.310  76.444 116.740  0.00  0.00     0.210 C 
ATOM     15  C   LIG d   1      -3.045  75.644 117.069  0.00  0.00     0.109 C 
ATOM     16  O   LIG d   1      -4.332  77.204 115.760  0.00  0.00    -0.276 OA
ATOM     17  H   LIG d   1      -5.203  75.665 118.379  0.00  0.00     0.149 HD
ENDBRANCH   6  13
BRANCH   5  18
ATOM     18  N   LIG d   1      -5.775  79.291 117.774  0.00  0.00     0.381 N 
ATOM     19  H   LIG d   1      -6.264  80.145 117.596  0.00  0.00    -0.090 HD
ATOM     20  H   LIG d   1      -5.361  78.979 116.914  0.00  0.00    -0.090 HD
ATOM     21  H   LIG d   1      -5.066  79.441 118.458  0.00  0.00    -0.090 HD
ENDBRANCH   5  18
BRANCH   3  22
ATOM     22  C   LIG d   1     -10.333  78.382 118.931  0.00  0.00     0.382 C 
ATOM     23  O   LIG d   1     -10.408  79.559 119.358  0.00  0.00    -0.241 OA
ATOM     24  O   LIG d   1     -11.324  77.633 119.023  0.00  0.00    -0.241 OA
ENDBRANCH   3  22
TORSDOF 7
ENDMDL
MODEL 2
REMARK VINA RESULT:      -5.8      3.393      5.496
REMARK  7 active torsions:
REMARK  status: ('A' for Active; 'I' for Inactive)
REMARK    1  A    between atoms: C_2  and  C_3 
REMARK    2  A    between atoms: C_3  and  O_6 
REMARK    3  A    between atoms: C_3  and  C_4 
REMARK    4  A    between atoms: C_7  and  O_6 
REMARK    5  A    between atoms: C_9  and  C_10 
REMARK    6  A    between atoms: N_15  and  C_14 
REMARK    7  A    between atoms: N_20  and  C_19 
REMARK       I    between atoms: C_22  and  N_20 
ROOT
ATOM      1  C   LIG d   1      -4.350  75.229 116.586  0.00  0.00     0.161 C 
ATOM      2  C   LIG d   1      -4.790  75.541 115.289  0.00  0.00     0.016 C 
ATOM      3  C   LIG d   1      -3.913  75.795 114.209  0.00  0.00     0.038 C 
ATOM      4  C   LIG d   1      -2.527  75.606 114.319  0.00  0.00     0.028 C 
ATOM      5  C   LIG d   1      -2.003  75.784 115.740  0.00  0.00    -0.047 C 
ATOM      6  C   LIG d   1      -2.844  74.910 116.698  0.00  0.00     0.091 C 
ENDROOT
BRANCH   1   7
ATOM      7  O   LIG d   1      -5.133  74.145 117.121  0.00  0.00    -0.368 OA
BRANCH   7   8
ATOM      8  C   LIG d   1      -6.432  73.936 116.512  0.00  0.00     0.119 C 
BRANCH   8   9
ATOM      9  C   LIG d   1      -7.499  74.318 117.556  0.00  0.00     0.028 C 
ATOM     10  C   LIG d   1      -8.078  75.723 117.316  0.00  0.00     0.006 C 
ENDBRANCH   8   9
BRANCH   8  11
ATOM     11  C   LIG d   1      -6.674  72.454 116.210  0.00  0.00     0.028 C 
ATOM     12  C   LIG d   1      -8.116  72.014 116.503  0.00  0.00     0.006 C 
ENDBRANCH   8  11
ENDBRANCH   7   8
ENDBRANCH   1   7
BRANCH   6  13
ATOM     13  N   LIG d   1      -2.452  75.088 118.120  0.00  0.00    -0.311 N 
ATOM     14  C   LIG d   1      -1.534  74.338 118.728  0.00  0.00     0.210 C 
ATOM     15  C   LIG d   1      -1.294  74.676 120.202  0.00  0.00     0.109 C 
ATOM     16  O   LIG d   1      -0.872  73.445 118.176  0.00  0.00    -0.276 OA
ATOM     17  H   LIG d   1      -2.916  75.811 118.635  0.00  0.00     0.149 HD
ENDBRANCH   6  13
BRANCH   5  18
ATOM     18  N   LIG d   1      -0.572  75.424 115.735  0.00  0.00     0.381 N 
ATOM     19  H   LIG d   1      -0.023  76.215 116.006  0.00  0.00    -0.090 HD
ATOM     20  H   LIG d   1      -0.307  75.160 114.803  0.00  0.00    -0.090 HD
ATOM     21  H   LIG d   1      -0.409  74.667 116.362  0.00  0.00    -0.090 HD
ENDBRANCH   5  18
BRANCH   3  22
ATOM     22  C   LIG d   1      -4.418  76.283 113.014  0.00  0.00     0.382 C 
ATOM     23  O   LIG d   1      -4.044  77.401 112.584  0.00  0.00    -0.241 OA
ATOM     24  O   LIG d   1      -5.277  75.639 112.381  0.00  0.00    -0.241 OA
ENDBRANCH   3  22
TORSDOF 7
ENDMDL
MODEL 3
REMARK VINA RESULT:      -5.6      2.525      5.024
REMARK  7 active torsions:
REMARK  status: ('A' for Active; 'I' for Inactive)
REMARK    1  A    between atoms: C_2  and  C_3 
REMARK    2  A    between atoms: C_3  and  O_6 
REMARK    3  A    between atoms: C_3  and  C_4 
REMARK    4  A    between atoms: C_7  and  O_6 
REMARK    5  A    between atoms: C_9  and  C_10 
REMARK    6  A    between atoms: N_15  and  C_14 
REMARK    7  A    between atoms: N_20  and  C_19 
REMARK       I    between atoms: C_22  and  N_20 
ROOT
ATOM      1  C   LIG d   1      -5.915  75.711 115.947  0.00  0.00     0.161 C 
ATOM      2  C   LIG d   1      -6.419  74.409 115.786  0.00  0.00     0.016 C 
ATOM      3  C   LIG d   1      -7.375  73.833 116.654  0.00  0.00     0.038 C 
ATOM      4  C   LIG d   1      -8.008  74.578 117.660  0.00  0.00     0.028 C 
ATOM      5  C   LIG d   1      -7.165  75.739 118.175  0.00  0.00    -0.047 C 
ATOM      6  C   LIG d   1      -6.676  76.577 116.972  0.00  0.00     0.091 C 
ENDROOT
BRANCH   1   7
ATOM      7  O   LIG d   1      -5.864  76.376 114.669  0.00  0.00    -0.368 OA
BRANCH   7   8
ATOM      8  C   LIG d   1      -5.321  75.604 113.570  0.00  0.00     0.119 C 
BRANCH   8   9
ATOM      9  C   LIG d   1      -3.787  75.601 113.720  0.00  0.00     0.028 C 
ATOM     10  C   LIG d   1      -3.215  77.014 113.928  0.00  0.00     0.006 C 
ENDBRANCH   8   9
BRANCH   8  11
ATOM     11  C   LIG d   1      -5.596  76.280 112.224  0.00  0.00     0.028 C 
ATOM     12  C   LIG d   1      -7.008  76.881 112.137  0.00  0.00     0.006 C 
ENDBRANCH   8  11
ENDBRANCH   7   8
ENDBRANCH   1   7
BRANCH   6  13
ATOM     13  N   LIG d   1      -5.775  77.685 117.382  0.00  0.00    -0.311 N 
ATOM     14  C   LIG d   1      -6.207  78.908 117.685  0.00  0.00     0.210 C 
ATOM     15  C   LIG d   1      -5.108  79.907 118.063  0.00  0.00     0.109 C 
ATOM     16  O   LIG d   1      -7.398  79.252 117.707  0.00  0.00    -0.276 OA
ATOM     17  H   LIG d   1      -4.794  77.485 117.421  0.00  0.00     0.149 HD
ENDBRANCH   6  13
BRANCH   5  18
ATOM     18  N   LIG d   1      -7.998  76.511 119.118  0.00  0.00     0.381 N 
ATOM     19  H   LIG d   1      -8.602  77.126 118.610  0.00  0.00    -0.090 HD
ATOM     20  H   LIG d   1      -7.398  77.067 119.700  0.00  0.00    -0.090 HD
ATOM     21  H   LIG d   1      -8.539  75.892 119.680  0.00  0.00    -0.090 HD
ENDBRANCH   5  18
BRANCH   3  22
ATOM     22  C   LIG d   1      -7.677  72.484 116.544  0.00  0.00     0.382 C 
ATOM     23  O   LIG d   1      -7.180  71.804 115.615  0.00  0.00    -0.241 OA
ATOM     24  O   LIG d   1      -8.475  71.949 117.337  0.00  0.00    -0.241 OA
ENDBRANCH   3  22
TORSDOF 7
ENDMDL
MODEL 4
REMARK VINA RESULT:      -5.5      1.488      2.534
REMARK  7 active torsions:
REMARK  status: ('A' for Active; 'I' for Inactive)
REMARK    1  A    between atoms: C_2  and  C_3 
REMARK    2  A    between atoms: C_3  and  O_6 
REMARK    3  A    between atoms: C_3  and  C_4 
REMARK    4  A    between atoms: C_7  and  O_6 
REMARK    5  A    between atoms: C_9  and  C_10 
REMARK    6  A    between atoms: N_15  and  C_14 
REMARK    7  A    between atoms: N_20  and  C_19 
REMARK       I    between atoms: C_22  and  N_20 
ROOT
ATOM      1  C   LIG d   1      -6.107  75.001 117.912  0.00  0.00     0.161 C 
ATOM      2  C   LIG d   1      -7.485  75.272 117.878  0.00  0.00     0.016 C 
ATOM      3  C   LIG d   1      -8.019  76.578 117.783  0.00  0.00     0.038 C 
ATOM      4  C   LIG d   1      -7.204  77.698 117.561  0.00  0.00     0.028 C 
ATOM      5  C   LIG d   1      -5.785  77.529 118.094  0.00  0.00    -0.047 C 
ATOM      6  C   LIG d   1      -5.203  76.200 117.560  0.00  0.00     0.091 C 
ENDROOT
BRANCH   1   7
ATOM      7  O   LIG d   1      -5.808  73.880 117.057  0.00  0.00    -0.368 OA
BRANCH   7   8
ATOM      8  C   LIG d   1      -6.651  73.728 115.888  0.00  0.00     0.119 C 
BRANCH   8   9
ATOM      9  C   LIG d   1      -6.943  72.224 115.720  0.00  0.00     0.028 C 
ATOM     10  C   LIG d   1      -8.191  71.778 116.500  0.00  0.00     0.006 C 
ENDBRANCH   8   9
BRANCH   8  11
ATOM     11  C   LIG d   1      -5.913  74.143 114.611  0.00  0.00     0.028 C 
ATOM     12  C   LIG d   1      -6.238  75.580 114.176  0.00  0.00     0.006 C 
ENDBRANCH   8  11
ENDBRANCH   7   8
ENDBRANCH   1   7
BRANCH   6  13
ATOM     13  N   LIG d   1      -3.848  75.917 118.101  0.00  0.00    -0.311 N 
ATOM     14  C   LIG d   1      -2.833  75.492 117.351  0.00  0.00     0.210 C 
ATOM     15  C   LIG d   1      -1.527  75.241 118.112  0.00  0.00     0.109 C 
ATOM     16  O   LIG d   1      -2.880  75.331 116.122  0.00  0.00    -0.276 OA
ATOM     17  H   LIG d   1      -3.712  76.051 119.084  0.00  0.00     0.149 HD
ENDBRANCH   6  13
BRANCH   5  18
ATOM     18  N   LIG d   1      -5.008  78.711 117.675  0.00  0.00     0.381 N 
ATOM     19  H   LIG d   1      -5.558  79.278 117.062  0.00  0.00    -0.090 HD
ATOM     20  H   LIG d   1      -4.193  78.403 117.174  0.00  0.00    -0.090 HD
ATOM     21  H   LIG d   1      -4.735  79.240 118.474  0.00  0.00    -0.090 HD
ENDBRANCH   5  18
BRANCH   3  22
ATOM     22  C   LIG d   1      -9.381  76.777 117.949  0.00  0.00     0.382 C 
ATOM     23  O   LIG d   1     -10.186  75.850 117.692  0.00  0.00    -0.241 OA
ATOM     24  O   LIG d   1      -9.818  77.886 118.310  0.00  0.00    -0.241 OA
ENDBRANCH   3  22
TORSDOF 7
ENDMDL
MODEL 5
REMARK VINA RESULT:      -5.3      2.709      4.751
REMARK  7 active torsions:
REMARK  status: ('A' for Active; 'I' for Inactive)
REMARK    1  A    between atoms: C_2  and  C_3 
REMARK    2  A    between atoms: C_3  and  O_6 
REMARK    3  A    between atoms: C_3  and  C_4 
REMARK    4  A    between atoms: C_7  and  O_6 
REMARK    5  A    between atoms: C_9  and  C_10 
REMARK    6  A    between atoms: N_15  and  C_14 
REMARK    7  A    between atoms: N_20  and  C_19 
REMARK       I    between atoms: C_22  and  N_20 
ROOT
ATOM      1  C   LIG d   1      -5.366  74.551 117.001  0.00  0.00     0.161 C 
ATOM      2  C   LIG d   1      -6.270  73.519 116.699  0.00  0.00     0.016 C 
ATOM      3  C   LIG d   1      -7.655  73.593 116.972  0.00  0.00     0.038 C 
ATOM      4  C   LIG d   1      -8.259  74.773 117.431  0.00  0.00     0.028 C 
ATOM      5  C   LIG d   1      -7.312  75.669 118.223  0.00  0.00    -0.047 C 
ATOM      6  C   LIG d   1      -6.023  75.890 117.399  0.00  0.00     0.091 C 
ENDROOT
BRANCH   1   7
ATOM      7  O   LIG d   1      -4.461  74.746 115.897  0.00  0.00    -0.368 OA
BRANCH   7   8
ATOM      8  C   LIG d   1      -4.829  75.775 114.945  0.00  0.00     0.119 C 
BRANCH   8   9
ATOM      9  C   LIG d   1      -5.280  75.068 113.652  0.00  0.00     0.028 C 
ATOM     10  C   LIG d   1      -5.558  76.059 112.509  0.00  0.00     0.006 C 
ENDBRANCH   8   9
BRANCH   8  11
ATOM     11  C   LIG d   1      -3.617  76.621 114.543  0.00  0.00     0.028 C 
ATOM     12  C   LIG d   1      -2.324  75.798 114.438  0.00  0.00     0.006 C 
ENDBRANCH   8  11
ENDBRANCH   7   8
ENDBRANCH   1   7
BRANCH   6  13
ATOM     13  N   LIG d   1      -5.008  76.686 118.137  0.00  0.00    -0.311 N 
ATOM     14  C   LIG d   1      -4.844  77.998 117.972  0.00  0.00     0.210 C 
ATOM     15  C   LIG d   1      -3.728  78.621 118.816  0.00  0.00     0.109 C 
ATOM     16  O   LIG d   1      -5.538  78.710 117.230  0.00  0.00    -0.276 OA
ATOM     17  H   LIG d   1      -4.423  76.194 118.783  0.00  0.00     0.149 HD
ENDBRANCH   6  13
BRANCH   5  18
ATOM     18  N   LIG d   1      -8.030  76.923 118.520  0.00  0.00     0.381 N 
ATOM     19  H   LIG d   1      -7.407  77.700 118.426  0.00  0.00    -0.090 HD
ATOM     20  H   LIG d   1      -8.356  76.893 119.470  0.00  0.00    -0.090 HD
ATOM     21  H   LIG d   1      -8.802  77.029 117.900  0.00  0.00    -0.090 HD
ENDBRANCH   5  18
BRANCH   3  22
ATOM     22  C   LIG d   1      -8.446  72.464 116.824  0.00  0.00     0.382 C 
ATOM     23  O   LIG d   1      -9.565  72.403 117.388  0.00  0.00    -0.241 OA
ATOM     24  O   LIG d   1      -8.036  71.487 116.169  0.00  0.00    -0.241 OA
ENDBRANCH   3  22
TORSDOF 7
ENDMDL
MODEL 6
REMARK VINA RESULT:      -5.2      2.201      4.912
REMARK  7 active torsions:
REMARK  status: ('A' for Active; 'I' for Inactive)
REMARK    1  A    between atoms: C_2  and  C_3 
REMARK    2  A    between atoms: C_3  and  O_6 
REMARK    3  A    between atoms: C_3  and  C_4 
REMARK    4  A    between atoms: C_7  and  O_6 
REMARK    5  A    between atoms: C_9  and  C_10 
REMARK    6  A    between atoms: N_15  and  C_14 
REMARK    7  A    between atoms: N_20  and  C_19 
REMARK       I    between atoms: C_22  and  N_20 
ROOT
ATOM      1  C   LIG d   1      -6.585  75.270 116.465  0.00  0.00     0.161 C 
ATOM      2  C   LIG d   1      -6.309  75.171 115.091  0.00  0.00     0.016 C 
ATOM      3  C   LIG d   1      -5.075  75.553 114.515  0.00  0.00     0.038 C 
ATOM      4  C   LIG d   1      -3.973  75.920 115.301  0.00  0.00     0.028 C 
ATOM      5  C   LIG d   1      -4.362  76.516 116.650  0.00  0.00    -0.047 C 
ATOM      6  C   LIG d   1      -5.356  75.563 117.351  0.00  0.00     0.091 C 
ENDROOT
BRANCH   1   7
ATOM      7  O   LIG d   1      -7.254  74.076 116.916  0.00  0.00    -0.368 OA
BRANCH   7   8
ATOM      8  C   LIG d   1      -8.519  74.272 117.595  0.00  0.00     0.119 C 
BRANCH   8   9
ATOM      9  C   LIG d   1      -9.436  73.093 117.217  0.00  0.00     0.028 C 
ATOM     10  C   LIG d   1      -8.647  71.879 116.699  0.00  0.00     0.006 C 
ENDBRANCH   8   9
BRANCH   8  11
ATOM     11  C   LIG d   1      -9.237  75.525 117.086  0.00  0.00     0.028 C 
ATOM     12  C   LIG d   1     -10.005  76.264 118.193  0.00  0.00     0.006 C 
ENDBRANCH   8  11
ENDBRANCH   7   8
ENDBRANCH   1   7
BRANCH   6  13
ATOM     13  N   LIG d   1      -5.853  76.111 118.640  0.00  0.00    -0.311 N 
ATOM     14  C   LIG d   1      -6.466  77.289 118.749  0.00  0.00     0.210 C 
ATOM     15  C   LIG d   1      -6.880  77.674 120.173  0.00  0.00     0.109 C 
ATOM     16  O   LIG d   1      -6.735  78.036 117.797  0.00  0.00    -0.276 OA
ATOM     17  H   LIG d   1      -5.704  75.556 119.460  0.00  0.00     0.149 HD
ENDBRANCH   6  13
BRANCH   5  18
ATOM     18  N   LIG d   1      -3.121  76.725 117.419  0.00  0.00     0.381 N 
ATOM     19  H   LIG d   1      -2.329  76.654 116.811  0.00  0.00    -0.090 HD
ATOM     20  H   LIG d   1      -3.047  76.007 118.118  0.00  0.00    -0.090 HD
ATOM     21  H   LIG d   1      -3.136  77.621 117.854  0.00  0.00    -0.090 HD
ENDBRANCH   5  18
BRANCH   3  22
ATOM     22  C   LIG d   1      -4.948  75.608 113.136  0.00  0.00     0.382 C 
ATOM     23  O   LIG d   1      -4.906  74.547 112.467  0.00  0.00    -0.241 OA
ATOM     24  O   LIG d   1      -4.830  76.703 112.555  0.00  0.00    -0.241 OA
ENDBRANCH   3  22
TORSDOF 7
ENDMDL
MODEL 7
REMARK VINA RESULT:      -5.2      4.736      7.021
REMARK  7 active torsions:
REMARK  status: ('A' for Active; 'I' for Inactive)
REMARK    1  A    between atoms: C_2  and  C_3 
REMARK    2  A    between atoms: C_3  and  O_6 
REMARK    3  A    between atoms: C_3  and  C_4 
REMARK    4  A    between atoms: C_7  and  O_6 
REMARK    5  A    between atoms: C_9  and  C_10 
REMARK    6  A    between atoms: N_15  and  C_14 
REMARK    7  A    between atoms: N_20  and  C_19 
REMARK       I    between atoms: C_22  and  N_20 
ROOT
ATOM      1  C   LIG d   1      -2.198  75.881 115.398  0.00  0.00     0.161 C 
ATOM      2  C   LIG d   1      -1.958  75.044 116.501  0.00  0.00     0.016 C 
ATOM      3  C   LIG d   1      -0.852  75.198 117.369  0.00  0.00     0.038 C 
ATOM      4  C   LIG d   1       0.012  76.300 117.280  0.00  0.00     0.028 C 
ATOM      5  C   LIG d   1       0.101  76.888 115.876  0.00  0.00    -0.047 C 
ATOM      6  C   LIG d   1      -1.328  77.154 115.351  0.00  0.00     0.091 C 
ENDROOT
BRANCH   1   7
ATOM      7  O   LIG d   1      -3.596  76.226 115.342  0.00  0.00    -0.368 OA
BRANCH   7   8
ATOM      8  C   LIG d   1      -4.424  75.398 114.489  0.00  0.00     0.119 C 
BRANCH   8   9
ATOM      9  C   LIG d   1      -4.478  76.071 113.103  0.00  0.00     0.028 C 
ATOM     10  C   LIG d   1      -5.912  76.177 112.558  0.00  0.00     0.006 C 
ENDBRANCH   8   9
BRANCH   8  11
ATOM     11  C   LIG d   1      -5.874  75.366 114.980  0.00  0.00     0.028 C 
ATOM     12  C   LIG d   1      -6.278  73.999 115.555  0.00  0.00     0.006 C 
ENDBRANCH   8  11
ENDBRANCH   7   8
ENDBRANCH   1   7
BRANCH   6  13
ATOM     13  N   LIG d   1      -1.335  77.652 113.951  0.00  0.00    -0.311 N 
ATOM     14  C   LIG d   1      -2.061  78.692 113.546  0.00  0.00     0.210 C 
ATOM     15  C   LIG d   1      -1.937  79.027 112.056  0.00  0.00     0.109 C 
ATOM     16  O   LIG d   1      -2.772  79.390 114.286  0.00  0.00    -0.276 OA
ATOM     17  H   LIG d   1      -0.762  77.164 113.291  0.00  0.00     0.149 HD
ENDBRANCH   6  13
BRANCH   5  18
ATOM     18  N   LIG d   1       0.924  78.109 115.956  0.00  0.00     0.381 N 
ATOM     19  H   LIG d   1       0.859  78.502 116.874  0.00  0.00    -0.090 HD
ATOM     20  H   LIG d   1       0.572  78.783 115.299  0.00  0.00    -0.090 HD
ATOM     21  H   LIG d   1       1.874  77.895 115.746  0.00  0.00    -0.090 HD
ENDBRANCH   5  18
BRANCH   3  22
ATOM     22  C   LIG d   1      -0.579  74.221 118.314  0.00  0.00     0.382 C 
ATOM     23  O   LIG d   1      -1.475  73.413 118.657  0.00  0.00    -0.241 OA
ATOM     24  O   LIG d   1       0.539  74.166 118.860  0.00  0.00    -0.241 OA
ENDBRANCH   3  22
TORSDOF 7
ENDMDL
MODEL 8
REMARK VINA RESULT:      -5.2      3.249      6.482
REMARK  7 active torsions:
REMARK  status: ('A' for Active; 'I' for Inactive)
REMARK    1  A    between atoms: C_2  and  C_3 
REMARK    2  A    between atoms: C_3  and  O_6 
REMARK    3  A    between atoms: C_3  and  C_4 
REMARK    4  A    between atoms: C_7  and  O_6 
REMARK    5  A    between atoms: C_9  and  C_10 
REMARK    6  A    between atoms: N_15  and  C_14 
REMARK    7  A    between atoms: N_20  and  C_19 
REMARK       I    between atoms: C_22  and  N_20 
ROOT
ATOM      1  C   LIG d   1      -3.703  75.012 116.534  0.00  0.00     0.161 C 
ATOM      2  C   LIG d   1      -2.728  74.691 117.494  0.00  0.00     0.016 C 
ATOM      3  C   LIG d   1      -1.338  74.806 117.259  0.00  0.00     0.038 C 
ATOM      4  C   LIG d   1      -0.829  75.397 116.094  0.00  0.00     0.028 C 
ATOM      5  C   LIG d   1      -1.761  75.269 114.893  0.00  0.00    -0.047 C 
ATOM      6  C   LIG d   1      -3.170  75.763 115.296  0.00  0.00     0.091 C 
ENDROOT
BRANCH   1   7
ATOM      7  O   LIG d   1      -4.770  75.758 117.152  0.00  0.00    -0.368 OA
BRANCH   7   8
ATOM      8  C   LIG d   1      -5.930  74.993 117.562  0.00  0.00     0.119 C 
BRANCH   8   9
ATOM      9  C   LIG d   1      -6.721  74.635 116.289  0.00  0.00     0.028 C 
ATOM     10  C   LIG d   1      -6.828  73.116 116.072  0.00  0.00     0.006 C 
ENDBRANCH   8   9
BRANCH   8  11
ATOM     11  C   LIG d   1      -6.885  75.839 118.408  0.00  0.00     0.028 C 
ATOM     12  C   LIG d   1      -7.935  76.577 117.563  0.00  0.00     0.006 C 
ENDBRANCH   8  11
ENDBRANCH   7   8
ENDBRANCH   1   7
BRANCH   6  13
ATOM     13  N   LIG d   1      -4.164  75.594 114.205  0.00  0.00    -0.311 N 
ATOM     14  C   LIG d   1      -4.420  76.532 113.295  0.00  0.00     0.210 C 
ATOM     15  C   LIG d   1      -5.496  76.161 112.269  0.00  0.00     0.109 C 
ATOM     16  O   LIG d   1      -3.836  77.624 113.221  0.00  0.00    -0.276 OA
ATOM     17  H   LIG d   1      -4.661  74.726 114.171  0.00  0.00     0.149 HD
ENDBRANCH   6  13
BRANCH   5  18
ATOM     18  N   LIG d   1      -1.171  76.046 113.786  0.00  0.00     0.381 N 
ATOM     19  H   LIG d   1      -1.859  76.661 113.400  0.00  0.00    -0.090 HD
ATOM     20  H   LIG d   1      -0.875  75.411 113.066  0.00  0.00    -0.090 HD
ATOM     21  H   LIG d   1      -0.392  76.572 114.116  0.00  0.00    -0.090 HD
ENDBRANCH   5  18
BRANCH   3  22
ATOM     22  C   LIG d   1      -0.441  74.289 118.182  0.00  0.00     0.382 C 
ATOM     23  O   LIG d   1      -0.602  73.129 118.632  0.00  0.00    -0.241 OA
ATOM     24  O   LIG d   1       0.502  74.985 118.603  0.00  0.00    -0.241 OA
ENDBRANCH   3  22
TORSDOF 7
ENDMDL
MODEL 9
REMARK VINA RESULT:      -5.0      3.668      5.826
REMARK  7 active torsions:
REMARK  status: ('A' for Active; 'I' for Inactive)
REMARK    1  A    between atoms: C_2  and  C_3 
REMARK    2  A    between atoms: C_3  and  O_6 
REMARK    3  A    between atoms: C_3  and  C_4 
REMARK    4  A    between atoms: C_7  and  O_6 
REMARK    5  A    between atoms: C_9  and  C_10 
REMARK    6  A    between atoms: N_15  and  C_14 
REMARK    7  A    between atoms: N_20  and  C_19 
REMARK       I    between atoms: C_22  and  N_20 
ROOT
ATOM      1  C   LIG d   1      -4.391  75.261 116.676  0.00  0.00     0.161 C 
ATOM      2  C   LIG d   1      -5.378  74.298 116.943  0.00  0.00     0.016 C 
ATOM      3  C   LIG d   1      -6.241  73.773 115.953  0.00  0.00     0.038 C 
ATOM      4  C   LIG d   1      -6.073  74.068 114.592  0.00  0.00     0.028 C 
ATOM      5  C   LIG d   1      -5.416  75.421 114.341  0.00  0.00    -0.047 C 
ATOM      6  C   LIG d   1      -4.119  75.511 115.178  0.00  0.00     0.091 C 
ENDROOT
BRANCH   1   7
ATOM      7  O   LIG d   1      -3.169  74.909 117.354  0.00  0.00    -0.368 OA
BRANCH   7   8
ATOM      8  C   LIG d   1      -2.770  75.778 118.443  0.00  0.00     0.119 C 
BRANCH   8   9
ATOM      9  C   LIG d   1      -3.820  76.901 118.546  0.00  0.00     0.028 C 
ATOM     10  C   LIG d   1      -4.331  77.096 119.984  0.00  0.00     0.006 C 
ENDBRANCH   8   9
BRANCH   8  11
ATOM     11  C   LIG d   1      -1.448  76.487 118.134  0.00  0.00     0.028 C 
ATOM     12  C   LIG d   1      -0.595  75.734 117.101  0.00  0.00     0.006 C 
ENDBRANCH   8  11
ENDBRANCH   7   8
ENDBRANCH   1   7
BRANCH   6  13
ATOM     13  N   LIG d   1      -3.458  76.836 115.056  0.00  0.00    -0.311 N 
ATOM     14  C   LIG d   1      -2.466  77.085 114.202  0.00  0.00     0.210 C 
ATOM     15  C   LIG d   1      -1.912  78.512 114.252  0.00  0.00     0.109 C 
ATOM     16  O   LIG d   1      -2.015  76.268 113.385  0.00  0.00    -0.276 OA
ATOM     17  H   LIG d   1      -3.783  77.566 115.660  0.00  0.00     0.149 HD
ENDBRANCH   6  13
BRANCH   5  18
ATOM     18  N   LIG d   1      -5.177  75.538 112.890  0.00  0.00     0.381 N 
ATOM     19  H   LIG d   1      -5.094  76.502 112.638  0.00  0.00    -0.090 HD
ATOM     20  H   LIG d   1      -5.963  75.150 112.399  0.00  0.00    -0.090 HD
ATOM     21  H   LIG d   1      -4.346  75.049 112.641  0.00  0.00    -0.090 HD
ENDBRANCH   5  18
BRANCH   3  22
ATOM     22  C   LIG d   1      -7.311  72.975 116.328  0.00  0.00     0.382 C 
ATOM     23  O   LIG d   1      -7.453  71.837 115.818  0.00  0.00    -0.241 OA
ATOM     24  O   LIG d   1      -8.161  73.396 117.135  0.00  0.00    -0.241 OA
ENDBRANCH   3  22
TORSDOF 7
ENDMDL
