MODEL 1
REMARK VINA RESULT:      -5.8      0.000      0.000
REMARK  7 active torsions:
REMARK  status: ('A' for Active; 'I' for Inactive)
REMARK    1  A    between atoms: C_2  and  C_3 
REMARK    2  A    between atoms: C_3  and  O_6 
REMARK    3  A    between atoms: C_3  and  C_4 
REMARK    4  A    between atoms: C_7  and  O_6 
REMARK    5  A    between atoms: C_9  and  C_10 
REMARK    6  A    between atoms: N_15  and  C_14 
REMARK    7  A    between atoms: N_20  and  C_19 
REMARK       I    between atoms: C_22  and  N_20 
ROOT
ATOM      1  C   LIG d   1      -6.247  76.893 117.125  0.00  0.00     0.161 C 
ATOM      2  C   LIG d   1      -7.587  77.063 117.514  0.00  0.00     0.016 C 
ATOM      3  C   LIG d   1      -8.012  78.049 118.433  0.00  0.00     0.038 C 
ATOM      4  C   LIG d   1      -7.141  79.038 118.914  0.00  0.00     0.028 C 
ATOM      5  C   LIG d   1      -5.681  78.598 118.942  0.00  0.00    -0.047 C 
ATOM      6  C   LIG d   1      -5.300  78.033 117.554  0.00  0.00     0.091 C 
ENDROOT
BRANCH   1   7
ATOM      7  O   LIG d   1      -6.174  76.691 115.700  0.00  0.00    -0.368 OA
BRANCH   7   8
ATOM      8  C   LIG d   1      -6.293  75.321 115.244  0.00  0.00     0.119 C 
BRANCH   8   9
ATOM      9  C   LIG d   1      -5.755  74.411 116.365  0.00  0.00     0.028 C 
ATOM     10  C   LIG d   1      -6.196  72.947 116.196  0.00  0.00     0.006 C 
ENDBRANCH   8   9
BRANCH   8  11
ATOM     11  C   LIG d   1      -5.389  75.054 114.037  0.00  0.00     0.028 C 
ATOM     12  C   LIG d   1      -3.894  75.143 114.381  0.00  0.00     0.006 C 
ENDBRANCH   8  11
ENDBRANCH   7   8
ENDBRANCH   1   7
BRANCH   6  13
ATOM     13  N   LIG d   1      -3.913  77.503 117.519  0.00  0.00    -0.311 N 
ATOM     14  C   LIG d   1      -3.042  77.790 116.553  0.00  0.00     0.210 C 
ATOM     15  C   LIG d   1      -1.671  77.121 116.698  0.00  0.00     0.109 C 
ATOM     16  O   LIG d   1      -3.264  78.560 115.607  0.00  0.00    -0.276 OA
ATOM     17  H   LIG d   1      -3.638  76.894 118.266  0.00  0.00     0.149 HD
ENDBRANCH   6  13
BRANCH   5  18
ATOM     18  N   LIG d   1      -4.870  79.767 119.332  0.00  0.00     0.381 N 
ATOM     19  H   LIG d   1      -4.490  80.203 118.516  0.00  0.00    -0.090 HD
ATOM     20  H   LIG d   1      -4.108  79.456 119.908  0.00  0.00    -0.090 HD
ATOM     21  H   LIG d   1      -5.432  80.419 119.835  0.00  0.00    -0.090 HD
ENDBRANCH   5  18
BRANCH   3  22
ATOM     22  C   LIG d   1      -9.313  78.028 118.911  0.00  0.00     0.382 C 
ATOM     23  O   LIG d   1      -9.577  77.435 119.984  0.00  0.00    -0.241 OA
ATOM     24  O   LIG d   1     -10.234  78.557 118.260  0.00  0.00    -0.241 OA
ENDBRANCH   3  22
TORSDOF 7
ENDMDL
MODEL 2
REMARK VINA RESULT:      -5.6     14.297     15.958
REMARK  7 active torsions:
REMARK  status: ('A' for Active; 'I' for Inactive)
REMARK    1  A    between atoms: C_2  and  C_3 
REMARK    2  A    between atoms: C_3  and  O_6 
REMARK    3  A    between atoms: C_3  and  C_4 
REMARK    4  A    between atoms: C_7  and  O_6 
REMARK    5  A    between atoms: C_9  and  C_10 
REMARK    6  A    between atoms: N_15  and  C_14 
REMARK    7  A    between atoms: N_20  and  C_19 
REMARK       I    between atoms: C_22  and  N_20 
ROOT
ATOM      1  C   LIG d   1      -5.966  92.633 117.463  0.00  0.00     0.161 C 
ATOM      2  C   LIG d   1      -7.142  93.402 117.464  0.00  0.00     0.016 C 
ATOM      3  C   LIG d   1      -7.304  94.573 118.239  0.00  0.00     0.038 C 
ATOM      4  C   LIG d   1      -6.241  95.142 118.955  0.00  0.00     0.028 C 
ATOM      5  C   LIG d   1      -5.188  94.126 119.385  0.00  0.00    -0.047 C 
ATOM      6  C   LIG d   1      -4.757  93.298 118.152  0.00  0.00     0.091 C 
ENDROOT
BRANCH   1   7
ATOM      7  O   LIG d   1      -5.629  92.257 116.113  0.00  0.00    -0.368 OA
BRANCH   7   8
ATOM      8  C   LIG d   1      -5.612  90.836 115.832  0.00  0.00     0.119 C 
BRANCH   8   9
ATOM      9  C   LIG d   1      -6.415  90.611 114.536  0.00  0.00     0.028 C 
ATOM     10  C   LIG d   1      -6.909  91.928 113.915  0.00  0.00     0.006 C 
ENDBRANCH   8   9
BRANCH   8  11
ATOM     11  C   LIG d   1      -6.357  90.045 116.912  0.00  0.00     0.028 C 
ATOM     12  C   LIG d   1      -7.573  89.284 116.361  0.00  0.00     0.006 C 
ENDBRANCH   8  11
ENDBRANCH   7   8
ENDBRANCH   1   7
BRANCH   6  13
ATOM     13  N   LIG d   1      -3.791  92.224 118.501  0.00  0.00    -0.311 N 
ATOM     14  C   LIG d   1      -2.476  92.335 118.321  0.00  0.00     0.210 C 
ATOM     15  C   LIG d   1      -1.661  91.103 118.728  0.00  0.00     0.109 C 
ATOM     16  O   LIG d   1      -1.903  93.349 117.894  0.00  0.00    -0.276 OA
ATOM     17  H   LIG d   1      -4.167  91.379 118.883  0.00  0.00     0.149 HD
ENDBRANCH   6  13
BRANCH   5  18
ATOM     18  N   LIG d   1      -4.073  94.871 119.999  0.00  0.00     0.381 N 
ATOM     19  H   LIG d   1      -3.912  94.535 120.928  0.00  0.00    -0.090 HD
ATOM     20  H   LIG d   1      -4.324  95.843 120.055  0.00  0.00    -0.090 HD
ATOM     21  H   LIG d   1      -3.248  94.764 119.451  0.00  0.00    -0.090 HD
ENDBRANCH   5  18
BRANCH   3  22
ATOM     22  C   LIG d   1      -8.554  95.166 118.334  0.00  0.00     0.382 C 
ATOM     23  O   LIG d   1      -8.704  96.369 118.010  0.00  0.00    -0.241 OA
ATOM     24  O   LIG d   1      -9.525  94.527 118.782  0.00  0.00    -0.241 OA
ENDBRANCH   3  22
TORSDOF 7
ENDMDL
MODEL 3
REMARK VINA RESULT:      -5.5     13.434     15.721
REMARK  7 active torsions:
REMARK  status: ('A' for Active; 'I' for Inactive)
REMARK    1  A    between atoms: C_2  and  C_3 
REMARK    2  A    between atoms: C_3  and  O_6 
REMARK    3  A    between atoms: C_3  and  C_4 
REMARK    4  A    between atoms: C_7  and  O_6 
REMARK    5  A    between atoms: C_9  and  C_10 
REMARK    6  A    between atoms: N_15  and  C_14 
REMARK    7  A    between atoms: N_20  and  C_19 
REMARK       I    between atoms: C_22  and  N_20 
ROOT
ATOM      1  C   LIG d   1      -5.430  91.256 118.079  0.00  0.00     0.161 C 
ATOM      2  C   LIG d   1      -4.978  90.264 117.192  0.00  0.00     0.016 C 
ATOM      3  C   LIG d   1      -5.425  90.154 115.855  0.00  0.00     0.038 C 
ATOM      4  C   LIG d   1      -6.247  91.126 115.266  0.00  0.00     0.028 C 
ATOM      5  C   LIG d   1      -7.127  91.864 116.268  0.00  0.00    -0.047 C 
ATOM      6  C   LIG d   1      -6.242  92.391 117.421  0.00  0.00     0.091 C 
ENDROOT
BRANCH   1   7
ATOM      7  O   LIG d   1      -4.315  91.798 118.814  0.00  0.00    -0.368 OA
BRANCH   7   8
ATOM      8  C   LIG d   1      -3.178  92.226 118.025  0.00  0.00     0.119 C 
BRANCH   8   9
ATOM      9  C   LIG d   1      -1.942  91.466 118.544  0.00  0.00     0.028 C 
ATOM     10  C   LIG d   1      -2.203  90.774 119.892  0.00  0.00     0.006 C 
ENDBRANCH   8   9
BRANCH   8  11
ATOM     11  C   LIG d   1      -2.868  93.708 118.252  0.00  0.00     0.028 C 
ATOM     12  C   LIG d   1      -3.725  94.333 119.364  0.00  0.00     0.006 C 
ENDBRANCH   8  11
ENDBRANCH   7   8
ENDBRANCH   1   7
BRANCH   6  13
ATOM     13  N   LIG d   1      -7.036  93.053 118.488  0.00  0.00    -0.311 N 
ATOM     14  C   LIG d   1      -7.347  94.348 118.473  0.00  0.00     0.210 C 
ATOM     15  C   LIG d   1      -8.156  94.833 119.681  0.00  0.00     0.109 C 
ATOM     16  O   LIG d   1      -7.058  95.135 117.559  0.00  0.00    -0.276 OA
ATOM     17  H   LIG d   1      -7.338  92.482 119.253  0.00  0.00     0.149 HD
ENDBRANCH   6  13
BRANCH   5  18
ATOM     18  N   LIG d   1      -7.828  92.939 115.540  0.00  0.00     0.381 N 
ATOM     19  H   LIG d   1      -8.765  93.023 115.879  0.00  0.00    -0.090 HD
ATOM     20  H   LIG d   1      -7.866  92.699 114.565  0.00  0.00    -0.090 HD
ATOM     21  H   LIG d   1      -7.345  93.802 115.658  0.00  0.00    -0.090 HD
ENDBRANCH   5  18
BRANCH   3  22
ATOM     22  C   LIG d   1      -5.081  89.039 115.106  0.00  0.00     0.382 C 
ATOM     23  O   LIG d   1      -5.613  88.848 113.985  0.00  0.00    -0.241 OA
ATOM     24  O   LIG d   1      -4.279  88.199 115.555  0.00  0.00    -0.241 OA
ENDBRANCH   3  22
TORSDOF 7
ENDMDL
MODEL 4
REMARK VINA RESULT:      -5.3      2.900      6.008
REMARK  7 active torsions:
REMARK  status: ('A' for Active; 'I' for Inactive)
REMARK    1  A    between atoms: C_2  and  C_3 
REMARK    2  A    between atoms: C_3  and  O_6 
REMARK    3  A    between atoms: C_3  and  C_4 
REMARK    4  A    between atoms: C_7  and  O_6 
REMARK    5  A    between atoms: C_9  and  C_10 
REMARK    6  A    between atoms: N_15  and  C_14 
REMARK    7  A    between atoms: N_20  and  C_19 
REMARK       I    between atoms: C_22  and  N_20 
ROOT
ATOM      1  C   LIG d   1      -3.096  77.061 117.073  0.00  0.00     0.161 C 
ATOM      2  C   LIG d   1      -2.262  77.838 117.895  0.00  0.00     0.016 C 
ATOM      3  C   LIG d   1      -0.850  77.804 117.825  0.00  0.00     0.038 C 
ATOM      4  C   LIG d   1      -0.175  77.099 116.818  0.00  0.00     0.028 C 
ATOM      5  C   LIG d   1      -0.958  75.904 116.285  0.00  0.00    -0.047 C 
ATOM      6  C   LIG d   1      -2.379  76.370 115.894  0.00  0.00     0.091 C 
ENDROOT
BRANCH   1   7
ATOM      7  O   LIG d   1      -4.192  77.863 116.592  0.00  0.00    -0.368 OA
BRANCH   7   8
ATOM      8  C   LIG d   1      -5.392  77.856 117.404  0.00  0.00     0.119 C 
BRANCH   8   9
ATOM      9  C   LIG d   1      -6.428  76.966 116.690  0.00  0.00     0.028 C 
ATOM     10  C   LIG d   1      -6.439  75.527 117.233  0.00  0.00     0.006 C 
ENDBRANCH   8   9
BRANCH   8  11
ATOM     11  C   LIG d   1      -6.029  79.247 117.470  0.00  0.00     0.028 C 
ATOM     12  C   LIG d   1      -7.454  79.223 118.047  0.00  0.00     0.006 C 
ENDBRANCH   8  11
ENDBRANCH   7   8
ENDBRANCH   1   7
BRANCH   6  13
ATOM     13  N   LIG d   1      -3.240  75.246 115.441  0.00  0.00    -0.311 N 
ATOM     14  C   LIG d   1      -4.013  75.304 114.358  0.00  0.00     0.210 C 
ATOM     15  C   LIG d   1      -4.835  74.042 114.082  0.00  0.00     0.109 C 
ATOM     16  O   LIG d   1      -4.071  76.270 113.582  0.00  0.00    -0.276 OA
ATOM     17  H   LIG d   1      -3.230  74.412 115.995  0.00  0.00     0.149 HD
ENDBRANCH   6  13
BRANCH   5  18
ATOM     18  N   LIG d   1      -0.200  75.345 115.149  0.00  0.00     0.381 N 
ATOM     19  H   LIG d   1      -0.834  74.991 114.461  0.00  0.00    -0.090 HD
ATOM     20  H   LIG d   1       0.364  74.582 115.480  0.00  0.00    -0.090 HD
ATOM     21  H   LIG d   1       0.380  76.048 114.747  0.00  0.00    -0.090 HD
ENDBRANCH   5  18
BRANCH   3  22
ATOM     22  C   LIG d   1      -0.099  78.450 118.794  0.00  0.00     0.382 C 
ATOM     23  O   LIG d   1       0.549  79.484 118.500  0.00  0.00    -0.241 OA
ATOM     24  O   LIG d   1      -0.024  77.987 119.948  0.00  0.00    -0.241 OA
ENDBRANCH   3  22
TORSDOF 7
ENDMDL
MODEL 5
REMARK VINA RESULT:      -5.2      1.746      4.845
REMARK  7 active torsions:
REMARK  status: ('A' for Active; 'I' for Inactive)
REMARK    1  A    between atoms: C_2  and  C_3 
REMARK    2  A    between atoms: C_3  and  O_6 
REMARK    3  A    between atoms: C_3  and  C_4 
REMARK    4  A    between atoms: C_7  and  O_6 
REMARK    5  A    between atoms: C_9  and  C_10 
REMARK    6  A    between atoms: N_15  and  C_14 
REMARK    7  A    between atoms: N_20  and  C_19 
REMARK       I    between atoms: C_22  and  N_20 
ROOT
ATOM      1  C   LIG d   1      -5.610  77.997 117.013  0.00  0.00     0.161 C 
ATOM      2  C   LIG d   1      -4.267  77.593 117.091  0.00  0.00     0.016 C 
ATOM      3  C   LIG d   1      -3.391  77.998 118.124  0.00  0.00     0.038 C 
ATOM      4  C   LIG d   1      -3.844  78.720 119.239  0.00  0.00     0.028 C 
ATOM      5  C   LIG d   1      -5.073  79.575 118.950  0.00  0.00    -0.047 C 
ATOM      6  C   LIG d   1      -6.151  78.693 118.280  0.00  0.00     0.091 C 
ENDROOT
BRANCH   1   7
ATOM      7  O   LIG d   1      -6.440  76.870 116.668  0.00  0.00    -0.368 OA
BRANCH   7   8
ATOM      8  C   LIG d   1      -5.745  75.677 116.229  0.00  0.00     0.119 C 
BRANCH   8   9
ATOM      9  C   LIG d   1      -6.117  75.441 114.753  0.00  0.00     0.028 C 
ATOM     10  C   LIG d   1      -4.897  75.521 113.820  0.00  0.00     0.006 C 
ENDBRANCH   8   9
BRANCH   8  11
ATOM     11  C   LIG d   1      -6.243  74.436 116.977  0.00  0.00     0.028 C 
ATOM     12  C   LIG d   1      -6.104  73.148 116.150  0.00  0.00     0.006 C 
ENDBRANCH   8  11
ENDBRANCH   7   8
ENDBRANCH   1   7
BRANCH   6  13
ATOM     13  N   LIG d   1      -7.355  79.471 117.886  0.00  0.00    -0.311 N 
ATOM     14  C   LIG d   1      -8.435  79.588 118.656  0.00  0.00     0.210 C 
ATOM     15  C   LIG d   1      -9.573  80.418 118.052  0.00  0.00     0.109 C 
ATOM     16  O   LIG d   1      -8.548  79.111 119.795  0.00  0.00    -0.276 OA
ATOM     17  H   LIG d   1      -7.337  79.917 116.990  0.00  0.00     0.149 HD
ENDBRANCH   6  13
BRANCH   5  18
ATOM     18  N   LIG d   1      -5.518  80.162 120.227  0.00  0.00     0.381 N 
ATOM     19  H   LIG d   1      -5.570  81.158 120.142  0.00  0.00    -0.090 HD
ATOM     20  H   LIG d   1      -4.844  79.942 120.939  0.00  0.00    -0.090 HD
ATOM     21  H   LIG d   1      -6.409  79.796 120.479  0.00  0.00    -0.090 HD
ENDBRANCH   5  18
BRANCH   3  22
ATOM     22  C   LIG d   1      -2.037  77.716 118.028  0.00  0.00     0.382 C 
ATOM     23  O   LIG d   1      -1.658  76.555 117.742  0.00  0.00    -0.241 OA
ATOM     24  O   LIG d   1      -1.190  78.597 118.265  0.00  0.00    -0.241 OA
ENDBRANCH   3  22
TORSDOF 7
ENDMDL
MODEL 6
REMARK VINA RESULT:      -5.2      9.785     12.529
REMARK  7 active torsions:
REMARK  status: ('A' for Active; 'I' for Inactive)
REMARK    1  A    between atoms: C_2  and  C_3 
REMARK    2  A    between atoms: C_3  and  O_6 
REMARK    3  A    between atoms: C_3  and  C_4 
REMARK    4  A    between atoms: C_7  and  O_6 
REMARK    5  A    between atoms: C_9  and  C_10 
REMARK    6  A    between atoms: N_15  and  C_14 
REMARK    7  A    between atoms: N_20  and  C_19 
REMARK       I    between atoms: C_22  and  N_20 
ROOT
ATOM      1  C   LIG d   1       1.934  85.392 114.496  0.00  0.00     0.161 C 
ATOM      2  C   LIG d   1       1.309  84.276 113.916  0.00  0.00     0.016 C 
ATOM      3  C   LIG d   1      -0.077  84.017 114.023  0.00  0.00     0.038 C 
ATOM      4  C   LIG d   1      -0.962  84.943 114.594  0.00  0.00     0.028 C 
ATOM      5  C   LIG d   1      -0.308  85.843 115.637  0.00  0.00    -0.047 C 
ATOM      6  C   LIG d   1       0.967  86.470 115.029  0.00  0.00     0.091 C 
ENDROOT
BRANCH   1   7
ATOM      7  O   LIG d   1       2.866  85.971 113.562  0.00  0.00    -0.368 OA
BRANCH   7   8
ATOM      8  C   LIG d   1       4.257  85.607 113.740  0.00  0.00     0.119 C 
BRANCH   8   9
ATOM      9  C   LIG d   1       5.065  86.913 113.861  0.00  0.00     0.028 C 
ATOM     10  C   LIG d   1       5.079  87.719 112.551  0.00  0.00     0.006 C 
ENDBRANCH   8   9
BRANCH   8  11
ATOM     11  C   LIG d   1       4.811  84.901 112.499  0.00  0.00     0.028 C 
ATOM     12  C   LIG d   1       4.847  83.372 112.649  0.00  0.00     0.006 C 
ENDBRANCH   8  11
ENDBRANCH   7   8
ENDBRANCH   1   7
BRANCH   6  13
ATOM     13  N   LIG d   1       1.715  87.299 116.010  0.00  0.00    -0.311 N 
ATOM     14  C   LIG d   1       2.244  88.485 115.715  0.00  0.00     0.210 C 
ATOM     15  C   LIG d   1       2.991  89.164 116.868  0.00  0.00     0.109 C 
ATOM     16  O   LIG d   1       2.138  89.054 114.619  0.00  0.00    -0.276 OA
ATOM     17  H   LIG d   1       1.822  86.927 116.934  0.00  0.00     0.149 HD
ENDBRANCH   6  13
BRANCH   5  18
ATOM     18  N   LIG d   1      -1.306  86.847 116.049  0.00  0.00     0.381 N 
ATOM     19  H   LIG d   1      -2.090  86.392 116.473  0.00  0.00    -0.090 HD
ATOM     20  H   LIG d   1      -1.630  87.338 115.234  0.00  0.00    -0.090 HD
ATOM     21  H   LIG d   1      -0.898  87.490 116.692  0.00  0.00    -0.090 HD
ENDBRANCH   5  18
BRANCH   3  22
ATOM     22  C   LIG d   1      -0.585  82.801 113.590  0.00  0.00     0.382 C 
ATOM     23  O   LIG d   1       0.095  81.755 113.723  0.00  0.00    -0.241 OA
ATOM     24  O   LIG d   1      -1.695  82.744 113.028  0.00  0.00    -0.241 OA
ENDBRANCH   3  22
TORSDOF 7
ENDMDL
MODEL 7
REMARK VINA RESULT:      -5.1      1.652      2.527
REMARK  7 active torsions:
REMARK  status: ('A' for Active; 'I' for Inactive)
REMARK    1  A    between atoms: C_2  and  C_3 
REMARK    2  A    between atoms: C_3  and  O_6 
REMARK    3  A    between atoms: C_3  and  C_4 
REMARK    4  A    between atoms: C_7  and  O_6 
REMARK    5  A    between atoms: C_9  and  C_10 
REMARK    6  A    between atoms: N_15  and  C_14 
REMARK    7  A    between atoms: N_20  and  C_19 
REMARK       I    between atoms: C_22  and  N_20 
ROOT
ATOM      1  C   LIG d   1      -4.927  77.541 117.357  0.00  0.00     0.161 C 
ATOM      2  C   LIG d   1      -6.181  78.170 117.280  0.00  0.00     0.016 C 
ATOM      3  C   LIG d   1      -6.502  79.354 117.982  0.00  0.00     0.038 C 
ATOM      4  C   LIG d   1      -5.536  80.078 118.696  0.00  0.00     0.028 C 
ATOM      5  C   LIG d   1      -4.391  79.213 119.213  0.00  0.00    -0.047 C 
ATOM      6  C   LIG d   1      -3.826  78.377 118.043  0.00  0.00     0.091 C 
ENDROOT
BRANCH   1   7
ATOM      7  O   LIG d   1      -4.502  77.136 116.041  0.00  0.00    -0.368 OA
BRANCH   7   8
ATOM      8  C   LIG d   1      -4.306  75.714 115.844  0.00  0.00     0.119 C 
BRANCH   8   9
ATOM      9  C   LIG d   1      -3.097  75.539 114.904  0.00  0.00     0.028 C 
ATOM     10  C   LIG d   1      -2.790  76.813 114.100  0.00  0.00     0.006 C 
ENDBRANCH   8   9
BRANCH   8  11
ATOM     11  C   LIG d   1      -5.489  75.085 115.103  0.00  0.00     0.028 C 
ATOM     12  C   LIG d   1      -6.308  74.131 115.989  0.00  0.00     0.006 C 
ENDBRANCH   8  11
ENDBRANCH   7   8
ENDBRANCH   1   7
BRANCH   6  13
ATOM     13  N   LIG d   1      -2.757  77.440 118.479  0.00  0.00    -0.311 N 
ATOM     14  C   LIG d   1      -1.567  77.359 117.886  0.00  0.00     0.210 C 
ATOM     15  C   LIG d   1      -0.619  76.313 118.481  0.00  0.00     0.109 C 
ATOM     16  O   LIG d   1      -1.196  78.075 116.944  0.00  0.00    -0.276 OA
ATOM     17  H   LIG d   1      -2.963  76.844 119.256  0.00  0.00     0.149 HD
ENDBRANCH   6  13
BRANCH   5  18
ATOM     18  N   LIG d   1      -3.390  80.113 119.816  0.00  0.00     0.381 N 
ATOM     19  H   LIG d   1      -2.627  79.577 120.179  0.00  0.00    -0.090 HD
ATOM     20  H   LIG d   1      -3.817  80.610 120.579  0.00  0.00    -0.090 HD
ATOM     21  H   LIG d   1      -3.057  80.759 119.135  0.00  0.00    -0.090 HD
ENDBRANCH   5  18
BRANCH   3  22
ATOM     22  C   LIG d   1      -7.814  79.804 118.007  0.00  0.00     0.382 C 
ATOM     23  O   LIG d   1      -8.164  80.755 117.268  0.00  0.00    -0.241 OA
ATOM     24  O   LIG d   1      -8.640  79.300 118.792  0.00  0.00    -0.241 OA
ENDBRANCH   3  22
TORSDOF 7
ENDMDL
MODEL 8
REMARK VINA RESULT:      -4.8     16.861     19.332
REMARK  7 active torsions:
REMARK  status: ('A' for Active; 'I' for Inactive)
REMARK    1  A    between atoms: C_2  and  C_3 
REMARK    2  A    between atoms: C_3  and  O_6 
REMARK    3  A    between atoms: C_3  and  C_4 
REMARK    4  A    between atoms: C_7  and  O_6 
REMARK    5  A    between atoms: C_9  and  C_10 
REMARK    6  A    between atoms: N_15  and  C_14 
REMARK    7  A    between atoms: N_20  and  C_19 
REMARK       I    between atoms: C_22  and  N_20 
ROOT
ATOM      1  C   LIG d   1     -22.926  83.305 115.907  0.00  0.00     0.161 C 
ATOM      2  C   LIG d   1     -22.466  84.607 115.649  0.00  0.00     0.016 C 
ATOM      3  C   LIG d   1     -22.678  85.279 114.424  0.00  0.00     0.038 C 
ATOM      4  C   LIG d   1     -23.502  84.748 113.420  0.00  0.00     0.028 C 
ATOM      5  C   LIG d   1     -23.571  83.225 113.436  0.00  0.00    -0.047 C 
ATOM      6  C   LIG d   1     -23.922  82.753 114.866  0.00  0.00     0.091 C 
ENDROOT
BRANCH   1   7
ATOM      7  O   LIG d   1     -23.497  83.242 117.229  0.00  0.00    -0.368 OA
BRANCH   7   8
ATOM      8  C   LIG d   1     -22.701  83.816 118.295  0.00  0.00     0.119 C 
BRANCH   8   9
ATOM      9  C   LIG d   1     -22.212  82.655 119.183  0.00  0.00     0.028 C 
ATOM     10  C   LIG d   1     -20.793  82.191 118.813  0.00  0.00     0.006 C 
ENDBRANCH   8   9
BRANCH   8  11
ATOM     11  C   LIG d   1     -23.552  84.698 119.213  0.00  0.00     0.028 C 
ATOM     12  C   LIG d   1     -23.478  86.188 118.844  0.00  0.00     0.006 C 
ENDBRANCH   8  11
ENDBRANCH   7   8
ENDBRANCH   1   7
BRANCH   6  13
ATOM     13  N   LIG d   1     -23.927  81.272 114.989  0.00  0.00    -0.311 N 
ATOM     14  C   LIG d   1     -25.033  80.534 114.916  0.00  0.00     0.210 C 
ATOM     15  C   LIG d   1     -24.818  79.028 115.089  0.00  0.00     0.109 C 
ATOM     16  O   LIG d   1     -26.168  80.981 114.693  0.00  0.00    -0.276 OA
ATOM     17  H   LIG d   1     -23.044  80.824 115.140  0.00  0.00     0.149 HD
ENDBRANCH   6  13
BRANCH   5  18
ATOM     18  N   LIG d   1     -24.569  82.814 112.430  0.00  0.00     0.381 N 
ATOM     19  H   LIG d   1     -25.452  83.237 112.636  0.00  0.00    -0.090 HD
ATOM     20  H   LIG d   1     -24.681  81.816 112.473  0.00  0.00    -0.090 HD
ATOM     21  H   LIG d   1     -24.267  83.083 111.520  0.00  0.00    -0.090 HD
ENDBRANCH   5  18
BRANCH   3  22
ATOM     22  C   LIG d   1     -22.030  86.480 114.177  0.00  0.00     0.382 C 
ATOM     23  O   LIG d   1     -21.029  86.508 113.420  0.00  0.00    -0.241 OA
ATOM     24  O   LIG d   1     -22.406  87.528 114.736  0.00  0.00    -0.241 OA
ENDBRANCH   3  22
TORSDOF 7
ENDMDL
MODEL 9
REMARK VINA RESULT:      -4.8      9.962     12.687
REMARK  7 active torsions:
REMARK  status: ('A' for Active; 'I' for Inactive)
REMARK    1  A    between atoms: C_2  and  C_3 
REMARK    2  A    between atoms: C_3  and  O_6 
REMARK    3  A    between atoms: C_3  and  C_4 
REMARK    4  A    between atoms: C_7  and  O_6 
REMARK    5  A    between atoms: C_9  and  C_10 
REMARK    6  A    between atoms: N_15  and  C_14 
REMARK    7  A    between atoms: N_20  and  C_19 
REMARK       I    between atoms: C_22  and  N_20 
ROOT
ATOM      1  C   LIG d   1       2.530  85.153 115.067  0.00  0.00     0.161 C 
ATOM      2  C   LIG d   1       2.589  86.329 114.301  0.00  0.00     0.016 C 
ATOM      3  C   LIG d   1       3.303  86.431 113.085  0.00  0.00     0.038 C 
ATOM      4  C   LIG d   1       3.886  85.312 112.472  0.00  0.00     0.028 C 
ATOM      5  C   LIG d   1       4.281  84.218 113.458  0.00  0.00    -0.047 C 
ATOM      6  C   LIG d   1       3.067  83.892 114.359  0.00  0.00     0.091 C 
ENDROOT
BRANCH   1   7
ATOM      7  O   LIG d   1       1.180  84.935 115.524  0.00  0.00    -0.368 OA
BRANCH   7   8
ATOM      8  C   LIG d   1       0.127  85.316 114.605  0.00  0.00     0.119 C 
BRANCH   8   9
ATOM      9  C   LIG d   1      -0.960  86.040 115.422  0.00  0.00     0.028 C 
ATOM     10  C   LIG d   1      -0.404  86.671 116.710  0.00  0.00     0.006 C 
ENDBRANCH   8   9
BRANCH   8  11
ATOM     11  C   LIG d   1      -0.565  84.086 114.010  0.00  0.00     0.028 C 
ATOM     12  C   LIG d   1      -0.173  83.832 112.545  0.00  0.00     0.006 C 
ENDBRANCH   8  11
ENDBRANCH   7   8
ENDBRANCH   1   7
BRANCH   6  13
ATOM     13  N   LIG d   1       3.392  82.891 115.408  0.00  0.00    -0.311 N 
ATOM     14  C   LIG d   1       2.630  81.831 115.671  0.00  0.00     0.210 C 
ATOM     15  C   LIG d   1       3.137  80.935 116.806  0.00  0.00     0.109 C 
ATOM     16  O   LIG d   1       1.599  81.530 115.051  0.00  0.00    -0.276 OA
ATOM     17  H   LIG d   1       4.228  83.041 115.938  0.00  0.00     0.149 HD
ENDBRANCH   6  13
BRANCH   5  18
ATOM     18  N   LIG d   1       4.747  83.058 112.675  0.00  0.00     0.381 N 
ATOM     19  H   LIG d   1       5.521  82.625 113.138  0.00  0.00    -0.090 HD
ATOM     20  H   LIG d   1       5.058  83.378 111.774  0.00  0.00    -0.090 HD
ATOM     21  H   LIG d   1       4.006  82.401 112.564  0.00  0.00    -0.090 HD
ENDBRANCH   5  18
BRANCH   3  22
ATOM     22  C   LIG d   1       3.473  87.672 112.490  0.00  0.00     0.382 C 
ATOM     23  O   LIG d   1       4.601  88.010 112.056  0.00  0.00    -0.241 OA
ATOM     24  O   LIG d   1       2.523  88.474 112.420  0.00  0.00    -0.241 OA
ENDBRANCH   3  22
TORSDOF 7
ENDMDL
