MODEL 1
REMARK VINA RESULT:      -5.8      0.000      0.000
REMARK  7 active torsions:
REMARK  status: ('A' for Active; 'I' for Inactive)
REMARK    1  A    between atoms: C_2  and  C_3 
REMARK    2  A    between atoms: C_3  and  O_6 
REMARK    3  A    between atoms: C_3  and  C_4 
REMARK    4  A    between atoms: C_7  and  O_6 
REMARK    5  A    between atoms: C_9  and  C_10 
REMARK    6  A    between atoms: N_15  and  C_14 
REMARK    7  A    between atoms: N_20  and  C_19 
REMARK       I    between atoms: C_22  and  N_20 
ROOT
ATOM      1  C   LIG d   1      -3.049  77.192 115.032  0.00  0.00     0.161 C 
ATOM      2  C   LIG d   1      -3.203  78.262 114.135  0.00  0.00     0.016 C 
ATOM      3  C   LIG d   1      -2.120  79.021 113.635  0.00  0.00     0.038 C 
ATOM      4  C   LIG d   1      -0.787  78.662 113.883  0.00  0.00     0.028 C 
ATOM      5  C   LIG d   1      -0.598  77.898 115.189  0.00  0.00    -0.047 C 
ATOM      6  C   LIG d   1      -1.594  76.716 115.227  0.00  0.00     0.091 C 
ENDROOT
BRANCH   1   7
ATOM      7  O   LIG d   1      -3.887  76.091 114.628  0.00  0.00    -0.368 OA
BRANCH   7   8
ATOM      8  C   LIG d   1      -5.305  76.242 114.884  0.00  0.00     0.119 C 
BRANCH   8   9
ATOM      9  C   LIG d   1      -5.493  76.334 116.410  0.00  0.00     0.028 C 
ATOM     10  C   LIG d   1      -6.449  77.468 116.817  0.00  0.00     0.006 C 
ENDBRANCH   8   9
BRANCH   8  11
ATOM     11  C   LIG d   1      -6.084  74.996 114.453  0.00  0.00     0.028 C 
ATOM     12  C   LIG d   1      -5.814  73.782 115.356  0.00  0.00     0.006 C 
ENDBRANCH   8  11
ENDBRANCH   7   8
ENDBRANCH   1   7
BRANCH   6  13
ATOM     13  N   LIG d   1      -1.534  75.966 116.508  0.00  0.00    -0.311 N 
ATOM     14  C   LIG d   1      -1.126  74.701 116.598  0.00  0.00     0.210 C 
ATOM     15  C   LIG d   1      -1.160  74.110 118.011  0.00  0.00     0.109 C 
ATOM     16  O   LIG d   1      -0.707  74.023 115.648  0.00  0.00    -0.276 OA
ATOM     17  H   LIG d   1      -1.826  76.450 117.334  0.00  0.00     0.149 HD
ENDBRANCH   6  13
BRANCH   5  18
ATOM     18  N   LIG d   1       0.812  77.468 115.254  0.00  0.00     0.381 N 
ATOM     19  H   LIG d   1       0.874  76.485 115.079  0.00  0.00    -0.090 HD
ATOM     20  H   LIG d   1       1.164  77.647 116.177  0.00  0.00    -0.090 HD
ATOM     21  H   LIG d   1       1.352  77.967 114.582  0.00  0.00    -0.090 HD
ENDBRANCH   5  18
BRANCH   3  22
ATOM     22  C   LIG d   1      -2.367  80.177 112.910  0.00  0.00     0.382 C 
ATOM     23  O   LIG d   1      -1.537  80.571 112.056  0.00  0.00    -0.241 OA
ATOM     24  O   LIG d   1      -3.389  80.854 113.130  0.00  0.00    -0.241 OA
ENDBRANCH   3  22
TORSDOF 7
ENDMDL
MODEL 2
REMARK VINA RESULT:      -5.2      1.168      1.994
REMARK  7 active torsions:
REMARK  status: ('A' for Active; 'I' for Inactive)
REMARK    1  A    between atoms: C_2  and  C_3 
REMARK    2  A    between atoms: C_3  and  O_6 
REMARK    3  A    between atoms: C_3  and  C_4 
REMARK    4  A    between atoms: C_7  and  O_6 
REMARK    5  A    between atoms: C_9  and  C_10 
REMARK    6  A    between atoms: N_15  and  C_14 
REMARK    7  A    between atoms: N_20  and  C_19 
REMARK       I    between atoms: C_22  and  N_20 
ROOT
ATOM      1  C   LIG d   1      -2.940  76.911 115.077  0.00  0.00     0.161 C 
ATOM      2  C   LIG d   1      -3.148  78.000 114.214  0.00  0.00     0.016 C 
ATOM      3  C   LIG d   1      -2.107  78.837 113.751  0.00  0.00     0.038 C 
ATOM      4  C   LIG d   1      -0.758  78.550 114.003  0.00  0.00     0.028 C 
ATOM      5  C   LIG d   1      -0.536  77.754 115.285  0.00  0.00    -0.047 C 
ATOM      6  C   LIG d   1      -1.461  76.516 115.273  0.00  0.00     0.091 C 
ENDROOT
BRANCH   1   7
ATOM      7  O   LIG d   1      -3.707  75.777 114.628  0.00  0.00    -0.368 OA
BRANCH   7   8
ATOM      8  C   LIG d   1      -4.612  75.196 115.598  0.00  0.00     0.119 C 
BRANCH   8   9
ATOM      9  C   LIG d   1      -5.709  74.447 114.816  0.00  0.00     0.028 C 
ATOM     10  C   LIG d   1      -5.958  73.032 115.364  0.00  0.00     0.006 C 
ENDBRANCH   8   9
BRANCH   8  11
ATOM     11  C   LIG d   1      -5.348  76.279 116.392  0.00  0.00     0.028 C 
ATOM     12  C   LIG d   1      -6.764  76.550 115.860  0.00  0.00     0.006 C 
ENDBRANCH   8  11
ENDBRANCH   7   8
ENDBRANCH   1   7
BRANCH   6  13
ATOM     13  N   LIG d   1      -1.369  75.727 116.529  0.00  0.00    -0.311 N 
ATOM     14  C   LIG d   1      -1.710  76.208 117.723  0.00  0.00     0.210 C 
ATOM     15  C   LIG d   1      -1.519  75.235 118.891  0.00  0.00     0.109 C 
ATOM     16  O   LIG d   1      -2.184  77.337 117.922  0.00  0.00    -0.276 OA
ATOM     17  H   LIG d   1      -1.024  74.790 116.455  0.00  0.00     0.149 HD
ENDBRANCH   6  13
BRANCH   5  18
ATOM     18  N   LIG d   1       0.896  77.406 115.352  0.00  0.00     0.381 N 
ATOM     19  H   LIG d   1       1.269  77.327 114.427  0.00  0.00    -0.090 HD
ATOM     20  H   LIG d   1       0.993  76.516 115.808  0.00  0.00    -0.090 HD
ATOM     21  H   LIG d   1       1.393  78.104 115.860  0.00  0.00    -0.090 HD
ENDBRANCH   5  18
BRANCH   3  22
ATOM     22  C   LIG d   1      -2.416  80.000 113.062  0.00  0.00     0.382 C 
ATOM     23  O   LIG d   1      -3.455  80.642 113.349  0.00  0.00    -0.241 OA
ATOM     24  O   LIG d   1      -1.692  80.391 112.127  0.00  0.00    -0.241 OA
ENDBRANCH   3  22
TORSDOF 7
ENDMDL
MODEL 3
REMARK VINA RESULT:      -5.0      3.898      6.057
REMARK  7 active torsions:
REMARK  status: ('A' for Active; 'I' for Inactive)
REMARK    1  A    between atoms: C_2  and  C_3 
REMARK    2  A    between atoms: C_3  and  O_6 
REMARK    3  A    between atoms: C_3  and  C_4 
REMARK    4  A    between atoms: C_7  and  O_6 
REMARK    5  A    between atoms: C_9  and  C_10 
REMARK    6  A    between atoms: N_15  and  C_14 
REMARK    7  A    between atoms: N_20  and  C_19 
REMARK       I    between atoms: C_22  and  N_20 
ROOT
ATOM      1  C   LIG d   1      -5.120  78.160 116.676  0.00  0.00     0.161 C 
ATOM      2  C   LIG d   1      -4.112  77.189 116.792  0.00  0.00     0.016 C 
ATOM      3  C   LIG d   1      -3.367  76.979 117.975  0.00  0.00     0.038 C 
ATOM      4  C   LIG d   1      -3.685  77.628 119.177  0.00  0.00     0.028 C 
ATOM      5  C   LIG d   1      -4.363  78.979 118.975  0.00  0.00    -0.047 C 
ATOM      6  C   LIG d   1      -5.558  78.801 118.010  0.00  0.00     0.091 C 
ENDROOT
BRANCH   1   7
ATOM      7  O   LIG d   1      -6.259  77.602 115.992  0.00  0.00    -0.368 OA
BRANCH   7   8
ATOM      8  C   LIG d   1      -6.477  76.181 116.170  0.00  0.00     0.119 C 
BRANCH   8   9
ATOM      9  C   LIG d   1      -6.358  75.516 114.785  0.00  0.00     0.028 C 
ATOM     10  C   LIG d   1      -5.533  74.219 114.825  0.00  0.00     0.006 C 
ENDBRANCH   8   9
BRANCH   8  11
ATOM     11  C   LIG d   1      -7.906  75.890 116.638  0.00  0.00     0.028 C 
ATOM     12  C   LIG d   1      -8.566  77.098 117.321  0.00  0.00     0.006 C 
ENDBRANCH   8  11
ENDBRANCH   7   8
ENDBRANCH   1   7
BRANCH   6  13
ATOM     13  N   LIG d   1      -6.226  80.090 117.692  0.00  0.00    -0.311 N 
ATOM     14  C   LIG d   1      -7.294  80.543 118.346  0.00  0.00     0.210 C 
ATOM     15  C   LIG d   1      -7.839  81.884 117.844  0.00  0.00     0.109 C 
ATOM     16  O   LIG d   1      -7.824  79.976 119.313  0.00  0.00    -0.276 OA
ATOM     17  H   LIG d   1      -5.843  80.629 116.940  0.00  0.00     0.149 HD
ENDBRANCH   6  13
BRANCH   5  18
ATOM     18  N   LIG d   1      -4.764  79.479 120.304  0.00  0.00     0.381 N 
ATOM     19  H   LIG d   1      -4.959  78.709 120.912  0.00  0.00    -0.090 HD
ATOM     20  H   LIG d   1      -5.602  80.025 120.207  0.00  0.00    -0.090 HD
ATOM     21  H   LIG d   1      -4.036  80.040 120.690  0.00  0.00    -0.090 HD
ENDBRANCH   5  18
BRANCH   3  22
ATOM     22  C   LIG d   1      -2.263  76.140 117.952  0.00  0.00     0.382 C 
ATOM     23  O   LIG d   1      -1.195  76.493 118.508  0.00  0.00    -0.241 OA
ATOM     24  O   LIG d   1      -2.308  75.053 117.345  0.00  0.00    -0.241 OA
ENDBRANCH   3  22
TORSDOF 7
ENDMDL
MODEL 4
REMARK VINA RESULT:      -5.0      2.605      4.762
REMARK  7 active torsions:
REMARK  status: ('A' for Active; 'I' for Inactive)
REMARK    1  A    between atoms: C_2  and  C_3 
REMARK    2  A    between atoms: C_3  and  O_6 
REMARK    3  A    between atoms: C_3  and  C_4 
REMARK    4  A    between atoms: C_7  and  O_6 
REMARK    5  A    between atoms: C_9  and  C_10 
REMARK    6  A    between atoms: N_15  and  C_14 
REMARK    7  A    between atoms: N_20  and  C_19 
REMARK       I    between atoms: C_22  and  N_20 
ROOT
ATOM      1  C   LIG d   1      -2.501  77.051 117.149  0.00  0.00     0.161 C 
ATOM      2  C   LIG d   1      -3.511  76.292 116.535  0.00  0.00     0.016 C 
ATOM      3  C   LIG d   1      -3.941  76.501 115.204  0.00  0.00     0.038 C 
ATOM      4  C   LIG d   1      -3.281  77.390 114.343  0.00  0.00     0.028 C 
ATOM      5  C   LIG d   1      -2.586  78.535 115.071  0.00  0.00    -0.047 C 
ATOM      6  C   LIG d   1      -1.694  77.951 116.189  0.00  0.00     0.091 C 
ENDROOT
BRANCH   1   7
ATOM      7  O   LIG d   1      -1.616  76.183 117.885  0.00  0.00    -0.368 OA
BRANCH   7   8
ATOM      8  C   LIG d   1      -1.475  74.835 117.373  0.00  0.00     0.119 C 
BRANCH   8   9
ATOM      9  C   LIG d   1      -1.542  73.874 118.576  0.00  0.00     0.028 C 
ATOM     10  C   LIG d   1      -0.479  74.191 119.641  0.00  0.00     0.006 C 
ENDBRANCH   8   9
BRANCH   8  11
ATOM     11  C   LIG d   1      -0.090  74.616 116.755  0.00  0.00     0.028 C 
ATOM     12  C   LIG d   1      -0.142  74.420 115.232  0.00  0.00     0.006 C 
ENDBRANCH   8  11
ENDBRANCH   7   8
ENDBRANCH   1   7
BRANCH   6  13
ATOM     13  N   LIG d   1      -1.042  79.008 117.005  0.00  0.00    -0.311 N 
ATOM     14  C   LIG d   1       0.278  79.106 117.159  0.00  0.00     0.210 C 
ATOM     15  C   LIG d   1       0.740  80.257 118.058  0.00  0.00     0.109 C 
ATOM     16  O   LIG d   1       1.111  78.369 116.610  0.00  0.00    -0.276 OA
ATOM     17  H   LIG d   1      -1.642  79.667 117.461  0.00  0.00     0.149 HD
ENDBRANCH   6  13
BRANCH   5  18
ATOM     18  N   LIG d   1      -1.826  79.305 114.068  0.00  0.00     0.381 N 
ATOM     19  H   LIG d   1      -1.856  78.834 113.185  0.00  0.00    -0.090 HD
ATOM     20  H   LIG d   1      -0.866  79.363 114.361  0.00  0.00    -0.090 HD
ATOM     21  H   LIG d   1      -2.209  80.220 113.977  0.00  0.00    -0.090 HD
ENDBRANCH   5  18
BRANCH   3  22
ATOM     22  C   LIG d   1      -5.069  75.845 114.736  0.00  0.00     0.382 C 
ATOM     23  O   LIG d   1      -4.988  74.651 114.358  0.00  0.00    -0.241 OA
ATOM     24  O   LIG d   1      -6.157  76.445 114.644  0.00  0.00    -0.241 OA
ENDBRANCH   3  22
TORSDOF 7
ENDMDL
MODEL 5
REMARK VINA RESULT:      -4.9      2.989      4.387
REMARK  7 active torsions:
REMARK  status: ('A' for Active; 'I' for Inactive)
REMARK    1  A    between atoms: C_2  and  C_3 
REMARK    2  A    between atoms: C_3  and  O_6 
REMARK    3  A    between atoms: C_3  and  C_4 
REMARK    4  A    between atoms: C_7  and  O_6 
REMARK    5  A    between atoms: C_9  and  C_10 
REMARK    6  A    between atoms: N_15  and  C_14 
REMARK    7  A    between atoms: N_20  and  C_19 
REMARK       I    between atoms: C_22  and  N_20 
ROOT
ATOM      1  C   LIG d   1      -4.146  77.070 116.063  0.00  0.00     0.161 C 
ATOM      2  C   LIG d   1      -3.056  76.298 115.630  0.00  0.00     0.016 C 
ATOM      3  C   LIG d   1      -1.712  76.601 115.948  0.00  0.00     0.038 C 
ATOM      4  C   LIG d   1      -1.377  77.619 116.854  0.00  0.00     0.028 C 
ATOM      5  C   LIG d   1      -2.410  78.739 116.917  0.00  0.00    -0.047 C 
ATOM      6  C   LIG d   1      -3.808  78.119 117.143  0.00  0.00     0.091 C 
ENDROOT
BRANCH   1   7
ATOM      7  O   LIG d   1      -5.207  76.207 116.518  0.00  0.00    -0.368 OA
BRANCH   7   8
ATOM      8  C   LIG d   1      -6.314  76.020 115.603  0.00  0.00     0.119 C 
BRANCH   8   9
ATOM      9  C   LIG d   1      -7.543  75.615 116.440  0.00  0.00     0.028 C 
ATOM     10  C   LIG d   1      -8.189  76.815 117.152  0.00  0.00     0.006 C 
ENDBRANCH   8   9
BRANCH   8  11
ATOM     11  C   LIG d   1      -6.062  74.842 114.656  0.00  0.00     0.028 C 
ATOM     12  C   LIG d   1      -5.954  73.498 115.393  0.00  0.00     0.006 C 
ENDBRANCH   8  11
ENDBRANCH   7   8
ENDBRANCH   1   7
BRANCH   6  13
ATOM     13  N   LIG d   1      -4.888  79.140 117.133  0.00  0.00    -0.311 N 
ATOM     14  C   LIG d   1      -5.717  79.339 118.156  0.00  0.00     0.210 C 
ATOM     15  C   LIG d   1      -6.772  80.427 117.931  0.00  0.00     0.109 C 
ATOM     16  O   LIG d   1      -5.659  78.741 119.241  0.00  0.00    -0.276 OA
ATOM     17  H   LIG d   1      -4.987  79.692 116.304  0.00  0.00     0.149 HD
ENDBRANCH   6  13
BRANCH   5  18
ATOM     18  N   LIG d   1      -2.004  79.659 117.996  0.00  0.00     0.381 N 
ATOM     19  H   LIG d   1      -2.631  80.438 118.031  0.00  0.00    -0.090 HD
ATOM     20  H   LIG d   1      -1.082  80.005 117.799  0.00  0.00    -0.090 HD
ATOM     21  H   LIG d   1      -2.007  79.181 118.871  0.00  0.00    -0.090 HD
ENDBRANCH   5  18
BRANCH   3  22
ATOM     22  C   LIG d   1      -0.685  75.907 115.327  0.00  0.00     0.382 C 
ATOM     23  O   LIG d   1       0.393  76.490 115.059  0.00  0.00    -0.241 OA
ATOM     24  O   LIG d   1      -0.839  74.718 114.990  0.00  0.00    -0.241 OA
ENDBRANCH   3  22
TORSDOF 7
ENDMDL
MODEL 6
REMARK VINA RESULT:      -4.8      3.989      5.847
REMARK  7 active torsions:
REMARK  status: ('A' for Active; 'I' for Inactive)
REMARK    1  A    between atoms: C_2  and  C_3 
REMARK    2  A    between atoms: C_3  and  O_6 
REMARK    3  A    between atoms: C_3  and  C_4 
REMARK    4  A    between atoms: C_7  and  O_6 
REMARK    5  A    between atoms: C_9  and  C_10 
REMARK    6  A    between atoms: N_15  and  C_14 
REMARK    7  A    between atoms: N_20  and  C_19 
REMARK       I    between atoms: C_22  and  N_20 
ROOT
ATOM      1  C   LIG d   1      -5.487  79.236 118.052  0.00  0.00     0.161 C 
ATOM      2  C   LIG d   1      -4.349  79.931 118.492  0.00  0.00     0.016 C 
ATOM      3  C   LIG d   1      -3.029  79.457 118.309  0.00  0.00     0.038 C 
ATOM      4  C   LIG d   1      -2.750  78.322 117.534  0.00  0.00     0.028 C 
ATOM      5  C   LIG d   1      -3.895  77.316 117.498  0.00  0.00    -0.047 C 
ATOM      6  C   LIG d   1      -5.197  78.051 117.107  0.00  0.00     0.091 C 
ENDROOT
BRANCH   1   7
ATOM      7  O   LIG d   1      -6.411  80.154 117.435  0.00  0.00    -0.368 OA
BRANCH   7   8
ATOM      8  C   LIG d   1      -7.495  80.627 118.272  0.00  0.00     0.119 C 
BRANCH   8   9
ATOM      9  C   LIG d   1      -8.703  79.702 118.033  0.00  0.00     0.028 C 
ATOM     10  C   LIG d   1      -8.972  78.768 119.225  0.00  0.00     0.006 C 
ENDBRANCH   8   9
BRANCH   8  11
ATOM     11  C   LIG d   1      -7.961  82.022 117.845  0.00  0.00     0.028 C 
ATOM     12  C   LIG d   1      -9.377  82.020 117.248  0.00  0.00     0.006 C 
ENDBRANCH   8  11
ENDBRANCH   7   8
ENDBRANCH   1   7
BRANCH   6  13
ATOM     13  N   LIG d   1      -6.383  77.156 117.131  0.00  0.00    -0.311 N 
ATOM     14  C   LIG d   1      -6.886  76.577 116.042  0.00  0.00     0.210 C 
ATOM     15  C   LIG d   1      -8.124  75.708 116.285  0.00  0.00     0.109 C 
ATOM     16  O   LIG d   1      -6.407  76.675 114.902  0.00  0.00    -0.276 OA
ATOM     17  H   LIG d   1      -6.816  76.996 118.019  0.00  0.00     0.149 HD
ENDBRANCH   6  13
BRANCH   5  18
ATOM     18  N   LIG d   1      -3.524  76.251 116.547  0.00  0.00     0.381 N 
ATOM     19  H   LIG d   1      -2.793  75.689 116.936  0.00  0.00    -0.090 HD
ATOM     20  H   LIG d   1      -3.181  76.675 115.703  0.00  0.00    -0.090 HD
ATOM     21  H   LIG d   1      -4.317  75.683 116.345  0.00  0.00    -0.090 HD
ENDBRANCH   5  18
BRANCH   3  22
ATOM     22  C   LIG d   1      -1.974  80.101 118.939  0.00  0.00     0.382 C 
ATOM     23  O   LIG d   1      -2.055  80.392 120.157  0.00  0.00    -0.241 OA
ATOM     24  O   LIG d   1      -0.962  80.433 118.294  0.00  0.00    -0.241 OA
ENDBRANCH   3  22
TORSDOF 7
ENDMDL
MODEL 7
REMARK VINA RESULT:      -4.7      3.301      4.713
REMARK  7 active torsions:
REMARK  status: ('A' for Active; 'I' for Inactive)
REMARK    1  A    between atoms: C_2  and  C_3 
REMARK    2  A    between atoms: C_3  and  O_6 
REMARK    3  A    between atoms: C_3  and  C_4 
REMARK    4  A    between atoms: C_7  and  O_6 
REMARK    5  A    between atoms: C_9  and  C_10 
REMARK    6  A    between atoms: N_15  and  C_14 
REMARK    7  A    between atoms: N_20  and  C_19 
REMARK       I    between atoms: C_22  and  N_20 
ROOT
ATOM      1  C   LIG d   1      -4.962  77.996 117.708  0.00  0.00     0.161 C 
ATOM      2  C   LIG d   1      -4.271  79.021 118.375  0.00  0.00     0.016 C 
ATOM      3  C   LIG d   1      -2.906  79.313 118.150  0.00  0.00     0.038 C 
ATOM      4  C   LIG d   1      -2.174  78.694 117.125  0.00  0.00     0.028 C 
ATOM      5  C   LIG d   1      -2.689  77.304 116.768  0.00  0.00    -0.047 C 
ATOM      6  C   LIG d   1      -4.210  77.384 116.507  0.00  0.00     0.091 C 
ENDROOT
BRANCH   1   7
ATOM      7  O   LIG d   1      -6.260  78.469 117.297  0.00  0.00    -0.368 OA
BRANCH   7   8
ATOM      8  C   LIG d   1      -7.329  78.317 118.264  0.00  0.00     0.119 C 
BRANCH   8   9
ATOM      9  C   LIG d   1      -7.820  76.858 118.184  0.00  0.00     0.028 C 
ATOM     10  C   LIG d   1      -8.260  76.464 116.764  0.00  0.00     0.006 C 
ENDBRANCH   8   9
BRANCH   8  11
ATOM     11  C   LIG d   1      -8.542  79.174 117.892  0.00  0.00     0.028 C 
ATOM     12  C   LIG d   1      -9.589  79.244 119.016  0.00  0.00     0.006 C 
ENDBRANCH   8  11
ENDBRANCH   7   8
ENDBRANCH   1   7
BRANCH   6  13
ATOM     13  N   LIG d   1      -4.809  76.051 116.233  0.00  0.00    -0.311 N 
ATOM     14  C   LIG d   1      -4.996  75.570 115.006  0.00  0.00     0.210 C 
ATOM     15  C   LIG d   1      -5.647  74.185 114.947  0.00  0.00     0.109 C 
ATOM     16  O   LIG d   1      -4.655  76.145 113.961  0.00  0.00    -0.276 OA
ATOM     17  H   LIG d   1      -5.086  75.504 117.025  0.00  0.00     0.149 HD
ENDBRANCH   6  13
BRANCH   5  18
ATOM     18  N   LIG d   1      -1.925  76.833 115.597  0.00  0.00     0.381 N 
ATOM     19  H   LIG d   1      -1.060  76.431 115.897  0.00  0.00    -0.090 HD
ATOM     20  H   LIG d   1      -1.720  77.619 115.006  0.00  0.00    -0.090 HD
ATOM     21  H   LIG d   1      -2.456  76.158 115.093  0.00  0.00    -0.090 HD
ENDBRANCH   5  18
BRANCH   3  22
ATOM     22  C   LIG d   1      -2.248  80.206 118.982  0.00  0.00     0.382 C 
ATOM     23  O   LIG d   1      -1.254  80.843 118.557  0.00  0.00    -0.241 OA
ATOM     24  O   LIG d   1      -2.609  80.350 120.165  0.00  0.00    -0.241 OA
ENDBRANCH   3  22
TORSDOF 7
ENDMDL
MODEL 8
REMARK VINA RESULT:      -4.7      9.151     11.709
REMARK  7 active torsions:
REMARK  status: ('A' for Active; 'I' for Inactive)
REMARK    1  A    between atoms: C_2  and  C_3 
REMARK    2  A    between atoms: C_3  and  O_6 
REMARK    3  A    between atoms: C_3  and  C_4 
REMARK    4  A    between atoms: C_7  and  O_6 
REMARK    5  A    between atoms: C_9  and  C_10 
REMARK    6  A    between atoms: N_15  and  C_14 
REMARK    7  A    between atoms: N_20  and  C_19 
REMARK       I    between atoms: C_22  and  N_20 
ROOT
ATOM      1  C   LIG d   1       2.622  87.289 115.430  0.00  0.00     0.161 C 
ATOM      2  C   LIG d   1       3.286  88.213 114.606  0.00  0.00     0.016 C 
ATOM      3  C   LIG d   1       4.097  87.837 113.510  0.00  0.00     0.038 C 
ATOM      4  C   LIG d   1       4.176  86.508 113.069  0.00  0.00     0.028 C 
ATOM      5  C   LIG d   1       3.927  85.487 114.174  0.00  0.00    -0.047 C 
ATOM      6  C   LIG d   1       2.607  85.841 114.896  0.00  0.00     0.091 C 
ENDROOT
BRANCH   1   7
ATOM      7  O   LIG d   1       1.278  87.742 115.687  0.00  0.00    -0.368 OA
BRANCH   7   8
ATOM      8  C   LIG d   1       1.025  88.267 117.013  0.00  0.00     0.119 C 
BRANCH   8   9
ATOM      9  C   LIG d   1      -0.104  87.425 117.637  0.00  0.00     0.028 C 
ATOM     10  C   LIG d   1      -1.343  88.268 117.984  0.00  0.00     0.006 C 
ENDBRANCH   8   9
BRANCH   8  11
ATOM     11  C   LIG d   1       0.478  89.696 116.951  0.00  0.00     0.028 C 
ATOM     12  C   LIG d   1       1.568  90.761 117.152  0.00  0.00     0.006 C 
ENDBRANCH   8  11
ENDBRANCH   7   8
ENDBRANCH   1   7
BRANCH   6  13
ATOM     13  N   LIG d   1       2.331  84.941 116.046  0.00  0.00    -0.311 N 
ATOM     14  C   LIG d   1       1.576  83.848 115.956  0.00  0.00     0.210 C 
ATOM     15  C   LIG d   1       1.403  83.072 117.266  0.00  0.00     0.109 C 
ATOM     16  O   LIG d   1       1.060  83.429 114.909  0.00  0.00    -0.276 OA
ATOM     17  H   LIG d   1       2.737  85.189 116.927  0.00  0.00     0.149 HD
ENDBRANCH   6  13
BRANCH   5  18
ATOM     18  N   LIG d   1       3.904  84.151 113.549  0.00  0.00     0.381 N 
ATOM     19  H   LIG d   1       4.286  83.475 114.179  0.00  0.00    -0.090 HD
ATOM     20  H   LIG d   1       4.474  84.169 112.722  0.00  0.00    -0.090 HD
ATOM     21  H   LIG d   1       2.969  83.903 113.310  0.00  0.00    -0.090 HD
ENDBRANCH   5  18
BRANCH   3  22
ATOM     22  C   LIG d   1       4.870  88.792 112.868  0.00  0.00     0.382 C 
ATOM     23  O   LIG d   1       4.504  89.992 112.858  0.00  0.00    -0.241 OA
ATOM     24  O   LIG d   1       5.906  88.462 112.261  0.00  0.00    -0.241 OA
ENDBRANCH   3  22
TORSDOF 7
ENDMDL
MODEL 9
REMARK VINA RESULT:      -4.7      3.097      5.114
REMARK  7 active torsions:
REMARK  status: ('A' for Active; 'I' for Inactive)
REMARK    1  A    between atoms: C_2  and  C_3 
REMARK    2  A    between atoms: C_3  and  O_6 
REMARK    3  A    between atoms: C_3  and  C_4 
REMARK    4  A    between atoms: C_7  and  O_6 
REMARK    5  A    between atoms: C_9  and  C_10 
REMARK    6  A    between atoms: N_15  and  C_14 
REMARK    7  A    between atoms: N_20  and  C_19 
REMARK       I    between atoms: C_22  and  N_20 
ROOT
ATOM      1  C   LIG d   1      -2.157  76.326 117.609  0.00  0.00     0.161 C 
ATOM      2  C   LIG d   1      -0.982  76.689 118.287  0.00  0.00     0.016 C 
ATOM      3  C   LIG d   1       0.290  76.151 117.983  0.00  0.00     0.038 C 
ATOM      4  C   LIG d   1       0.497  75.319 116.873  0.00  0.00     0.028 C 
ATOM      5  C   LIG d   1      -0.744  74.528 116.469  0.00  0.00    -0.047 C 
ATOM      6  C   LIG d   1      -1.934  75.503 116.323  0.00  0.00     0.091 C 
ENDROOT
BRANCH   1   7
ATOM      7  O   LIG d   1      -2.940  77.502 117.322  0.00  0.00    -0.368 OA
BRANCH   7   8
ATOM      8  C   LIG d   1      -4.235  77.579 117.967  0.00  0.00     0.119 C 
BRANCH   8   9
ATOM      9  C   LIG d   1      -5.204  78.257 116.979  0.00  0.00     0.028 C 
ATOM     10  C   LIG d   1      -6.523  77.481 116.825  0.00  0.00     0.006 C 
ENDBRANCH   8   9
BRANCH   8  11
ATOM     11  C   LIG d   1      -4.194  78.498 119.191  0.00  0.00     0.028 C 
ATOM     12  C   LIG d   1      -3.340  79.755 118.965  0.00  0.00     0.006 C 
ENDBRANCH   8  11
ENDBRANCH   7   8
ENDBRANCH   1   7
BRANCH   6  13
ATOM     13  N   LIG d   1      -3.207  74.802 116.011  0.00  0.00    -0.311 N 
ATOM     14  C   LIG d   1      -4.068  75.222 115.087  0.00  0.00     0.210 C 
ATOM     15  C   LIG d   1      -5.328  74.363 114.939  0.00  0.00     0.109 C 
ATOM     16  O   LIG d   1      -3.894  76.207 114.353  0.00  0.00    -0.276 OA
ATOM     17  H   LIG d   1      -3.413  73.975 116.538  0.00  0.00     0.149 HD
ENDBRANCH   6  13
BRANCH   5  18
ATOM     18  N   LIG d   1      -0.427  73.811 115.220  0.00  0.00     0.381 N 
ATOM     19  H   LIG d   1       0.100  74.405 114.612  0.00  0.00    -0.090 HD
ATOM     20  H   LIG d   1      -1.286  73.569 114.757  0.00  0.00    -0.090 HD
ATOM     21  H   LIG d   1       0.093  72.986 115.423  0.00  0.00    -0.090 HD
ENDBRANCH   5  18
BRANCH   3  22
ATOM     22  C   LIG d   1       1.364  76.412 118.819  0.00  0.00     0.382 C 
ATOM     23  O   LIG d   1       2.012  77.479 118.692  0.00  0.00    -0.241 OA
ATOM     24  O   LIG d   1       1.722  75.575 119.670  0.00  0.00    -0.241 OA
ENDBRANCH   3  22
TORSDOF 7
ENDMDL
