MODEL 1
REMARK VINA RESULT:      -5.3      0.000      0.000
REMARK  7 active torsions:
REMARK  status: ('A' for Active; 'I' for Inactive)
REMARK    1  A    between atoms: C_2  and  C_3 
REMARK    2  A    between atoms: C_3  and  O_6 
REMARK    3  A    between atoms: C_3  and  C_4 
REMARK    4  A    between atoms: C_7  and  O_6 
REMARK    5  A    between atoms: C_9  and  C_10 
REMARK    6  A    between atoms: N_15  and  C_14 
REMARK    7  A    between atoms: N_20  and  C_19 
REMARK       I    between atoms: C_22  and  N_20 
ROOT
ATOM      1  C   LIG d   1      -2.112  78.488 115.621  0.00  0.00     0.161 C 
ATOM      2  C   LIG d   1      -2.521  79.607 114.878  0.00  0.00     0.016 C 
ATOM      3  C   LIG d   1      -2.250  79.767 113.499  0.00  0.00     0.038 C 
ATOM      4  C   LIG d   1      -1.680  78.741 112.732  0.00  0.00     0.028 C 
ATOM      5  C   LIG d   1      -0.797  77.798 113.542  0.00  0.00    -0.047 C 
ATOM      6  C   LIG d   1      -1.587  77.308 114.777  0.00  0.00     0.091 C 
ENDROOT
BRANCH   1   7
ATOM      7  O   LIG d   1      -3.187  78.052 116.478  0.00  0.00    -0.368 OA
BRANCH   7   8
ATOM      8  C   LIG d   1      -4.431  77.713 115.817  0.00  0.00     0.119 C 
BRANCH   8   9
ATOM      9  C   LIG d   1      -5.581  78.183 116.729  0.00  0.00     0.028 C 
ATOM     10  C   LIG d   1      -6.537  77.038 117.104  0.00  0.00     0.006 C 
ENDBRANCH   8   9
BRANCH   8  11
ATOM     11  C   LIG d   1      -4.603  76.196 115.696  0.00  0.00     0.028 C 
ATOM     12  C   LIG d   1      -4.819  75.735 114.246  0.00  0.00     0.006 C 
ENDBRANCH   8  11
ENDBRANCH   7   8
ENDBRANCH   1   7
BRANCH   6  13
ATOM     13  N   LIG d   1      -0.768  76.446 115.669  0.00  0.00    -0.311 N 
ATOM     14  C   LIG d   1      -0.676  75.125 115.531  0.00  0.00     0.210 C 
ATOM     15  C   LIG d   1       0.206  74.425 116.569  0.00  0.00     0.109 C 
ATOM     16  O   LIG d   1      -1.216  74.469 114.627  0.00  0.00    -0.276 OA
ATOM     17  H   LIG d   1      -0.271  76.900 116.411  0.00  0.00     0.149 HD
ENDBRANCH   6  13
BRANCH   5  18
ATOM     18  N   LIG d   1      -0.380  76.700 112.649  0.00  0.00     0.381 N 
ATOM     19  H   LIG d   1       0.030  77.076 111.818  0.00  0.00    -0.090 HD
ATOM     20  H   LIG d   1      -1.192  76.168 112.388  0.00  0.00    -0.090 HD
ATOM     21  H   LIG d   1       0.275  76.112 113.115  0.00  0.00    -0.090 HD
ENDBRANCH   5  18
BRANCH   3  22
ATOM     22  C   LIG d   1      -2.514  80.981 112.883  0.00  0.00     0.382 C 
ATOM     23  O   LIG d   1      -1.573  81.663 112.411  0.00  0.00    -0.241 OA
ATOM     24  O   LIG d   1      -3.677  81.424 112.833  0.00  0.00    -0.241 OA
ENDBRANCH   3  22
TORSDOF 7
ENDMDL
MODEL 2
REMARK VINA RESULT:      -5.3     16.798     19.626
REMARK  7 active torsions:
REMARK  status: ('A' for Active; 'I' for Inactive)
REMARK    1  A    between atoms: C_2  and  C_3 
REMARK    2  A    between atoms: C_3  and  O_6 
REMARK    3  A    between atoms: C_3  and  C_4 
REMARK    4  A    between atoms: C_7  and  O_6 
REMARK    5  A    between atoms: C_9  and  C_10 
REMARK    6  A    between atoms: N_15  and  C_14 
REMARK    7  A    between atoms: N_20  and  C_19 
REMARK       I    between atoms: C_22  and  N_20 
ROOT
ATOM      1  C   LIG d   1     -17.070  65.813 115.929  0.00  0.00     0.161 C 
ATOM      2  C   LIG d   1     -16.063  65.364 116.799  0.00  0.00     0.016 C 
ATOM      3  C   LIG d   1     -15.730  64.000 116.966  0.00  0.00     0.038 C 
ATOM      4  C   LIG d   1     -16.284  62.997 116.157  0.00  0.00     0.028 C 
ATOM      5  C   LIG d   1     -17.667  63.348 115.619  0.00  0.00    -0.047 C 
ATOM      6  C   LIG d   1     -17.609  64.743 114.956  0.00  0.00     0.091 C 
ENDROOT
BRANCH   1   7
ATOM      7  O   LIG d   1     -16.607  66.966 115.199  0.00  0.00    -0.368 OA
BRANCH   7   8
ATOM      8  C   LIG d   1     -15.225  66.934 114.766  0.00  0.00     0.119 C 
BRANCH   8   9
ATOM      9  C   LIG d   1     -14.578  68.269 115.183  0.00  0.00     0.028 C 
ATOM     10  C   LIG d   1     -15.227  68.868 116.441  0.00  0.00     0.006 C 
ENDBRANCH   8   9
BRANCH   8  11
ATOM     11  C   LIG d   1     -15.121  66.892 113.239  0.00  0.00     0.028 C 
ATOM     12  C   LIG d   1     -14.761  68.256 112.628  0.00  0.00     0.006 C 
ENDBRANCH   8  11
ENDBRANCH   7   8
ENDBRANCH   1   7
BRANCH   6  13
ATOM     13  N   LIG d   1     -18.940  65.199 114.477  0.00  0.00    -0.311 N 
ATOM     14  C   LIG d   1     -19.386  64.988 113.241  0.00  0.00     0.210 C 
ATOM     15  C   LIG d   1     -20.777  65.559 112.949  0.00  0.00     0.109 C 
ATOM     16  O   LIG d   1     -18.775  64.353 112.367  0.00  0.00    -0.276 OA
ATOM     17  H   LIG d   1     -19.514  65.695 115.131  0.00  0.00     0.149 HD
ENDBRANCH   6  13
BRANCH   5  18
ATOM     18  N   LIG d   1     -18.065  62.279 114.683  0.00  0.00     0.381 N 
ATOM     19  H   LIG d   1     -18.533  62.678 113.893  0.00  0.00    -0.090 HD
ATOM     20  H   LIG d   1     -18.705  61.660 115.149  0.00  0.00    -0.090 HD
ATOM     21  H   LIG d   1     -17.262  61.773 114.381  0.00  0.00    -0.090 HD
ENDBRANCH   5  18
BRANCH   3  22
ATOM     22  C   LIG d   1     -14.863  63.624 117.981  0.00  0.00     0.382 C 
ATOM     23  O   LIG d   1     -15.214  63.735 119.180  0.00  0.00    -0.241 OA
ATOM     24  O   LIG d   1     -13.716  63.217 117.713  0.00  0.00    -0.241 OA
ENDBRANCH   3  22
TORSDOF 7
ENDMDL
MODEL 3
REMARK VINA RESULT:      -5.3     16.682     19.103
REMARK  7 active torsions:
REMARK  status: ('A' for Active; 'I' for Inactive)
REMARK    1  A    between atoms: C_2  and  C_3 
REMARK    2  A    between atoms: C_3  and  O_6 
REMARK    3  A    between atoms: C_3  and  C_4 
REMARK    4  A    between atoms: C_7  and  O_6 
REMARK    5  A    between atoms: C_9  and  C_10 
REMARK    6  A    between atoms: N_15  and  C_14 
REMARK    7  A    between atoms: N_20  and  C_19 
REMARK       I    between atoms: C_22  and  N_20 
ROOT
ATOM      1  C   LIG d   1     -16.090  64.606 116.118  0.00  0.00     0.161 C 
ATOM      2  C   LIG d   1     -15.412  65.808 116.382  0.00  0.00     0.016 C 
ATOM      3  C   LIG d   1     -15.163  66.793 115.398  0.00  0.00     0.038 C 
ATOM      4  C   LIG d   1     -15.713  66.710 114.110  0.00  0.00     0.028 C 
ATOM      5  C   LIG d   1     -15.977  65.278 113.656  0.00  0.00    -0.047 C 
ATOM      6  C   LIG d   1     -16.794  64.548 114.746  0.00  0.00     0.091 C 
ENDROOT
BRANCH   1   7
ATOM      7  O   LIG d   1     -17.031  64.334 117.176  0.00  0.00    -0.368 OA
BRANCH   7   8
ATOM      8  C   LIG d   1     -17.542  65.489 117.887  0.00  0.00     0.119 C 
BRANCH   8   9
ATOM      9  C   LIG d   1     -17.615  65.118 119.381  0.00  0.00     0.028 C 
ATOM     10  C   LIG d   1     -16.254  65.247 120.085  0.00  0.00     0.006 C 
ENDBRANCH   8   9
BRANCH   8  11
ATOM     11  C   LIG d   1     -18.983  65.803 117.476  0.00  0.00     0.028 C 
ATOM     12  C   LIG d   1     -19.076  66.946 116.452  0.00  0.00     0.006 C 
ENDBRANCH   8  11
ENDBRANCH   7   8
ENDBRANCH   1   7
BRANCH   6  13
ATOM     13  N   LIG d   1     -17.024  63.117 114.419  0.00  0.00    -0.311 N 
ATOM     14  C   LIG d   1     -18.115  62.673 113.797  0.00  0.00     0.210 C 
ATOM     15  C   LIG d   1     -18.161  61.158 113.574  0.00  0.00     0.109 C 
ATOM     16  O   LIG d   1     -19.033  63.394 113.379  0.00  0.00    -0.276 OA
ATOM     17  H   LIG d   1     -16.314  62.466 114.694  0.00  0.00     0.149 HD
ENDBRANCH   6  13
BRANCH   5  18
ATOM     18  N   LIG d   1     -16.675  65.344 112.358  0.00  0.00     0.381 N 
ATOM     19  H   LIG d   1     -17.178  64.494 112.200  0.00  0.00    -0.090 HD
ATOM     20  H   LIG d   1     -15.993  65.448 111.627  0.00  0.00    -0.090 HD
ATOM     21  H   LIG d   1     -17.304  66.117 112.348  0.00  0.00    -0.090 HD
ENDBRANCH   5  18
BRANCH   3  22
ATOM     22  C   LIG d   1     -14.323  67.857 115.689  0.00  0.00     0.382 C 
ATOM     23  O   LIG d   1     -13.537  67.787 116.664  0.00  0.00    -0.241 OA
ATOM     24  O   LIG d   1     -14.373  68.903 115.015  0.00  0.00    -0.241 OA
ENDBRANCH   3  22
TORSDOF 7
ENDMDL
MODEL 4
REMARK VINA RESULT:      -5.3     17.058     19.426
REMARK  7 active torsions:
REMARK  status: ('A' for Active; 'I' for Inactive)
REMARK    1  A    between atoms: C_2  and  C_3 
REMARK    2  A    between atoms: C_3  and  O_6 
REMARK    3  A    between atoms: C_3  and  C_4 
REMARK    4  A    between atoms: C_7  and  O_6 
REMARK    5  A    between atoms: C_9  and  C_10 
REMARK    6  A    between atoms: N_15  and  C_14 
REMARK    7  A    between atoms: N_20  and  C_19 
REMARK       I    between atoms: C_22  and  N_20 
ROOT
ATOM      1  C   LIG d   1     -16.050  64.544 116.104  0.00  0.00     0.161 C 
ATOM      2  C   LIG d   1     -15.388  65.756 116.367  0.00  0.00     0.016 C 
ATOM      3  C   LIG d   1     -15.183  66.758 115.391  0.00  0.00     0.038 C 
ATOM      4  C   LIG d   1     -15.762  66.680 114.115  0.00  0.00     0.028 C 
ATOM      5  C   LIG d   1     -16.010  65.250 113.648  0.00  0.00    -0.047 C 
ATOM      6  C   LIG d   1     -16.786  64.490 114.749  0.00  0.00     0.091 C 
ENDROOT
BRANCH   1   7
ATOM      7  O   LIG d   1     -16.959  64.241 117.180  0.00  0.00    -0.368 OA
BRANCH   7   8
ATOM      8  C   LIG d   1     -18.355  64.546 116.940  0.00  0.00     0.119 C 
BRANCH   8   9
ATOM      9  C   LIG d   1     -18.697  65.813 117.749  0.00  0.00     0.028 C 
ATOM     10  C   LIG d   1     -19.091  66.995 116.848  0.00  0.00     0.006 C 
ENDBRANCH   8   9
BRANCH   8  11
ATOM     11  C   LIG d   1     -19.268  63.450 117.497  0.00  0.00     0.028 C 
ATOM     12  C   LIG d   1     -18.590  62.072 117.536  0.00  0.00     0.006 C 
ENDBRANCH   8  11
ENDBRANCH   7   8
ENDBRANCH   1   7
BRANCH   6  13
ATOM     13  N   LIG d   1     -16.996  63.059 114.408  0.00  0.00    -0.311 N 
ATOM     14  C   LIG d   1     -18.105  62.598 113.833  0.00  0.00     0.210 C 
ATOM     15  C   LIG d   1     -18.125  61.086 113.586  0.00  0.00     0.109 C 
ATOM     16  O   LIG d   1     -19.061  63.302 113.474  0.00  0.00    -0.276 OA
ATOM     17  H   LIG d   1     -16.258  62.422 114.636  0.00  0.00     0.149 HD
ENDBRANCH   6  13
BRANCH   5  18
ATOM     18  N   LIG d   1     -16.741  65.319 112.369  0.00  0.00     0.381 N 
ATOM     19  H   LIG d   1     -17.092  64.413 112.130  0.00  0.00    -0.090 HD
ATOM     20  H   LIG d   1     -16.106  65.612 111.647  0.00  0.00    -0.090 HD
ATOM     21  H   LIG d   1     -17.495  65.967 112.441  0.00  0.00    -0.090 HD
ENDBRANCH   5  18
BRANCH   3  22
ATOM     22  C   LIG d   1     -14.357  67.834 115.675  0.00  0.00     0.382 C 
ATOM     23  O   LIG d   1     -14.552  68.940 115.114  0.00  0.00    -0.241 OA
ATOM     24  O   LIG d   1     -13.391  67.703 116.450  0.00  0.00    -0.241 OA
ENDBRANCH   3  22
TORSDOF 7
ENDMDL
MODEL 5
REMARK VINA RESULT:      -5.2      4.335      7.699
REMARK  7 active torsions:
REMARK  status: ('A' for Active; 'I' for Inactive)
REMARK    1  A    between atoms: C_2  and  C_3 
REMARK    2  A    between atoms: C_3  and  O_6 
REMARK    3  A    between atoms: C_3  and  C_4 
REMARK    4  A    between atoms: C_7  and  O_6 
REMARK    5  A    between atoms: C_9  and  C_10 
REMARK    6  A    between atoms: N_15  and  C_14 
REMARK    7  A    between atoms: N_20  and  C_19 
REMARK       I    between atoms: C_22  and  N_20 
ROOT
ATOM      1  C   LIG d   1      -6.618  77.568 117.403  0.00  0.00     0.161 C 
ATOM      2  C   LIG d   1      -7.403  76.425 117.184  0.00  0.00     0.016 C 
ATOM      3  C   LIG d   1      -8.753  76.318 117.592  0.00  0.00     0.038 C 
ATOM      4  C   LIG d   1      -9.458  77.411 118.117  0.00  0.00     0.028 C 
ATOM      5  C   LIG d   1      -8.564  78.428 118.819  0.00  0.00    -0.047 C 
ATOM      6  C   LIG d   1      -7.402  78.811 117.874  0.00  0.00     0.091 C 
ENDROOT
BRANCH   1   7
ATOM      7  O   LIG d   1      -5.859  77.874 116.217  0.00  0.00    -0.368 OA
BRANCH   7   8
ATOM      8  C   LIG d   1      -4.462  77.492 116.237  0.00  0.00     0.119 C 
BRANCH   8   9
ATOM      9  C   LIG d   1      -3.627  78.780 116.104  0.00  0.00     0.028 C 
ATOM     10  C   LIG d   1      -2.998  79.212 117.440  0.00  0.00     0.006 C 
ENDBRANCH   8   9
BRANCH   8  11
ATOM     11  C   LIG d   1      -4.098  76.645 115.014  0.00  0.00     0.028 C 
ATOM     12  C   LIG d   1      -5.331  76.176 114.226  0.00  0.00     0.006 C 
ENDBRANCH   8  11
ENDBRANCH   7   8
ENDBRANCH   1   7
BRANCH   6  13
ATOM     13  N   LIG d   1      -6.433  79.738 118.514  0.00  0.00    -0.311 N 
ATOM     14  C   LIG d   1      -6.295  81.014 118.160  0.00  0.00     0.210 C 
ATOM     15  C   LIG d   1      -5.224  81.789 118.934  0.00  0.00     0.109 C 
ATOM     16  O   LIG d   1      -6.980  81.587 117.299  0.00  0.00    -0.276 OA
ATOM     17  H   LIG d   1      -5.858  79.364 119.244  0.00  0.00     0.149 HD
ENDBRANCH   6  13
BRANCH   5  18
ATOM     18  N   LIG d   1      -9.407  79.578 119.195  0.00  0.00     0.381 N 
ATOM     19  H   LIG d   1      -8.829  80.339 119.491  0.00  0.00    -0.090 HD
ATOM     20  H   LIG d   1      -9.996  79.312 119.964  0.00  0.00    -0.090 HD
ATOM     21  H   LIG d   1      -9.966  79.859 118.420  0.00  0.00    -0.090 HD
ENDBRANCH   5  18
BRANCH   3  22
ATOM     22  C   LIG d   1      -9.399  75.093 117.514  0.00  0.00     0.382 C 
ATOM     23  O   LIG d   1     -10.632  75.049 117.283  0.00  0.00    -0.241 OA
ATOM     24  O   LIG d   1      -8.775  74.035 117.715  0.00  0.00    -0.241 OA
ENDBRANCH   3  22
TORSDOF 7
ENDMDL
MODEL 6
REMARK VINA RESULT:      -5.1     16.333     18.710
REMARK  7 active torsions:
REMARK  status: ('A' for Active; 'I' for Inactive)
REMARK    1  A    between atoms: C_2  and  C_3 
REMARK    2  A    between atoms: C_3  and  O_6 
REMARK    3  A    between atoms: C_3  and  C_4 
REMARK    4  A    between atoms: C_7  and  O_6 
REMARK    5  A    between atoms: C_9  and  C_10 
REMARK    6  A    between atoms: N_15  and  C_14 
REMARK    7  A    between atoms: N_20  and  C_19 
REMARK       I    between atoms: C_22  and  N_20 
ROOT
ATOM      1  C   LIG d   1     -16.303  65.383 115.966  0.00  0.00     0.161 C 
ATOM      2  C   LIG d   1     -15.930  66.208 114.891  0.00  0.00     0.016 C 
ATOM      3  C   LIG d   1     -14.931  67.204 114.984  0.00  0.00     0.038 C 
ATOM      4  C   LIG d   1     -14.126  67.342 116.124  0.00  0.00     0.028 C 
ATOM      5  C   LIG d   1     -14.804  66.871 117.405  0.00  0.00    -0.047 C 
ATOM      6  C   LIG d   1     -15.358  65.445 117.185  0.00  0.00     0.091 C 
ENDROOT
BRANCH   1   7
ATOM      7  O   LIG d   1     -16.447  64.023 115.512  0.00  0.00    -0.368 OA
BRANCH   7   8
ATOM      8  C   LIG d   1     -17.678  63.711 114.815  0.00  0.00     0.119 C 
BRANCH   8   9
ATOM      9  C   LIG d   1     -18.763  63.462 115.881  0.00  0.00     0.028 C 
ATOM     10  C   LIG d   1     -18.340  62.404 116.913  0.00  0.00     0.006 C 
ENDBRANCH   8   9
BRANCH   8  11
ATOM     11  C   LIG d   1     -17.562  62.395 114.040  0.00  0.00     0.028 C 
ATOM     12  C   LIG d   1     -18.818  62.077 113.214  0.00  0.00     0.006 C 
ENDBRANCH   8  11
ENDBRANCH   7   8
ENDBRANCH   1   7
BRANCH   6  13
ATOM     13  N   LIG d   1     -16.111  64.940 118.363  0.00  0.00    -0.311 N 
ATOM     14  C   LIG d   1     -15.741  63.872 119.067  0.00  0.00     0.210 C 
ATOM     15  C   LIG d   1     -16.670  63.512 120.231  0.00  0.00     0.109 C 
ATOM     16  O   LIG d   1     -14.715  63.209 118.858  0.00  0.00    -0.276 OA
ATOM     17  H   LIG d   1     -16.941  65.438 118.621  0.00  0.00     0.149 HD
ENDBRANCH   6  13
BRANCH   5  18
ATOM     18  N   LIG d   1     -13.807  66.942 118.490  0.00  0.00     0.381 N 
ATOM     19  H   LIG d   1     -12.892  67.060 118.102  0.00  0.00    -0.090 HD
ATOM     20  H   LIG d   1     -13.822  66.078 119.003  0.00  0.00    -0.090 HD
ATOM     21  H   LIG d   1     -14.018  67.702 119.098  0.00  0.00    -0.090 HD
ENDBRANCH   5  18
BRANCH   3  22
ATOM     22  C   LIG d   1     -14.757  68.101 113.941  0.00  0.00     0.382 C 
ATOM     23  O   LIG d   1     -15.082  67.777 112.774  0.00  0.00    -0.241 OA
ATOM     24  O   LIG d   1     -14.237  69.215 114.146  0.00  0.00    -0.241 OA
ENDBRANCH   3  22
TORSDOF 7
ENDMDL
MODEL 7
REMARK VINA RESULT:      -5.0      1.807      5.156
REMARK  7 active torsions:
REMARK  status: ('A' for Active; 'I' for Inactive)
REMARK    1  A    between atoms: C_2  and  C_3 
REMARK    2  A    between atoms: C_3  and  O_6 
REMARK    3  A    between atoms: C_3  and  C_4 
REMARK    4  A    between atoms: C_7  and  O_6 
REMARK    5  A    between atoms: C_9  and  C_10 
REMARK    6  A    between atoms: N_15  and  C_14 
REMARK    7  A    between atoms: N_20  and  C_19 
REMARK       I    between atoms: C_22  and  N_20 
ROOT
ATOM      1  C   LIG d   1      -2.371  76.630 114.674  0.00  0.00     0.161 C 
ATOM      2  C   LIG d   1      -1.993  75.420 115.281  0.00  0.00     0.016 C 
ATOM      3  C   LIG d   1      -0.835  75.280 116.081  0.00  0.00     0.038 C 
ATOM      4  C   LIG d   1      -0.054  76.384 116.455  0.00  0.00     0.028 C 
ATOM      5  C   LIG d   1      -0.113  77.534 115.455  0.00  0.00    -0.047 C 
ATOM      6  C   LIG d   1      -1.593  77.869 115.162  0.00  0.00     0.091 C 
ENDROOT
BRANCH   1   7
ATOM      7  O   LIG d   1      -3.789  76.833 114.835  0.00  0.00    -0.368 OA
BRANCH   7   8
ATOM      8  C   LIG d   1      -4.406  76.165 115.962  0.00  0.00     0.119 C 
BRANCH   8   9
ATOM      9  C   LIG d   1      -5.722  75.536 115.464  0.00  0.00     0.028 C 
ATOM     10  C   LIG d   1      -5.670  75.173 113.971  0.00  0.00     0.006 C 
ENDBRANCH   8   9
BRANCH   8  11
ATOM     11  C   LIG d   1      -4.819  77.165 117.045  0.00  0.00     0.028 C 
ATOM     12  C   LIG d   1      -3.857  77.177 118.244  0.00  0.00     0.006 C 
ENDBRANCH   8  11
ENDBRANCH   7   8
ENDBRANCH   1   7
BRANCH   6  13
ATOM     13  N   LIG d   1      -1.740  78.928 114.129  0.00  0.00    -0.311 N 
ATOM     14  C   LIG d   1      -2.618  79.925 114.221  0.00  0.00     0.210 C 
ATOM     15  C   LIG d   1      -2.620  80.897 113.037  0.00  0.00     0.109 C 
ATOM     16  O   LIG d   1      -3.373  80.116 115.187  0.00  0.00    -0.276 OA
ATOM     17  H   LIG d   1      -1.145  78.868 113.326  0.00  0.00     0.149 HD
ENDBRANCH   6  13
BRANCH   5  18
ATOM     18  N   LIG d   1       0.633  78.667 116.035  0.00  0.00     0.381 N 
ATOM     19  H   LIG d   1       1.452  78.330 116.500  0.00  0.00    -0.090 HD
ATOM     20  H   LIG d   1       0.051  79.126 116.713  0.00  0.00    -0.090 HD
ATOM     21  H   LIG d   1       0.890  79.309 115.317  0.00  0.00    -0.090 HD
ENDBRANCH   5  18
BRANCH   3  22
ATOM     22  C   LIG d   1      -0.427  74.018 116.483  0.00  0.00     0.382 C 
ATOM     23  O   LIG d   1      -0.756  73.582 117.613  0.00  0.00    -0.241 OA
ATOM     24  O   LIG d   1       0.304  73.327 115.748  0.00  0.00    -0.241 OA
ENDBRANCH   3  22
TORSDOF 7
ENDMDL
MODEL 8
REMARK VINA RESULT:      -5.0     10.576     12.878
REMARK  7 active torsions:
REMARK  status: ('A' for Active; 'I' for Inactive)
REMARK    1  A    between atoms: C_2  and  C_3 
REMARK    2  A    between atoms: C_3  and  O_6 
REMARK    3  A    between atoms: C_3  and  C_4 
REMARK    4  A    between atoms: C_7  and  O_6 
REMARK    5  A    between atoms: C_9  and  C_10 
REMARK    6  A    between atoms: N_15  and  C_14 
REMARK    7  A    between atoms: N_20  and  C_19 
REMARK       I    between atoms: C_22  and  N_20 
ROOT
ATOM      1  C   LIG d   1       3.125  88.433 115.957  0.00  0.00     0.161 C 
ATOM      2  C   LIG d   1       4.015  89.213 116.713  0.00  0.00     0.016 C 
ATOM      3  C   LIG d   1       5.321  89.541 116.283  0.00  0.00     0.038 C 
ATOM      4  C   LIG d   1       5.776  89.233 114.992  0.00  0.00     0.028 C 
ATOM      5  C   LIG d   1       5.095  88.011 114.385  0.00  0.00    -0.047 C 
ATOM      6  C   LIG d   1       3.563  88.182 114.499  0.00  0.00     0.091 C 
ENDROOT
BRANCH   1   7
ATOM      7  O   LIG d   1       1.809  89.020 115.990  0.00  0.00    -0.368 OA
BRANCH   7   8
ATOM      8  C   LIG d   1       1.266  89.292 117.306  0.00  0.00     0.119 C 
BRANCH   8   9
ATOM      9  C   LIG d   1       0.182  88.234 117.587  0.00  0.00     0.028 C 
ATOM     10  C   LIG d   1       0.710  87.063 118.432  0.00  0.00     0.006 C 
ENDBRANCH   8   9
BRANCH   8  11
ATOM     11  C   LIG d   1       0.537  90.639 117.340  0.00  0.00     0.028 C 
ATOM     12  C   LIG d   1      -0.948  90.503 117.711  0.00  0.00     0.006 C 
ENDBRANCH   8  11
ENDBRANCH   7   8
ENDBRANCH   1   7
BRANCH   6  13
ATOM     13  N   LIG d   1       2.822  86.992 114.004  0.00  0.00    -0.311 N 
ATOM     14  C   LIG d   1       2.058  87.006 112.913  0.00  0.00     0.210 C 
ATOM     15  C   LIG d   1       1.367  85.677 112.592  0.00  0.00     0.109 C 
ATOM     16  O   LIG d   1       1.913  87.983 112.164  0.00  0.00    -0.276 OA
ATOM     17  H   LIG d   1       2.908  86.148 114.535  0.00  0.00     0.149 HD
ENDBRANCH   6  13
BRANCH   5  18
ATOM     18  N   LIG d   1       5.562  87.887 112.992  0.00  0.00     0.381 N 
ATOM     19  H   LIG d   1       6.283  88.558 112.815  0.00  0.00    -0.090 HD
ATOM     20  H   LIG d   1       4.793  88.079 112.373  0.00  0.00    -0.090 HD
ATOM     21  H   LIG d   1       5.907  86.967 112.828  0.00  0.00    -0.090 HD
ENDBRANCH   5  18
BRANCH   3  22
ATOM     22  C   LIG d   1       6.203  90.148 117.164  0.00  0.00     0.382 C 
ATOM     23  O   LIG d   1       5.765  90.744 118.178  0.00  0.00    -0.241 OA
ATOM     24  O   LIG d   1       7.427  90.147 116.935  0.00  0.00    -0.241 OA
ENDBRANCH   3  22
TORSDOF 7
ENDMDL
MODEL 9
REMARK VINA RESULT:      -5.0     16.519     19.374
REMARK  7 active torsions:
REMARK  status: ('A' for Active; 'I' for Inactive)
REMARK    1  A    between atoms: C_2  and  C_3 
REMARK    2  A    between atoms: C_3  and  O_6 
REMARK    3  A    between atoms: C_3  and  C_4 
REMARK    4  A    between atoms: C_7  and  O_6 
REMARK    5  A    between atoms: C_9  and  C_10 
REMARK    6  A    between atoms: N_15  and  C_14 
REMARK    7  A    between atoms: N_20  and  C_19 
REMARK       I    between atoms: C_22  and  N_20 
ROOT
ATOM      1  C   LIG d   1     -16.372  64.948 114.919  0.00  0.00     0.161 C 
ATOM      2  C   LIG d   1     -16.593  63.922 115.854  0.00  0.00     0.016 C 
ATOM      3  C   LIG d   1     -15.990  63.891 117.132  0.00  0.00     0.038 C 
ATOM      4  C   LIG d   1     -15.238  64.968 117.624  0.00  0.00     0.028 C 
ATOM      5  C   LIG d   1     -14.575  65.795 116.526  0.00  0.00    -0.047 C 
ATOM      6  C   LIG d   1     -15.643  66.187 115.479  0.00  0.00     0.091 C 
ENDROOT
BRANCH   1   7
ATOM      7  O   LIG d   1     -17.621  65.333 114.313  0.00  0.00    -0.368 OA
BRANCH   7   8
ATOM      8  C   LIG d   1     -18.821  64.824 114.944  0.00  0.00     0.119 C 
BRANCH   8   9
ATOM      9  C   LIG d   1     -19.665  64.139 113.852  0.00  0.00     0.028 C 
ATOM     10  C   LIG d   1     -19.051  64.298 112.451  0.00  0.00     0.006 C 
ENDBRANCH   8   9
BRANCH   8  11
ATOM     11  C   LIG d   1     -19.696  65.961 115.478  0.00  0.00     0.028 C 
ATOM     12  C   LIG d   1     -19.068  66.682 116.682  0.00  0.00     0.006 C 
ENDBRANCH   8  11
ENDBRANCH   7   8
ENDBRANCH   1   7
BRANCH   6  13
ATOM     13  N   LIG d   1     -15.062  66.926 114.328  0.00  0.00    -0.311 N 
ATOM     14  C   LIG d   1     -14.874  68.244 114.323  0.00  0.00     0.210 C 
ATOM     15  C   LIG d   1     -14.281  68.807 113.027  0.00  0.00     0.109 C 
ATOM     16  O   LIG d   1     -15.111  68.996 115.280  0.00  0.00    -0.276 OA
ATOM     17  H   LIG d   1     -14.813  66.389 113.520  0.00  0.00     0.149 HD
ENDBRANCH   6  13
BRANCH   5  18
ATOM     18  N   LIG d   1     -13.940  66.961 117.169  0.00  0.00     0.381 N 
ATOM     19  H   LIG d   1     -12.947  66.841 117.181  0.00  0.00    -0.090 HD
ATOM     20  H   LIG d   1     -14.261  67.024 118.119  0.00  0.00    -0.090 HD
ATOM     21  H   LIG d   1     -14.176  67.793 116.675  0.00  0.00    -0.090 HD
ENDBRANCH   5  18
BRANCH   3  22
ATOM     22  C   LIG d   1     -16.105  62.755 117.919  0.00  0.00     0.382 C 
ATOM     23  O   LIG d   1     -15.078  62.222 118.404  0.00  0.00    -0.241 OA
ATOM     24  O   LIG d   1     -17.218  62.231 118.113  0.00  0.00    -0.241 OA
ENDBRANCH   3  22
TORSDOF 7
ENDMDL
