MODEL 1
REMARK VINA RESULT:      -5.8      0.000      0.000
REMARK  7 active torsions:
REMARK  status: ('A' for Active; 'I' for Inactive)
REMARK    1  A    between atoms: C_2  and  C_3 
REMARK    2  A    between atoms: C_3  and  O_6 
REMARK    3  A    between atoms: C_3  and  C_4 
REMARK    4  A    between atoms: C_7  and  O_6 
REMARK    5  A    between atoms: C_9  and  C_10 
REMARK    6  A    between atoms: N_15  and  C_14 
REMARK    7  A    between atoms: N_20  and  C_19 
REMARK       I    between atoms: C_22  and  N_20 
ROOT
ATOM      1  C   LIG d   1      -3.122  77.340 114.353  0.00  0.00     0.161 C 
ATOM      2  C   LIG d   1      -3.224  78.553 113.653  0.00  0.00     0.016 C 
ATOM      3  C   LIG d   1      -2.104  79.327 113.269  0.00  0.00     0.038 C 
ATOM      4  C   LIG d   1      -0.791  78.861 113.429  0.00  0.00     0.028 C 
ATOM      5  C   LIG d   1      -0.634  77.876 114.583  0.00  0.00    -0.047 C 
ATOM      6  C   LIG d   1      -1.694  76.760 114.438  0.00  0.00     0.091 C 
ENDROOT
BRANCH   1   7
ATOM      7  O   LIG d   1      -4.023  76.370 113.783  0.00  0.00    -0.368 OA
BRANCH   7   8
ATOM      8  C   LIG d   1      -5.076  75.890 114.655  0.00  0.00     0.119 C 
BRANCH   8   9
ATOM      9  C   LIG d   1      -4.957  74.355 114.723  0.00  0.00     0.028 C 
ATOM     10  C   LIG d   1      -5.963  73.731 115.705  0.00  0.00     0.006 C 
ENDBRANCH   8   9
BRANCH   8  11
ATOM     11  C   LIG d   1      -6.461  76.163 114.059  0.00  0.00     0.028 C 
ATOM     12  C   LIG d   1      -6.396  76.660 112.606  0.00  0.00     0.006 C 
ENDBRANCH   8  11
ENDBRANCH   7   8
ENDBRANCH   1   7
BRANCH   6  13
ATOM     13  N   LIG d   1      -1.666  75.800 115.572  0.00  0.00    -0.311 N 
ATOM     14  C   LIG d   1      -0.991  74.652 115.543  0.00  0.00     0.210 C 
ATOM     15  C   LIG d   1      -1.112  73.800 116.811  0.00  0.00     0.109 C 
ATOM     16  O   LIG d   1      -0.279  74.273 114.601  0.00  0.00    -0.276 OA
ATOM     17  H   LIG d   1      -2.191  76.043 116.389  0.00  0.00     0.149 HD
ENDBRANCH   6  13
BRANCH   5  18
ATOM     18  N   LIG d   1       0.750  77.366 114.548  0.00  0.00     0.381 N 
ATOM     19  H   LIG d   1       0.748  76.396 114.302  0.00  0.00    -0.090 HD
ATOM     20  H   LIG d   1       1.153  77.458 115.464  0.00  0.00    -0.090 HD
ATOM     21  H   LIG d   1       1.287  77.883 113.887  0.00  0.00    -0.090 HD
ENDBRANCH   5  18
BRANCH   3  22
ATOM     22  C   LIG d   1      -2.293  80.601 112.755  0.00  0.00     0.382 C 
ATOM     23  O   LIG d   1      -3.448  81.086 112.689  0.00  0.00    -0.241 OA
ATOM     24  O   LIG d   1      -1.327  81.254 112.315  0.00  0.00    -0.241 OA
ENDBRANCH   3  22
TORSDOF 7
ENDMDL
MODEL 2
REMARK VINA RESULT:      -5.7      5.097      8.112
REMARK  7 active torsions:
REMARK  status: ('A' for Active; 'I' for Inactive)
REMARK    1  A    between atoms: C_2  and  C_3 
REMARK    2  A    between atoms: C_3  and  O_6 
REMARK    3  A    between atoms: C_3  and  C_4 
REMARK    4  A    between atoms: C_7  and  O_6 
REMARK    5  A    between atoms: C_9  and  C_10 
REMARK    6  A    between atoms: N_15  and  C_14 
REMARK    7  A    between atoms: N_20  and  C_19 
REMARK       I    between atoms: C_22  and  N_20 
ROOT
ATOM      1  C   LIG d   1      -7.292  76.666 117.017  0.00  0.00     0.161 C 
ATOM      2  C   LIG d   1      -7.890  75.401 116.888  0.00  0.00     0.016 C 
ATOM      3  C   LIG d   1      -9.149  75.075 117.442  0.00  0.00     0.038 C 
ATOM      4  C   LIG d   1      -9.969  76.043 118.040  0.00  0.00     0.028 C 
ATOM      5  C   LIG d   1      -9.192  77.211 118.637  0.00  0.00    -0.047 C 
ATOM      6  C   LIG d   1      -8.222  77.767 117.570  0.00  0.00     0.091 C 
ENDROOT
BRANCH   1   7
ATOM      7  O   LIG d   1      -6.730  77.073 115.754  0.00  0.00    -0.368 OA
BRANCH   7   8
ATOM      8  C   LIG d   1      -6.720  76.070 114.708  0.00  0.00     0.119 C 
BRANCH   8   9
ATOM      9  C   LIG d   1      -5.247  75.755 114.382  0.00  0.00     0.028 C 
ATOM     10  C   LIG d   1      -4.808  74.381 114.916  0.00  0.00     0.006 C 
ENDBRANCH   8   9
BRANCH   8  11
ATOM     11  C   LIG d   1      -7.316  76.615 113.407  0.00  0.00     0.028 C 
ATOM     12  C   LIG d   1      -6.265  76.798 112.301  0.00  0.00     0.006 C 
ENDBRANCH   8  11
ENDBRANCH   7   8
ENDBRANCH   1   7
BRANCH   6  13
ATOM     13  N   LIG d   1      -7.362  78.858 118.098  0.00  0.00    -0.311 N 
ATOM     14  C   LIG d   1      -7.682  80.148 118.016  0.00  0.00     0.210 C 
ATOM     15  C   LIG d   1      -6.645  81.110 118.606  0.00  0.00     0.109 C 
ATOM     16  O   LIG d   1      -8.739  80.586 117.539  0.00  0.00    -0.276 OA
ATOM     17  H   LIG d   1      -6.499  78.590 118.530  0.00  0.00     0.149 HD
ENDBRANCH   6  13
BRANCH   5  18
ATOM     18  N   LIG d   1     -10.173  78.209 119.102  0.00  0.00     0.381 N 
ATOM     19  H   LIG d   1      -9.707  79.067 119.320  0.00  0.00    -0.090 HD
ATOM     20  H   LIG d   1     -10.613  77.867 119.939  0.00  0.00    -0.090 HD
ATOM     21  H   LIG d   1     -10.860  78.366 118.398  0.00  0.00    -0.090 HD
ENDBRANCH   5  18
BRANCH   3  22
ATOM     22  C   LIG d   1      -9.581  73.758 117.437  0.00  0.00     0.382 C 
ATOM     23  O   LIG d   1     -10.746  73.478 117.813  0.00  0.00    -0.241 OA
ATOM     24  O   LIG d   1      -8.808  72.840 117.105  0.00  0.00    -0.241 OA
ENDBRANCH   3  22
TORSDOF 7
ENDMDL
MODEL 3
REMARK VINA RESULT:      -5.1      6.588      9.035
REMARK  7 active torsions:
REMARK  status: ('A' for Active; 'I' for Inactive)
REMARK    1  A    between atoms: C_2  and  C_3 
REMARK    2  A    between atoms: C_3  and  O_6 
REMARK    3  A    between atoms: C_3  and  C_4 
REMARK    4  A    between atoms: C_7  and  O_6 
REMARK    5  A    between atoms: C_9  and  C_10 
REMARK    6  A    between atoms: N_15  and  C_14 
REMARK    7  A    between atoms: N_20  and  C_19 
REMARK       I    between atoms: C_22  and  N_20 
ROOT
ATOM      1  C   LIG d   1      -9.295  77.240 118.492  0.00  0.00     0.161 C 
ATOM      2  C   LIG d   1      -8.107  77.359 117.753  0.00  0.00     0.016 C 
ATOM      3  C   LIG d   1      -7.654  76.375 116.845  0.00  0.00     0.038 C 
ATOM      4  C   LIG d   1      -8.441  75.267 116.499  0.00  0.00     0.028 C 
ATOM      5  C   LIG d   1      -9.417  74.851 117.595  0.00  0.00    -0.047 C 
ATOM      6  C   LIG d   1     -10.223  76.091 118.046  0.00  0.00     0.091 C 
ENDROOT
BRANCH   1   7
ATOM      7  O   LIG d   1     -10.008  78.493 118.476  0.00  0.00    -0.368 OA
BRANCH   7   8
ATOM      8  C   LIG d   1      -9.218  79.679 118.740  0.00  0.00     0.119 C 
BRANCH   8   9
ATOM      9  C   LIG d   1      -8.674  79.564 120.177  0.00  0.00     0.028 C 
ATOM     10  C   LIG d   1      -7.179  79.911 120.269  0.00  0.00     0.006 C 
ENDBRANCH   8   9
BRANCH   8  11
ATOM     11  C   LIG d   1     -10.087  80.940 118.734  0.00  0.00     0.028 C 
ATOM     12  C   LIG d   1     -10.194  81.584 117.343  0.00  0.00     0.006 C 
ENDBRANCH   8  11
ENDBRANCH   7   8
ENDBRANCH   1   7
BRANCH   6  13
ATOM     13  N   LIG d   1     -11.141  75.790 119.174  0.00  0.00    -0.311 N 
ATOM     14  C   LIG d   1     -12.399  75.384 119.007  0.00  0.00     0.210 C 
ATOM     15  C   LIG d   1     -13.180  75.149 120.304  0.00  0.00     0.109 C 
ATOM     16  O   LIG d   1     -12.932  75.166 117.909  0.00  0.00    -0.276 OA
ATOM     17  H   LIG d   1     -10.781  75.910 120.101  0.00  0.00     0.149 HD
ENDBRANCH   6  13
BRANCH   5  18
ATOM     18  N   LIG d   1     -10.267  73.775 117.050  0.00  0.00     0.381 N 
ATOM     19  H   LIG d   1     -10.166  72.950 117.606  0.00  0.00    -0.090 HD
ATOM     20  H   LIG d   1      -9.965  73.565 116.115  0.00  0.00    -0.090 HD
ATOM     21  H   LIG d   1     -11.220  74.065 117.042  0.00  0.00    -0.090 HD
ENDBRANCH   5  18
BRANCH   3  22
ATOM     22  C   LIG d   1      -6.382  76.474 116.302  0.00  0.00     0.382 C 
ATOM     23  O   LIG d   1      -5.930  77.595 115.965  0.00  0.00    -0.241 OA
ATOM     24  O   LIG d   1      -5.698  75.452 116.103  0.00  0.00    -0.241 OA
ENDBRANCH   3  22
TORSDOF 7
ENDMDL
MODEL 4
REMARK VINA RESULT:      -5.0     13.259     16.168
REMARK  7 active torsions:
REMARK  status: ('A' for Active; 'I' for Inactive)
REMARK    1  A    between atoms: C_2  and  C_3 
REMARK    2  A    between atoms: C_3  and  O_6 
REMARK    3  A    between atoms: C_3  and  C_4 
REMARK    4  A    between atoms: C_7  and  O_6 
REMARK    5  A    between atoms: C_9  and  C_10 
REMARK    6  A    between atoms: N_15  and  C_14 
REMARK    7  A    between atoms: N_20  and  C_19 
REMARK       I    between atoms: C_22  and  N_20 
ROOT
ATOM      1  C   LIG d   1      -4.316  91.682 117.243  0.00  0.00     0.161 C 
ATOM      2  C   LIG d   1      -3.524  92.659 117.869  0.00  0.00     0.016 C 
ATOM      3  C   LIG d   1      -4.060  93.785 118.536  0.00  0.00     0.038 C 
ATOM      4  C   LIG d   1      -5.438  93.932 118.752  0.00  0.00     0.028 C 
ATOM      5  C   LIG d   1      -6.295  93.233 117.702  0.00  0.00    -0.047 C 
ATOM      6  C   LIG d   1      -5.823  91.768 117.565  0.00  0.00     0.091 C 
ENDROOT
BRANCH   1   7
ATOM      7  O   LIG d   1      -3.811  90.369 117.555  0.00  0.00    -0.368 OA
BRANCH   7   8
ATOM      8  C   LIG d   1      -2.541  90.324 118.251  0.00  0.00     0.119 C 
BRANCH   8   9
ATOM      9  C   LIG d   1      -1.557  89.534 117.367  0.00  0.00     0.028 C 
ATOM     10  C   LIG d   1      -0.221  90.271 117.173  0.00  0.00     0.006 C 
ENDBRANCH   8   9
BRANCH   8  11
ATOM     11  C   LIG d   1      -2.647  89.526 119.554  0.00  0.00     0.028 C 
ATOM     12  C   LIG d   1      -2.375  88.026 119.357  0.00  0.00     0.006 C 
ENDBRANCH   8  11
ENDBRANCH   7   8
ENDBRANCH   1   7
BRANCH   6  13
ATOM     13  N   LIG d   1      -6.553  91.035 116.497  0.00  0.00    -0.311 N 
ATOM     14  C   LIG d   1      -6.630  91.460 115.237  0.00  0.00     0.210 C 
ATOM     15  C   LIG d   1      -7.448  90.565 114.301  0.00  0.00     0.109 C 
ATOM     16  O   LIG d   1      -6.071  92.476 114.798  0.00  0.00    -0.276 OA
ATOM     17  H   LIG d   1      -7.010  90.183 116.759  0.00  0.00     0.149 HD
ENDBRANCH   6  13
BRANCH   5  18
ATOM     18  N   LIG d   1      -7.703  93.350 118.125  0.00  0.00     0.381 N 
ATOM     19  H   LIG d   1      -8.253  93.717 117.374  0.00  0.00    -0.090 HD
ATOM     20  H   LIG d   1      -7.758  93.990 118.898  0.00  0.00    -0.090 HD
ATOM     21  H   LIG d   1      -8.052  92.458 118.398  0.00  0.00    -0.090 HD
ENDBRANCH   5  18
BRANCH   3  22
ATOM     22  C   LIG d   1      -3.215  94.800 118.959  0.00  0.00     0.382 C 
ATOM     23  O   LIG d   1      -1.982  94.720 118.741  0.00  0.00    -0.241 OA
ATOM     24  O   LIG d   1      -3.664  95.772 119.594  0.00  0.00    -0.241 OA
ENDBRANCH   3  22
TORSDOF 7
ENDMDL
MODEL 5
REMARK VINA RESULT:      -5.0     12.322     14.416
REMARK  7 active torsions:
REMARK  status: ('A' for Active; 'I' for Inactive)
REMARK    1  A    between atoms: C_2  and  C_3 
REMARK    2  A    between atoms: C_3  and  O_6 
REMARK    3  A    between atoms: C_3  and  C_4 
REMARK    4  A    between atoms: C_7  and  O_6 
REMARK    5  A    between atoms: C_9  and  C_10 
REMARK    6  A    between atoms: N_15  and  C_14 
REMARK    7  A    between atoms: N_20  and  C_19 
REMARK       I    between atoms: C_22  and  N_20 
ROOT
ATOM      1  C   LIG d   1      11.090  77.500 114.947  0.00  0.00     0.161 C 
ATOM      2  C   LIG d   1      11.295  78.736 114.311  0.00  0.00     0.016 C 
ATOM      3  C   LIG d   1      12.503  79.089 113.666  0.00  0.00     0.038 C 
ATOM      4  C   LIG d   1      13.542  78.164 113.481  0.00  0.00     0.028 C 
ATOM      5  C   LIG d   1      13.577  77.072 114.545  0.00  0.00    -0.047 C 
ATOM      6  C   LIG d   1      12.172  76.438 114.660  0.00  0.00     0.091 C 
ENDROOT
BRANCH   1   7
ATOM      7  O   LIG d   1       9.785  76.990 114.613  0.00  0.00    -0.368 OA
BRANCH   7   8
ATOM      8  C   LIG d   1       8.774  77.097 115.646  0.00  0.00     0.119 C 
BRANCH   8   9
ATOM      9  C   LIG d   1       7.834  78.254 115.256  0.00  0.00     0.028 C 
ATOM     10  C   LIG d   1       7.987  79.471 116.183  0.00  0.00     0.006 C 
ENDBRANCH   8   9
BRANCH   8  11
ATOM     11  C   LIG d   1       9.390  77.508 116.986  0.00  0.00     0.028 C 
ATOM     12  C   LIG d   1       9.248  76.423 118.065  0.00  0.00     0.006 C 
ENDBRANCH   8  11
ENDBRANCH   7   8
ENDBRANCH   1   7
BRANCH   6  13
ATOM     13  N   LIG d   1      12.097  75.417 115.737  0.00  0.00    -0.311 N 
ATOM     14  C   LIG d   1      12.361  74.126 115.543  0.00  0.00     0.210 C 
ATOM     15  C   LIG d   1      12.204  73.241 116.783  0.00  0.00     0.109 C 
ATOM     16  O   LIG d   1      12.742  73.636 114.470  0.00  0.00    -0.276 OA
ATOM     17  H   LIG d   1      11.825  75.733 116.647  0.00  0.00     0.149 HD
ENDBRANCH   6  13
BRANCH   5  18
ATOM     18  N   LIG d   1      14.618  76.103 114.154  0.00  0.00     0.381 N 
ATOM     19  H   LIG d   1      15.523  76.509 114.279  0.00  0.00    -0.090 HD
ATOM     20  H   LIG d   1      14.505  75.878 113.181  0.00  0.00    -0.090 HD
ATOM     21  H   LIG d   1      14.538  75.276 114.704  0.00  0.00    -0.090 HD
ENDBRANCH   5  18
BRANCH   3  22
ATOM     22  C   LIG d   1      12.696  80.392 113.233  0.00  0.00     0.382 C 
ATOM     23  O   LIG d   1      12.178  80.778 112.157  0.00  0.00    -0.241 OA
ATOM     24  O   LIG d   1      13.418  81.173 113.881  0.00  0.00    -0.241 OA
ENDBRANCH   3  22
TORSDOF 7
ENDMDL
MODEL 6
REMARK VINA RESULT:      -4.7     11.379     14.077
REMARK  7 active torsions:
REMARK  status: ('A' for Active; 'I' for Inactive)
REMARK    1  A    between atoms: C_2  and  C_3 
REMARK    2  A    between atoms: C_3  and  O_6 
REMARK    3  A    between atoms: C_3  and  C_4 
REMARK    4  A    between atoms: C_7  and  O_6 
REMARK    5  A    between atoms: C_9  and  C_10 
REMARK    6  A    between atoms: N_15  and  C_14 
REMARK    7  A    between atoms: N_20  and  C_19 
REMARK       I    between atoms: C_22  and  N_20 
ROOT
ATOM      1  C   LIG d   1       1.136  88.841 117.018  0.00  0.00     0.161 C 
ATOM      2  C   LIG d   1      -0.256  88.661 117.072  0.00  0.00     0.016 C 
ATOM      3  C   LIG d   1      -1.134  89.567 117.710  0.00  0.00     0.038 C 
ATOM      4  C   LIG d   1      -0.691  90.800 118.210  0.00  0.00     0.028 C 
ATOM      5  C   LIG d   1       0.776  90.794 118.626  0.00  0.00    -0.047 C 
ATOM      6  C   LIG d   1       1.626  90.236 117.461  0.00  0.00     0.091 C 
ENDROOT
BRANCH   1   7
ATOM      7  O   LIG d   1       1.617  88.539 115.693  0.00  0.00    -0.368 OA
BRANCH   7   8
ATOM      8  C   LIG d   1       2.488  87.387 115.578  0.00  0.00     0.119 C 
BRANCH   8   9
ATOM      9  C   LIG d   1       3.454  87.651 114.407  0.00  0.00     0.028 C 
ATOM     10  C   LIG d   1       4.615  88.580 114.801  0.00  0.00     0.006 C 
ENDBRANCH   8   9
BRANCH   8  11
ATOM     11  C   LIG d   1       1.704  86.132 115.182  0.00  0.00     0.028 C 
ATOM     12  C   LIG d   1       1.987  85.684 113.740  0.00  0.00     0.006 C 
ENDBRANCH   8  11
ENDBRANCH   7   8
ENDBRANCH   1   7
BRANCH   6  13
ATOM     13  N   LIG d   1       3.064  90.116 117.815  0.00  0.00    -0.311 N 
ATOM     14  C   LIG d   1       3.972  91.043 117.513  0.00  0.00     0.210 C 
ATOM     15  C   LIG d   1       5.403  90.713 117.952  0.00  0.00     0.109 C 
ATOM     16  O   LIG d   1       3.724  92.121 116.953  0.00  0.00    -0.276 OA
ATOM     17  H   LIG d   1       3.348  89.287 118.298  0.00  0.00     0.149 HD
ENDBRANCH   6  13
BRANCH   5  18
ATOM     18  N   LIG d   1       1.141  92.174 118.997  0.00  0.00     0.381 N 
ATOM     19  H   LIG d   1       0.925  92.796 118.243  0.00  0.00    -0.090 HD
ATOM     20  H   LIG d   1       2.130  92.215 119.167  0.00  0.00    -0.090 HD
ATOM     21  H   LIG d   1       0.644  92.449 119.816  0.00  0.00    -0.090 HD
ENDBRANCH   5  18
BRANCH   3  22
ATOM     22  C   LIG d   1      -2.465  89.224 117.888  0.00  0.00     0.382 C 
ATOM     23  O   LIG d   1      -3.355  89.788 117.207  0.00  0.00    -0.241 OA
ATOM     24  O   LIG d   1      -2.792  88.388 118.752  0.00  0.00    -0.241 OA
ENDBRANCH   3  22
TORSDOF 7
ENDMDL
MODEL 7
REMARK VINA RESULT:      -4.7     15.908     19.061
REMARK  7 active torsions:
REMARK  status: ('A' for Active; 'I' for Inactive)
REMARK    1  A    between atoms: C_2  and  C_3 
REMARK    2  A    between atoms: C_3  and  O_6 
REMARK    3  A    between atoms: C_3  and  C_4 
REMARK    4  A    between atoms: C_7  and  O_6 
REMARK    5  A    between atoms: C_9  and  C_10 
REMARK    6  A    between atoms: N_15  and  C_14 
REMARK    7  A    between atoms: N_20  and  C_19 
REMARK       I    between atoms: C_22  and  N_20 
ROOT
ATOM      1  C   LIG d   1     -16.143  64.189 115.050  0.00  0.00     0.161 C 
ATOM      2  C   LIG d   1     -17.270  64.556 114.296  0.00  0.00     0.016 C 
ATOM      3  C   LIG d   1     -18.580  64.600 114.825  0.00  0.00     0.038 C 
ATOM      4  C   LIG d   1     -18.834  64.425 116.194  0.00  0.00     0.028 C 
ATOM      5  C   LIG d   1     -17.794  63.557 116.895  0.00  0.00    -0.047 C 
ATOM      6  C   LIG d   1     -16.385  64.102 116.572  0.00  0.00     0.091 C 
ENDROOT
BRANCH   1   7
ATOM      7  O   LIG d   1     -15.052  65.086 114.767  0.00  0.00    -0.368 OA
BRANCH   7   8
ATOM      8  C   LIG d   1     -15.399  66.483 114.609  0.00  0.00     0.119 C 
BRANCH   8   9
ATOM      9  C   LIG d   1     -14.602  67.026 113.408  0.00  0.00     0.028 C 
ATOM     10  C   LIG d   1     -14.405  68.550 113.474  0.00  0.00     0.006 C 
ENDBRANCH   8   9
BRANCH   8  11
ATOM     11  C   LIG d   1     -14.937  67.312 115.811  0.00  0.00     0.028 C 
ATOM     12  C   LIG d   1     -16.102  67.774 116.701  0.00  0.00     0.006 C 
ENDBRANCH   8  11
ENDBRANCH   7   8
ENDBRANCH   1   7
BRANCH   6  13
ATOM     13  N   LIG d   1     -15.305  63.260 117.151  0.00  0.00    -0.311 N 
ATOM     14  C   LIG d   1     -14.733  63.509 118.328  0.00  0.00     0.210 C 
ATOM     15  C   LIG d   1     -13.626  62.528 118.729  0.00  0.00     0.109 C 
ATOM     16  O   LIG d   1     -15.058  64.430 119.092  0.00  0.00    -0.276 OA
ATOM     17  H   LIG d   1     -15.001  62.473 116.611  0.00  0.00     0.149 HD
ENDBRANCH   6  13
BRANCH   5  18
ATOM     18  N   LIG d   1     -18.103  63.571 118.338  0.00  0.00     0.381 N 
ATOM     19  H   LIG d   1     -17.265  63.427 118.865  0.00  0.00    -0.090 HD
ATOM     20  H   LIG d   1     -18.737  62.818 118.542  0.00  0.00    -0.090 HD
ATOM     21  H   LIG d   1     -18.517  64.441 118.590  0.00  0.00    -0.090 HD
ENDBRANCH   5  18
BRANCH   3  22
ATOM     22  C   LIG d   1     -19.660  64.783 113.974  0.00  0.00     0.382 C 
ATOM     23  O   LIG d   1     -19.763  64.088 112.935  0.00  0.00    -0.241 OA
ATOM     24  O   LIG d   1     -20.507  65.665 114.209  0.00  0.00    -0.241 OA
ENDBRANCH   3  22
TORSDOF 7
ENDMDL
MODEL 8
REMARK VINA RESULT:      -4.7     14.647     17.519
REMARK  7 active torsions:
REMARK  status: ('A' for Active; 'I' for Inactive)
REMARK    1  A    between atoms: C_2  and  C_3 
REMARK    2  A    between atoms: C_3  and  O_6 
REMARK    3  A    between atoms: C_3  and  C_4 
REMARK    4  A    between atoms: C_7  and  O_6 
REMARK    5  A    between atoms: C_9  and  C_10 
REMARK    6  A    between atoms: N_15  and  C_14 
REMARK    7  A    between atoms: N_20  and  C_19 
REMARK       I    between atoms: C_22  and  N_20 
ROOT
ATOM      1  C   LIG d   1      -4.551  93.404 118.498  0.00  0.00     0.161 C 
ATOM      2  C   LIG d   1      -4.750  94.571 119.255  0.00  0.00     0.016 C 
ATOM      3  C   LIG d   1      -5.933  95.344 119.197  0.00  0.00     0.038 C 
ATOM      4  C   LIG d   1      -7.064  94.916 118.487  0.00  0.00     0.028 C 
ATOM      5  C   LIG d   1      -6.732  94.005 117.310  0.00  0.00    -0.047 C 
ATOM      6  C   LIG d   1      -5.817  92.861 117.803  0.00  0.00     0.091 C 
ENDROOT
BRANCH   1   7
ATOM      7  O   LIG d   1      -3.955  92.383 119.323  0.00  0.00    -0.368 OA
BRANCH   7   8
ATOM      8  C   LIG d   1      -2.520  92.225 119.204  0.00  0.00     0.119 C 
BRANCH   8   9
ATOM      9  C   LIG d   1      -2.098  92.830 117.851  0.00  0.00     0.028 C 
ATOM     10  C   LIG d   1      -0.905  93.790 117.984  0.00  0.00     0.006 C 
ENDBRANCH   8   9
BRANCH   8  11
ATOM     11  C   LIG d   1      -2.127  90.747 119.127  0.00  0.00     0.028 C 
ATOM     12  C   LIG d   1      -2.540  90.088 117.802  0.00  0.00     0.006 C 
ENDBRANCH   8  11
ENDBRANCH   7   8
ENDBRANCH   1   7
BRANCH   6  13
ATOM     13  N   LIG d   1      -5.376  91.971 116.697  0.00  0.00    -0.311 N 
ATOM     14  C   LIG d   1      -6.077  90.919 116.279  0.00  0.00     0.210 C 
ATOM     15  C   LIG d   1      -5.432  90.124 115.140  0.00  0.00     0.109 C 
ATOM     16  O   LIG d   1      -7.186  90.587 116.723  0.00  0.00    -0.276 OA
ATOM     17  H   LIG d   1      -4.501  92.187 116.260  0.00  0.00     0.149 HD
ENDBRANCH   6  13
BRANCH   5  18
ATOM     18  N   LIG d   1      -8.007  93.524 116.745  0.00  0.00     0.381 N 
ATOM     19  H   LIG d   1      -8.642  94.290 116.640  0.00  0.00    -0.090 HD
ATOM     20  H   LIG d   1      -8.415  92.861 117.382  0.00  0.00    -0.090 HD
ATOM     21  H   LIG d   1      -7.847  93.092 115.862  0.00  0.00    -0.090 HD
ENDBRANCH   5  18
BRANCH   3  22
ATOM     22  C   LIG d   1      -5.977  96.581 119.823  0.00  0.00     0.382 C 
ATOM     23  O   LIG d   1      -4.911  97.161 120.141  0.00  0.00    -0.241 OA
ATOM     24  O   LIG d   1      -7.070  97.103 120.114  0.00  0.00    -0.241 OA
ENDBRANCH   3  22
TORSDOF 7
ENDMDL
MODEL 9
REMARK VINA RESULT:      -4.7     12.327     15.069
REMARK  7 active torsions:
REMARK  status: ('A' for Active; 'I' for Inactive)
REMARK    1  A    between atoms: C_2  and  C_3 
REMARK    2  A    between atoms: C_3  and  O_6 
REMARK    3  A    between atoms: C_3  and  C_4 
REMARK    4  A    between atoms: C_7  and  O_6 
REMARK    5  A    between atoms: C_9  and  C_10 
REMARK    6  A    between atoms: N_15  and  C_14 
REMARK    7  A    between atoms: N_20  and  C_19 
REMARK       I    between atoms: C_22  and  N_20 
ROOT
ATOM      1  C   LIG d   1      10.812  78.688 114.618  0.00  0.00     0.161 C 
ATOM      2  C   LIG d   1       9.615  78.499 115.329  0.00  0.00     0.016 C 
ATOM      3  C   LIG d   1       9.182  77.240 115.803  0.00  0.00     0.038 C 
ATOM      4  C   LIG d   1       9.996  76.099 115.729  0.00  0.00     0.028 C 
ATOM      5  C   LIG d   1      10.989  76.139 114.572  0.00  0.00    -0.047 C 
ATOM      6  C   LIG d   1      11.765  77.475 114.623  0.00  0.00     0.091 C 
ENDROOT
BRANCH   1   7
ATOM      7  O   LIG d   1      11.491  79.861 115.106  0.00  0.00    -0.368 OA
BRANCH   7   8
ATOM      8  C   LIG d   1      12.483  79.641 116.139  0.00  0.00     0.119 C 
BRANCH   8   9
ATOM      9  C   LIG d   1      11.908  80.191 117.458  0.00  0.00     0.028 C 
ATOM     10  C   LIG d   1      11.518  79.074 118.440  0.00  0.00     0.006 C 
ENDBRANCH   8   9
BRANCH   8  11
ATOM     11  C   LIG d   1      13.751  80.458 115.876  0.00  0.00     0.028 C 
ATOM     12  C   LIG d   1      13.860  80.938 114.421  0.00  0.00     0.006 C 
ENDBRANCH   8  11
ENDBRANCH   7   8
ENDBRANCH   1   7
BRANCH   6  13
ATOM     13  N   LIG d   1      12.699  77.632 113.478  0.00  0.00    -0.311 N 
ATOM     14  C   LIG d   1      13.993  77.319 113.539  0.00  0.00     0.210 C 
ATOM     15  C   LIG d   1      14.781  77.577 112.251  0.00  0.00     0.109 C 
ATOM     16  O   LIG d   1      14.555  76.822 114.526  0.00  0.00    -0.276 OA
ATOM     17  H   LIG d   1      12.320  77.999 112.627  0.00  0.00     0.149 HD
ENDBRANCH   6  13
BRANCH   5  18
ATOM     18  N   LIG d   1      11.863  74.957 114.695  0.00  0.00     0.381 N 
ATOM     19  H   LIG d   1      12.099  74.809 115.656  0.00  0.00    -0.090 HD
ATOM     20  H   LIG d   1      12.712  75.126 114.184  0.00  0.00    -0.090 HD
ATOM     21  H   LIG d   1      11.402  74.153 114.331  0.00  0.00    -0.090 HD
ENDBRANCH   5  18
BRANCH   3  22
ATOM     22  C   LIG d   1       7.904  77.104 116.325  0.00  0.00     0.382 C 
ATOM     23  O   LIG d   1       6.910  77.467 115.650  0.00  0.00    -0.241 OA
ATOM     24  O   LIG d   1       7.736  76.664 117.478  0.00  0.00    -0.241 OA
ENDBRANCH   3  22
TORSDOF 7
ENDMDL
