MODEL 1
REMARK VINA RESULT:      -5.3      0.000      0.000
REMARK  7 active torsions:
REMARK  status: ('A' for Active; 'I' for Inactive)
REMARK    1  A    between atoms: C_2  and  C_3 
REMARK    2  A    between atoms: C_3  and  O_6 
REMARK    3  A    between atoms: C_3  and  C_4 
REMARK    4  A    between atoms: C_7  and  O_6 
REMARK    5  A    between atoms: C_9  and  C_10 
REMARK    6  A    between atoms: N_15  and  C_14 
REMARK    7  A    between atoms: N_20  and  C_19 
REMARK       I    between atoms: C_22  and  N_20 
ROOT
ATOM      1  C   LIG d   1      -5.789  92.682 118.182  0.00  0.00     0.161 C 
ATOM      2  C   LIG d   1      -6.307  93.764 118.913  0.00  0.00     0.016 C 
ATOM      3  C   LIG d   1      -7.595  94.305 118.696  0.00  0.00     0.038 C 
ATOM      4  C   LIG d   1      -8.517  93.699 117.830  0.00  0.00     0.028 C 
ATOM      5  C   LIG d   1      -7.860  92.910 116.702  0.00  0.00    -0.047 C 
ATOM      6  C   LIG d   1      -6.822  91.939 117.309  0.00  0.00     0.091 C 
ENDROOT
BRANCH   1   7
ATOM      7  O   LIG d   1      -5.129  91.761 119.073  0.00  0.00    -0.368 OA
BRANCH   7   8
ATOM      8  C   LIG d   1      -3.689  91.884 119.165  0.00  0.00     0.119 C 
BRANCH   8   9
ATOM      9  C   LIG d   1      -3.198  92.555 117.867  0.00  0.00     0.028 C 
ATOM     10  C   LIG d   1      -2.098  93.599 118.125  0.00  0.00     0.006 C 
ENDBRANCH   8   9
BRANCH   8  11
ATOM     11  C   LIG d   1      -3.013  90.511 119.193  0.00  0.00     0.028 C 
ATOM     12  C   LIG d   1      -3.113  89.769 117.850  0.00  0.00     0.006 C 
ENDBRANCH   8  11
ENDBRANCH   7   8
ENDBRANCH   1   7
BRANCH   6  13
ATOM     13  N   LIG d   1      -6.073  91.187 116.268  0.00  0.00    -0.311 N 
ATOM     14  C   LIG d   1      -6.354  89.931 115.927  0.00  0.00     0.210 C 
ATOM     15  C   LIG d   1      -5.446  89.336 114.845  0.00  0.00     0.109 C 
ATOM     16  O   LIG d   1      -7.289  89.263 116.393  0.00  0.00    -0.276 OA
ATOM     17  H   LIG d   1      -5.317  91.664 115.816  0.00  0.00     0.149 HD
ENDBRANCH   6  13
BRANCH   5  18
ATOM     18  N   LIG d   1      -8.931  92.220 115.959  0.00  0.00     0.381 N 
ATOM     19  H   LIG d   1      -8.848  91.231 116.084  0.00  0.00    -0.090 HD
ATOM     20  H   LIG d   1      -8.830  92.423 114.980  0.00  0.00    -0.090 HD
ATOM     21  H   LIG d   1      -9.822  92.529 116.279  0.00  0.00    -0.090 HD
ENDBRANCH   5  18
BRANCH   3  22
ATOM     22  C   LIG d   1      -7.958  95.488 119.321  0.00  0.00     0.382 C 
ATOM     23  O   LIG d   1      -8.801  95.474 120.250  0.00  0.00    -0.241 OA
ATOM     24  O   LIG d   1      -7.485  96.576 118.939  0.00  0.00    -0.241 OA
ENDBRANCH   3  22
TORSDOF 7
ENDMDL
MODEL 2
REMARK VINA RESULT:      -5.2     16.400     18.636
REMARK  7 active torsions:
REMARK  status: ('A' for Active; 'I' for Inactive)
REMARK    1  A    between atoms: C_2  and  C_3 
REMARK    2  A    between atoms: C_3  and  O_6 
REMARK    3  A    between atoms: C_3  and  C_4 
REMARK    4  A    between atoms: C_7  and  O_6 
REMARK    5  A    between atoms: C_9  and  C_10 
REMARK    6  A    between atoms: N_15  and  C_14 
REMARK    7  A    between atoms: N_20  and  C_19 
REMARK       I    between atoms: C_22  and  N_20 
ROOT
ATOM      1  C   LIG d   1      -6.551  74.985 116.346  0.00  0.00     0.161 C 
ATOM      2  C   LIG d   1      -5.652  75.877 115.740  0.00  0.00     0.016 C 
ATOM      3  C   LIG d   1      -4.810  75.521 114.661  0.00  0.00     0.038 C 
ATOM      4  C   LIG d   1      -4.920  74.282 114.013  0.00  0.00     0.028 C 
ATOM      5  C   LIG d   1      -5.460  73.174 114.911  0.00  0.00    -0.047 C 
ATOM      6  C   LIG d   1      -6.765  73.662 115.580  0.00  0.00     0.091 C 
ENDROOT
BRANCH   1   7
ATOM      7  O   LIG d   1      -7.814  75.642 116.572  0.00  0.00    -0.368 OA
BRANCH   7   8
ATOM      8  C   LIG d   1      -8.424  75.423 117.868  0.00  0.00     0.119 C 
BRANCH   8   9
ATOM      9  C   LIG d   1      -9.948  75.569 117.693  0.00  0.00     0.028 C 
ATOM     10  C   LIG d   1     -10.523  74.555 116.690  0.00  0.00     0.006 C 
ENDBRANCH   8   9
BRANCH   8  11
ATOM     11  C   LIG d   1      -8.023  76.515 118.864  0.00  0.00     0.028 C 
ATOM     12  C   LIG d   1      -9.152  77.524 119.128  0.00  0.00     0.006 C 
ENDBRANCH   8  11
ENDBRANCH   7   8
ENDBRANCH   1   7
BRANCH   6  13
ATOM     13  N   LIG d   1      -7.315  72.670 116.540  0.00  0.00    -0.311 N 
ATOM     14  C   LIG d   1      -8.208  71.742 116.204  0.00  0.00     0.210 C 
ATOM     15  C   LIG d   1      -8.658  70.832 117.351  0.00  0.00     0.109 C 
ATOM     16  O   LIG d   1      -8.647  71.565 115.058  0.00  0.00    -0.276 OA
ATOM     17  H   LIG d   1      -6.989  72.722 117.486  0.00  0.00     0.149 HD
ENDBRANCH   6  13
BRANCH   5  18
ATOM     18  N   LIG d   1      -5.653  71.976 114.073  0.00  0.00     0.381 N 
ATOM     19  H   LIG d   1      -4.799  71.749 113.604  0.00  0.00    -0.090 HD
ATOM     20  H   LIG d   1      -6.351  72.174 113.377  0.00  0.00    -0.090 HD
ATOM     21  H   LIG d   1      -5.945  71.208 114.637  0.00  0.00    -0.090 HD
ENDBRANCH   5  18
BRANCH   3  22
ATOM     22  C   LIG d   1      -3.817  76.396 114.247  0.00  0.00     0.382 C 
ATOM     23  O   LIG d   1      -2.938  76.777 115.057  0.00  0.00    -0.241 OA
ATOM     24  O   LIG d   1      -3.814  76.843 113.084  0.00  0.00    -0.241 OA
ENDBRANCH   3  22
TORSDOF 7
ENDMDL
MODEL 3
REMARK VINA RESULT:      -5.2     14.387     17.140
REMARK  7 active torsions:
REMARK  status: ('A' for Active; 'I' for Inactive)
REMARK    1  A    between atoms: C_2  and  C_3 
REMARK    2  A    between atoms: C_3  and  O_6 
REMARK    3  A    between atoms: C_3  and  C_4 
REMARK    4  A    between atoms: C_7  and  O_6 
REMARK    5  A    between atoms: C_9  and  C_10 
REMARK    6  A    between atoms: N_15  and  C_14 
REMARK    7  A    between atoms: N_20  and  C_19 
REMARK       I    between atoms: C_22  and  N_20 
ROOT
ATOM      1  C   LIG d   1      -6.126  76.402 117.032  0.00  0.00     0.161 C 
ATOM      2  C   LIG d   1      -4.797  76.686 117.390  0.00  0.00     0.016 C 
ATOM      3  C   LIG d   1      -3.677  76.150 116.714  0.00  0.00     0.038 C 
ATOM      4  C   LIG d   1      -3.811  75.408 115.531  0.00  0.00     0.028 C 
ATOM      5  C   LIG d   1      -5.145  74.678 115.421  0.00  0.00    -0.047 C 
ATOM      6  C   LIG d   1      -6.290  75.684 115.676  0.00  0.00     0.091 C 
ENDROOT
BRANCH   1   7
ATOM      7  O   LIG d   1      -6.908  77.613 117.056  0.00  0.00    -0.368 OA
BRANCH   7   8
ATOM      8  C   LIG d   1      -7.579  77.913 118.304  0.00  0.00     0.119 C 
BRANCH   8   9
ATOM      9  C   LIG d   1      -8.905  77.127 118.318  0.00  0.00     0.028 C 
ATOM     10  C   LIG d   1      -8.916  76.013 119.379  0.00  0.00     0.006 C 
ENDBRANCH   8   9
BRANCH   8  11
ATOM     11  C   LIG d   1      -7.982  79.388 118.380  0.00  0.00     0.028 C 
ATOM     12  C   LIG d   1      -9.473  79.584 118.696  0.00  0.00     0.006 C 
ENDBRANCH   8  11
ENDBRANCH   7   8
ENDBRANCH   1   7
BRANCH   6  13
ATOM     13  N   LIG d   1      -7.627  75.035 115.671  0.00  0.00    -0.311 N 
ATOM     14  C   LIG d   1      -7.942  73.998 116.445  0.00  0.00     0.210 C 
ATOM     15  C   LIG d   1      -9.368  73.467 116.268  0.00  0.00     0.109 C 
ATOM     16  O   LIG d   1      -7.185  73.487 117.285  0.00  0.00    -0.276 OA
ATOM     17  H   LIG d   1      -8.312  75.405 115.041  0.00  0.00     0.149 HD
ENDBRANCH   6  13
BRANCH   5  18
ATOM     18  N   LIG d   1      -5.206  74.059 114.083  0.00  0.00     0.381 N 
ATOM     19  H   LIG d   1      -5.878  73.319 114.083  0.00  0.00    -0.090 HD
ATOM     20  H   LIG d   1      -4.306  73.669 113.864  0.00  0.00    -0.090 HD
ATOM     21  H   LIG d   1      -5.454  74.743 113.402  0.00  0.00    -0.090 HD
ENDBRANCH   5  18
BRANCH   3  22
ATOM     22  C   LIG d   1      -2.408  76.322 117.244  0.00  0.00     0.382 C 
ATOM     23  O   LIG d   1      -1.571  75.388 117.183  0.00  0.00    -0.241 OA
ATOM     24  O   LIG d   1      -2.102  77.383 117.821  0.00  0.00    -0.241 OA
ENDBRANCH   3  22
TORSDOF 7
ENDMDL
MODEL 4
REMARK VINA RESULT:      -5.0      2.860      4.666
REMARK  7 active torsions:
REMARK  status: ('A' for Active; 'I' for Inactive)
REMARK    1  A    between atoms: C_2  and  C_3 
REMARK    2  A    between atoms: C_3  and  O_6 
REMARK    3  A    between atoms: C_3  and  C_4 
REMARK    4  A    between atoms: C_7  and  O_6 
REMARK    5  A    between atoms: C_9  and  C_10 
REMARK    6  A    between atoms: N_15  and  C_14 
REMARK    7  A    between atoms: N_20  and  C_19 
REMARK       I    between atoms: C_22  and  N_20 
ROOT
ATOM      1  C   LIG d   1      -4.565  90.862 117.611  0.00  0.00     0.161 C 
ATOM      2  C   LIG d   1      -5.595  90.269 116.863  0.00  0.00     0.016 C 
ATOM      3  C   LIG d   1      -6.790  90.941 116.514  0.00  0.00     0.038 C 
ATOM      4  C   LIG d   1      -6.970  92.310 116.764  0.00  0.00     0.028 C 
ATOM      5  C   LIG d   1      -6.172  92.818 117.959  0.00  0.00    -0.047 C 
ATOM      6  C   LIG d   1      -4.696  92.388 117.797  0.00  0.00     0.091 C 
ENDROOT
BRANCH   1   7
ATOM      7  O   LIG d   1      -3.288  90.536 117.028  0.00  0.00    -0.368 OA
BRANCH   7   8
ATOM      8  C   LIG d   1      -2.459  89.617 117.782  0.00  0.00     0.119 C 
BRANCH   8   9
ATOM      9  C   LIG d   1      -3.057  89.509 119.198  0.00  0.00     0.028 C 
ATOM     10  C   LIG d   1      -2.011  89.757 120.298  0.00  0.00     0.006 C 
ENDBRANCH   8   9
BRANCH   8  11
ATOM     11  C   LIG d   1      -1.046  90.174 117.980  0.00  0.00     0.028 C 
ATOM     12  C   LIG d   1      -0.019  89.546 117.025  0.00  0.00     0.006 C 
ENDBRANCH   8  11
ENDBRANCH   7   8
ENDBRANCH   1   7
BRANCH   6  13
ATOM     13  N   LIG d   1      -3.862  92.773 118.965  0.00  0.00    -0.311 N 
ATOM     14  C   LIG d   1      -2.658  93.332 118.854  0.00  0.00     0.210 C 
ATOM     15  C   LIG d   1      -1.959  93.631 120.183  0.00  0.00     0.109 C 
ATOM     16  O   LIG d   1      -2.117  93.638 117.781  0.00  0.00    -0.276 OA
ATOM     17  H   LIG d   1      -4.238  92.589 119.874  0.00  0.00     0.149 HD
ENDBRANCH   6  13
BRANCH   5  18
ATOM     18  N   LIG d   1      -6.345  94.282 118.021  0.00  0.00     0.381 N 
ATOM     19  H   LIG d   1      -7.319  94.508 118.021  0.00  0.00    -0.090 HD
ATOM     20  H   LIG d   1      -5.926  94.693 117.205  0.00  0.00    -0.090 HD
ATOM     21  H   LIG d   1      -5.913  94.642 118.843  0.00  0.00    -0.090 HD
ENDBRANCH   5  18
BRANCH   3  22
ATOM     22  C   LIG d   1      -7.836  90.232 115.944  0.00  0.00     0.382 C 
ATOM     23  O   LIG d   1      -7.936  88.996 116.140  0.00  0.00    -0.241 OA
ATOM     24  O   LIG d   1      -8.656  90.803 115.201  0.00  0.00    -0.241 OA
ENDBRANCH   3  22
TORSDOF 7
ENDMDL
MODEL 5
REMARK VINA RESULT:      -5.0      2.022      4.048
REMARK  7 active torsions:
REMARK  status: ('A' for Active; 'I' for Inactive)
REMARK    1  A    between atoms: C_2  and  C_3 
REMARK    2  A    between atoms: C_3  and  O_6 
REMARK    3  A    between atoms: C_3  and  C_4 
REMARK    4  A    between atoms: C_7  and  O_6 
REMARK    5  A    between atoms: C_9  and  C_10 
REMARK    6  A    between atoms: N_15  and  C_14 
REMARK    7  A    between atoms: N_20  and  C_19 
REMARK       I    between atoms: C_22  and  N_20 
ROOT
ATOM      1  C   LIG d   1      -6.097  92.376 117.280  0.00  0.00     0.161 C 
ATOM      2  C   LIG d   1      -7.306  92.875 117.791  0.00  0.00     0.016 C 
ATOM      3  C   LIG d   1      -7.383  93.724 118.919  0.00  0.00     0.038 C 
ATOM      4  C   LIG d   1      -6.235  94.256 119.525  0.00  0.00     0.028 C 
ATOM      5  C   LIG d   1      -4.999  93.380 119.357  0.00  0.00    -0.047 C 
ATOM      6  C   LIG d   1      -4.828  93.035 117.860  0.00  0.00     0.091 C 
ENDROOT
BRANCH   1   7
ATOM      7  O   LIG d   1      -6.098  92.471 115.841  0.00  0.00    -0.368 OA
BRANCH   7   8
ATOM      8  C   LIG d   1      -6.513  91.283 115.124  0.00  0.00     0.119 C 
BRANCH   8   9
ATOM      9  C   LIG d   1      -8.049  91.326 115.006  0.00  0.00     0.028 C 
ATOM     10  C   LIG d   1      -8.720  90.089 115.625  0.00  0.00     0.006 C 
ENDBRANCH   8   9
BRANCH   8  11
ATOM     11  C   LIG d   1      -6.203  90.013 115.923  0.00  0.00     0.028 C 
ATOM     12  C   LIG d   1      -4.885  89.348 115.496  0.00  0.00     0.006 C 
ENDBRANCH   8  11
ENDBRANCH   7   8
ENDBRANCH   1   7
BRANCH   6  13
ATOM     13  N   LIG d   1      -3.690  92.111 117.617  0.00  0.00    -0.311 N 
ATOM     14  C   LIG d   1      -3.399  91.082 118.411  0.00  0.00     0.210 C 
ATOM     15  C   LIG d   1      -2.171  90.268 117.990  0.00  0.00     0.109 C 
ATOM     16  O   LIG d   1      -4.059  90.747 119.405  0.00  0.00    -0.276 OA
ATOM     17  H   LIG d   1      -3.119  92.291 116.814  0.00  0.00     0.149 HD
ENDBRANCH   6  13
BRANCH   5  18
ATOM     18  N   LIG d   1      -3.850  94.118 119.915  0.00  0.00     0.381 N 
ATOM     19  H   LIG d   1      -4.028  95.102 119.875  0.00  0.00    -0.090 HD
ATOM     20  H   LIG d   1      -3.036  93.922 119.359  0.00  0.00    -0.090 HD
ATOM     21  H   LIG d   1      -3.691  93.839 120.858  0.00  0.00    -0.090 HD
ENDBRANCH   5  18
BRANCH   3  22
ATOM     22  C   LIG d   1      -8.618  94.016 119.477  0.00  0.00     0.382 C 
ATOM     23  O   LIG d   1      -8.814  95.130 120.019  0.00  0.00    -0.241 OA
ATOM     24  O   LIG d   1      -9.525  93.162 119.484  0.00  0.00    -0.241 OA
ENDBRANCH   3  22
TORSDOF 7
ENDMDL
MODEL 6
REMARK VINA RESULT:      -4.9      2.456      4.355
REMARK  7 active torsions:
REMARK  status: ('A' for Active; 'I' for Inactive)
REMARK    1  A    between atoms: C_2  and  C_3 
REMARK    2  A    between atoms: C_3  and  O_6 
REMARK    3  A    between atoms: C_3  and  C_4 
REMARK    4  A    between atoms: C_7  and  O_6 
REMARK    5  A    between atoms: C_9  and  C_10 
REMARK    6  A    between atoms: N_15  and  C_14 
REMARK    7  A    between atoms: N_20  and  C_19 
REMARK       I    between atoms: C_22  and  N_20 
ROOT
ATOM      1  C   LIG d   1      -5.221  92.260 118.372  0.00  0.00     0.161 C 
ATOM      2  C   LIG d   1      -6.602  92.392 118.147  0.00  0.00     0.016 C 
ATOM      3  C   LIG d   1      -7.338  93.552 118.484  0.00  0.00     0.038 C 
ATOM      4  C   LIG d   1      -6.711  94.724 118.932  0.00  0.00     0.028 C 
ATOM      5  C   LIG d   1      -5.389  94.467 119.648  0.00  0.00    -0.047 C 
ATOM      6  C   LIG d   1      -4.501  93.569 118.757  0.00  0.00     0.091 C 
ENDROOT
BRANCH   1   7
ATOM      7  O   LIG d   1      -4.594  91.664 117.219  0.00  0.00    -0.368 OA
BRANCH   7   8
ATOM      8  C   LIG d   1      -4.700  90.223 117.110  0.00  0.00     0.119 C 
BRANCH   8   9
ATOM      9  C   LIG d   1      -3.289  89.638 117.311  0.00  0.00     0.028 C 
ATOM     10  C   LIG d   1      -2.876  89.597 118.792  0.00  0.00     0.006 C 
ENDBRANCH   8   9
BRANCH   8  11
ATOM     11  C   LIG d   1      -5.117  89.801 115.698  0.00  0.00     0.028 C 
ATOM     12  C   LIG d   1      -6.637  89.868 115.480  0.00  0.00     0.006 C 
ENDBRANCH   8  11
ENDBRANCH   7   8
ENDBRANCH   1   7
BRANCH   6  13
ATOM     13  N   LIG d   1      -3.222  93.201 119.419  0.00  0.00    -0.311 N 
ATOM     14  C   LIG d   1      -2.078  93.852 119.218  0.00  0.00     0.210 C 
ATOM     15  C   LIG d   1      -0.874  93.296 119.984  0.00  0.00     0.109 C 
ATOM     16  O   LIG d   1      -1.953  94.857 118.502  0.00  0.00    -0.276 OA
ATOM     17  H   LIG d   1      -3.240  92.416 120.041  0.00  0.00     0.149 HD
ENDBRANCH   6  13
BRANCH   5  18
ATOM     18  N   LIG d   1      -4.778  95.778 119.939  0.00  0.00     0.381 N 
ATOM     19  H   LIG d   1      -5.220  96.188 120.737  0.00  0.00    -0.090 HD
ATOM     20  H   LIG d   1      -4.922  96.386 119.152  0.00  0.00    -0.090 HD
ATOM     21  H   LIG d   1      -3.803  95.669 120.110  0.00  0.00    -0.090 HD
ENDBRANCH   5  18
BRANCH   3  22
ATOM     22  C   LIG d   1      -8.722  93.532 118.410  0.00  0.00     0.382 C 
ATOM     23  O   LIG d   1      -9.289  93.247 117.328  0.00  0.00    -0.241 OA
ATOM     24  O   LIG d   1      -9.412  93.840 119.401  0.00  0.00    -0.241 OA
ENDBRANCH   3  22
TORSDOF 7
ENDMDL
MODEL 7
REMARK VINA RESULT:      -4.8     19.157     21.376
REMARK  7 active torsions:
REMARK  status: ('A' for Active; 'I' for Inactive)
REMARK    1  A    between atoms: C_2  and  C_3 
REMARK    2  A    between atoms: C_3  and  O_6 
REMARK    3  A    between atoms: C_3  and  C_4 
REMARK    4  A    between atoms: C_7  and  O_6 
REMARK    5  A    between atoms: C_9  and  C_10 
REMARK    6  A    between atoms: N_15  and  C_14 
REMARK    7  A    between atoms: N_20  and  C_19 
REMARK       I    between atoms: C_22  and  N_20 
ROOT
ATOM      1  C   LIG d   1     -25.436  85.792 114.422  0.00  0.00     0.161 C 
ATOM      2  C   LIG d   1     -24.361  86.697 114.409  0.00  0.00     0.016 C 
ATOM      3  C   LIG d   1     -23.078  86.375 113.910  0.00  0.00     0.038 C 
ATOM      4  C   LIG d   1     -22.823  85.165 113.247  0.00  0.00     0.028 C 
ATOM      5  C   LIG d   1     -23.739  84.028 113.687  0.00  0.00    -0.047 C 
ATOM      6  C   LIG d   1     -25.207  84.505 113.602  0.00  0.00     0.091 C 
ENDROOT
BRANCH   1   7
ATOM      7  O   LIG d   1     -26.639  86.456 113.987  0.00  0.00    -0.368 OA
BRANCH   7   8
ATOM      8  C   LIG d   1     -26.894  86.444 112.561  0.00  0.00     0.119 C 
BRANCH   8   9
ATOM      9  C   LIG d   1     -26.755  87.893 112.055  0.00  0.00     0.028 C 
ATOM     10  C   LIG d   1     -26.766  88.919 113.201  0.00  0.00     0.006 C 
ENDBRANCH   8   9
BRANCH   8  11
ATOM     11  C   LIG d   1     -28.341  86.045 112.257  0.00  0.00     0.028 C 
ATOM     12  C   LIG d   1     -29.103  85.571 113.504  0.00  0.00     0.006 C 
ENDBRANCH   8  11
ENDBRANCH   7   8
ENDBRANCH   1   7
BRANCH   6  13
ATOM     13  N   LIG d   1     -26.165  83.481 114.095  0.00  0.00    -0.311 N 
ATOM     14  C   LIG d   1     -26.846  82.667 113.290  0.00  0.00     0.210 C 
ATOM     15  C   LIG d   1     -27.796  81.699 114.003  0.00  0.00     0.109 C 
ATOM     16  O   LIG d   1     -26.730  82.632 112.056  0.00  0.00    -0.276 OA
ATOM     17  H   LIG d   1     -26.297  83.419 115.085  0.00  0.00     0.149 HD
ENDBRANCH   6  13
BRANCH   5  18
ATOM     18  N   LIG d   1     -23.457  82.868 112.821  0.00  0.00     0.381 N 
ATOM     19  H   LIG d   1     -23.174  82.089 113.380  0.00  0.00    -0.090 HD
ATOM     20  H   LIG d   1     -22.701  83.102 112.200  0.00  0.00    -0.090 HD
ATOM     21  H   LIG d   1     -24.268  82.631 112.293  0.00  0.00    -0.090 HD
ENDBRANCH   5  18
BRANCH   3  22
ATOM     22  C   LIG d   1     -22.024  87.253 114.108  0.00  0.00     0.382 C 
ATOM     23  O   LIG d   1     -22.163  88.239 114.871  0.00  0.00    -0.241 OA
ATOM     24  O   LIG d   1     -20.949  87.097 113.498  0.00  0.00    -0.241 OA
ENDBRANCH   3  22
TORSDOF 7
ENDMDL
MODEL 8
REMARK VINA RESULT:      -4.6      8.824     11.399
REMARK  7 active torsions:
REMARK  status: ('A' for Active; 'I' for Inactive)
REMARK    1  A    between atoms: C_2  and  C_3 
REMARK    2  A    between atoms: C_3  and  O_6 
REMARK    3  A    between atoms: C_3  and  C_4 
REMARK    4  A    between atoms: C_7  and  O_6 
REMARK    5  A    between atoms: C_9  and  C_10 
REMARK    6  A    between atoms: N_15  and  C_14 
REMARK    7  A    between atoms: N_20  and  C_19 
REMARK       I    between atoms: C_22  and  N_20 
ROOT
ATOM      1  C   LIG d   1       2.478  86.942 115.153  0.00  0.00     0.161 C 
ATOM      2  C   LIG d   1       3.118  88.091 114.659  0.00  0.00     0.016 C 
ATOM      3  C   LIG d   1       3.757  88.144 113.399  0.00  0.00     0.038 C 
ATOM      4  C   LIG d   1       3.668  87.090 112.477  0.00  0.00     0.028 C 
ATOM      5  C   LIG d   1       3.463  85.728 113.132  0.00  0.00    -0.047 C 
ATOM      6  C   LIG d   1       2.274  85.818 114.116  0.00  0.00     0.091 C 
ENDROOT
BRANCH   1   7
ATOM      7  O   LIG d   1       1.218  87.305 115.753  0.00  0.00    -0.368 OA
BRANCH   7   8
ATOM      8  C   LIG d   1       1.179  87.306 117.201  0.00  0.00     0.119 C 
BRANCH   8   9
ATOM      9  C   LIG d   1       0.282  86.132 117.641  0.00  0.00     0.028 C 
ATOM     10  C   LIG d   1      -1.067  86.116 116.903  0.00  0.00     0.006 C 
ENDBRANCH   8   9
BRANCH   8  11
ATOM     11  C   LIG d   1       0.492  88.565 117.739  0.00  0.00     0.028 C 
ATOM     12  C   LIG d   1       0.669  89.781 116.816  0.00  0.00     0.006 C 
ENDBRANCH   8  11
ENDBRANCH   7   8
ENDBRANCH   1   7
BRANCH   6  13
ATOM     13  N   LIG d   1       2.059  84.551 114.862  0.00  0.00    -0.311 N 
ATOM     14  C   LIG d   1       0.960  83.808 114.743  0.00  0.00     0.210 C 
ATOM     15  C   LIG d   1       0.932  82.550 115.617  0.00  0.00     0.109 C 
ATOM     16  O   LIG d   1       0.019  84.054 113.973  0.00  0.00    -0.276 OA
ATOM     17  H   LIG d   1       2.785  84.260 115.486  0.00  0.00     0.149 HD
ENDBRANCH   6  13
BRANCH   5  18
ATOM     18  N   LIG d   1       3.249  84.743 112.055  0.00  0.00     0.381 N 
ATOM     19  H   LIG d   1       2.350  84.317 112.159  0.00  0.00    -0.090 HD
ATOM     20  H   LIG d   1       3.948  84.026 112.127  0.00  0.00    -0.090 HD
ATOM     21  H   LIG d   1       3.312  85.190 111.167  0.00  0.00    -0.090 HD
ENDBRANCH   5  18
BRANCH   3  22
ATOM     22  C   LIG d   1       4.529  89.246 113.066  0.00  0.00     0.382 C 
ATOM     23  O   LIG d   1       5.705  89.088 112.656  0.00  0.00    -0.241 OA
ATOM     24  O   LIG d   1       4.081  90.399 113.213  0.00  0.00    -0.241 OA
ENDBRANCH   3  22
TORSDOF 7
ENDMDL
MODEL 9
REMARK VINA RESULT:      -4.6     11.033     12.774
REMARK  7 active torsions:
REMARK  status: ('A' for Active; 'I' for Inactive)
REMARK    1  A    between atoms: C_2  and  C_3 
REMARK    2  A    between atoms: C_3  and  O_6 
REMARK    3  A    between atoms: C_3  and  C_4 
REMARK    4  A    between atoms: C_7  and  O_6 
REMARK    5  A    between atoms: C_9  and  C_10 
REMARK    6  A    between atoms: N_15  and  C_14 
REMARK    7  A    between atoms: N_20  and  C_19 
REMARK       I    between atoms: C_22  and  N_20 
ROOT
ATOM      1  C   LIG d   1       2.224  85.527 113.623  0.00  0.00     0.161 C 
ATOM      2  C   LIG d   1       2.824  86.623 112.980  0.00  0.00     0.016 C 
ATOM      3  C   LIG d   1       3.982  87.272 113.466  0.00  0.00     0.038 C 
ATOM      4  C   LIG d   1       4.711  86.771 114.556  0.00  0.00     0.028 C 
ATOM      5  C   LIG d   1       3.861  85.968 115.535  0.00  0.00    -0.047 C 
ATOM      6  C   LIG d   1       3.068  84.898 114.751  0.00  0.00     0.091 C 
ENDROOT
BRANCH   1   7
ATOM      7  O   LIG d   1       1.863  84.527 112.650  0.00  0.00    -0.368 OA
BRANCH   7   8
ATOM      8  C   LIG d   1       0.444  84.338 112.427  0.00  0.00     0.119 C 
BRANCH   8   9
ATOM      9  C   LIG d   1      -0.306  85.225 113.440  0.00  0.00     0.028 C 
ATOM     10  C   LIG d   1      -1.221  84.410 114.370  0.00  0.00     0.006 C 
ENDBRANCH   8   9
BRANCH   8  11
ATOM     11  C   LIG d   1       0.015  82.904 112.749  0.00  0.00     0.028 C 
ATOM     12  C   LIG d   1       1.201  81.929 112.820  0.00  0.00     0.006 C 
ENDBRANCH   8  11
ENDBRANCH   7   8
ENDBRANCH   1   7
BRANCH   6  13
ATOM     13  N   LIG d   1       2.147  84.123 115.623  0.00  0.00    -0.311 N 
ATOM     14  C   LIG d   1       2.462  82.946 116.160  0.00  0.00     0.210 C 
ATOM     15  C   LIG d   1       1.360  82.307 117.010  0.00  0.00     0.109 C 
ATOM     16  O   LIG d   1       3.562  82.385 116.039  0.00  0.00    -0.276 OA
ATOM     17  H   LIG d   1       1.244  84.519 115.799  0.00  0.00     0.149 HD
ENDBRANCH   6  13
BRANCH   5  18
ATOM     18  N   LIG d   1       4.769  85.391 116.544  0.00  0.00     0.381 N 
ATOM     19  H   LIG d   1       4.239  85.057 117.325  0.00  0.00    -0.090 HD
ATOM     20  H   LIG d   1       5.392  86.110 116.870  0.00  0.00    -0.090 HD
ATOM     21  H   LIG d   1       5.292  84.644 116.144  0.00  0.00    -0.090 HD
ENDBRANCH   5  18
BRANCH   3  22
ATOM     22  C   LIG d   1       4.400  88.459 112.885  0.00  0.00     0.382 C 
ATOM     23  O   LIG d   1       5.567  88.560 112.435  0.00  0.00    -0.241 OA
ATOM     24  O   LIG d   1       3.640  89.445 112.845  0.00  0.00    -0.241 OA
ENDBRANCH   3  22
TORSDOF 7
ENDMDL
