MODEL 1
REMARK VINA RESULT:      -5.9      0.000      0.000
REMARK  7 active torsions:
REMARK  status: ('A' for Active; 'I' for Inactive)
REMARK    1  A    between atoms: C_2  and  C_3 
REMARK    2  A    between atoms: C_3  and  O_6 
REMARK    3  A    between atoms: C_3  and  C_4 
REMARK    4  A    between atoms: C_7  and  O_6 
REMARK    5  A    between atoms: C_9  and  C_10 
REMARK    6  A    between atoms: N_15  and  C_14 
REMARK    7  A    between atoms: N_20  and  C_19 
REMARK       I    between atoms: C_22  and  N_20 
ROOT
ATOM      1  C   LIG d   1      -8.122  75.953 116.079  0.00  0.00     0.161 C 
ATOM      2  C   LIG d   1      -7.098  75.505 115.228  0.00  0.00     0.016 C 
ATOM      3  C   LIG d   1      -5.760  75.953 115.317  0.00  0.00     0.038 C 
ATOM      4  C   LIG d   1      -5.321  76.772 116.368  0.00  0.00     0.028 C 
ATOM      5  C   LIG d   1      -6.423  77.650 116.953  0.00  0.00    -0.047 C 
ATOM      6  C   LIG d   1      -7.639  76.762 117.301  0.00  0.00     0.091 C 
ENDROOT
BRANCH   1   7
ATOM      7  O   LIG d   1      -8.928  74.837 116.504  0.00  0.00    -0.368 OA
BRANCH   7   8
ATOM      8  C   LIG d   1      -8.262  73.845 117.323  0.00  0.00     0.119 C 
BRANCH   8   9
ATOM      9  C   LIG d   1      -8.256  72.521 116.534  0.00  0.00     0.028 C 
ATOM     10  C   LIG d   1      -6.833  72.035 116.214  0.00  0.00     0.006 C 
ENDBRANCH   8   9
BRANCH   8  11
ATOM     11  C   LIG d   1      -9.056  73.552 118.599  0.00  0.00     0.028 C 
ATOM     12  C   LIG d   1      -9.375  72.059 118.774  0.00  0.00     0.006 C 
ENDBRANCH   8  11
ENDBRANCH   7   8
ENDBRANCH   1   7
BRANCH   6  13
ATOM     13  N   LIG d   1      -8.794  77.554 117.801  0.00  0.00    -0.311 N 
ATOM     14  C   LIG d   1      -9.264  77.459 119.044  0.00  0.00     0.210 C 
ATOM     15  C   LIG d   1     -10.474  78.349 119.346  0.00  0.00     0.109 C 
ATOM     16  O   LIG d   1      -8.775  76.747 119.933  0.00  0.00    -0.276 OA
ATOM     17  H   LIG d   1      -9.231  78.180 117.154  0.00  0.00     0.149 HD
ENDBRANCH   6  13
BRANCH   5  18
ATOM     18  N   LIG d   1      -5.861  78.347 118.125  0.00  0.00     0.381 N 
ATOM     19  H   LIG d   1      -5.087  78.914 117.843  0.00  0.00    -0.090 HD
ATOM     20  H   LIG d   1      -5.529  77.663 118.782  0.00  0.00    -0.090 HD
ATOM     21  H   LIG d   1      -6.560  78.915 118.551  0.00  0.00    -0.090 HD
ENDBRANCH   5  18
BRANCH   3  22
ATOM     22  C   LIG d   1      -4.854  75.613 114.325  0.00  0.00     0.382 C 
ATOM     23  O   LIG d   1      -4.392  74.448 114.270  0.00  0.00    -0.241 OA
ATOM     24  O   LIG d   1      -4.459  76.468 113.510  0.00  0.00    -0.241 OA
ENDBRANCH   3  22
TORSDOF 7
ENDMDL
MODEL 2
REMARK VINA RESULT:      -5.6      1.927      5.005
REMARK  7 active torsions:
REMARK  status: ('A' for Active; 'I' for Inactive)
REMARK    1  A    between atoms: C_2  and  C_3 
REMARK    2  A    between atoms: C_3  and  O_6 
REMARK    3  A    between atoms: C_3  and  C_4 
REMARK    4  A    between atoms: C_7  and  O_6 
REMARK    5  A    between atoms: C_9  and  C_10 
REMARK    6  A    between atoms: N_15  and  C_14 
REMARK    7  A    between atoms: N_20  and  C_19 
REMARK       I    between atoms: C_22  and  N_20 
ROOT
ATOM      1  C   LIG d   1      -7.655  74.515 118.793  0.00  0.00     0.161 C 
ATOM      2  C   LIG d   1      -8.925  75.050 119.065  0.00  0.00     0.016 C 
ATOM      3  C   LIG d   1      -9.354  76.313 118.595  0.00  0.00     0.038 C 
ATOM      4  C   LIG d   1      -8.591  77.065 117.689  0.00  0.00     0.028 C 
ATOM      5  C   LIG d   1      -7.093  76.796 117.789  0.00  0.00    -0.047 C 
ATOM      6  C   LIG d   1      -6.851  75.271 117.715  0.00  0.00     0.091 C 
ENDROOT
BRANCH   1   7
ATOM      7  O   LIG d   1      -7.778  73.122 118.442  0.00  0.00    -0.368 OA
BRANCH   7   8
ATOM      8  C   LIG d   1      -8.517  72.833 117.231  0.00  0.00     0.119 C 
BRANCH   8   9
ATOM      9  C   LIG d   1      -9.265  71.503 117.451  0.00  0.00     0.028 C 
ATOM     10  C   LIG d   1      -9.297  71.086 118.931  0.00  0.00     0.006 C 
ENDBRANCH   8   9
BRANCH   8  11
ATOM     11  C   LIG d   1      -7.575  72.578 116.050  0.00  0.00     0.028 C 
ATOM     12  C   LIG d   1      -6.658  71.364 116.271  0.00  0.00     0.006 C 
ENDBRANCH   8  11
ENDBRANCH   7   8
ENDBRANCH   1   7
BRANCH   6  13
ATOM     13  N   LIG d   1      -5.419  74.915 117.890  0.00  0.00    -0.311 N 
ATOM     14  C   LIG d   1      -4.575  74.750 116.873  0.00  0.00     0.210 C 
ATOM     15  C   LIG d   1      -3.148  74.365 117.273  0.00  0.00     0.109 C 
ATOM     16  O   LIG d   1      -4.866  74.917 115.679  0.00  0.00    -0.276 OA
ATOM     17  H   LIG d   1      -5.091  74.791 118.828  0.00  0.00     0.149 HD
ENDBRANCH   6  13
BRANCH   5  18
ATOM     18  N   LIG d   1      -6.433  77.540 116.700  0.00  0.00     0.381 N 
ATOM     19  H   LIG d   1      -7.120  77.878 116.056  0.00  0.00    -0.090 HD
ATOM     20  H   LIG d   1      -5.819  76.916 116.206  0.00  0.00    -0.090 HD
ATOM     21  H   LIG d   1      -5.913  78.303 117.074  0.00  0.00    -0.090 HD
ENDBRANCH   5  18
BRANCH   3  22
ATOM     22  C   LIG d   1     -10.542  76.854 119.064  0.00  0.00     0.382 C 
ATOM     23  O   LIG d   1     -11.314  77.450 118.274  0.00  0.00    -0.241 OA
ATOM     24  O   LIG d   1     -10.830  76.792 120.274  0.00  0.00    -0.241 OA
ENDBRANCH   3  22
TORSDOF 7
ENDMDL
MODEL 3
REMARK VINA RESULT:      -5.6      2.218      4.347
REMARK  7 active torsions:
REMARK  status: ('A' for Active; 'I' for Inactive)
REMARK    1  A    between atoms: C_2  and  C_3 
REMARK    2  A    between atoms: C_3  and  O_6 
REMARK    3  A    between atoms: C_3  and  C_4 
REMARK    4  A    between atoms: C_7  and  O_6 
REMARK    5  A    between atoms: C_9  and  C_10 
REMARK    6  A    between atoms: N_15  and  C_14 
REMARK    7  A    between atoms: N_20  and  C_19 
REMARK       I    between atoms: C_22  and  N_20 
ROOT
ATOM      1  C   LIG d   1      -6.720  75.965 116.737  0.00  0.00     0.161 C 
ATOM      2  C   LIG d   1      -5.725  76.456 115.874  0.00  0.00     0.016 C 
ATOM      3  C   LIG d   1      -5.026  75.645 114.951  0.00  0.00     0.038 C 
ATOM      4  C   LIG d   1      -5.382  74.307 114.721  0.00  0.00     0.028 C 
ATOM      5  C   LIG d   1      -6.039  73.640 115.924  0.00  0.00    -0.047 C 
ATOM      6  C   LIG d   1      -7.199  74.532 116.422  0.00  0.00     0.091 C 
ENDROOT
BRANCH   1   7
ATOM      7  O   LIG d   1      -7.838  76.873 116.760  0.00  0.00    -0.368 OA
BRANCH   7   8
ATOM      8  C   LIG d   1      -7.994  77.661 117.966  0.00  0.00     0.119 C 
BRANCH   8   9
ATOM      9  C   LIG d   1      -9.505  77.817 118.226  0.00  0.00     0.028 C 
ATOM     10  C   LIG d   1     -10.318  76.625 117.692  0.00  0.00     0.006 C 
ENDBRANCH   8   9
BRANCH   8  11
ATOM     11  C   LIG d   1      -7.467  79.086 117.772  0.00  0.00     0.028 C 
ATOM     12  C   LIG d   1      -8.539  80.158 118.025  0.00  0.00     0.006 C 
ENDBRANCH   8  11
ENDBRANCH   7   8
ENDBRANCH   1   7
BRANCH   6  13
ATOM     13  N   LIG d   1      -7.842  73.993 117.648  0.00  0.00    -0.311 N 
ATOM     14  C   LIG d   1      -8.897  73.181 117.626  0.00  0.00     0.210 C 
ATOM     15  C   LIG d   1      -9.417  72.758 119.004  0.00  0.00     0.109 C 
ATOM     16  O   LIG d   1      -9.432  72.744 116.596  0.00  0.00    -0.276 OA
ATOM     17  H   LIG d   1      -7.453  74.272 118.528  0.00  0.00     0.149 HD
ENDBRANCH   6  13
BRANCH   5  18
ATOM     18  N   LIG d   1      -6.483  72.298 115.502  0.00  0.00     0.381 N 
ATOM     19  H   LIG d   1      -5.800  71.616 115.768  0.00  0.00    -0.090 HD
ATOM     20  H   LIG d   1      -6.569  72.284 114.500  0.00  0.00    -0.090 HD
ATOM     21  H   LIG d   1      -7.360  72.081 115.921  0.00  0.00    -0.090 HD
ENDBRANCH   5  18
BRANCH   3  22
ATOM     22  C   LIG d   1      -3.931  76.160 114.275  0.00  0.00     0.382 C 
ATOM     23  O   LIG d   1      -4.099  76.833 113.229  0.00  0.00    -0.241 OA
ATOM     24  O   LIG d   1      -2.774  75.924 114.673  0.00  0.00    -0.241 OA
ENDBRANCH   3  22
TORSDOF 7
ENDMDL
MODEL 4
REMARK VINA RESULT:      -5.5      2.597      4.653
REMARK  7 active torsions:
REMARK  status: ('A' for Active; 'I' for Inactive)
REMARK    1  A    between atoms: C_2  and  C_3 
REMARK    2  A    between atoms: C_3  and  O_6 
REMARK    3  A    between atoms: C_3  and  C_4 
REMARK    4  A    between atoms: C_7  and  O_6 
REMARK    5  A    between atoms: C_9  and  C_10 
REMARK    6  A    between atoms: N_15  and  C_14 
REMARK    7  A    between atoms: N_20  and  C_19 
REMARK       I    between atoms: C_22  and  N_20 
ROOT
ATOM      1  C   LIG d   1      -6.247  74.665 118.020  0.00  0.00     0.161 C 
ATOM      2  C   LIG d   1      -6.336  73.316 117.638  0.00  0.00     0.016 C 
ATOM      3  C   LIG d   1      -7.465  72.764 116.990  0.00  0.00     0.038 C 
ATOM      4  C   LIG d   1      -8.528  73.563 116.542  0.00  0.00     0.028 C 
ATOM      5  C   LIG d   1      -8.707  74.842 117.353  0.00  0.00    -0.047 C 
ATOM      6  C   LIG d   1      -7.350  75.576 117.441  0.00  0.00     0.091 C 
ENDROOT
BRANCH   1   7
ATOM      7  O   LIG d   1      -4.944  75.182 117.687  0.00  0.00    -0.368 OA
BRANCH   7   8
ATOM      8  C   LIG d   1      -4.226  74.477 116.645  0.00  0.00     0.119 C 
BRANCH   8   9
ATOM      9  C   LIG d   1      -2.743  74.418 117.062  0.00  0.00     0.028 C 
ATOM     10  C   LIG d   1      -1.795  74.354 115.853  0.00  0.00     0.006 C 
ENDBRANCH   8   9
BRANCH   8  11
ATOM     11  C   LIG d   1      -4.245  75.258 115.328  0.00  0.00     0.028 C 
ATOM     12  C   LIG d   1      -5.222  74.667 114.299  0.00  0.00     0.006 C 
ENDBRANCH   8  11
ENDBRANCH   7   8
ENDBRANCH   1   7
BRANCH   6  13
ATOM     13  N   LIG d   1      -7.417  76.795 118.288  0.00  0.00    -0.311 N 
ATOM     14  C   LIG d   1      -6.930  77.976 117.914  0.00  0.00     0.210 C 
ATOM     15  C   LIG d   1      -7.086  79.097 118.946  0.00  0.00     0.109 C 
ATOM     16  O   LIG d   1      -6.411  78.210 116.811  0.00  0.00    -0.276 OA
ATOM     17  H   LIG d   1      -7.850  76.702 119.186  0.00  0.00     0.149 HD
ENDBRANCH   6  13
BRANCH   5  18
ATOM     18  N   LIG d   1      -9.756  75.644 116.695  0.00  0.00     0.381 N 
ATOM     19  H   LIG d   1      -9.406  76.021 115.837  0.00  0.00    -0.090 HD
ATOM     20  H   LIG d   1     -10.007  76.408 117.297  0.00  0.00    -0.090 HD
ATOM     21  H   LIG d   1     -10.556  75.077 116.515  0.00  0.00    -0.090 HD
ENDBRANCH   5  18
BRANCH   3  22
ATOM     22  C   LIG d   1      -7.557  71.391 116.820  0.00  0.00     0.382 C 
ATOM     23  O   LIG d   1      -6.717  70.790 116.108  0.00  0.00    -0.241 OA
ATOM     24  O   LIG d   1      -8.495  70.752 117.333  0.00  0.00    -0.241 OA
ENDBRANCH   3  22
TORSDOF 7
ENDMDL
MODEL 5
REMARK VINA RESULT:      -5.4      1.862      4.671
REMARK  7 active torsions:
REMARK  status: ('A' for Active; 'I' for Inactive)
REMARK    1  A    between atoms: C_2  and  C_3 
REMARK    2  A    between atoms: C_3  and  O_6 
REMARK    3  A    between atoms: C_3  and  C_4 
REMARK    4  A    between atoms: C_7  and  O_6 
REMARK    5  A    between atoms: C_9  and  C_10 
REMARK    6  A    between atoms: N_15  and  C_14 
REMARK    7  A    between atoms: N_20  and  C_19 
REMARK       I    between atoms: C_22  and  N_20 
ROOT
ATOM      1  C   LIG d   1      -7.533  76.200 117.659  0.00  0.00     0.161 C 
ATOM      2  C   LIG d   1      -8.792  76.717 118.008  0.00  0.00     0.016 C 
ATOM      3  C   LIG d   1      -9.051  78.098 118.158  0.00  0.00     0.038 C 
ATOM      4  C   LIG d   1      -8.100  79.072 117.820  0.00  0.00     0.028 C 
ATOM      5  C   LIG d   1      -6.661  78.584 117.948  0.00  0.00    -0.047 C 
ATOM      6  C   LIG d   1      -6.513  77.252 117.178  0.00  0.00     0.091 C 
ENDROOT
BRANCH   1   7
ATOM      7  O   LIG d   1      -7.688  75.163 116.670  0.00  0.00    -0.368 OA
BRANCH   7   8
ATOM      8  C   LIG d   1      -7.527  73.802 117.143  0.00  0.00     0.119 C 
BRANCH   8   9
ATOM      9  C   LIG d   1      -6.717  73.035 116.080  0.00  0.00     0.028 C 
ATOM     10  C   LIG d   1      -6.832  71.510 116.242  0.00  0.00     0.006 C 
ENDBRANCH   8   9
BRANCH   8  11
ATOM     11  C   LIG d   1      -8.875  73.079 117.226  0.00  0.00     0.028 C 
ATOM     12  C   LIG d   1      -9.344  72.858 118.673  0.00  0.00     0.006 C 
ENDBRANCH   8  11
ENDBRANCH   7   8
ENDBRANCH   1   7
BRANCH   6  13
ATOM     13  N   LIG d   1      -5.156  76.663 117.321  0.00  0.00    -0.311 N 
ATOM     14  C   LIG d   1      -4.176  76.854 116.440  0.00  0.00     0.210 C 
ATOM     15  C   LIG d   1      -2.862  76.139 116.769  0.00  0.00     0.109 C 
ATOM     16  O   LIG d   1      -4.260  77.575 115.434  0.00  0.00    -0.276 OA
ATOM     17  H   LIG d   1      -4.991  76.089 118.125  0.00  0.00     0.149 HD
ENDBRANCH   6  13
BRANCH   5  18
ATOM     18  N   LIG d   1      -5.781  79.651 117.433  0.00  0.00     0.381 N 
ATOM     19  H   LIG d   1      -6.315  80.482 117.273  0.00  0.00    -0.090 HD
ATOM     20  H   LIG d   1      -5.389  79.354 116.557  0.00  0.00    -0.090 HD
ATOM     21  H   LIG d   1      -5.052  79.836 118.087  0.00  0.00    -0.090 HD
ENDBRANCH   5  18
BRANCH   3  22
ATOM     22  C   LIG d   1     -10.261  78.516 118.690  0.00  0.00     0.382 C 
ATOM     23  O   LIG d   1     -11.220  77.711 118.776  0.00  0.00    -0.241 OA
ATOM     24  O   LIG d   1     -10.421  79.700 119.045  0.00  0.00    -0.241 OA
ENDBRANCH   3  22
TORSDOF 7
ENDMDL
MODEL 6
REMARK VINA RESULT:      -5.3     14.687     16.831
REMARK  7 active torsions:
REMARK  status: ('A' for Active; 'I' for Inactive)
REMARK    1  A    between atoms: C_2  and  C_3 
REMARK    2  A    between atoms: C_3  and  O_6 
REMARK    3  A    between atoms: C_3  and  C_4 
REMARK    4  A    between atoms: C_7  and  O_6 
REMARK    5  A    between atoms: C_9  and  C_10 
REMARK    6  A    between atoms: N_15  and  C_14 
REMARK    7  A    between atoms: N_20  and  C_19 
REMARK       I    between atoms: C_22  and  N_20 
ROOT
ATOM      1  C   LIG d   1      -4.389  91.257 117.350  0.00  0.00     0.161 C 
ATOM      2  C   LIG d   1      -3.685  92.216 118.096  0.00  0.00     0.016 C 
ATOM      3  C   LIG d   1      -4.297  93.344 118.688  0.00  0.00     0.038 C 
ATOM      4  C   LIG d   1      -5.690  93.510 118.702  0.00  0.00     0.028 C 
ATOM      5  C   LIG d   1      -6.392  92.833 117.529  0.00  0.00    -0.047 C 
ATOM      6  C   LIG d   1      -5.925  91.361 117.447  0.00  0.00     0.091 C 
ENDROOT
BRANCH   1   7
ATOM      7  O   LIG d   1      -3.953  89.934 117.720  0.00  0.00    -0.368 OA
BRANCH   7   8
ATOM      8  C   LIG d   1      -2.662  89.847 118.371  0.00  0.00     0.119 C 
BRANCH   8   9
ATOM      9  C   LIG d   1      -1.679  89.210 117.370  0.00  0.00     0.028 C 
ATOM     10  C   LIG d   1      -0.429  90.076 117.142  0.00  0.00     0.006 C 
ENDBRANCH   8   9
BRANCH   8  11
ATOM     11  C   LIG d   1      -2.703  88.888 119.565  0.00  0.00     0.028 C 
ATOM     12  C   LIG d   1      -2.018  87.543 119.273  0.00  0.00     0.006 C 
ENDBRANCH   8  11
ENDBRANCH   7   8
ENDBRANCH   1   7
BRANCH   6  13
ATOM     13  N   LIG d   1      -6.500  90.649 116.277  0.00  0.00    -0.311 N 
ATOM     14  C   LIG d   1      -6.648  91.209 115.077  0.00  0.00     0.210 C 
ATOM     15  C   LIG d   1      -7.280  90.305 114.015  0.00  0.00     0.109 C 
ATOM     16  O   LIG d   1      -6.286  92.359 114.785  0.00  0.00    -0.276 OA
ATOM     17  H   LIG d   1      -6.791  89.701 116.417  0.00  0.00     0.149 HD
ENDBRANCH   6  13
BRANCH   5  18
ATOM     18  N   LIG d   1      -7.846  92.967 117.742  0.00  0.00     0.381 N 
ATOM     19  H   LIG d   1      -8.282  93.295 116.903  0.00  0.00    -0.090 HD
ATOM     20  H   LIG d   1      -8.007  93.644 118.467  0.00  0.00    -0.090 HD
ATOM     21  H   LIG d   1      -8.235  92.089 118.005  0.00  0.00    -0.090 HD
ENDBRANCH   5  18
BRANCH   3  22
ATOM     22  C   LIG d   1      -3.510  94.343 119.242  0.00  0.00     0.382 C 
ATOM     23  O   LIG d   1      -4.016  95.456 119.524  0.00  0.00    -0.241 OA
ATOM     24  O   LIG d   1      -2.291  94.159 119.421  0.00  0.00    -0.241 OA
ENDBRANCH   3  22
TORSDOF 7
ENDMDL
MODEL 7
REMARK VINA RESULT:      -5.1      2.279      4.737
REMARK  7 active torsions:
REMARK  status: ('A' for Active; 'I' for Inactive)
REMARK    1  A    between atoms: C_2  and  C_3 
REMARK    2  A    between atoms: C_3  and  O_6 
REMARK    3  A    between atoms: C_3  and  C_4 
REMARK    4  A    between atoms: C_7  and  O_6 
REMARK    5  A    between atoms: C_9  and  C_10 
REMARK    6  A    between atoms: N_15  and  C_14 
REMARK    7  A    between atoms: N_20  and  C_19 
REMARK       I    between atoms: C_22  and  N_20 
ROOT
ATOM      1  C   LIG d   1      -6.186  76.316 117.309  0.00  0.00     0.161 C 
ATOM      2  C   LIG d   1      -7.127  77.338 117.517  0.00  0.00     0.016 C 
ATOM      3  C   LIG d   1      -6.790  78.711 117.548  0.00  0.00     0.038 C 
ATOM      4  C   LIG d   1      -5.504  79.166 117.220  0.00  0.00     0.028 C 
ATOM      5  C   LIG d   1      -4.409  78.142 117.500  0.00  0.00    -0.047 C 
ATOM      6  C   LIG d   1      -4.798  76.800 116.840  0.00  0.00     0.091 C 
ENDROOT
BRANCH   1   7
ATOM      7  O   LIG d   1      -6.716  75.344 116.386  0.00  0.00    -0.368 OA
BRANCH   7   8
ATOM      8  C   LIG d   1      -6.992  74.030 116.932  0.00  0.00     0.119 C 
BRANCH   8   9
ATOM      9  C   LIG d   1      -6.315  72.996 116.013  0.00  0.00     0.028 C 
ATOM     10  C   LIG d   1      -6.833  71.568 116.255  0.00  0.00     0.006 C 
ENDBRANCH   8   9
BRANCH   8  11
ATOM     11  C   LIG d   1      -8.488  73.706 116.876  0.00  0.00     0.028 C 
ATOM     12  C   LIG d   1      -9.159  73.747 118.258  0.00  0.00     0.006 C 
ENDBRANCH   8  11
ENDBRANCH   7   8
ENDBRANCH   1   7
BRANCH   6  13
ATOM     13  N   LIG d   1      -3.821  75.719 117.135  0.00  0.00    -0.311 N 
ATOM     14  C   LIG d   1      -3.199  75.015 116.191  0.00  0.00     0.210 C 
ATOM     15  C   LIG d   1      -2.247  73.934 116.713  0.00  0.00     0.109 C 
ATOM     16  O   LIG d   1      -3.320  75.205 114.972  0.00  0.00    -0.276 OA
ATOM     17  H   LIG d   1      -3.640  75.520 118.100  0.00  0.00     0.149 HD
ENDBRANCH   6  13
BRANCH   5  18
ATOM     18  N   LIG d   1      -3.141  78.694 116.985  0.00  0.00     0.381 N 
ATOM     19  H   LIG d   1      -2.643  77.986 116.484  0.00  0.00    -0.090 HD
ATOM     20  H   LIG d   1      -2.576  78.988 117.762  0.00  0.00    -0.090 HD
ATOM     21  H   LIG d   1      -3.325  79.468 116.387  0.00  0.00    -0.090 HD
ENDBRANCH   5  18
BRANCH   3  22
ATOM     22  C   LIG d   1      -7.736  79.642 117.948  0.00  0.00     0.382 C 
ATOM     23  O   LIG d   1      -8.542  79.361 118.868  0.00  0.00    -0.241 OA
ATOM     24  O   LIG d   1      -7.823  80.742 117.371  0.00  0.00    -0.241 OA
ENDBRANCH   3  22
TORSDOF 7
ENDMDL
MODEL 8
REMARK VINA RESULT:      -4.9     14.012     16.376
REMARK  7 active torsions:
REMARK  status: ('A' for Active; 'I' for Inactive)
REMARK    1  A    between atoms: C_2  and  C_3 
REMARK    2  A    between atoms: C_3  and  O_6 
REMARK    3  A    between atoms: C_3  and  C_4 
REMARK    4  A    between atoms: C_7  and  O_6 
REMARK    5  A    between atoms: C_9  and  C_10 
REMARK    6  A    between atoms: N_15  and  C_14 
REMARK    7  A    between atoms: N_20  and  C_19 
REMARK       I    between atoms: C_22  and  N_20 
ROOT
ATOM      1  C   LIG d   1       2.020  87.610 115.692  0.00  0.00     0.161 C 
ATOM      2  C   LIG d   1       0.819  87.452 116.404  0.00  0.00     0.016 C 
ATOM      3  C   LIG d   1       0.265  88.458 117.228  0.00  0.00     0.038 C 
ATOM      4  C   LIG d   1       0.800  89.754 117.278  0.00  0.00     0.028 C 
ATOM      5  C   LIG d   1       2.293  89.805 116.971  0.00  0.00    -0.047 C 
ATOM      6  C   LIG d   1       2.559  89.055 115.646  0.00  0.00     0.091 C 
ENDROOT
BRANCH   1   7
ATOM      7  O   LIG d   1       1.868  87.089 114.356  0.00  0.00    -0.368 OA
BRANCH   7   8
ATOM      8  C   LIG d   1       2.316  85.727 114.149  0.00  0.00     0.119 C 
BRANCH   8   9
ATOM      9  C   LIG d   1       3.701  85.792 113.476  0.00  0.00     0.028 C 
ATOM     10  C   LIG d   1       3.636  86.376 112.055  0.00  0.00     0.006 C 
ENDBRANCH   8   9
BRANCH   8  11
ATOM     11  C   LIG d   1       1.415  84.990 113.153  0.00  0.00     0.028 C 
ATOM     12  C   LIG d   1       0.012  85.609 113.047  0.00  0.00     0.006 C 
ENDBRANCH   8  11
ENDBRANCH   7   8
ENDBRANCH   1   7
BRANCH   6  13
ATOM     13  N   LIG d   1       4.006  88.985 115.315  0.00  0.00    -0.311 N 
ATOM     14  C   LIG d   1       4.508  89.356 114.139  0.00  0.00     0.210 C 
ATOM     15  C   LIG d   1       6.024  89.184 113.999  0.00  0.00     0.109 C 
ATOM     16  O   LIG d   1       3.846  89.842 113.209  0.00  0.00    -0.276 OA
ATOM     17  H   LIG d   1       4.620  88.631 116.023  0.00  0.00     0.149 HD
ENDBRANCH   6  13
BRANCH   5  18
ATOM     18  N   LIG d   1       2.690  91.225 116.922  0.00  0.00     0.381 N 
ATOM     19  H   LIG d   1       2.637  91.559 115.981  0.00  0.00    -0.090 HD
ATOM     20  H   LIG d   1       3.642  91.307 117.233  0.00  0.00    -0.090 HD
ATOM     21  H   LIG d   1       2.093  91.766 117.508  0.00  0.00    -0.090 HD
ENDBRANCH   5  18
BRANCH   3  22
ATOM     22  C   LIG d   1      -0.814  88.159 118.046  0.00  0.00     0.382 C 
ATOM     23  O   LIG d   1      -1.978  88.448 117.678  0.00  0.00    -0.241 OA
ATOM     24  O   LIG d   1      -0.635  87.644 119.166  0.00  0.00    -0.241 OA
ENDBRANCH   3  22
TORSDOF 7
ENDMDL
MODEL 9
REMARK VINA RESULT:      -4.9      3.628      5.689
REMARK  7 active torsions:
REMARK  status: ('A' for Active; 'I' for Inactive)
REMARK    1  A    between atoms: C_2  and  C_3 
REMARK    2  A    between atoms: C_3  and  O_6 
REMARK    3  A    between atoms: C_3  and  C_4 
REMARK    4  A    between atoms: C_7  and  O_6 
REMARK    5  A    between atoms: C_9  and  C_10 
REMARK    6  A    between atoms: N_15  and  C_14 
REMARK    7  A    between atoms: N_20  and  C_19 
REMARK       I    between atoms: C_22  and  N_20 
ROOT
ATOM      1  C   LIG d   1      -3.277  75.120 115.407  0.00  0.00     0.161 C 
ATOM      2  C   LIG d   1      -2.626  76.360 115.301  0.00  0.00     0.016 C 
ATOM      3  C   LIG d   1      -3.178  77.572 115.776  0.00  0.00     0.038 C 
ATOM      4  C   LIG d   1      -4.360  77.603 116.530  0.00  0.00     0.028 C 
ATOM      5  C   LIG d   1      -5.304  76.444 116.224  0.00  0.00    -0.047 C 
ATOM      6  C   LIG d   1      -4.517  75.117 116.325  0.00  0.00     0.091 C 
ENDROOT
BRANCH   1   7
ATOM      7  O   LIG d   1      -2.339  74.110 115.828  0.00  0.00    -0.368 OA
BRANCH   7   8
ATOM      8  C   LIG d   1      -1.176  74.582 116.552  0.00  0.00     0.119 C 
BRANCH   8   9
ATOM      9  C   LIG d   1       0.036  73.766 116.062  0.00  0.00     0.028 C 
ATOM     10  C   LIG d   1      -0.085  73.366 114.582  0.00  0.00     0.006 C 
ENDBRANCH   8   9
BRANCH   8  11
ATOM     11  C   LIG d   1      -1.290  74.280 118.049  0.00  0.00     0.028 C 
ATOM     12  C   LIG d   1      -0.507  73.025 118.465  0.00  0.00     0.006 C 
ENDBRANCH   8  11
ENDBRANCH   7   8
ENDBRANCH   1   7
BRANCH   6  13
ATOM     13  N   LIG d   1      -5.345  73.938 115.958  0.00  0.00    -0.311 N 
ATOM     14  C   LIG d   1      -6.017  73.209 116.848  0.00  0.00     0.210 C 
ATOM     15  C   LIG d   1      -6.792  72.025 116.261  0.00  0.00     0.109 C 
ATOM     16  O   LIG d   1      -6.071  73.450 118.063  0.00  0.00    -0.276 OA
ATOM     17  H   LIG d   1      -5.383  73.691 114.989  0.00  0.00     0.149 HD
ENDBRANCH   6  13
BRANCH   5  18
ATOM     18  N   LIG d   1      -6.429  76.523 117.175  0.00  0.00     0.381 N 
ATOM     19  H   LIG d   1      -6.207  77.165 117.910  0.00  0.00    -0.090 HD
ATOM     20  H   LIG d   1      -6.574  75.616 117.583  0.00  0.00    -0.090 HD
ATOM     21  H   LIG d   1      -7.254  76.819 116.703  0.00  0.00    -0.090 HD
ENDBRANCH   5  18
BRANCH   3  22
ATOM     22  C   LIG d   1      -2.564  78.775 115.463  0.00  0.00     0.382 C 
ATOM     23  O   LIG d   1      -3.006  79.478 114.522  0.00  0.00    -0.241 OA
ATOM     24  O   LIG d   1      -1.548  79.146 116.081  0.00  0.00    -0.241 OA
ENDBRANCH   3  22
TORSDOF 7
ENDMDL
