MODEL 1
REMARK VINA RESULT:      -5.4      0.000      0.000
REMARK  7 active torsions:
REMARK  status: ('A' for Active; 'I' for Inactive)
REMARK    1  A    between atoms: C_2  and  C_3 
REMARK    2  A    between atoms: C_3  and  O_6 
REMARK    3  A    between atoms: C_3  and  C_4 
REMARK    4  A    between atoms: C_7  and  O_6 
REMARK    5  A    between atoms: C_9  and  C_10 
REMARK    6  A    between atoms: N_15  and  C_14 
REMARK    7  A    between atoms: N_20  and  C_19 
REMARK       I    between atoms: C_22  and  N_20 
ROOT
ATOM      1  C   LIG d   1      -6.137  77.806 117.102  0.00  0.00     0.161 C 
ATOM      2  C   LIG d   1      -7.514  77.651 117.335  0.00  0.00     0.016 C 
ATOM      3  C   LIG d   1      -8.325  78.660 117.903  0.00  0.00     0.038 C 
ATOM      4  C   LIG d   1      -7.842  79.956 118.137  0.00  0.00     0.028 C 
ATOM      5  C   LIG d   1      -6.338  80.005 118.388  0.00  0.00    -0.047 C 
ATOM      6  C   LIG d   1      -5.615  79.250 117.249  0.00  0.00     0.091 C 
ENDROOT
BRANCH   1   7
ATOM      7  O   LIG d   1      -5.799  77.280 115.804  0.00  0.00    -0.368 OA
BRANCH   7   8
ATOM      8  C   LIG d   1      -4.944  76.111 115.792  0.00  0.00     0.119 C 
BRANCH   8   9
ATOM      9  C   LIG d   1      -5.769  74.939 115.228  0.00  0.00     0.028 C 
ATOM     10  C   LIG d   1      -6.506  74.157 116.328  0.00  0.00     0.006 C 
ENDBRANCH   8   9
BRANCH   8  11
ATOM     11  C   LIG d   1      -4.557  75.689 117.212  0.00  0.00     0.028 C 
ATOM     12  C   LIG d   1      -3.060  75.372 117.353  0.00  0.00     0.006 C 
ENDBRANCH   8  11
ENDBRANCH   7   8
ENDBRANCH   1   7
BRANCH   6  13
ATOM     13  N   LIG d   1      -4.146  79.178 117.461  0.00  0.00    -0.311 N 
ATOM     14  C   LIG d   1      -3.254  79.401 116.497  0.00  0.00     0.210 C 
ATOM     15  C   LIG d   1      -1.790  79.255 116.923  0.00  0.00     0.109 C 
ATOM     16  O   LIG d   1      -3.536  79.737 115.337  0.00  0.00    -0.276 OA
ATOM     17  H   LIG d   1      -3.828  78.942 118.381  0.00  0.00     0.149 HD
ENDBRANCH   6  13
BRANCH   5  18
ATOM     18  N   LIG d   1      -5.948  81.425 118.480  0.00  0.00     0.381 N 
ATOM     19  H   LIG d   1      -5.779  81.668 119.436  0.00  0.00    -0.090 HD
ATOM     20  H   LIG d   1      -6.703  81.992 118.138  0.00  0.00    -0.090 HD
ATOM     21  H   LIG d   1      -5.128  81.589 117.938  0.00  0.00    -0.090 HD
ENDBRANCH   5  18
BRANCH   3  22
ATOM     22  C   LIG d   1      -9.627  78.365 118.278  0.00  0.00     0.382 C 
ATOM     23  O   LIG d   1     -10.239  77.417 117.729  0.00  0.00    -0.241 OA
ATOM     24  O   LIG d   1     -10.213  79.063 119.128  0.00  0.00    -0.241 OA
ENDBRANCH   3  22
TORSDOF 7
ENDMDL
MODEL 2
REMARK VINA RESULT:      -5.4     12.268     14.158
REMARK  7 active torsions:
REMARK  status: ('A' for Active; 'I' for Inactive)
REMARK    1  A    between atoms: C_2  and  C_3 
REMARK    2  A    between atoms: C_3  and  O_6 
REMARK    3  A    between atoms: C_3  and  C_4 
REMARK    4  A    between atoms: C_7  and  O_6 
REMARK    5  A    between atoms: C_9  and  C_10 
REMARK    6  A    between atoms: N_15  and  C_14 
REMARK    7  A    between atoms: N_20  and  C_19 
REMARK       I    between atoms: C_22  and  N_20 
ROOT
ATOM      1  C   LIG d   1      -6.589  91.303 117.710  0.00  0.00     0.161 C 
ATOM      2  C   LIG d   1      -7.379  92.434 117.445  0.00  0.00     0.016 C 
ATOM      3  C   LIG d   1      -6.869  93.753 117.432  0.00  0.00     0.038 C 
ATOM      4  C   LIG d   1      -5.496  94.019 117.535  0.00  0.00     0.028 C 
ATOM      5  C   LIG d   1      -4.728  92.950 118.306  0.00  0.00    -0.047 C 
ATOM      6  C   LIG d   1      -5.068  91.563 117.715  0.00  0.00     0.091 C 
ENDROOT
BRANCH   1   7
ATOM      7  O   LIG d   1      -6.914  90.251 116.780  0.00  0.00    -0.368 OA
BRANCH   7   8
ATOM      8  C   LIG d   1      -7.558  90.665 115.549  0.00  0.00     0.119 C 
BRANCH   8   9
ATOM      9  C   LIG d   1      -8.367  89.463 115.024  0.00  0.00     0.028 C 
ATOM     10  C   LIG d   1      -9.037  88.667 116.156  0.00  0.00     0.006 C 
ENDBRANCH   8   9
BRANCH   8  11
ATOM     11  C   LIG d   1      -6.528  90.969 114.457  0.00  0.00     0.028 C 
ATOM     12  C   LIG d   1      -6.789  92.306 113.747  0.00  0.00     0.006 C 
ENDBRANCH   8  11
ENDBRANCH   7   8
ENDBRANCH   1   7
BRANCH   6  13
ATOM     13  N   LIG d   1      -4.424  90.454 118.466  0.00  0.00    -0.311 N 
ATOM     14  C   LIG d   1      -3.279  89.884 118.094  0.00  0.00     0.210 C 
ATOM     15  C   LIG d   1      -2.801  88.744 118.998  0.00  0.00     0.109 C 
ATOM     16  O   LIG d   1      -2.598  90.236 117.119  0.00  0.00    -0.276 OA
ATOM     17  H   LIG d   1      -4.894  90.127 119.287  0.00  0.00     0.149 HD
ENDBRANCH   6  13
BRANCH   5  18
ATOM     18  N   LIG d   1      -3.294  93.281 118.218  0.00  0.00     0.381 N 
ATOM     19  H   LIG d   1      -3.022  93.359 117.259  0.00  0.00    -0.090 HD
ATOM     20  H   LIG d   1      -2.762  92.538 118.637  0.00  0.00    -0.090 HD
ATOM     21  H   LIG d   1      -3.111  94.138 118.693  0.00  0.00    -0.090 HD
ENDBRANCH   5  18
BRANCH   3  22
ATOM     22  C   LIG d   1      -7.743  94.827 117.354  0.00  0.00     0.382 C 
ATOM     23  O   LIG d   1      -8.946  94.635 117.052  0.00  0.00    -0.241 OA
ATOM     24  O   LIG d   1      -7.335  95.989 117.538  0.00  0.00    -0.241 OA
ENDBRANCH   3  22
TORSDOF 7
ENDMDL
MODEL 3
REMARK VINA RESULT:      -5.3     12.760     14.717
REMARK  7 active torsions:
REMARK  status: ('A' for Active; 'I' for Inactive)
REMARK    1  A    between atoms: C_2  and  C_3 
REMARK    2  A    between atoms: C_3  and  O_6 
REMARK    3  A    between atoms: C_3  and  C_4 
REMARK    4  A    between atoms: C_7  and  O_6 
REMARK    5  A    between atoms: C_9  and  C_10 
REMARK    6  A    between atoms: N_15  and  C_14 
REMARK    7  A    between atoms: N_20  and  C_19 
REMARK       I    between atoms: C_22  and  N_20 
ROOT
ATOM      1  C   LIG d   1      -5.800  91.897 118.271  0.00  0.00     0.161 C 
ATOM      2  C   LIG d   1      -6.350  90.950 117.391  0.00  0.00     0.016 C 
ATOM      3  C   LIG d   1      -7.087  91.298 116.235  0.00  0.00     0.038 C 
ATOM      4  C   LIG d   1      -7.196  92.627 115.798  0.00  0.00     0.028 C 
ATOM      5  C   LIG d   1      -7.086  93.647 116.925  0.00  0.00    -0.047 C 
ATOM      6  C   LIG d   1      -5.813  93.349 117.749  0.00  0.00     0.091 C 
ENDROOT
BRANCH   1   7
ATOM      7  O   LIG d   1      -4.460  91.507 118.632  0.00  0.00    -0.368 OA
BRANCH   7   8
ATOM      8  C   LIG d   1      -3.466  91.592 117.582  0.00  0.00     0.119 C 
BRANCH   8   9
ATOM      9  C   LIG d   1      -2.908  90.173 117.356  0.00  0.00     0.028 C 
ATOM     10  C   LIG d   1      -3.124  89.257 118.572  0.00  0.00     0.006 C 
ENDBRANCH   8   9
BRANCH   8  11
ATOM     11  C   LIG d   1      -2.265  92.436 118.019  0.00  0.00     0.028 C 
ATOM     12  C   LIG d   1      -2.199  92.636 119.541  0.00  0.00     0.006 C 
ENDBRANCH   8  11
ENDBRANCH   7   8
ENDBRANCH   1   7
BRANCH   6  13
ATOM     13  N   LIG d   1      -5.674  94.250 118.924  0.00  0.00    -0.311 N 
ATOM     14  C   LIG d   1      -4.768  95.224 118.997  0.00  0.00     0.210 C 
ATOM     15  C   LIG d   1      -4.782  96.022 120.305  0.00  0.00     0.109 C 
ATOM     16  O   LIG d   1      -3.976  95.523 118.091  0.00  0.00    -0.276 OA
ATOM     17  H   LIG d   1      -6.298  94.097 119.692  0.00  0.00     0.149 HD
ENDBRANCH   6  13
BRANCH   5  18
ATOM     18  N   LIG d   1      -7.078  94.989 116.313  0.00  0.00     0.381 N 
ATOM     19  H   LIG d   1      -6.626  95.638 116.926  0.00  0.00    -0.090 HD
ATOM     20  H   LIG d   1      -8.027  95.291 116.178  0.00  0.00    -0.090 HD
ATOM     21  H   LIG d   1      -6.602  94.961 115.438  0.00  0.00    -0.090 HD
ENDBRANCH   5  18
BRANCH   3  22
ATOM     22  C   LIG d   1      -7.760  90.314 115.527  0.00  0.00     0.382 C 
ATOM     23  O   LIG d   1      -8.474  90.626 114.544  0.00  0.00    -0.241 OA
ATOM     24  O   LIG d   1      -7.696  89.123 115.885  0.00  0.00    -0.241 OA
ENDBRANCH   3  22
TORSDOF 7
ENDMDL
MODEL 4
REMARK VINA RESULT:      -5.2     12.930     14.760
REMARK  7 active torsions:
REMARK  status: ('A' for Active; 'I' for Inactive)
REMARK    1  A    between atoms: C_2  and  C_3 
REMARK    2  A    between atoms: C_3  and  O_6 
REMARK    3  A    between atoms: C_3  and  C_4 
REMARK    4  A    between atoms: C_7  and  O_6 
REMARK    5  A    between atoms: C_9  and  C_10 
REMARK    6  A    between atoms: N_15  and  C_14 
REMARK    7  A    between atoms: N_20  and  C_19 
REMARK       I    between atoms: C_22  and  N_20 
ROOT
ATOM      1  C   LIG d   1      -6.228  91.821 118.096  0.00  0.00     0.161 C 
ATOM      2  C   LIG d   1      -7.556  92.190 118.366  0.00  0.00     0.016 C 
ATOM      3  C   LIG d   1      -7.924  93.454 118.882  0.00  0.00     0.038 C 
ATOM      4  C   LIG d   1      -6.995  94.496 119.022  0.00  0.00     0.028 C 
ATOM      5  C   LIG d   1      -5.566  94.010 119.238  0.00  0.00    -0.047 C 
ATOM      6  C   LIG d   1      -5.214  92.984 118.137  0.00  0.00     0.091 C 
ENDROOT
BRANCH   1   7
ATOM      7  O   LIG d   1      -6.158  91.140 116.828  0.00  0.00    -0.368 OA
BRANCH   7   8
ATOM      8  C   LIG d   1      -7.313  91.280 115.965  0.00  0.00     0.119 C 
BRANCH   8   9
ATOM      9  C   LIG d   1      -7.502  89.943 115.222  0.00  0.00     0.028 C 
ATOM     10  C   LIG d   1      -8.712  89.149 115.742  0.00  0.00     0.006 C 
ENDBRANCH   8   9
BRANCH   8  11
ATOM     11  C   LIG d   1      -7.066  92.321 114.868  0.00  0.00     0.028 C 
ATOM     12  C   LIG d   1      -7.520  91.843 113.480  0.00  0.00     0.006 C 
ENDBRANCH   8  11
ENDBRANCH   7   8
ENDBRANCH   1   7
BRANCH   6  13
ATOM     13  N   LIG d   1      -3.862  92.395 118.323  0.00  0.00    -0.311 N 
ATOM     14  C   LIG d   1      -2.760  92.899 117.771  0.00  0.00     0.210 C 
ATOM     15  C   LIG d   1      -1.473  92.126 118.074  0.00  0.00     0.109 C 
ATOM     16  O   LIG d   1      -2.722  93.931 117.085  0.00  0.00    -0.276 OA
ATOM     17  H   LIG d   1      -3.797  91.573 118.891  0.00  0.00     0.149 HD
ENDBRANCH   6  13
BRANCH   5  18
ATOM     18  N   LIG d   1      -4.686  95.193 119.228  0.00  0.00     0.381 N 
ATOM     19  H   LIG d   1      -4.219  95.261 118.347  0.00  0.00    -0.090 HD
ATOM     20  H   LIG d   1      -3.991  95.088 119.946  0.00  0.00    -0.090 HD
ATOM     21  H   LIG d   1      -5.222  96.017 119.393  0.00  0.00    -0.090 HD
ENDBRANCH   5  18
BRANCH   3  22
ATOM     22  C   LIG d   1      -9.227  93.672 119.303  0.00  0.00     0.382 C 
ATOM     23  O   LIG d   1      -9.843  92.774 119.926  0.00  0.00    -0.241 OA
ATOM     24  O   LIG d   1      -9.809  94.738 119.028  0.00  0.00    -0.241 OA
ENDBRANCH   3  22
TORSDOF 7
ENDMDL
MODEL 5
REMARK VINA RESULT:      -4.9     16.362     18.798
REMARK  7 active torsions:
REMARK  status: ('A' for Active; 'I' for Inactive)
REMARK    1  A    between atoms: C_2  and  C_3 
REMARK    2  A    between atoms: C_3  and  O_6 
REMARK    3  A    between atoms: C_3  and  C_4 
REMARK    4  A    between atoms: C_7  and  O_6 
REMARK    5  A    between atoms: C_9  and  C_10 
REMARK    6  A    between atoms: N_15  and  C_14 
REMARK    7  A    between atoms: N_20  and  C_19 
REMARK       I    between atoms: C_22  and  N_20 
ROOT
ATOM      1  C   LIG d   1     -23.068  83.413 116.139  0.00  0.00     0.161 C 
ATOM      2  C   LIG d   1     -22.631  84.719 115.864  0.00  0.00     0.016 C 
ATOM      3  C   LIG d   1     -22.844  85.366 114.625  0.00  0.00     0.038 C 
ATOM      4  C   LIG d   1     -23.645  84.801 113.621  0.00  0.00     0.028 C 
ATOM      5  C   LIG d   1     -23.683  83.277 113.663  0.00  0.00    -0.047 C 
ATOM      6  C   LIG d   1     -24.041  82.823 115.097  0.00  0.00     0.091 C 
ENDROOT
BRANCH   1   7
ATOM      7  O   LIG d   1     -23.653  83.361 117.456  0.00  0.00    -0.368 OA
BRANCH   7   8
ATOM      8  C   LIG d   1     -22.988  82.503 118.415  0.00  0.00     0.119 C 
BRANCH   8   9
ATOM      9  C   LIG d   1     -22.927  83.264 119.753  0.00  0.00     0.028 C 
ATOM     10  C   LIG d   1     -22.659  84.767 119.562  0.00  0.00     0.006 C 
ENDBRANCH   8   9
BRANCH   8  11
ATOM     11  C   LIG d   1     -21.528  82.255 118.023  0.00  0.00     0.028 C 
ATOM     12  C   LIG d   1     -20.717  81.580 119.141  0.00  0.00     0.006 C 
ENDBRANCH   8  11
ENDBRANCH   7   8
ENDBRANCH   1   7
BRANCH   6  13
ATOM     13  N   LIG d   1     -24.017  81.344 115.246  0.00  0.00    -0.311 N 
ATOM     14  C   LIG d   1     -25.100  80.578 115.130  0.00  0.00     0.210 C 
ATOM     15  C   LIG d   1     -24.859  79.080 115.340  0.00  0.00     0.109 C 
ATOM     16  O   LIG d   1     -26.233  80.994 114.841  0.00  0.00    -0.276 OA
ATOM     17  H   LIG d   1     -23.133  80.921 115.450  0.00  0.00     0.149 HD
ENDBRANCH   6  13
BRANCH   5  18
ATOM     18  N   LIG d   1     -24.661  82.828 112.654  0.00  0.00     0.381 N 
ATOM     19  H   LIG d   1     -24.347  83.087 111.740  0.00  0.00    -0.090 HD
ATOM     20  H   LIG d   1     -25.539  83.283 112.827  0.00  0.00    -0.090 HD
ATOM     21  H   LIG d   1     -24.775  81.839 112.705  0.00  0.00    -0.090 HD
ENDBRANCH   5  18
BRANCH   3  22
ATOM     22  C   LIG d   1     -22.217  86.575 114.364  0.00  0.00     0.382 C 
ATOM     23  O   LIG d   1     -21.087  86.591 113.818  0.00  0.00    -0.241 OA
ATOM     24  O   LIG d   1     -22.747  87.648 114.708  0.00  0.00    -0.241 OA
ENDBRANCH   3  22
TORSDOF 7
ENDMDL
MODEL 6
REMARK VINA RESULT:      -4.8     15.399     18.177
REMARK  7 active torsions:
REMARK  status: ('A' for Active; 'I' for Inactive)
REMARK    1  A    between atoms: C_2  and  C_3 
REMARK    2  A    between atoms: C_3  and  O_6 
REMARK    3  A    between atoms: C_3  and  C_4 
REMARK    4  A    between atoms: C_7  and  O_6 
REMARK    5  A    between atoms: C_9  and  C_10 
REMARK    6  A    between atoms: N_15  and  C_14 
REMARK    7  A    between atoms: N_20  and  C_19 
REMARK       I    between atoms: C_22  and  N_20 
ROOT
ATOM      1  C   LIG d   1      11.395  76.287 114.464  0.00  0.00     0.161 C 
ATOM      2  C   LIG d   1      10.092  76.792 114.602  0.00  0.00     0.016 C 
ATOM      3  C   LIG d   1       9.746  78.136 114.336  0.00  0.00     0.038 C 
ATOM      4  C   LIG d   1      10.657  79.037 113.764  0.00  0.00     0.028 C 
ATOM      5  C   LIG d   1      12.112  78.709 114.080  0.00  0.00    -0.047 C 
ATOM      6  C   LIG d   1      12.379  77.226 113.735  0.00  0.00     0.091 C 
ENDROOT
BRANCH   1   7
ATOM      7  O   LIG d   1      11.355  75.001 113.814  0.00  0.00    -0.368 OA
BRANCH   7   8
ATOM      8  C   LIG d   1      11.148  73.856 114.677  0.00  0.00     0.119 C 
BRANCH   8   9
ATOM      9  C   LIG d   1      12.223  73.907 115.780  0.00  0.00     0.028 C 
ATOM     10  C   LIG d   1      13.583  73.373 115.299  0.00  0.00     0.006 C 
ENDBRANCH   8   9
BRANCH   8  11
ATOM     11  C   LIG d   1      11.396  72.543 113.929  0.00  0.00     0.028 C 
ATOM     12  C   LIG d   1      10.419  71.430 114.339  0.00  0.00     0.006 C 
ENDBRANCH   8  11
ENDBRANCH   7   8
ENDBRANCH   1   7
BRANCH   6  13
ATOM     13  N   LIG d   1      13.757  76.800 114.094  0.00  0.00    -0.311 N 
ATOM     14  C   LIG d   1      14.771  76.797 113.230  0.00  0.00     0.210 C 
ATOM     15  C   LIG d   1      16.104  76.302 113.800  0.00  0.00     0.109 C 
ATOM     16  O   LIG d   1      14.701  77.188 112.055  0.00  0.00    -0.276 OA
ATOM     17  H   LIG d   1      13.910  76.497 115.035  0.00  0.00     0.149 HD
ENDBRANCH   6  13
BRANCH   5  18
ATOM     18  N   LIG d   1      12.956  79.643 113.311  0.00  0.00     0.381 N 
ATOM     19  H   LIG d   1      12.642  79.680 112.362  0.00  0.00    -0.090 HD
ATOM     20  H   LIG d   1      13.903  79.305 113.317  0.00  0.00    -0.090 HD
ATOM     21  H   LIG d   1      12.918  80.552 113.718  0.00  0.00    -0.090 HD
ENDBRANCH   5  18
BRANCH   3  22
ATOM     22  C   LIG d   1       8.486  78.603 114.679  0.00  0.00     0.382 C 
ATOM     23  O   LIG d   1       8.367  79.680 115.311  0.00  0.00    -0.241 OA
ATOM     24  O   LIG d   1       7.469  77.938 114.404  0.00  0.00    -0.241 OA
ENDBRANCH   3  22
TORSDOF 7
ENDMDL
MODEL 7
REMARK VINA RESULT:      -4.7     14.655     18.083
REMARK  7 active torsions:
REMARK  status: ('A' for Active; 'I' for Inactive)
REMARK    1  A    between atoms: C_2  and  C_3 
REMARK    2  A    between atoms: C_3  and  O_6 
REMARK    3  A    between atoms: C_3  and  C_4 
REMARK    4  A    between atoms: C_7  and  O_6 
REMARK    5  A    between atoms: C_9  and  C_10 
REMARK    6  A    between atoms: N_15  and  C_14 
REMARK    7  A    between atoms: N_20  and  C_19 
REMARK       I    between atoms: C_22  and  N_20 
ROOT
ATOM      1  C   LIG d   1      11.565  78.426 114.307  0.00  0.00     0.161 C 
ATOM      2  C   LIG d   1      10.203  78.122 114.145  0.00  0.00     0.016 C 
ATOM      3  C   LIG d   1       9.163  78.852 114.766  0.00  0.00     0.038 C 
ATOM      4  C   LIG d   1       9.410  80.037 115.475  0.00  0.00     0.028 C 
ATOM      5  C   LIG d   1      10.807  80.098 116.084  0.00  0.00    -0.047 C 
ATOM      6  C   LIG d   1      11.848  79.782 114.986  0.00  0.00     0.091 C 
ENDROOT
BRANCH   1   7
ATOM      7  O   LIG d   1      12.236  78.354 113.033  0.00  0.00    -0.368 OA
BRANCH   7   8
ATOM      8  C   LIG d   1      13.054  77.180 112.809  0.00  0.00     0.119 C 
BRANCH   8   9
ATOM      9  C   LIG d   1      13.328  76.538 114.183  0.00  0.00     0.028 C 
ATOM     10  C   LIG d   1      12.844  75.081 114.258  0.00  0.00     0.006 C 
ENDBRANCH   8   9
BRANCH   8  11
ATOM     11  C   LIG d   1      14.432  77.557 112.256  0.00  0.00     0.028 C 
ATOM     12  C   LIG d   1      15.570  77.278 113.250  0.00  0.00     0.006 C 
ENDBRANCH   8  11
ENDBRANCH   7   8
ENDBRANCH   1   7
BRANCH   6  13
ATOM     13  N   LIG d   1      13.236  79.738 115.517  0.00  0.00    -0.311 N 
ATOM     14  C   LIG d   1      14.264  80.351 114.932  0.00  0.00     0.210 C 
ATOM     15  C   LIG d   1      15.613  80.161 115.633  0.00  0.00     0.109 C 
ATOM     16  O   LIG d   1      14.181  81.060 113.918  0.00  0.00    -0.276 OA
ATOM     17  H   LIG d   1      13.387  79.211 116.354  0.00  0.00     0.149 HD
ENDBRANCH   6  13
BRANCH   5  18
ATOM     18  N   LIG d   1      10.977  81.439 116.674  0.00  0.00     0.381 N 
ATOM     19  H   LIG d   1      11.542  81.378 117.498  0.00  0.00    -0.090 HD
ATOM     20  H   LIG d   1      10.075  81.796 116.936  0.00  0.00    -0.090 HD
ATOM     21  H   LIG d   1      11.406  82.050 116.014  0.00  0.00    -0.090 HD
ENDBRANCH   5  18
BRANCH   3  22
ATOM     22  C   LIG d   1       7.862  78.375 114.714  0.00  0.00     0.382 C 
ATOM     23  O   LIG d   1       7.587  77.251 115.200  0.00  0.00    -0.241 OA
ATOM     24  O   LIG d   1       6.970  79.034 114.148  0.00  0.00    -0.241 OA
ENDBRANCH   3  22
TORSDOF 7
ENDMDL
MODEL 8
REMARK VINA RESULT:      -4.7     12.286     14.466
REMARK  7 active torsions:
REMARK  status: ('A' for Active; 'I' for Inactive)
REMARK    1  A    between atoms: C_2  and  C_3 
REMARK    2  A    between atoms: C_3  and  O_6 
REMARK    3  A    between atoms: C_3  and  C_4 
REMARK    4  A    between atoms: C_7  and  O_6 
REMARK    5  A    between atoms: C_9  and  C_10 
REMARK    6  A    between atoms: N_15  and  C_14 
REMARK    7  A    between atoms: N_20  and  C_19 
REMARK       I    between atoms: C_22  and  N_20 
ROOT
ATOM      1  C   LIG d   1       3.868  87.986 115.544  0.00  0.00     0.161 C 
ATOM      2  C   LIG d   1       2.896  87.522 114.642  0.00  0.00     0.016 C 
ATOM      3  C   LIG d   1       2.933  87.788 113.254  0.00  0.00     0.038 C 
ATOM      4  C   LIG d   1       4.033  88.413 112.648  0.00  0.00     0.028 C 
ATOM      5  C   LIG d   1       4.795  89.342 113.587  0.00  0.00    -0.047 C 
ATOM      6  C   LIG d   1       5.133  88.575 114.886  0.00  0.00     0.091 C 
ENDROOT
BRANCH   1   7
ATOM      7  O   LIG d   1       4.225  86.934 116.462  0.00  0.00    -0.368 OA
BRANCH   7   8
ATOM      8  C   LIG d   1       3.375  85.760 116.447  0.00  0.00     0.119 C 
BRANCH   8   9
ATOM      9  C   LIG d   1       3.078  85.385 117.912  0.00  0.00     0.028 C 
ATOM     10  C   LIG d   1       1.857  86.134 118.473  0.00  0.00     0.006 C 
ENDBRANCH   8   9
BRANCH   8  11
ATOM     11  C   LIG d   1       4.107  84.550 115.860  0.00  0.00     0.028 C 
ATOM     12  C   LIG d   1       3.436  84.008 114.587  0.00  0.00     0.006 C 
ENDBRANCH   8  11
ENDBRANCH   7   8
ENDBRANCH   1   7
BRANCH   6  13
ATOM     13  N   LIG d   1       5.806  89.435 115.894  0.00  0.00    -0.311 N 
ATOM     14  C   LIG d   1       5.239  90.514 116.432  0.00  0.00     0.210 C 
ATOM     15  C   LIG d   1       6.113  91.271 117.436  0.00  0.00     0.109 C 
ATOM     16  O   LIG d   1       4.083  90.897 116.197  0.00  0.00    -0.276 OA
ATOM     17  H   LIG d   1       6.735  89.179 116.165  0.00  0.00     0.149 HD
ENDBRANCH   6  13
BRANCH   5  18
ATOM     18  N   LIG d   1       5.992  89.818 112.868  0.00  0.00     0.381 N 
ATOM     19  H   LIG d   1       5.872  89.686 111.884  0.00  0.00    -0.090 HD
ATOM     20  H   LIG d   1       6.786  89.277 113.164  0.00  0.00    -0.090 HD
ATOM     21  H   LIG d   1       6.147  90.782 113.065  0.00  0.00    -0.090 HD
ENDBRANCH   5  18
BRANCH   3  22
ATOM     22  C   LIG d   1       1.842  87.462 112.462  0.00  0.00     0.382 C 
ATOM     23  O   LIG d   1       1.654  86.272 112.113  0.00  0.00    -0.241 OA
ATOM     24  O   LIG d   1       1.069  88.350 112.057  0.00  0.00    -0.241 OA
ENDBRANCH   3  22
TORSDOF 7
ENDMDL
MODEL 9
REMARK VINA RESULT:      -4.7     11.086     14.025
REMARK  7 active torsions:
REMARK  status: ('A' for Active; 'I' for Inactive)
REMARK    1  A    between atoms: C_2  and  C_3 
REMARK    2  A    between atoms: C_3  and  O_6 
REMARK    3  A    between atoms: C_3  and  C_4 
REMARK    4  A    between atoms: C_7  and  O_6 
REMARK    5  A    between atoms: C_9  and  C_10 
REMARK    6  A    between atoms: N_15  and  C_14 
REMARK    7  A    between atoms: N_20  and  C_19 
REMARK       I    between atoms: C_22  and  N_20 
ROOT
ATOM      1  C   LIG d   1       3.507  86.818 115.792  0.00  0.00     0.161 C 
ATOM      2  C   LIG d   1       4.016  87.898 115.053  0.00  0.00     0.016 C 
ATOM      3  C   LIG d   1       3.806  88.058 113.664  0.00  0.00     0.038 C 
ATOM      4  C   LIG d   1       2.939  87.223 112.944  0.00  0.00     0.028 C 
ATOM      5  C   LIG d   1       2.807  85.827 113.543  0.00  0.00    -0.047 C 
ATOM      6  C   LIG d   1       2.467  85.956 115.046  0.00  0.00     0.091 C 
ENDROOT
BRANCH   1   7
ATOM      7  O   LIG d   1       2.962  87.292 117.039  0.00  0.00    -0.368 OA
BRANCH   7   8
ATOM      8  C   LIG d   1       1.927  88.302 116.939  0.00  0.00     0.119 C 
BRANCH   8   9
ATOM      9  C   LIG d   1       2.399  89.529 117.742  0.00  0.00     0.028 C 
ATOM     10  C   LIG d   1       1.794  90.842 117.217  0.00  0.00     0.006 C 
ENDBRANCH   8   9
BRANCH   8  11
ATOM     11  C   LIG d   1       0.634  87.844 117.620  0.00  0.00     0.028 C 
ATOM     12  C   LIG d   1       0.826  86.580 118.474  0.00  0.00     0.006 C 
ENDBRANCH   8  11
ENDBRANCH   7   8
ENDBRANCH   1   7
BRANCH   6  13
ATOM     13  N   LIG d   1       2.403  84.637 115.728  0.00  0.00    -0.311 N 
ATOM     14  C   LIG d   1       3.394  83.748 115.700  0.00  0.00     0.210 C 
ATOM     15  C   LIG d   1       3.114  82.443 116.452  0.00  0.00     0.109 C 
ATOM     16  O   LIG d   1       4.492  83.929 115.151  0.00  0.00    -0.276 OA
ATOM     17  H   LIG d   1       1.560  84.421 116.224  0.00  0.00     0.149 HD
ENDBRANCH   6  13
BRANCH   5  18
ATOM     18  N   LIG d   1       1.772  85.108 112.776  0.00  0.00     0.381 N 
ATOM     19  H   LIG d   1       2.122  84.880 111.867  0.00  0.00    -0.090 HD
ATOM     20  H   LIG d   1       0.974  85.709 112.665  0.00  0.00    -0.090 HD
ATOM     21  H   LIG d   1       1.507  84.277 113.257  0.00  0.00    -0.090 HD
ENDBRANCH   5  18
BRANCH   3  22
ATOM     22  C   LIG d   1       4.499  89.041 112.973  0.00  0.00     0.382 C 
ATOM     23  O   LIG d   1       4.086  90.226 112.987  0.00  0.00    -0.241 OA
ATOM     24  O   LIG d   1       5.505  88.749 112.299  0.00  0.00    -0.241 OA
ENDBRANCH   3  22
TORSDOF 7
ENDMDL
