MODEL 1
REMARK VINA RESULT:      -5.7      0.000      0.000
REMARK  7 active torsions:
REMARK  status: ('A' for Active; 'I' for Inactive)
REMARK    1  A    between atoms: C_2  and  C_3 
REMARK    2  A    between atoms: C_3  and  O_6 
REMARK    3  A    between atoms: C_3  and  C_4 
REMARK    4  A    between atoms: C_7  and  O_6 
REMARK    5  A    between atoms: C_9  and  C_10 
REMARK    6  A    between atoms: N_15  and  C_14 
REMARK    7  A    between atoms: N_20  and  C_19 
REMARK       I    between atoms: C_22  and  N_20 
ROOT
ATOM      1  C   LIG d   1      -3.051  77.568 115.549  0.00  0.00     0.161 C 
ATOM      2  C   LIG d   1      -3.183  78.551 114.554  0.00  0.00     0.016 C 
ATOM      3  C   LIG d   1      -2.164  78.860 113.624  0.00  0.00     0.038 C 
ATOM      4  C   LIG d   1      -0.991  78.097 113.530  0.00  0.00     0.028 C 
ATOM      5  C   LIG d   1      -0.600  77.422 114.840  0.00  0.00    -0.047 C 
ATOM      6  C   LIG d   1      -1.821  76.650 115.390  0.00  0.00     0.091 C 
ENDROOT
BRANCH   1   7
ATOM      7  O   LIG d   1      -4.257  76.782 115.623  0.00  0.00    -0.368 OA
BRANCH   7   8
ATOM      8  C   LIG d   1      -5.119  77.043 116.757  0.00  0.00     0.119 C 
BRANCH   8   9
ATOM      9  C   LIG d   1      -6.575  76.987 116.255  0.00  0.00     0.028 C 
ATOM     10  C   LIG d   1      -6.796  75.871 115.220  0.00  0.00     0.006 C 
ENDBRANCH   8   9
BRANCH   8  11
ATOM     11  C   LIG d   1      -4.927  78.467 117.287  0.00  0.00     0.028 C 
ATOM     12  C   LIG d   1      -6.230  79.283 117.289  0.00  0.00     0.006 C 
ENDBRANCH   8  11
ENDBRANCH   7   8
ENDBRANCH   1   7
BRANCH   6  13
ATOM     13  N   LIG d   1      -1.550  76.029 116.713  0.00  0.00    -0.311 N 
ATOM     14  C   LIG d   1      -1.135  74.772 116.862  0.00  0.00     0.210 C 
ATOM     15  C   LIG d   1      -0.935  74.324 118.313  0.00  0.00     0.109 C 
ATOM     16  O   LIG d   1      -0.882  73.996 115.928  0.00  0.00    -0.276 OA
ATOM     17  H   LIG d   1      -1.699  76.598 117.523  0.00  0.00     0.149 HD
ENDBRANCH   6  13
BRANCH   5  18
ATOM     18  N   LIG d   1       0.559  76.551 114.565  0.00  0.00     0.381 N 
ATOM     19  H   LIG d   1       1.196  77.020 113.953  0.00  0.00    -0.090 HD
ATOM     20  H   LIG d   1       0.237  75.717 114.107  0.00  0.00    -0.090 HD
ATOM     21  H   LIG d   1       1.018  76.315 115.417  0.00  0.00    -0.090 HD
ENDBRANCH   5  18
BRANCH   3  22
ATOM     22  C   LIG d   1      -2.296  79.969 112.802  0.00  0.00     0.382 C 
ATOM     23  O   LIG d   1      -3.379  80.603 112.775  0.00  0.00    -0.241 OA
ATOM     24  O   LIG d   1      -1.362  80.316 112.055  0.00  0.00    -0.241 OA
ENDBRANCH   3  22
TORSDOF 7
ENDMDL
MODEL 2
REMARK VINA RESULT:      -5.5      3.643      6.018
REMARK  7 active torsions:
REMARK  status: ('A' for Active; 'I' for Inactive)
REMARK    1  A    between atoms: C_2  and  C_3 
REMARK    2  A    between atoms: C_3  and  O_6 
REMARK    3  A    between atoms: C_3  and  C_4 
REMARK    4  A    between atoms: C_7  and  O_6 
REMARK    5  A    between atoms: C_9  and  C_10 
REMARK    6  A    between atoms: N_15  and  C_14 
REMARK    7  A    between atoms: N_20  and  C_19 
REMARK       I    between atoms: C_22  and  N_20 
ROOT
ATOM      1  C   LIG d   1      -7.128  77.682 117.293  0.00  0.00     0.161 C 
ATOM      2  C   LIG d   1      -6.737  76.790 116.281  0.00  0.00     0.016 C 
ATOM      3  C   LIG d   1      -5.390  76.577 115.909  0.00  0.00     0.038 C 
ATOM      4  C   LIG d   1      -4.324  77.132 116.633  0.00  0.00     0.028 C 
ATOM      5  C   LIG d   1      -4.686  78.433 117.341  0.00  0.00    -0.047 C 
ATOM      6  C   LIG d   1      -5.973  78.213 118.168  0.00  0.00     0.091 C 
ENDROOT
BRANCH   1   7
ATOM      7  O   LIG d   1      -8.141  77.073 118.117  0.00  0.00    -0.368 OA
BRANCH   7   8
ATOM      8  C   LIG d   1      -9.513  77.409 117.794  0.00  0.00     0.119 C 
BRANCH   8   9
ATOM      9  C   LIG d   1     -10.137  78.061 119.043  0.00  0.00     0.028 C 
ATOM     10  C   LIG d   1      -9.282  77.849 120.304  0.00  0.00     0.006 C 
ENDBRANCH   8   9
BRANCH   8  11
ATOM     11  C   LIG d   1     -10.348  76.152 117.533  0.00  0.00     0.028 C 
ATOM     12  C   LIG d   1      -9.571  74.854 117.804  0.00  0.00     0.006 C 
ENDBRANCH   8  11
ENDBRANCH   7   8
ENDBRANCH   1   7
BRANCH   6  13
ATOM     13  N   LIG d   1      -6.444  79.460 118.826  0.00  0.00    -0.311 N 
ATOM     14  C   LIG d   1      -6.903  80.515 118.155  0.00  0.00     0.210 C 
ATOM     15  C   LIG d   1      -7.318  81.705 119.026  0.00  0.00     0.109 C 
ATOM     16  O   LIG d   1      -7.035  80.567 116.923  0.00  0.00    -0.276 OA
ATOM     17  H   LIG d   1      -6.401  79.492 119.826  0.00  0.00     0.149 HD
ENDBRANCH   6  13
BRANCH   5  18
ATOM     18  N   LIG d   1      -3.529  78.828 118.166  0.00  0.00     0.381 N 
ATOM     19  H   LIG d   1      -3.573  79.808 118.365  0.00  0.00    -0.090 HD
ATOM     20  H   LIG d   1      -2.685  78.649 117.650  0.00  0.00    -0.090 HD
ATOM     21  H   LIG d   1      -3.523  78.309 119.017  0.00  0.00    -0.090 HD
ENDBRANCH   5  18
BRANCH   3  22
ATOM     22  C   LIG d   1      -5.099  75.831 114.777  0.00  0.00     0.382 C 
ATOM     23  O   LIG d   1      -4.244  76.244 113.957  0.00  0.00    -0.241 OA
ATOM     24  O   LIG d   1      -5.713  74.773 114.543  0.00  0.00    -0.241 OA
ENDBRANCH   3  22
TORSDOF 7
ENDMDL
MODEL 3
REMARK VINA RESULT:      -5.5      0.875      1.819
REMARK  7 active torsions:
REMARK  status: ('A' for Active; 'I' for Inactive)
REMARK    1  A    between atoms: C_2  and  C_3 
REMARK    2  A    between atoms: C_3  and  O_6 
REMARK    3  A    between atoms: C_3  and  C_4 
REMARK    4  A    between atoms: C_7  and  O_6 
REMARK    5  A    between atoms: C_9  and  C_10 
REMARK    6  A    between atoms: N_15  and  C_14 
REMARK    7  A    between atoms: N_20  and  C_19 
REMARK       I    between atoms: C_22  and  N_20 
ROOT
ATOM      1  C   LIG d   1      -2.526  77.707 116.162  0.00  0.00     0.161 C 
ATOM      2  C   LIG d   1      -2.863  78.523 115.070  0.00  0.00     0.016 C 
ATOM      3  C   LIG d   1      -2.098  78.589 113.883  0.00  0.00     0.038 C 
ATOM      4  C   LIG d   1      -1.019  77.724 113.647  0.00  0.00     0.028 C 
ATOM      5  C   LIG d   1      -0.341  77.240 114.924  0.00  0.00    -0.047 C 
ATOM      6  C   LIG d   1      -1.416  76.674 115.880  0.00  0.00     0.091 C 
ENDROOT
BRANCH   1   7
ATOM      7  O   LIG d   1      -3.707  77.049 116.663  0.00  0.00    -0.368 OA
BRANCH   7   8
ATOM      8  C   LIG d   1      -4.793  76.882 115.718  0.00  0.00     0.119 C 
BRANCH   8   9
ATOM      9  C   LIG d   1      -6.097  77.274 116.438  0.00  0.00     0.028 C 
ATOM     10  C   LIG d   1      -5.848  77.786 117.867  0.00  0.00     0.006 C 
ENDBRANCH   8   9
BRANCH   8  11
ATOM     11  C   LIG d   1      -4.971  75.411 115.329  0.00  0.00     0.028 C 
ATOM     12  C   LIG d   1      -6.442  75.030 115.098  0.00  0.00     0.006 C 
ENDBRANCH   8  11
ENDBRANCH   7   8
ENDBRANCH   1   7
BRANCH   6  13
ATOM     13  N   LIG d   1      -0.847  76.255 117.188  0.00  0.00    -0.311 N 
ATOM     14  C   LIG d   1      -0.729  74.982 117.562  0.00  0.00     0.210 C 
ATOM     15  C   LIG d   1      -0.135  74.771 118.958  0.00  0.00     0.109 C 
ATOM     16  O   LIG d   1      -1.029  74.007 116.857  0.00  0.00    -0.276 OA
ATOM     17  H   LIG d   1      -0.550  76.981 117.809  0.00  0.00     0.149 HD
ENDBRANCH   6  13
BRANCH   5  18
ATOM     18  N   LIG d   1       0.674  76.241 114.538  0.00  0.00     0.381 N 
ATOM     19  H   LIG d   1       0.260  75.549 113.945  0.00  0.00    -0.090 HD
ATOM     20  H   LIG d   1       1.012  75.784 115.367  0.00  0.00    -0.090 HD
ATOM     21  H   LIG d   1       1.429  76.686 114.065  0.00  0.00    -0.090 HD
ENDBRANCH   5  18
BRANCH   3  22
ATOM     22  C   LIG d   1      -2.386  79.557 112.933  0.00  0.00     0.382 C 
ATOM     23  O   LIG d   1      -1.537  79.846 112.055  0.00  0.00    -0.241 OA
ATOM     24  O   LIG d   1      -3.466  80.176 112.968  0.00  0.00    -0.241 OA
ENDBRANCH   3  22
TORSDOF 7
ENDMDL
MODEL 4
REMARK VINA RESULT:      -5.2      2.777      4.803
REMARK  7 active torsions:
REMARK  status: ('A' for Active; 'I' for Inactive)
REMARK    1  A    between atoms: C_2  and  C_3 
REMARK    2  A    between atoms: C_3  and  O_6 
REMARK    3  A    between atoms: C_3  and  C_4 
REMARK    4  A    between atoms: C_7  and  O_6 
REMARK    5  A    between atoms: C_9  and  C_10 
REMARK    6  A    between atoms: N_15  and  C_14 
REMARK    7  A    between atoms: N_20  and  C_19 
REMARK       I    between atoms: C_22  and  N_20 
ROOT
ATOM      1  C   LIG d   1      -2.764  77.084 117.231  0.00  0.00     0.161 C 
ATOM      2  C   LIG d   1      -3.767  76.338 116.592  0.00  0.00     0.016 C 
ATOM      3  C   LIG d   1      -4.016  76.399 115.202  0.00  0.00     0.038 C 
ATOM      4  C   LIG d   1      -3.174  77.103 114.328  0.00  0.00     0.028 C 
ATOM      5  C   LIG d   1      -2.455  78.273 114.991  0.00  0.00    -0.047 C 
ATOM      6  C   LIG d   1      -1.763  77.773 116.279  0.00  0.00     0.091 C 
ENDROOT
BRANCH   1   7
ATOM      7  O   LIG d   1      -2.063  76.253 118.178  0.00  0.00    -0.368 OA
BRANCH   7   8
ATOM      8  C   LIG d   1      -2.018  74.837 117.870  0.00  0.00     0.119 C 
BRANCH   8   9
ATOM      9  C   LIG d   1      -2.194  74.070 119.195  0.00  0.00     0.028 C 
ATOM     10  C   LIG d   1      -0.849  73.688 119.835  0.00  0.00     0.006 C 
ENDBRANCH   8   9
BRANCH   8  11
ATOM     11  C   LIG d   1      -0.640  74.425 117.343  0.00  0.00     0.028 C 
ATOM     12  C   LIG d   1      -0.584  74.360 115.809  0.00  0.00     0.006 C 
ENDBRANCH   8  11
ENDBRANCH   7   8
ENDBRANCH   1   7
BRANCH   6  13
ATOM     13  N   LIG d   1      -1.107  78.872 117.034  0.00  0.00    -0.311 N 
ATOM     14  C   LIG d   1       0.171  78.843 117.408  0.00  0.00     0.210 C 
ATOM     15  C   LIG d   1       0.642  80.070 118.195  0.00  0.00     0.109 C 
ATOM     16  O   LIG d   1       0.967  77.932 117.136  0.00  0.00    -0.276 OA
ATOM     17  H   LIG d   1      -1.672  79.664 117.270  0.00  0.00     0.149 HD
ENDBRANCH   6  13
BRANCH   5  18
ATOM     18  N   LIG d   1      -1.510  78.831 114.006  0.00  0.00     0.381 N 
ATOM     19  H   LIG d   1      -1.950  78.892 113.110  0.00  0.00    -0.090 HD
ATOM     20  H   LIG d   1      -0.720  78.214 113.928  0.00  0.00    -0.090 HD
ATOM     21  H   LIG d   1      -1.207  79.734 114.297  0.00  0.00    -0.090 HD
ENDBRANCH   5  18
BRANCH   3  22
ATOM     22  C   LIG d   1      -5.143  75.784 114.678  0.00  0.00     0.382 C 
ATOM     23  O   LIG d   1      -5.645  76.202 113.607  0.00  0.00    -0.241 OA
ATOM     24  O   LIG d   1      -5.689  74.844 115.285  0.00  0.00    -0.241 OA
ENDBRANCH   3  22
TORSDOF 7
ENDMDL
MODEL 5
REMARK VINA RESULT:      -5.2     14.457     16.837
REMARK  7 active torsions:
REMARK  status: ('A' for Active; 'I' for Inactive)
REMARK    1  A    between atoms: C_2  and  C_3 
REMARK    2  A    between atoms: C_3  and  O_6 
REMARK    3  A    between atoms: C_3  and  C_4 
REMARK    4  A    between atoms: C_7  and  O_6 
REMARK    5  A    between atoms: C_9  and  C_10 
REMARK    6  A    between atoms: N_15  and  C_14 
REMARK    7  A    between atoms: N_20  and  C_19 
REMARK       I    between atoms: C_22  and  N_20 
ROOT
ATOM      1  C   LIG d   1      -5.355  92.123 119.450  0.00  0.00     0.161 C 
ATOM      2  C   LIG d   1      -4.524  91.220 118.766  0.00  0.00     0.016 C 
ATOM      3  C   LIG d   1      -4.733  90.836 117.422  0.00  0.00     0.038 C 
ATOM      4  C   LIG d   1      -5.707  91.448 116.618  0.00  0.00     0.028 C 
ATOM      5  C   LIG d   1      -6.889  91.996 117.411  0.00  0.00    -0.047 C 
ATOM      6  C   LIG d   1      -6.356  92.885 118.557  0.00  0.00     0.091 C 
ENDROOT
BRANCH   1   7
ATOM      7  O   LIG d   1      -4.551  93.050 120.207  0.00  0.00    -0.368 OA
BRANCH   7   8
ATOM      8  C   LIG d   1      -4.091  94.224 119.493  0.00  0.00     0.119 C 
BRANCH   8   9
ATOM      9  C   LIG d   1      -2.550  94.186 119.484  0.00  0.00     0.028 C 
ATOM     10  C   LIG d   1      -1.979  93.852 118.096  0.00  0.00     0.006 C 
ENDBRANCH   8   9
BRANCH   8  11
ATOM     11  C   LIG d   1      -4.461  95.509 120.238  0.00  0.00     0.028 C 
ATOM     12  C   LIG d   1      -3.577  96.703 119.843  0.00  0.00     0.006 C 
ENDBRANCH   8  11
ENDBRANCH   7   8
ENDBRANCH   1   7
BRANCH   6  13
ATOM     13  N   LIG d   1      -7.443  93.393 119.433  0.00  0.00    -0.311 N 
ATOM     14  C   LIG d   1      -8.046  94.567 119.248  0.00  0.00     0.210 C 
ATOM     15  C   LIG d   1      -9.128  94.908 120.278  0.00  0.00     0.109 C 
ATOM     16  O   LIG d   1      -7.810  95.343 118.310  0.00  0.00    -0.276 OA
ATOM     17  H   LIG d   1      -7.720  92.813 120.201  0.00  0.00     0.149 HD
ENDBRANCH   6  13
BRANCH   5  18
ATOM     18  N   LIG d   1      -7.757  92.726 116.468  0.00  0.00     0.381 N 
ATOM     19  H   LIG d   1      -7.931  92.161 115.661  0.00  0.00    -0.090 HD
ATOM     20  H   LIG d   1      -7.285  93.562 116.173  0.00  0.00    -0.090 HD
ATOM     21  H   LIG d   1      -8.619  92.961 116.911  0.00  0.00    -0.090 HD
ENDBRANCH   5  18
BRANCH   3  22
ATOM     22  C   LIG d   1      -3.988  89.799 116.879  0.00  0.00     0.382 C 
ATOM     23  O   LIG d   1      -2.773  89.684 117.167  0.00  0.00    -0.241 OA
ATOM     24  O   LIG d   1      -4.506  89.005 116.071  0.00  0.00    -0.241 OA
ENDBRANCH   3  22
TORSDOF 7
ENDMDL
MODEL 6
REMARK VINA RESULT:      -5.1     16.378     18.677
REMARK  7 active torsions:
REMARK  status: ('A' for Active; 'I' for Inactive)
REMARK    1  A    between atoms: C_2  and  C_3 
REMARK    2  A    between atoms: C_3  and  O_6 
REMARK    3  A    between atoms: C_3  and  C_4 
REMARK    4  A    between atoms: C_7  and  O_6 
REMARK    5  A    between atoms: C_9  and  C_10 
REMARK    6  A    between atoms: N_15  and  C_14 
REMARK    7  A    between atoms: N_20  and  C_19 
REMARK       I    between atoms: C_22  and  N_20 
ROOT
ATOM      1  C   LIG d   1     -16.618  65.096 117.221  0.00  0.00     0.161 C 
ATOM      2  C   LIG d   1     -16.702  66.497 117.177  0.00  0.00     0.016 C 
ATOM      3  C   LIG d   1     -15.955  67.349 118.023  0.00  0.00     0.038 C 
ATOM      4  C   LIG d   1     -14.955  66.856 118.875  0.00  0.00     0.028 C 
ATOM      5  C   LIG d   1     -15.191  65.415 119.316  0.00  0.00    -0.047 C 
ATOM      6  C   LIG d   1     -15.451  64.544 118.067  0.00  0.00     0.091 C 
ENDROOT
BRANCH   1   7
ATOM      7  O   LIG d   1     -16.560  64.567 115.882  0.00  0.00    -0.368 OA
BRANCH   7   8
ATOM      8  C   LIG d   1     -17.830  64.214 115.280  0.00  0.00     0.119 C 
BRANCH   8   9
ATOM      9  C   LIG d   1     -18.404  63.025 116.074  0.00  0.00     0.028 C 
ATOM     10  C   LIG d   1     -17.725  61.694 115.711  0.00  0.00     0.006 C 
ENDBRANCH   8   9
BRANCH   8  11
ATOM     11  C   LIG d   1     -17.645  63.695 113.851  0.00  0.00     0.028 C 
ATOM     12  C   LIG d   1     -17.610  64.823 112.807  0.00  0.00     0.006 C 
ENDBRANCH   8  11
ENDBRANCH   7   8
ENDBRANCH   1   7
BRANCH   6  13
ATOM     13  N   LIG d   1     -15.774  63.136 118.415  0.00  0.00    -0.311 N 
ATOM     14  C   LIG d   1     -14.872  62.156 118.420  0.00  0.00     0.210 C 
ATOM     15  C   LIG d   1     -15.420  60.774 118.789  0.00  0.00     0.109 C 
ATOM     16  O   LIG d   1     -13.664  62.306 118.185  0.00  0.00    -0.276 OA
ATOM     17  H   LIG d   1     -16.726  62.931 118.649  0.00  0.00     0.149 HD
ENDBRANCH   6  13
BRANCH   5  18
ATOM     18  N   LIG d   1     -14.008  64.986 120.085  0.00  0.00     0.381 N 
ATOM     19  H   LIG d   1     -14.240  64.194 120.650  0.00  0.00    -0.090 HD
ATOM     20  H   LIG d   1     -13.725  65.735 120.692  0.00  0.00    -0.090 HD
ATOM     21  H   LIG d   1     -13.264  64.753 119.464  0.00  0.00    -0.090 HD
ENDBRANCH   5  18
BRANCH   3  22
ATOM     22  C   LIG d   1     -16.235  68.706 118.052  0.00  0.00     0.382 C 
ATOM     23  O   LIG d   1     -15.838  69.448 117.121  0.00  0.00    -0.241 OA
ATOM     24  O   LIG d   1     -16.840  69.206 119.019  0.00  0.00    -0.241 OA
ENDBRANCH   3  22
TORSDOF 7
ENDMDL
MODEL 7
REMARK VINA RESULT:      -5.0     12.303     14.373
REMARK  7 active torsions:
REMARK  status: ('A' for Active; 'I' for Inactive)
REMARK    1  A    between atoms: C_2  and  C_3 
REMARK    2  A    between atoms: C_3  and  O_6 
REMARK    3  A    between atoms: C_3  and  C_4 
REMARK    4  A    between atoms: C_7  and  O_6 
REMARK    5  A    between atoms: C_9  and  C_10 
REMARK    6  A    between atoms: N_15  and  C_14 
REMARK    7  A    between atoms: N_20  and  C_19 
REMARK       I    between atoms: C_22  and  N_20 
ROOT
ATOM      1  C   LIG d   1      11.760  78.371 115.898  0.00  0.00     0.161 C 
ATOM      2  C   LIG d   1      12.082  79.733 115.784  0.00  0.00     0.016 C 
ATOM      3  C   LIG d   1      12.694  80.295 114.639  0.00  0.00     0.038 C 
ATOM      4  C   LIG d   1      12.889  79.554 113.464  0.00  0.00     0.028 C 
ATOM      5  C   LIG d   1      13.042  78.057 113.710  0.00  0.00    -0.047 C 
ATOM      6  C   LIG d   1      11.864  77.569 114.584  0.00  0.00     0.091 C 
ENDROOT
BRANCH   1   7
ATOM      7  O   LIG d   1      10.446  78.226 116.471  0.00  0.00    -0.368 OA
BRANCH   7   8
ATOM      8  C   LIG d   1       9.444  79.167 116.014  0.00  0.00     0.119 C 
BRANCH   8   9
ATOM      9  C   LIG d   1       8.682  79.672 117.255  0.00  0.00     0.028 C 
ATOM     10  C   LIG d   1       9.081  81.105 117.646  0.00  0.00     0.006 C 
ENDBRANCH   8   9
BRANCH   8  11
ATOM     11  C   LIG d   1       8.389  78.479 115.143  0.00  0.00     0.028 C 
ATOM     12  C   LIG d   1       6.984  79.074 115.326  0.00  0.00     0.006 C 
ENDBRANCH   8  11
ENDBRANCH   7   8
ENDBRANCH   1   7
BRANCH   6  13
ATOM     13  N   LIG d   1      11.981  76.131 114.942  0.00  0.00    -0.311 N 
ATOM     14  C   LIG d   1      11.074  75.216 114.608  0.00  0.00     0.210 C 
ATOM     15  C   LIG d   1      11.378  73.795 115.094  0.00  0.00     0.109 C 
ATOM     16  O   LIG d   1      10.062  75.439 113.927  0.00  0.00    -0.276 OA
ATOM     17  H   LIG d   1      12.788  75.856 115.468  0.00  0.00     0.149 HD
ENDBRANCH   6  13
BRANCH   5  18
ATOM     18  N   LIG d   1      13.100  77.392 112.395  0.00  0.00     0.381 N 
ATOM     19  H   LIG d   1      13.446  78.032 111.707  0.00  0.00    -0.090 HD
ATOM     20  H   LIG d   1      12.171  77.115 112.129  0.00  0.00    -0.090 HD
ATOM     21  H   LIG d   1      13.692  76.593 112.442  0.00  0.00    -0.090 HD
ENDBRANCH   5  18
BRANCH   3  22
ATOM     22  C   LIG d   1      13.154  81.602 114.678  0.00  0.00     0.382 C 
ATOM     23  O   LIG d   1      13.920  82.024 113.778  0.00  0.00    -0.241 OA
ATOM     24  O   LIG d   1      12.849  82.352 115.624  0.00  0.00    -0.241 OA
ENDBRANCH   3  22
TORSDOF 7
ENDMDL
MODEL 8
REMARK VINA RESULT:      -4.8      3.600      5.026
REMARK  7 active torsions:
REMARK  status: ('A' for Active; 'I' for Inactive)
REMARK    1  A    between atoms: C_2  and  C_3 
REMARK    2  A    between atoms: C_3  and  O_6 
REMARK    3  A    between atoms: C_3  and  C_4 
REMARK    4  A    between atoms: C_7  and  O_6 
REMARK    5  A    between atoms: C_9  and  C_10 
REMARK    6  A    between atoms: N_15  and  C_14 
REMARK    7  A    between atoms: N_20  and  C_19 
REMARK       I    between atoms: C_22  and  N_20 
ROOT
ATOM      1  C   LIG d   1      -6.103  78.168 117.474  0.00  0.00     0.161 C 
ATOM      2  C   LIG d   1      -6.527  77.225 116.523  0.00  0.00     0.016 C 
ATOM      3  C   LIG d   1      -5.655  76.300 115.903  0.00  0.00     0.038 C 
ATOM      4  C   LIG d   1      -4.320  76.155 116.307  0.00  0.00     0.028 C 
ATOM      5  C   LIG d   1      -3.726  77.426 116.905  0.00  0.00    -0.047 C 
ATOM      6  C   LIG d   1      -4.672  77.951 118.008  0.00  0.00     0.091 C 
ENDROOT
BRANCH   1   7
ATOM      7  O   LIG d   1      -7.044  78.217 118.566  0.00  0.00    -0.368 OA
BRANCH   7   8
ATOM      8  C   LIG d   1      -7.919  79.372 118.602  0.00  0.00     0.119 C 
BRANCH   8   9
ATOM      9  C   LIG d   1      -9.276  78.942 118.013  0.00  0.00     0.028 C 
ATOM     10  C   LIG d   1      -9.883  77.738 118.753  0.00  0.00     0.006 C 
ENDBRANCH   8   9
BRANCH   8  11
ATOM     11  C   LIG d   1      -7.411  80.485 117.681  0.00  0.00     0.028 C 
ATOM     12  C   LIG d   1      -8.516  81.472 117.274  0.00  0.00     0.006 C 
ENDBRANCH   8  11
ENDBRANCH   7   8
ENDBRANCH   1   7
BRANCH   6  13
ATOM     13  N   LIG d   1      -4.208  79.238 118.588  0.00  0.00    -0.311 N 
ATOM     14  C   LIG d   1      -3.443  79.319 119.676  0.00  0.00     0.210 C 
ATOM     15  C   LIG d   1      -3.094  80.744 120.117  0.00  0.00     0.109 C 
ATOM     16  O   LIG d   1      -2.993  78.345 120.298  0.00  0.00    -0.276 OA
ATOM     17  H   LIG d   1      -4.501  80.078 118.128  0.00  0.00     0.149 HD
ENDBRANCH   6  13
BRANCH   5  18
ATOM     18  N   LIG d   1      -2.379  77.094 117.408  0.00  0.00     0.381 N 
ATOM     19  H   LIG d   1      -1.688  77.570 116.863  0.00  0.00    -0.090 HD
ATOM     20  H   LIG d   1      -2.230  76.105 117.311  0.00  0.00    -0.090 HD
ATOM     21  H   LIG d   1      -2.298  77.358 118.365  0.00  0.00    -0.090 HD
ENDBRANCH   5  18
BRANCH   3  22
ATOM     22  C   LIG d   1      -6.109  75.536 114.839  0.00  0.00     0.382 C 
ATOM     23  O   LIG d   1      -5.965  75.950 113.663  0.00  0.00    -0.241 OA
ATOM     24  O   LIG d   1      -6.700  74.458 115.042  0.00  0.00    -0.241 OA
ENDBRANCH   3  22
TORSDOF 7
ENDMDL
MODEL 9
REMARK VINA RESULT:      -4.8     14.017     16.004
REMARK  7 active torsions:
REMARK  status: ('A' for Active; 'I' for Inactive)
REMARK    1  A    between atoms: C_2  and  C_3 
REMARK    2  A    between atoms: C_3  and  O_6 
REMARK    3  A    between atoms: C_3  and  C_4 
REMARK    4  A    between atoms: C_7  and  O_6 
REMARK    5  A    between atoms: C_9  and  C_10 
REMARK    6  A    between atoms: N_15  and  C_14 
REMARK    7  A    between atoms: N_20  and  C_19 
REMARK       I    between atoms: C_22  and  N_20 
ROOT
ATOM      1  C   LIG d   1      -5.416  91.844 119.122  0.00  0.00     0.161 C 
ATOM      2  C   LIG d   1      -6.625  92.493 118.819  0.00  0.00     0.016 C 
ATOM      3  C   LIG d   1      -6.727  93.885 118.598  0.00  0.00     0.038 C 
ATOM      4  C   LIG d   1      -5.594  94.708 118.516  0.00  0.00     0.028 C 
ATOM      5  C   LIG d   1      -4.405  94.183 119.315  0.00  0.00    -0.047 C 
ATOM      6  C   LIG d   1      -4.152  92.708 118.928  0.00  0.00     0.091 C 
ENDROOT
BRANCH   1   7
ATOM      7  O   LIG d   1      -5.311  90.625 118.362  0.00  0.00    -0.368 OA
BRANCH   7   8
ATOM      8  C   LIG d   1      -4.786  90.755 117.018  0.00  0.00     0.119 C 
BRANCH   8   9
ATOM      9  C   LIG d   1      -5.965  90.576 116.041  0.00  0.00     0.028 C 
ATOM     10  C   LIG d   1      -6.291  91.867 115.272  0.00  0.00     0.006 C 
ENDBRANCH   8   9
BRANCH   8  11
ATOM     11  C   LIG d   1      -3.810  89.622 116.688  0.00  0.00     0.028 C 
ATOM     12  C   LIG d   1      -3.166  89.007 117.941  0.00  0.00     0.006 C 
ENDBRANCH   8  11
ENDBRANCH   7   8
ENDBRANCH   1   7
BRANCH   6  13
ATOM     13  N   LIG d   1      -3.059  92.093 119.725  0.00  0.00    -0.311 N 
ATOM     14  C   LIG d   1      -1.790  92.059 119.324  0.00  0.00     0.210 C 
ATOM     15  C   LIG d   1      -0.826  91.359 120.288  0.00  0.00     0.109 C 
ATOM     16  O   LIG d   1      -1.364  92.571 118.278  0.00  0.00    -0.276 OA
ATOM     17  H   LIG d   1      -3.311  91.681 120.602  0.00  0.00     0.149 HD
ENDBRANCH   6  13
BRANCH   5  18
ATOM     18  N   LIG d   1      -3.254  95.061 119.030  0.00  0.00     0.381 N 
ATOM     19  H   LIG d   1      -2.426  94.510 118.924  0.00  0.00    -0.090 HD
ATOM     20  H   LIG d   1      -3.121  95.685 119.807  0.00  0.00    -0.090 HD
ATOM     21  H   LIG d   1      -3.422  95.585 118.199  0.00  0.00    -0.090 HD
ENDBRANCH   5  18
BRANCH   3  22
ATOM     22  C   LIG d   1      -7.978  94.475 118.496  0.00  0.00     0.382 C 
ATOM     23  O   LIG d   1      -9.009  93.761 118.493  0.00  0.00    -0.241 OA
ATOM     24  O   LIG d   1      -8.085  95.709 118.361  0.00  0.00    -0.241 OA
ENDBRANCH   3  22
TORSDOF 7
ENDMDL
