MODEL 1
REMARK VINA RESULT:      -5.2      0.000      0.000
REMARK  7 active torsions:
REMARK  status: ('A' for Active; 'I' for Inactive)
REMARK    1  A    between atoms: C_2  and  C_3 
REMARK    2  A    between atoms: C_3  and  O_6 
REMARK    3  A    between atoms: C_3  and  C_4 
REMARK    4  A    between atoms: C_7  and  O_6 
REMARK    5  A    between atoms: C_9  and  C_10 
REMARK    6  A    between atoms: N_15  and  C_14 
REMARK    7  A    between atoms: N_20  and  C_19 
REMARK       I    between atoms: C_22  and  N_20 
ROOT
ATOM      1  C   LIG d   1      -2.461  75.302 116.009  0.00  0.00     0.161 C 
ATOM      2  C   LIG d   1      -2.064  74.541 117.122  0.00  0.00     0.016 C 
ATOM      3  C   LIG d   1      -0.853  74.756 117.819  0.00  0.00     0.038 C 
ATOM      4  C   LIG d   1      -0.021  75.851 117.541  0.00  0.00     0.028 C 
ATOM      5  C   LIG d   1      -0.129  76.343 116.102  0.00  0.00    -0.047 C 
ATOM      6  C   LIG d   1      -1.620  76.571 115.760  0.00  0.00     0.091 C 
ENDROOT
BRANCH   1   7
ATOM      7  O   LIG d   1      -3.857  75.640 116.121  0.00  0.00    -0.368 OA
BRANCH   7   8
ATOM      8  C   LIG d   1      -4.796  74.621 115.695  0.00  0.00     0.119 C 
BRANCH   8   9
ATOM      9  C   LIG d   1      -4.919  74.716 114.162  0.00  0.00     0.028 C 
ATOM     10  C   LIG d   1      -5.649  75.992 113.710  0.00  0.00     0.006 C 
ENDBRANCH   8   9
BRANCH   8  11
ATOM     11  C   LIG d   1      -6.203  74.900 116.233  0.00  0.00     0.028 C 
ATOM     12  C   LIG d   1      -6.825  73.682 116.933  0.00  0.00     0.006 C 
ENDBRANCH   8  11
ENDBRANCH   7   8
ENDBRANCH   1   7
BRANCH   6  13
ATOM     13  N   LIG d   1      -1.821  76.974 114.344  0.00  0.00    -0.311 N 
ATOM     14  C   LIG d   1      -2.632  77.962 113.971  0.00  0.00     0.210 C 
ATOM     15  C   LIG d   1      -2.709  78.200 112.460  0.00  0.00     0.109 C 
ATOM     16  O   LIG d   1      -3.270  78.686 114.750  0.00  0.00    -0.276 OA
ATOM     17  H   LIG d   1      -1.318  76.460 113.647  0.00  0.00     0.149 HD
ENDBRANCH   6  13
BRANCH   5  18
ATOM     18  N   LIG d   1       0.684  77.569 115.989  0.00  0.00     0.381 N 
ATOM     19  H   LIG d   1       1.020  77.837 116.892  0.00  0.00    -0.090 HD
ATOM     20  H   LIG d   1       0.106  78.311 115.634  0.00  0.00    -0.090 HD
ATOM     21  H   LIG d   1       1.452  77.413 115.373  0.00  0.00    -0.090 HD
ENDBRANCH   5  18
BRANCH   3  22
ATOM     22  C   LIG d   1      -0.444  73.845 118.781  0.00  0.00     0.382 C 
ATOM     23  O   LIG d   1      -0.260  72.643 118.469  0.00  0.00    -0.241 OA
ATOM     24  O   LIG d   1      -0.298  74.200 119.966  0.00  0.00    -0.241 OA
ENDBRANCH   3  22
TORSDOF 7
ENDMDL
MODEL 2
REMARK VINA RESULT:      -5.1      1.539      4.859
REMARK  7 active torsions:
REMARK  status: ('A' for Active; 'I' for Inactive)
REMARK    1  A    between atoms: C_2  and  C_3 
REMARK    2  A    between atoms: C_3  and  O_6 
REMARK    3  A    between atoms: C_3  and  C_4 
REMARK    4  A    between atoms: C_7  and  O_6 
REMARK    5  A    between atoms: C_9  and  C_10 
REMARK    6  A    between atoms: N_15  and  C_14 
REMARK    7  A    between atoms: N_20  and  C_19 
REMARK       I    between atoms: C_22  and  N_20 
ROOT
ATOM      1  C   LIG d   1      -2.747  76.597 116.929  0.00  0.00     0.161 C 
ATOM      2  C   LIG d   1      -2.979  77.638 116.015  0.00  0.00     0.016 C 
ATOM      3  C   LIG d   1      -2.013  78.088 115.086  0.00  0.00     0.038 C 
ATOM      4  C   LIG d   1      -0.792  77.421 114.904  0.00  0.00     0.028 C 
ATOM      5  C   LIG d   1      -0.315  76.681 116.149  0.00  0.00    -0.047 C 
ATOM      6  C   LIG d   1      -1.461  75.784 116.670  0.00  0.00     0.091 C 
ENDROOT
BRANCH   1   7
ATOM      7  O   LIG d   1      -3.891  75.722 116.974  0.00  0.00    -0.368 OA
BRANCH   7   8
ATOM      8  C   LIG d   1      -5.001  76.080 116.114  0.00  0.00     0.119 C 
BRANCH   8   9
ATOM      9  C   LIG d   1      -6.298  75.858 116.916  0.00  0.00     0.028 C 
ATOM     10  C   LIG d   1      -6.766  74.393 116.881  0.00  0.00     0.006 C 
ENDBRANCH   8   9
BRANCH   8  11
ATOM     11  C   LIG d   1      -5.101  75.136 114.912  0.00  0.00     0.028 C 
ATOM     12  C   LIG d   1      -5.375  75.878 113.594  0.00  0.00     0.006 C 
ENDBRANCH   8  11
ENDBRANCH   7   8
ENDBRANCH   1   7
BRANCH   6  13
ATOM     13  N   LIG d   1      -1.106  75.088 117.934  0.00  0.00    -0.311 N 
ATOM     14  C   LIG d   1      -0.502  73.902 117.974  0.00  0.00     0.210 C 
ATOM     15  C   LIG d   1      -0.245  73.354 119.381  0.00  0.00     0.109 C 
ATOM     16  O   LIG d   1      -0.125  73.267 116.978  0.00  0.00    -0.276 OA
ATOM     17  H   LIG d   1      -1.347  75.548 118.791  0.00  0.00     0.149 HD
ENDBRANCH   6  13
BRANCH   5  18
ATOM     18  N   LIG d   1       0.893  75.919 115.779  0.00  0.00     0.381 N 
ATOM     19  H   LIG d   1       1.022  75.949 114.787  0.00  0.00    -0.090 HD
ATOM     20  H   LIG d   1       0.769  74.960 116.052  0.00  0.00    -0.090 HD
ATOM     21  H   LIG d   1       1.691  76.302 116.236  0.00  0.00    -0.090 HD
ENDBRANCH   5  18
BRANCH   3  22
ATOM     22  C   LIG d   1      -2.249  79.242 114.354  0.00  0.00     0.382 C 
ATOM     23  O   LIG d   1      -1.291  79.852 113.821  0.00  0.00    -0.241 OA
ATOM     24  O   LIG d   1      -3.401  79.704 114.257  0.00  0.00    -0.241 OA
ENDBRANCH   3  22
TORSDOF 7
ENDMDL
MODEL 3
REMARK VINA RESULT:      -5.1      4.118      6.334
REMARK  7 active torsions:
REMARK  status: ('A' for Active; 'I' for Inactive)
REMARK    1  A    between atoms: C_2  and  C_3 
REMARK    2  A    between atoms: C_3  and  O_6 
REMARK    3  A    between atoms: C_3  and  C_4 
REMARK    4  A    between atoms: C_7  and  O_6 
REMARK    5  A    between atoms: C_9  and  C_10 
REMARK    6  A    between atoms: N_15  and  C_14 
REMARK    7  A    between atoms: N_20  and  C_19 
REMARK       I    between atoms: C_22  and  N_20 
ROOT
ATOM      1  C   LIG d   1      -6.893  76.742 117.438  0.00  0.00     0.161 C 
ATOM      2  C   LIG d   1      -8.241  76.828 117.823  0.00  0.00     0.016 C 
ATOM      3  C   LIG d   1      -8.888  78.049 118.123  0.00  0.00     0.038 C 
ATOM      4  C   LIG d   1      -8.267  79.289 117.911  0.00  0.00     0.028 C 
ATOM      5  C   LIG d   1      -6.747  79.229 118.006  0.00  0.00    -0.047 C 
ATOM      6  C   LIG d   1      -6.231  78.092 117.094  0.00  0.00     0.091 C 
ENDROOT
BRANCH   1   7
ATOM      7  O   LIG d   1      -6.757  75.822 116.337  0.00  0.00    -0.368 OA
BRANCH   7   8
ATOM      8  C   LIG d   1      -6.029  74.600 116.613  0.00  0.00     0.119 C 
BRANCH   8   9
ATOM      9  C   LIG d   1      -5.275  74.210 115.327  0.00  0.00     0.028 C 
ATOM     10  C   LIG d   1      -5.177  75.375 114.328  0.00  0.00     0.006 C 
ENDBRANCH   8   9
BRANCH   8  11
ATOM     11  C   LIG d   1      -6.982  73.434 116.894  0.00  0.00     0.028 C 
ATOM     12  C   LIG d   1      -6.595  72.153 116.137  0.00  0.00     0.006 C 
ENDBRANCH   8  11
ENDBRANCH   7   8
ENDBRANCH   1   7
BRANCH   6  13
ATOM     13  N   LIG d   1      -4.759  77.910 117.192  0.00  0.00    -0.311 N 
ATOM     14  C   LIG d   1      -3.888  78.547 116.411  0.00  0.00     0.210 C 
ATOM     15  C   LIG d   1      -2.418  78.199 116.665  0.00  0.00     0.109 C 
ATOM     16  O   LIG d   1      -4.191  79.391 115.555  0.00  0.00    -0.276 OA
ATOM     17  H   LIG d   1      -4.424  77.266 117.882  0.00  0.00     0.149 HD
ENDBRANCH   6  13
BRANCH   5  18
ATOM     18  N   LIG d   1      -6.224  80.555 117.628  0.00  0.00     0.381 N 
ATOM     19  H   LIG d   1      -6.875  81.016 117.024  0.00  0.00    -0.090 HD
ATOM     20  H   LIG d   1      -5.361  80.434 117.128  0.00  0.00    -0.090 HD
ATOM     21  H   LIG d   1      -6.069  81.106 118.444  0.00  0.00    -0.090 HD
ENDBRANCH   5  18
BRANCH   3  22
ATOM     22  C   LIG d   1     -10.158  78.035 118.680  0.00  0.00     0.382 C 
ATOM     23  O   LIG d   1     -10.982  77.152 118.340  0.00  0.00    -0.241 OA
ATOM     24  O   LIG d   1     -10.505  78.920 119.485  0.00  0.00    -0.241 OA
ENDBRANCH   3  22
TORSDOF 7
ENDMDL
MODEL 4
REMARK VINA RESULT:      -4.8     15.413     17.805
REMARK  7 active torsions:
REMARK  status: ('A' for Active; 'I' for Inactive)
REMARK    1  A    between atoms: C_2  and  C_3 
REMARK    2  A    between atoms: C_3  and  O_6 
REMARK    3  A    between atoms: C_3  and  C_4 
REMARK    4  A    between atoms: C_7  and  O_6 
REMARK    5  A    between atoms: C_9  and  C_10 
REMARK    6  A    between atoms: N_15  and  C_14 
REMARK    7  A    between atoms: N_20  and  C_19 
REMARK       I    between atoms: C_22  and  N_20 
ROOT
ATOM      1  C   LIG d   1      -3.985  92.620 117.997  0.00  0.00     0.161 C 
ATOM      2  C   LIG d   1      -3.859  93.721 118.860  0.00  0.00     0.016 C 
ATOM      3  C   LIG d   1      -4.864  94.703 119.022  0.00  0.00     0.038 C 
ATOM      4  C   LIG d   1      -6.133  94.567 118.440  0.00  0.00     0.028 C 
ATOM      5  C   LIG d   1      -6.128  93.735 117.162  0.00  0.00    -0.047 C 
ATOM      6  C   LIG d   1      -5.406  92.396 117.438  0.00  0.00     0.091 C 
ENDROOT
BRANCH   1   7
ATOM      7  O   LIG d   1      -3.511  91.428 118.653  0.00  0.00    -0.368 OA
BRANCH   7   8
ATOM      8  C   LIG d   1      -2.319  90.823 118.092  0.00  0.00     0.119 C 
BRANCH   8   9
ATOM      9  C   LIG d   1      -2.679  89.381 117.686  0.00  0.00     0.028 C 
ATOM     10  C   LIG d   1      -2.067  88.335 118.632  0.00  0.00     0.006 C 
ENDBRANCH   8   9
BRANCH   8  11
ATOM     11  C   LIG d   1      -1.217  90.685 119.146  0.00  0.00     0.028 C 
ATOM     12  C   LIG d   1      -0.469  92.002 119.403  0.00  0.00     0.006 C 
ENDBRANCH   8  11
ENDBRANCH   7   8
ENDBRANCH   1   7
BRANCH   6  13
ATOM     13  N   LIG d   1      -5.282  91.557 116.217  0.00  0.00    -0.311 N 
ATOM     14  C   LIG d   1      -6.189  90.651 115.855  0.00  0.00     0.210 C 
ATOM     15  C   LIG d   1      -5.857  89.881 114.574  0.00  0.00     0.109 C 
ATOM     16  O   LIG d   1      -7.252  90.436 116.456  0.00  0.00    -0.276 OA
ATOM     17  H   LIG d   1      -4.465  91.689 115.654  0.00  0.00     0.149 HD
ENDBRANCH   6  13
BRANCH   5  18
ATOM     18  N   LIG d   1      -7.530  93.560 116.738  0.00  0.00     0.381 N 
ATOM     19  H   LIG d   1      -7.776  92.591 116.775  0.00  0.00    -0.090 HD
ATOM     20  H   LIG d   1      -7.624  93.873 115.788  0.00  0.00    -0.090 HD
ATOM     21  H   LIG d   1      -8.133  94.086 117.330  0.00  0.00    -0.090 HD
ENDBRANCH   5  18
BRANCH   3  22
ATOM     22  C   LIG d   1      -4.589  95.855 119.741  0.00  0.00     0.382 C 
ATOM     23  O   LIG d   1      -3.405  96.249 119.867  0.00  0.00    -0.241 OA
ATOM     24  O   LIG d   1      -5.507  96.483 120.304  0.00  0.00    -0.241 OA
ENDBRANCH   3  22
TORSDOF 7
ENDMDL
MODEL 5
REMARK VINA RESULT:      -4.8     17.096     19.253
REMARK  7 active torsions:
REMARK  status: ('A' for Active; 'I' for Inactive)
REMARK    1  A    between atoms: C_2  and  C_3 
REMARK    2  A    between atoms: C_3  and  O_6 
REMARK    3  A    between atoms: C_3  and  C_4 
REMARK    4  A    between atoms: C_7  and  O_6 
REMARK    5  A    between atoms: C_9  and  C_10 
REMARK    6  A    between atoms: N_15  and  C_14 
REMARK    7  A    between atoms: N_20  and  C_19 
REMARK       I    between atoms: C_22  and  N_20 
ROOT
ATOM      1  C   LIG d   1      -0.837  57.472 119.367  0.00  0.00     0.161 C 
ATOM      2  C   LIG d   1      -2.126  58.001 119.191  0.00  0.00     0.016 C 
ATOM      3  C   LIG d   1      -2.469  58.879 118.136  0.00  0.00     0.038 C 
ATOM      4  C   LIG d   1      -1.577  59.168 117.093  0.00  0.00     0.028 C 
ATOM      5  C   LIG d   1      -0.112  59.059 117.501  0.00  0.00    -0.047 C 
ATOM      6  C   LIG d   1       0.120  57.689 118.176  0.00  0.00     0.091 C 
ENDROOT
BRANCH   1   7
ATOM      7  O   LIG d   1      -0.924  56.070 119.691  0.00  0.00    -0.368 OA
BRANCH   7   8
ATOM      8  C   LIG d   1      -1.656  55.244 118.753  0.00  0.00     0.119 C 
BRANCH   8   9
ATOM      9  C   LIG d   1      -2.871  54.660 119.500  0.00  0.00     0.028 C 
ATOM     10  C   LIG d   1      -4.183  54.841 118.719  0.00  0.00     0.006 C 
ENDBRANCH   8   9
BRANCH   8  11
ATOM     11  C   LIG d   1      -0.828  54.032 118.314  0.00  0.00     0.028 C 
ATOM     12  C   LIG d   1      -0.952  53.738 116.811  0.00  0.00     0.006 C 
ENDBRANCH   8  11
ENDBRANCH   7   8
ENDBRANCH   1   7
BRANCH   6  13
ATOM     13  N   LIG d   1       1.509  57.534 118.682  0.00  0.00    -0.311 N 
ATOM     14  C   LIG d   1       2.305  56.522 118.339  0.00  0.00     0.210 C 
ATOM     15  C   LIG d   1       3.692  56.542 118.990  0.00  0.00     0.109 C 
ATOM     16  O   LIG d   1       2.006  55.628 117.534  0.00  0.00    -0.276 OA
ATOM     17  H   LIG d   1       1.844  58.232 119.316  0.00  0.00     0.149 HD
ENDBRANCH   6  13
BRANCH   5  18
ATOM     18  N   LIG d   1       0.704  59.251 116.287  0.00  0.00     0.381 N 
ATOM     19  H   LIG d   1       0.124  59.569 115.536  0.00  0.00    -0.090 HD
ATOM     20  H   LIG d   1       1.107  58.369 116.023  0.00  0.00    -0.090 HD
ATOM     21  H   LIG d   1       1.426  59.915 116.463  0.00  0.00    -0.090 HD
ENDBRANCH   5  18
BRANCH   3  22
ATOM     22  C   LIG d   1      -3.705  59.508 118.140  0.00  0.00     0.382 C 
ATOM     23  O   LIG d   1      -3.869  60.572 117.496  0.00  0.00    -0.241 OA
ATOM     24  O   LIG d   1      -4.645  59.049 118.816  0.00  0.00    -0.241 OA
ENDBRANCH   3  22
TORSDOF 7
ENDMDL
MODEL 6
REMARK VINA RESULT:      -4.8     12.095     13.984
REMARK  7 active torsions:
REMARK  status: ('A' for Active; 'I' for Inactive)
REMARK    1  A    between atoms: C_2  and  C_3 
REMARK    2  A    between atoms: C_3  and  O_6 
REMARK    3  A    between atoms: C_3  and  C_4 
REMARK    4  A    between atoms: C_7  and  O_6 
REMARK    5  A    between atoms: C_9  and  C_10 
REMARK    6  A    between atoms: N_15  and  C_14 
REMARK    7  A    between atoms: N_20  and  C_19 
REMARK       I    between atoms: C_22  and  N_20 
ROOT
ATOM      1  C   LIG d   1       1.275  87.745 116.610  0.00  0.00     0.161 C 
ATOM      2  C   LIG d   1      -0.092  87.738 116.933  0.00  0.00     0.016 C 
ATOM      3  C   LIG d   1      -0.739  88.804 117.600  0.00  0.00     0.038 C 
ATOM      4  C   LIG d   1      -0.091  90.021 117.856  0.00  0.00     0.028 C 
ATOM      5  C   LIG d   1       1.421  89.883 118.001  0.00  0.00    -0.047 C 
ATOM      6  C   LIG d   1       1.973  89.110 116.782  0.00  0.00     0.091 C 
ENDROOT
BRANCH   1   7
ATOM      7  O   LIG d   1       1.462  87.252 115.268  0.00  0.00    -0.368 OA
BRANCH   7   8
ATOM      8  C   LIG d   1       1.891  85.873 115.150  0.00  0.00     0.119 C 
BRANCH   8   9
ATOM      9  C   LIG d   1       2.669  85.519 116.431  0.00  0.00     0.028 C 
ATOM     10  C   LIG d   1       4.172  85.322 116.170  0.00  0.00     0.006 C 
ENDBRANCH   8   9
BRANCH   8  11
ATOM     11  C   LIG d   1       2.893  85.698 114.005  0.00  0.00     0.028 C 
ATOM     12  C   LIG d   1       2.866  86.864 113.005  0.00  0.00     0.006 C 
ENDBRANCH   8  11
ENDBRANCH   7   8
ENDBRANCH   1   7
BRANCH   6  13
ATOM     13  N   LIG d   1       3.434  88.858 116.885  0.00  0.00    -0.311 N 
ATOM     14  C   LIG d   1       4.296  89.128 115.905  0.00  0.00     0.210 C 
ATOM     15  C   LIG d   1       5.754  88.773 116.211  0.00  0.00     0.109 C 
ATOM     16  O   LIG d   1       3.995  89.657 114.825  0.00  0.00    -0.276 OA
ATOM     17  H   LIG d   1       3.769  88.459 117.740  0.00  0.00     0.149 HD
ENDBRANCH   6  13
BRANCH   5  18
ATOM     18  N   LIG d   1       1.982  91.242 118.127  0.00  0.00     0.381 N 
ATOM     19  H   LIG d   1       1.248  91.896 118.309  0.00  0.00    -0.090 HD
ATOM     20  H   LIG d   1       2.422  91.494 117.259  0.00  0.00    -0.090 HD
ATOM     21  H   LIG d   1       2.650  91.268 118.866  0.00  0.00    -0.090 HD
ENDBRANCH   5  18
BRANCH   3  22
ATOM     22  C   LIG d   1      -2.039  88.641 118.055  0.00  0.00     0.382 C 
ATOM     23  O   LIG d   1      -2.265  87.946 119.074  0.00  0.00    -0.241 OA
ATOM     24  O   LIG d   1      -2.993  89.145 117.432  0.00  0.00    -0.241 OA
ENDBRANCH   3  22
TORSDOF 7
ENDMDL
MODEL 7
REMARK VINA RESULT:      -4.7      2.476      5.718
REMARK  7 active torsions:
REMARK  status: ('A' for Active; 'I' for Inactive)
REMARK    1  A    between atoms: C_2  and  C_3 
REMARK    2  A    between atoms: C_3  and  O_6 
REMARK    3  A    between atoms: C_3  and  C_4 
REMARK    4  A    between atoms: C_7  and  O_6 
REMARK    5  A    between atoms: C_9  and  C_10 
REMARK    6  A    between atoms: N_15  and  C_14 
REMARK    7  A    between atoms: N_20  and  C_19 
REMARK       I    between atoms: C_22  and  N_20 
ROOT
ATOM      1  C   LIG d   1      -2.958  74.966 115.797  0.00  0.00     0.161 C 
ATOM      2  C   LIG d   1      -2.117  75.841 115.090  0.00  0.00     0.016 C 
ATOM      3  C   LIG d   1      -2.584  76.745 114.108  0.00  0.00     0.038 C 
ATOM      4  C   LIG d   1      -3.952  76.943 113.873  0.00  0.00     0.028 C 
ATOM      5  C   LIG d   1      -4.806  75.723 114.203  0.00  0.00    -0.047 C 
ATOM      6  C   LIG d   1      -4.467  75.245 115.633  0.00  0.00     0.091 C 
ENDROOT
BRANCH   1   7
ATOM      7  O   LIG d   1      -2.598  74.962 117.192  0.00  0.00    -0.368 OA
BRANCH   7   8
ATOM      8  C   LIG d   1      -1.627  75.957 117.602  0.00  0.00     0.119 C 
BRANCH   8   9
ATOM      9  C   LIG d   1      -0.589  75.249 118.495  0.00  0.00     0.028 C 
ATOM     10  C   LIG d   1      -0.836  73.735 118.596  0.00  0.00     0.006 C 
ENDBRANCH   8   9
BRANCH   8  11
ATOM     11  C   LIG d   1      -2.267  77.026 118.493  0.00  0.00     0.028 C 
ATOM     12  C   LIG d   1      -1.378  77.420 119.683  0.00  0.00     0.006 C 
ENDBRANCH   8  11
ENDBRANCH   7   8
ENDBRANCH   1   7
BRANCH   6  13
ATOM     13  N   LIG d   1      -5.197  74.005 116.004  0.00  0.00    -0.311 N 
ATOM     14  C   LIG d   1      -6.399  74.006 116.579  0.00  0.00     0.210 C 
ATOM     15  C   LIG d   1      -6.964  72.618 116.897  0.00  0.00     0.109 C 
ATOM     16  O   LIG d   1      -7.063  75.023 116.826  0.00  0.00    -0.276 OA
ATOM     17  H   LIG d   1      -4.744  73.134 115.811  0.00  0.00     0.149 HD
ENDBRANCH   6  13
BRANCH   5  18
ATOM     18  N   LIG d   1      -6.220  76.112 114.043  0.00  0.00     0.381 N 
ATOM     19  H   LIG d   1      -6.567  76.488 114.903  0.00  0.00    -0.090 HD
ATOM     20  H   LIG d   1      -6.758  75.295 113.816  0.00  0.00    -0.090 HD
ATOM     21  H   LIG d   1      -6.308  76.789 113.318  0.00  0.00    -0.090 HD
ENDBRANCH   5  18
BRANCH   3  22
ATOM     22  C   LIG d   1      -1.674  77.435 113.321  0.00  0.00     0.382 C 
ATOM     23  O   LIG d   1      -1.631  77.228 112.084  0.00  0.00    -0.241 OA
ATOM     24  O   LIG d   1      -0.865  78.229 113.838  0.00  0.00    -0.241 OA
ENDBRANCH   3  22
TORSDOF 7
ENDMDL
MODEL 8
REMARK VINA RESULT:      -4.7     16.765     18.818
REMARK  7 active torsions:
REMARK  status: ('A' for Active; 'I' for Inactive)
REMARK    1  A    between atoms: C_2  and  C_3 
REMARK    2  A    between atoms: C_3  and  O_6 
REMARK    3  A    between atoms: C_3  and  C_4 
REMARK    4  A    between atoms: C_7  and  O_6 
REMARK    5  A    between atoms: C_9  and  C_10 
REMARK    6  A    between atoms: N_15  and  C_14 
REMARK    7  A    between atoms: N_20  and  C_19 
REMARK       I    between atoms: C_22  and  N_20 
ROOT
ATOM      1  C   LIG d   1      -1.242  57.385 119.598  0.00  0.00     0.161 C 
ATOM      2  C   LIG d   1      -0.212  58.276 119.253  0.00  0.00     0.016 C 
ATOM      3  C   LIG d   1       0.638  58.088 118.138  0.00  0.00     0.038 C 
ATOM      4  C   LIG d   1       0.416  57.068 117.200  0.00  0.00     0.028 C 
ATOM      5  C   LIG d   1      -0.298  55.854 117.784  0.00  0.00    -0.047 C 
ATOM      6  C   LIG d   1      -1.570  56.327 118.524  0.00  0.00     0.091 C 
ENDROOT
BRANCH   1   7
ATOM      7  O   LIG d   1      -2.428  58.124 119.953  0.00  0.00    -0.368 OA
BRANCH   7   8
ATOM      8  C   LIG d   1      -2.640  59.367 119.241  0.00  0.00     0.119 C 
BRANCH   8   9
ATOM      9  C   LIG d   1      -3.484  60.283 120.149  0.00  0.00     0.028 C 
ATOM     10  C   LIG d   1      -4.882  60.558 119.571  0.00  0.00     0.006 C 
ENDBRANCH   8   9
BRANCH   8  11
ATOM     11  C   LIG d   1      -3.489  59.152 117.984  0.00  0.00     0.028 C 
ATOM     12  C   LIG d   1      -2.674  59.280 116.686  0.00  0.00     0.006 C 
ENDBRANCH   8  11
ENDBRANCH   7   8
ENDBRANCH   1   7
BRANCH   6  13
ATOM     13  N   LIG d   1      -2.283  55.210 119.196  0.00  0.00    -0.311 N 
ATOM     14  C   LIG d   1      -3.556  54.901 118.953  0.00  0.00     0.210 C 
ATOM     15  C   LIG d   1      -4.104  53.726 119.770  0.00  0.00     0.109 C 
ATOM     16  O   LIG d   1      -4.274  55.469 118.116  0.00  0.00    -0.276 OA
ATOM     17  H   LIG d   1      -1.767  54.677 119.868  0.00  0.00     0.149 HD
ENDBRANCH   6  13
BRANCH   5  18
ATOM     18  N   LIG d   1      -0.588  54.930 116.671  0.00  0.00     0.381 N 
ATOM     19  H   LIG d   1      -1.503  54.542 116.782  0.00  0.00    -0.090 HD
ATOM     20  H   LIG d   1       0.078  54.178 116.691  0.00  0.00    -0.090 HD
ATOM     21  H   LIG d   1      -0.527  55.413 115.802  0.00  0.00    -0.090 HD
ENDBRANCH   5  18
BRANCH   3  22
ATOM     22  C   LIG d   1       1.748  58.902 117.975  0.00  0.00     0.382 C 
ATOM     23  O   LIG d   1       2.728  58.789 118.750  0.00  0.00    -0.241 OA
ATOM     24  O   LIG d   1       1.764  59.779 117.091  0.00  0.00    -0.241 OA
ENDBRANCH   3  22
TORSDOF 7
ENDMDL
MODEL 9
REMARK VINA RESULT:      -4.7     15.753     18.136
REMARK  7 active torsions:
REMARK  status: ('A' for Active; 'I' for Inactive)
REMARK    1  A    between atoms: C_2  and  C_3 
REMARK    2  A    between atoms: C_3  and  O_6 
REMARK    3  A    between atoms: C_3  and  C_4 
REMARK    4  A    between atoms: C_7  and  O_6 
REMARK    5  A    between atoms: C_9  and  C_10 
REMARK    6  A    between atoms: N_15  and  C_14 
REMARK    7  A    between atoms: N_20  and  C_19 
REMARK       I    between atoms: C_22  and  N_20 
ROOT
ATOM      1  C   LIG d   1      -5.708  93.176 117.240  0.00  0.00     0.161 C 
ATOM      2  C   LIG d   1      -6.580  92.591 116.307  0.00  0.00     0.016 C 
ATOM      3  C   LIG d   1      -6.392  91.296 115.770  0.00  0.00     0.038 C 
ATOM      4  C   LIG d   1      -5.394  90.434 116.247  0.00  0.00     0.028 C 
ATOM      5  C   LIG d   1      -4.186  91.166 116.824  0.00  0.00    -0.047 C 
ATOM      6  C   LIG d   1      -4.676  92.208 117.855  0.00  0.00     0.091 C 
ENDROOT
BRANCH   1   7
ATOM      7  O   LIG d   1      -6.468  93.825 118.278  0.00  0.00    -0.368 OA
BRANCH   7   8
ATOM      8  C   LIG d   1      -7.301  94.933 117.860  0.00  0.00     0.119 C 
BRANCH   8   9
ATOM      9  C   LIG d   1      -6.740  96.209 118.518  0.00  0.00     0.028 C 
ATOM     10  C   LIG d   1      -7.246  97.492 117.838  0.00  0.00     0.006 C 
ENDBRANCH   8   9
BRANCH   8  11
ATOM     11  C   LIG d   1      -8.728  94.792 118.400  0.00  0.00     0.028 C 
ATOM     12  C   LIG d   1      -8.844  93.731 119.505  0.00  0.00     0.006 C 
ENDBRANCH   8  11
ENDBRANCH   7   8
ENDBRANCH   1   7
BRANCH   6  13
ATOM     13  N   LIG d   1      -3.564  93.026 118.406  0.00  0.00    -0.311 N 
ATOM     14  C   LIG d   1      -2.917  92.722 119.529  0.00  0.00     0.210 C 
ATOM     15  C   LIG d   1      -1.817  93.710 119.930  0.00  0.00     0.109 C 
ATOM     16  O   LIG d   1      -3.128  91.711 120.215  0.00  0.00    -0.276 OA
ATOM     17  H   LIG d   1      -3.307  93.848 117.895  0.00  0.00     0.149 HD
ENDBRANCH   6  13
BRANCH   5  18
ATOM     18  N   LIG d   1      -3.288  90.152 117.408  0.00  0.00     0.381 N 
ATOM     19  H   LIG d   1      -2.336  90.446 117.310  0.00  0.00    -0.090 HD
ATOM     20  H   LIG d   1      -3.404  89.288 116.908  0.00  0.00    -0.090 HD
ATOM     21  H   LIG d   1      -3.505  90.019 118.371  0.00  0.00    -0.090 HD
ENDBRANCH   5  18
BRANCH   3  22
ATOM     22  C   LIG d   1      -7.184  90.868 114.715  0.00  0.00     0.382 C 
ATOM     23  O   LIG d   1      -7.150  89.666 114.354  0.00  0.00    -0.241 OA
ATOM     24  O   LIG d   1      -7.898  91.676 114.092  0.00  0.00    -0.241 OA
ENDBRANCH   3  22
TORSDOF 7
ENDMDL
