MODEL 1
REMARK VINA RESULT:      -6.5      0.000      0.000
REMARK  7 active torsions:
REMARK  status: ('A' for Active; 'I' for Inactive)
REMARK    1  A    between atoms: C_2  and  C_3 
REMARK    2  A    between atoms: C_3  and  O_6 
REMARK    3  A    between atoms: C_3  and  C_4 
REMARK    4  A    between atoms: C_7  and  O_6 
REMARK    5  A    between atoms: C_9  and  C_10 
REMARK    6  A    between atoms: N_15  and  C_14 
REMARK    7  A    between atoms: N_20  and  C_19 
REMARK       I    between atoms: C_22  and  N_20 
ROOT
ATOM      1  C   LIG d   1      -8.044  76.214 117.082  0.00  0.00     0.161 C 
ATOM      2  C   LIG d   1      -9.157  76.752 117.749  0.00  0.00     0.016 C 
ATOM      3  C   LIG d   1      -9.176  78.050 118.310  0.00  0.00     0.038 C 
ATOM      4  C   LIG d   1      -8.127  78.959 118.110  0.00  0.00     0.028 C 
ATOM      5  C   LIG d   1      -6.779  78.287 117.877  0.00  0.00    -0.047 C 
ATOM      6  C   LIG d   1      -6.931  77.232 116.758  0.00  0.00     0.091 C 
ENDROOT
BRANCH   1   7
ATOM      7  O   LIG d   1      -8.472  75.540 115.883  0.00  0.00    -0.368 OA
BRANCH   7   8
ATOM      8  C   LIG d   1      -8.495  74.092 115.939  0.00  0.00     0.119 C 
BRANCH   8   9
ATOM      9  C   LIG d   1      -9.750  73.680 116.734  0.00  0.00     0.028 C 
ATOM     10  C   LIG d   1      -9.700  72.212 117.190  0.00  0.00     0.006 C 
ENDBRANCH   8   9
BRANCH   8  11
ATOM     11  C   LIG d   1      -7.310  73.546 116.742  0.00  0.00     0.028 C 
ATOM     12  C   LIG d   1      -6.381  72.656 115.902  0.00  0.00     0.006 C 
ENDBRANCH   8  11
ENDBRANCH   7   8
ENDBRANCH   1   7
BRANCH   6  13
ATOM     13  N   LIG d   1      -5.677  76.468 116.524  0.00  0.00    -0.311 N 
ATOM     14  C   LIG d   1      -5.209  76.181 115.311  0.00  0.00     0.210 C 
ATOM     15  C   LIG d   1      -3.912  75.367 115.295  0.00  0.00     0.109 C 
ATOM     16  O   LIG d   1      -5.728  76.550 114.247  0.00  0.00    -0.276 OA
ATOM     17  H   LIG d   1      -5.176  76.157 117.333  0.00  0.00     0.149 HD
ENDBRANCH   6  13
BRANCH   5  18
ATOM     18  N   LIG d   1      -5.804  79.344 117.547  0.00  0.00     0.381 N 
ATOM     19  H   LIG d   1      -6.282  80.141 117.175  0.00  0.00    -0.090 HD
ATOM     20  H   LIG d   1      -5.175  78.998 116.844  0.00  0.00    -0.090 HD
ATOM     21  H   LIG d   1      -5.294  79.604 118.362  0.00  0.00    -0.090 HD
ENDBRANCH   5  18
BRANCH   3  22
ATOM     22  C   LIG d   1     -10.237  78.435 119.116  0.00  0.00     0.382 C 
ATOM     23  O   LIG d   1     -10.077  79.334 119.976  0.00  0.00    -0.241 OA
ATOM     24  O   LIG d   1     -11.340  77.863 119.024  0.00  0.00    -0.241 OA
ENDBRANCH   3  22
TORSDOF 7
ENDMDL
MODEL 2
REMARK VINA RESULT:      -6.4      1.328      2.061
REMARK  7 active torsions:
REMARK  status: ('A' for Active; 'I' for Inactive)
REMARK    1  A    between atoms: C_2  and  C_3 
REMARK    2  A    between atoms: C_3  and  O_6 
REMARK    3  A    between atoms: C_3  and  C_4 
REMARK    4  A    between atoms: C_7  and  O_6 
REMARK    5  A    between atoms: C_9  and  C_10 
REMARK    6  A    between atoms: N_15  and  C_14 
REMARK    7  A    between atoms: N_20  and  C_19 
REMARK       I    between atoms: C_22  and  N_20 
ROOT
ATOM      1  C   LIG d   1      -7.594  76.828 117.610  0.00  0.00     0.161 C 
ATOM      2  C   LIG d   1      -8.843  77.332 118.009  0.00  0.00     0.016 C 
ATOM      3  C   LIG d   1      -9.063  78.687 118.348  0.00  0.00     0.038 C 
ATOM      4  C   LIG d   1      -8.076  79.667 118.164  0.00  0.00     0.028 C 
ATOM      5  C   LIG d   1      -6.656  79.118 118.244  0.00  0.00    -0.047 C 
ATOM      6  C   LIG d   1      -6.533  77.903 117.297  0.00  0.00     0.091 C 
ENDROOT
BRANCH   1   7
ATOM      7  O   LIG d   1      -7.761  75.945 116.483  0.00  0.00    -0.368 OA
BRANCH   7   8
ATOM      8  C   LIG d   1      -7.871  74.533 116.790  0.00  0.00     0.119 C 
BRANCH   8   9
ATOM      9  C   LIG d   1      -7.008  73.768 115.768  0.00  0.00     0.028 C 
ATOM     10  C   LIG d   1      -6.107  74.704 114.944  0.00  0.00     0.006 C 
ENDBRANCH   8   9
BRANCH   8  11
ATOM     11  C   LIG d   1      -9.300  74.026 116.574  0.00  0.00     0.028 C 
ATOM     12  C   LIG d   1      -9.397  72.492 116.591  0.00  0.00     0.006 C 
ENDBRANCH   8  11
ENDBRANCH   7   8
ENDBRANCH   1   7
BRANCH   6  13
ATOM     13  N   LIG d   1      -5.198  77.254 117.377  0.00  0.00    -0.311 N 
ATOM     14  C   LIG d   1      -4.158  77.622 116.631  0.00  0.00     0.210 C 
ATOM     15  C   LIG d   1      -2.880  76.808 116.857  0.00  0.00     0.109 C 
ATOM     16  O   LIG d   1      -4.164  78.566 115.826  0.00  0.00    -0.276 OA
ATOM     17  H   LIG d   1      -5.096  76.499 118.027  0.00  0.00     0.149 HD
ENDBRANCH   6  13
BRANCH   5  18
ATOM     18  N   LIG d   1      -5.734  80.216 117.898  0.00  0.00     0.381 N 
ATOM     19  H   LIG d   1      -5.626  80.268 116.905  0.00  0.00    -0.090 HD
ATOM     20  H   LIG d   1      -4.834  80.025 118.304  0.00  0.00    -0.090 HD
ATOM     21  H   LIG d   1      -6.086  81.080 118.247  0.00  0.00    -0.090 HD
ENDBRANCH   5  18
BRANCH   3  22
ATOM     22  C   LIG d   1     -10.270  79.066 118.915  0.00  0.00     0.382 C 
ATOM     23  O   LIG d   1     -11.171  78.213 119.101  0.00  0.00    -0.241 OA
ATOM     24  O   LIG d   1     -10.486  80.258 119.203  0.00  0.00    -0.241 OA
ENDBRANCH   3  22
TORSDOF 7
ENDMDL
MODEL 3
REMARK VINA RESULT:      -6.2      1.887      4.956
REMARK  7 active torsions:
REMARK  status: ('A' for Active; 'I' for Inactive)
REMARK    1  A    between atoms: C_2  and  C_3 
REMARK    2  A    between atoms: C_3  and  O_6 
REMARK    3  A    between atoms: C_3  and  C_4 
REMARK    4  A    between atoms: C_7  and  O_6 
REMARK    5  A    between atoms: C_9  and  C_10 
REMARK    6  A    between atoms: N_15  and  C_14 
REMARK    7  A    between atoms: N_20  and  C_19 
REMARK       I    between atoms: C_22  and  N_20 
ROOT
ATOM      1  C   LIG d   1      -7.051  76.714 116.591  0.00  0.00     0.161 C 
ATOM      2  C   LIG d   1      -6.055  76.060 115.847  0.00  0.00     0.016 C 
ATOM      3  C   LIG d   1      -4.703  76.476 115.823  0.00  0.00     0.038 C 
ATOM      4  C   LIG d   1      -4.224  77.490 116.665  0.00  0.00     0.028 C 
ATOM      5  C   LIG d   1      -5.291  78.507 117.056  0.00  0.00    -0.047 C 
ATOM      6  C   LIG d   1      -6.526  77.754 117.602  0.00  0.00     0.091 C 
ENDROOT
BRANCH   1   7
ATOM      7  O   LIG d   1      -7.881  75.742 117.257  0.00  0.00    -0.368 OA
BRANCH   7   8
ATOM      8  C   LIG d   1      -8.574  74.801 116.401  0.00  0.00     0.119 C 
BRANCH   8   9
ATOM      9  C   LIG d   1     -10.083  74.949 116.677  0.00  0.00     0.028 C 
ATOM     10  C   LIG d   1     -10.381  75.992 117.766  0.00  0.00     0.006 C 
ENDBRANCH   8   9
BRANCH   8  11
ATOM     11  C   LIG d   1      -8.233  73.355 116.771  0.00  0.00     0.028 C 
ATOM     12  C   LIG d   1      -9.449  72.417 116.693  0.00  0.00     0.006 C 
ENDBRANCH   8  11
ENDBRANCH   7   8
ENDBRANCH   1   7
BRANCH   6  13
ATOM     13  N   LIG d   1      -7.649  78.670 117.930  0.00  0.00    -0.311 N 
ATOM     14  C   LIG d   1      -7.786  79.269 119.112  0.00  0.00     0.210 C 
ATOM     15  C   LIG d   1      -9.027  80.158 119.246  0.00  0.00     0.109 C 
ATOM     16  O   LIG d   1      -6.981  79.174 120.050  0.00  0.00    -0.276 OA
ATOM     17  H   LIG d   1      -8.332  78.829 117.215  0.00  0.00     0.149 HD
ENDBRANCH   6  13
BRANCH   5  18
ATOM     18  N   LIG d   1      -4.691  79.426 118.042  0.00  0.00     0.381 N 
ATOM     19  H   LIG d   1      -5.012  79.193 118.961  0.00  0.00    -0.090 HD
ATOM     20  H   LIG d   1      -4.985  80.364 117.834  0.00  0.00    -0.090 HD
ATOM     21  H   LIG d   1      -3.697  79.365 118.004  0.00  0.00    -0.090 HD
ENDBRANCH   5  18
BRANCH   3  22
ATOM     22  C   LIG d   1      -3.824  75.900 114.919  0.00  0.00     0.382 C 
ATOM     23  O   LIG d   1      -3.768  76.327 113.740  0.00  0.00    -0.241 OA
ATOM     24  O   LIG d   1      -3.118  74.930 115.254  0.00  0.00    -0.241 OA
ENDBRANCH   3  22
TORSDOF 7
ENDMDL
MODEL 4
REMARK VINA RESULT:      -5.8      1.932      2.609
REMARK  7 active torsions:
REMARK  status: ('A' for Active; 'I' for Inactive)
REMARK    1  A    between atoms: C_2  and  C_3 
REMARK    2  A    between atoms: C_3  and  O_6 
REMARK    3  A    between atoms: C_3  and  C_4 
REMARK    4  A    between atoms: C_7  and  O_6 
REMARK    5  A    between atoms: C_9  and  C_10 
REMARK    6  A    between atoms: N_15  and  C_14 
REMARK    7  A    between atoms: N_20  and  C_19 
REMARK       I    between atoms: C_22  and  N_20 
ROOT
ATOM      1  C   LIG d   1      -6.253  76.828 117.102  0.00  0.00     0.161 C 
ATOM      2  C   LIG d   1      -7.171  77.776 117.584  0.00  0.00     0.016 C 
ATOM      3  C   LIG d   1      -6.853  79.139 117.778  0.00  0.00     0.038 C 
ATOM      4  C   LIG d   1      -5.629  79.682 117.359  0.00  0.00     0.028 C 
ATOM      5  C   LIG d   1      -4.492  78.666 117.334  0.00  0.00    -0.047 C 
ATOM      6  C   LIG d   1      -4.947  77.423 116.534  0.00  0.00     0.091 C 
ENDROOT
BRANCH   1   7
ATOM      7  O   LIG d   1      -6.889  75.987 116.120  0.00  0.00    -0.368 OA
BRANCH   7   8
ATOM      8  C   LIG d   1      -7.306  74.677 116.576  0.00  0.00     0.119 C 
BRANCH   8   9
ATOM      9  C   LIG d   1      -6.472  73.632 115.809  0.00  0.00     0.028 C 
ATOM     10  C   LIG d   1      -6.960  72.195 116.057  0.00  0.00     0.006 C 
ENDBRANCH   8   9
BRANCH   8  11
ATOM     11  C   LIG d   1      -8.762  74.391 116.197  0.00  0.00     0.028 C 
ATOM     12  C   LIG d   1      -9.763  75.242 116.995  0.00  0.00     0.006 C 
ENDBRANCH   8  11
ENDBRANCH   7   8
ENDBRANCH   1   7
BRANCH   6  13
ATOM     13  N   LIG d   1      -3.925  76.345 116.533  0.00  0.00    -0.311 N 
ATOM     14  C   LIG d   1      -3.372  75.861 115.422  0.00  0.00     0.210 C 
ATOM     15  C   LIG d   1      -2.354  74.737 115.643  0.00  0.00     0.109 C 
ATOM     16  O   LIG d   1      -3.604  76.277 114.277  0.00  0.00    -0.276 OA
ATOM     17  H   LIG d   1      -3.655  75.971 117.421  0.00  0.00     0.149 HD
ENDBRANCH   6  13
BRANCH   5  18
ATOM     18  N   LIG d   1      -3.313  79.330 116.748  0.00  0.00     0.381 N 
ATOM     19  H   LIG d   1      -2.483  79.014 117.208  0.00  0.00    -0.090 HD
ATOM     20  H   LIG d   1      -3.394  80.322 116.891  0.00  0.00    -0.090 HD
ATOM     21  H   LIG d   1      -3.258  79.131 115.774  0.00  0.00    -0.090 HD
ENDBRANCH   5  18
BRANCH   3  22
ATOM     22  C   LIG d   1      -7.750  79.968 118.436  0.00  0.00     0.382 C 
ATOM     23  O   LIG d   1      -8.333  80.884 117.808  0.00  0.00    -0.241 OA
ATOM     24  O   LIG d   1      -7.949  79.839 119.658  0.00  0.00    -0.241 OA
ENDBRANCH   3  22
TORSDOF 7
ENDMDL
MODEL 5
REMARK VINA RESULT:      -5.7      4.781      7.069
REMARK  7 active torsions:
REMARK  status: ('A' for Active; 'I' for Inactive)
REMARK    1  A    between atoms: C_2  and  C_3 
REMARK    2  A    between atoms: C_3  and  O_6 
REMARK    3  A    between atoms: C_3  and  C_4 
REMARK    4  A    between atoms: C_7  and  O_6 
REMARK    5  A    between atoms: C_9  and  C_10 
REMARK    6  A    between atoms: N_15  and  C_14 
REMARK    7  A    between atoms: N_20  and  C_19 
REMARK       I    between atoms: C_22  and  N_20 
ROOT
ATOM      1  C   LIG d   1      -1.787  75.792 114.961  0.00  0.00     0.161 C 
ATOM      2  C   LIG d   1      -1.753  74.910 116.054  0.00  0.00     0.016 C 
ATOM      3  C   LIG d   1      -0.962  75.129 117.206  0.00  0.00     0.038 C 
ATOM      4  C   LIG d   1      -0.263  76.328 117.409  0.00  0.00     0.028 C 
ATOM      5  C   LIG d   1       0.133  77.025 116.111  0.00  0.00    -0.047 C 
ATOM      6  C   LIG d   1      -1.117  77.159 115.212  0.00  0.00     0.091 C 
ENDROOT
BRANCH   1   7
ATOM      7  O   LIG d   1      -3.148  75.973 114.523  0.00  0.00    -0.368 OA
BRANCH   7   8
ATOM      8  C   LIG d   1      -4.178  75.537 115.443  0.00  0.00     0.119 C 
BRANCH   8   9
ATOM      9  C   LIG d   1      -5.180  74.680 114.645  0.00  0.00     0.028 C 
ATOM     10  C   LIG d   1      -6.358  74.198 115.508  0.00  0.00     0.006 C 
ENDBRANCH   8   9
BRANCH   8  11
ATOM     11  C   LIG d   1      -4.990  76.722 115.974  0.00  0.00     0.028 C 
ATOM     12  C   LIG d   1      -4.275  77.475 117.107  0.00  0.00     0.006 C 
ENDBRANCH   8  11
ENDBRANCH   7   8
ENDBRANCH   1   7
BRANCH   6  13
ATOM     13  N   LIG d   1      -0.802  77.755 113.887  0.00  0.00    -0.311 N 
ATOM     14  C   LIG d   1      -1.318  78.906 113.459  0.00  0.00     0.210 C 
ATOM     15  C   LIG d   1      -0.876  79.330 112.055  0.00  0.00     0.109 C 
ATOM     16  O   LIG d   1      -2.074  79.631 114.122  0.00  0.00    -0.276 OA
ATOM     17  H   LIG d   1      -0.172  77.247 113.298  0.00  0.00     0.149 HD
ENDBRANCH   6  13
BRANCH   5  18
ATOM     18  N   LIG d   1       0.730  78.326 116.468  0.00  0.00     0.381 N 
ATOM     19  H   LIG d   1       0.016  79.026 116.513  0.00  0.00    -0.090 HD
ATOM     20  H   LIG d   1       1.386  78.590 115.754  0.00  0.00    -0.090 HD
ATOM     21  H   LIG d   1       1.195  78.258 117.347  0.00  0.00    -0.090 HD
ENDBRANCH   5  18
BRANCH   3  22
ATOM     22  C   LIG d   1      -0.833  74.124 118.152  0.00  0.00     0.382 C 
ATOM     23  O   LIG d   1      -0.612  74.417 119.352  0.00  0.00    -0.241 OA
ATOM     24  O   LIG d   1      -0.892  72.927 117.814  0.00  0.00    -0.241 OA
ENDBRANCH   3  22
TORSDOF 7
ENDMDL
MODEL 6
REMARK VINA RESULT:      -5.7      3.802      6.629
REMARK  7 active torsions:
REMARK  status: ('A' for Active; 'I' for Inactive)
REMARK    1  A    between atoms: C_2  and  C_3 
REMARK    2  A    between atoms: C_3  and  O_6 
REMARK    3  A    between atoms: C_3  and  C_4 
REMARK    4  A    between atoms: C_7  and  O_6 
REMARK    5  A    between atoms: C_9  and  C_10 
REMARK    6  A    between atoms: N_15  and  C_14 
REMARK    7  A    between atoms: N_20  and  C_19 
REMARK       I    between atoms: C_22  and  N_20 
ROOT
ATOM      1  C   LIG d   1      -2.898  77.178 116.043  0.00  0.00     0.161 C 
ATOM      2  C   LIG d   1      -3.173  78.116 115.034  0.00  0.00     0.016 C 
ATOM      3  C   LIG d   1      -2.380  78.265 113.873  0.00  0.00     0.038 C 
ATOM      4  C   LIG d   1      -1.338  77.377 113.568  0.00  0.00     0.028 C 
ATOM      5  C   LIG d   1      -0.710  76.734 114.800  0.00  0.00    -0.047 C 
ATOM      6  C   LIG d   1      -1.830  76.127 115.675  0.00  0.00     0.091 C 
ENDROOT
BRANCH   1   7
ATOM      7  O   LIG d   1      -4.118  76.531 116.454  0.00  0.00    -0.368 OA
BRANCH   7   8
ATOM      8  C   LIG d   1      -5.072  76.244 115.403  0.00  0.00     0.119 C 
BRANCH   8   9
ATOM      9  C   LIG d   1      -6.480  76.511 115.970  0.00  0.00     0.028 C 
ATOM     10  C   LIG d   1      -6.475  77.585 117.071  0.00  0.00     0.006 C 
ENDBRANCH   8   9
BRANCH   8  11
ATOM     11  C   LIG d   1      -5.061  74.758 115.030  0.00  0.00     0.028 C 
ATOM     12  C   LIG d   1      -6.338  74.024 115.468  0.00  0.00     0.006 C 
ENDBRANCH   8  11
ENDBRANCH   7   8
ENDBRANCH   1   7
BRANCH   6  13
ATOM     13  N   LIG d   1      -1.310  75.551 116.942  0.00  0.00    -0.311 N 
ATOM     14  C   LIG d   1      -0.969  74.271 117.080  0.00  0.00     0.210 C 
ATOM     15  C   LIG d   1      -0.475  73.880 118.477  0.00  0.00     0.109 C 
ATOM     16  O   LIG d   1      -0.999  73.429 116.170  0.00  0.00    -0.276 OA
ATOM     17  H   LIG d   1      -1.224  76.171 117.723  0.00  0.00     0.149 HD
ENDBRANCH   6  13
BRANCH   5  18
ATOM     18  N   LIG d   1       0.266  75.732 114.331  0.00  0.00     0.381 N 
ATOM     19  H   LIG d   1       1.006  75.642 114.998  0.00  0.00    -0.090 HD
ATOM     20  H   LIG d   1       0.660  76.044 113.461  0.00  0.00    -0.090 HD
ATOM     21  H   LIG d   1      -0.184  74.852 114.203  0.00  0.00    -0.090 HD
ENDBRANCH   5  18
BRANCH   3  22
ATOM     22  C   LIG d   1      -2.603  79.337 113.022  0.00  0.00     0.382 C 
ATOM     23  O   LIG d   1      -1.910  80.378 113.130  0.00  0.00    -0.241 OA
ATOM     24  O   LIG d   1      -3.516  79.294 112.177  0.00  0.00    -0.241 OA
ENDBRANCH   3  22
TORSDOF 7
ENDMDL
MODEL 7
REMARK VINA RESULT:      -5.5      2.170      5.263
REMARK  7 active torsions:
REMARK  status: ('A' for Active; 'I' for Inactive)
REMARK    1  A    between atoms: C_2  and  C_3 
REMARK    2  A    between atoms: C_3  and  O_6 
REMARK    3  A    between atoms: C_3  and  C_4 
REMARK    4  A    between atoms: C_7  and  O_6 
REMARK    5  A    between atoms: C_9  and  C_10 
REMARK    6  A    between atoms: N_15  and  C_14 
REMARK    7  A    between atoms: N_20  and  C_19 
REMARK       I    between atoms: C_22  and  N_20 
ROOT
ATOM      1  C   LIG d   1      -5.687  76.132 116.081  0.00  0.00     0.161 C 
ATOM      2  C   LIG d   1      -6.332  74.921 115.783  0.00  0.00     0.016 C 
ATOM      3  C   LIG d   1      -7.628  74.595 116.245  0.00  0.00     0.038 C 
ATOM      4  C   LIG d   1      -8.433  75.529 116.915  0.00  0.00     0.028 C 
ATOM      5  C   LIG d   1      -7.634  76.584 117.673  0.00  0.00    -0.047 C 
ATOM      6  C   LIG d   1      -6.592  77.208 116.717  0.00  0.00     0.091 C 
ENDROOT
BRANCH   1   7
ATOM      7  O   LIG d   1      -5.049  76.650 114.896  0.00  0.00    -0.368 OA
BRANCH   7   8
ATOM      8  C   LIG d   1      -3.654  76.303 114.720  0.00  0.00     0.119 C 
BRANCH   8   9
ATOM      9  C   LIG d   1      -3.072  76.002 116.114  0.00  0.00     0.028 C 
ATOM     10  C   LIG d   1      -1.898  75.009 116.059  0.00  0.00     0.006 C 
ENDBRANCH   8   9
BRANCH   8  11
ATOM     11  C   LIG d   1      -2.846  77.493 114.192  0.00  0.00     0.028 C 
ATOM     12  C   LIG d   1      -2.703  78.621 115.225  0.00  0.00     0.006 C 
ENDBRANCH   8  11
ENDBRANCH   7   8
ENDBRANCH   1   7
BRANCH   6  13
ATOM     13  N   LIG d   1      -5.711  78.190 117.401  0.00  0.00    -0.311 N 
ATOM     14  C   LIG d   1      -6.082  79.439 117.677  0.00  0.00     0.210 C 
ATOM     15  C   LIG d   1      -5.014  80.292 118.369  0.00  0.00     0.109 C 
ATOM     16  O   LIG d   1      -7.204  79.912 117.445  0.00  0.00    -0.276 OA
ATOM     17  H   LIG d   1      -4.793  77.881 117.654  0.00  0.00     0.149 HD
ENDBRANCH   6  13
BRANCH   5  18
ATOM     18  N   LIG d   1      -8.591  77.570 118.208  0.00  0.00     0.381 N 
ATOM     19  H   LIG d   1      -9.474  77.468 117.749  0.00  0.00    -0.090 HD
ATOM     20  H   LIG d   1      -8.244  78.494 118.022  0.00  0.00    -0.090 HD
ATOM     21  H   LIG d   1      -8.702  77.440 119.190  0.00  0.00    -0.090 HD
ENDBRANCH   5  18
BRANCH   3  22
ATOM     22  C   LIG d   1      -8.117  73.309 116.072  0.00  0.00     0.382 C 
ATOM     23  O   LIG d   1      -9.344  73.082 116.201  0.00  0.00    -0.241 OA
ATOM     24  O   LIG d   1      -7.340  72.365 115.833  0.00  0.00    -0.241 OA
ENDBRANCH   3  22
TORSDOF 7
ENDMDL
MODEL 8
REMARK VINA RESULT:      -5.2      4.226      7.234
REMARK  7 active torsions:
REMARK  status: ('A' for Active; 'I' for Inactive)
REMARK    1  A    between atoms: C_2  and  C_3 
REMARK    2  A    between atoms: C_3  and  O_6 
REMARK    3  A    between atoms: C_3  and  C_4 
REMARK    4  A    between atoms: C_7  and  O_6 
REMARK    5  A    between atoms: C_9  and  C_10 
REMARK    6  A    between atoms: N_15  and  C_14 
REMARK    7  A    between atoms: N_20  and  C_19 
REMARK       I    between atoms: C_22  and  N_20 
ROOT
ATOM      1  C   LIG d   1      -2.909  77.758 115.694  0.00  0.00     0.161 C 
ATOM      2  C   LIG d   1      -3.070  78.813 114.780  0.00  0.00     0.016 C 
ATOM      3  C   LIG d   1      -2.304  78.943 113.598  0.00  0.00     0.038 C 
ATOM      4  C   LIG d   1      -1.424  77.937 113.171  0.00  0.00     0.028 C 
ATOM      5  C   LIG d   1      -0.861  77.099 114.314  0.00  0.00    -0.047 C 
ATOM      6  C   LIG d   1      -2.031  76.594 115.189  0.00  0.00     0.091 C 
ENDROOT
BRANCH   1   7
ATOM      7  O   LIG d   1      -4.200  77.270 116.108  0.00  0.00    -0.368 OA
BRANCH   7   8
ATOM      8  C   LIG d   1      -4.941  78.119 117.018  0.00  0.00     0.119 C 
BRANCH   8   9
ATOM      9  C   LIG d   1      -4.121  78.231 118.319  0.00  0.00     0.028 C 
ATOM     10  C   LIG d   1      -3.851  79.691 118.719  0.00  0.00     0.006 C 
ENDBRANCH   8   9
BRANCH   8  11
ATOM     11  C   LIG d   1      -6.267  77.473 117.429  0.00  0.00     0.028 C 
ATOM     12  C   LIG d   1      -7.296  78.495 117.938  0.00  0.00     0.006 C 
ENDBRANCH   8  11
ENDBRANCH   7   8
ENDBRANCH   1   7
BRANCH   6  13
ATOM     13  N   LIG d   1      -1.563  75.835 116.378  0.00  0.00    -0.311 N 
ATOM     14  C   LIG d   1      -1.215  74.550 116.337  0.00  0.00     0.210 C 
ATOM     15  C   LIG d   1      -0.781  73.955 117.680  0.00  0.00     0.109 C 
ATOM     16  O   LIG d   1      -1.194  73.855 115.310  0.00  0.00    -0.276 OA
ATOM     17  H   LIG d   1      -1.520  76.330 117.247  0.00  0.00     0.149 HD
ENDBRANCH   6  13
BRANCH   5  18
ATOM     18  N   LIG d   1      -0.071  76.006 113.718  0.00  0.00     0.381 N 
ATOM     19  H   LIG d   1       0.905  76.213 113.794  0.00  0.00    -0.090 HD
ATOM     20  H   LIG d   1      -0.302  75.932 112.743  0.00  0.00    -0.090 HD
ATOM     21  H   LIG d   1      -0.273  75.147 114.181  0.00  0.00    -0.090 HD
ENDBRANCH   5  18
BRANCH   3  22
ATOM     22  C   LIG d   1      -2.387  80.107 112.850  0.00  0.00     0.382 C 
ATOM     23  O   LIG d   1      -3.403  80.838 112.938  0.00  0.00    -0.241 OA
ATOM     24  O   LIG d   1      -1.478  80.414 112.056  0.00  0.00    -0.241 OA
ENDBRANCH   3  22
TORSDOF 7
ENDMDL
MODEL 9
REMARK VINA RESULT:      -5.1      2.879      6.367
REMARK  7 active torsions:
REMARK  status: ('A' for Active; 'I' for Inactive)
REMARK    1  A    between atoms: C_2  and  C_3 
REMARK    2  A    between atoms: C_3  and  O_6 
REMARK    3  A    between atoms: C_3  and  C_4 
REMARK    4  A    between atoms: C_7  and  O_6 
REMARK    5  A    between atoms: C_9  and  C_10 
REMARK    6  A    between atoms: N_15  and  C_14 
REMARK    7  A    between atoms: N_20  and  C_19 
REMARK       I    between atoms: C_22  and  N_20 
ROOT
ATOM      1  C   LIG d   1      -4.462  77.642 116.616  0.00  0.00     0.161 C 
ATOM      2  C   LIG d   1      -4.566  76.458 115.867  0.00  0.00     0.016 C 
ATOM      3  C   LIG d   1      -5.765  75.719 115.744  0.00  0.00     0.038 C 
ATOM      4  C   LIG d   1      -6.986  76.198 116.242  0.00  0.00     0.028 C 
ATOM      5  C   LIG d   1      -6.829  77.135 117.434  0.00  0.00    -0.047 C 
ATOM      6  C   LIG d   1      -5.809  78.239 117.073  0.00  0.00     0.091 C 
ENDROOT
BRANCH   1   7
ATOM      7  O   LIG d   1      -3.704  78.622 115.878  0.00  0.00    -0.368 OA
BRANCH   7   8
ATOM      8  C   LIG d   1      -2.629  78.107 115.055  0.00  0.00     0.119 C 
BRANCH   8   9
ATOM      9  C   LIG d   1      -1.342  78.138 115.902  0.00  0.00     0.028 C 
ATOM     10  C   LIG d   1      -0.394  76.973 115.573  0.00  0.00     0.006 C 
ENDBRANCH   8   9
BRANCH   8  11
ATOM     11  C   LIG d   1      -2.351  79.027 113.862  0.00  0.00     0.028 C 
ATOM     12  C   LIG d   1      -2.621  78.348 112.510  0.00  0.00     0.006 C 
ENDBRANCH   8  11
ENDBRANCH   7   8
ENDBRANCH   1   7
BRANCH   6  13
ATOM     13  N   LIG d   1      -5.533  79.151 118.214  0.00  0.00    -0.311 N 
ATOM     14  C   LIG d   1      -6.138  80.326 118.377  0.00  0.00     0.210 C 
ATOM     15  C   LIG d   1      -5.692  81.118 119.610  0.00  0.00     0.109 C 
ATOM     16  O   LIG d   1      -7.025  80.773 117.635  0.00  0.00    -0.276 OA
ATOM     17  H   LIG d   1      -4.849  78.852 118.882  0.00  0.00     0.149 HD
ENDBRANCH   6  13
BRANCH   5  18
ATOM     18  N   LIG d   1      -8.165  77.667 117.763  0.00  0.00     0.381 N 
ATOM     19  H   LIG d   1      -8.154  78.067 118.680  0.00  0.00    -0.090 HD
ATOM     20  H   LIG d   1      -8.826  76.910 117.756  0.00  0.00    -0.090 HD
ATOM     21  H   LIG d   1      -8.431  78.356 117.095  0.00  0.00    -0.090 HD
ENDBRANCH   5  18
BRANCH   3  22
ATOM     22  C   LIG d   1      -5.742  74.465 115.152  0.00  0.00     0.382 C 
ATOM     23  O   LIG d   1      -5.129  74.294 114.071  0.00  0.00    -0.241 OA
ATOM     24  O   LIG d   1      -6.363  73.514 115.662  0.00  0.00    -0.241 OA
ENDBRANCH   3  22
TORSDOF 7
ENDMDL
