MODEL 1
REMARK VINA RESULT:      -5.4      0.000      0.000
REMARK  7 active torsions:
REMARK  status: ('A' for Active; 'I' for Inactive)
REMARK    1  A    between atoms: C_2  and  C_3 
REMARK    2  A    between atoms: C_3  and  O_6 
REMARK    3  A    between atoms: C_3  and  C_4 
REMARK    4  A    between atoms: C_7  and  O_6 
REMARK    5  A    between atoms: C_9  and  C_10 
REMARK    6  A    between atoms: N_15  and  C_14 
REMARK    7  A    between atoms: N_20  and  C_19 
REMARK       I    between atoms: C_22  and  N_20 
ROOT
ATOM      1  C   LIG d   1      -3.788  74.541 117.012  0.00  0.00     0.161 C 
ATOM      2  C   LIG d   1      -2.720  75.282 116.480  0.00  0.00     0.016 C 
ATOM      3  C   LIG d   1      -2.844  76.123 115.350  0.00  0.00     0.038 C 
ATOM      4  C   LIG d   1      -4.088  76.399 114.764  0.00  0.00     0.028 C 
ATOM      5  C   LIG d   1      -5.108  75.282 114.954  0.00  0.00    -0.047 C 
ATOM      6  C   LIG d   1      -5.177  74.915 116.454  0.00  0.00     0.091 C 
ENDROOT
BRANCH   1   7
ATOM      7  O   LIG d   1      -3.782  74.640 118.450  0.00  0.00    -0.368 OA
BRANCH   7   8
ATOM      8  C   LIG d   1      -2.499  74.910 119.066  0.00  0.00     0.119 C 
BRANCH   8   9
ATOM      9  C   LIG d   1      -1.996  73.591 119.684  0.00  0.00     0.028 C 
ATOM     10  C   LIG d   1      -0.529  73.297 119.326  0.00  0.00     0.006 C 
ENDBRANCH   8   9
BRANCH   8  11
ATOM     11  C   LIG d   1      -2.638  75.882 120.241  0.00  0.00     0.028 C 
ATOM     12  C   LIG d   1      -3.951  76.680 120.202  0.00  0.00     0.006 C 
ENDBRANCH   8  11
ENDBRANCH   7   8
ENDBRANCH   1   7
BRANCH   6  13
ATOM     13  N   LIG d   1      -6.090  73.772 116.717  0.00  0.00    -0.311 N 
ATOM     14  C   LIG d   1      -7.368  73.919 117.062  0.00  0.00     0.210 C 
ATOM     15  C   LIG d   1      -8.126  72.610 117.306  0.00  0.00     0.109 C 
ATOM     16  O   LIG d   1      -7.954  75.008 117.157  0.00  0.00    -0.276 OA
ATOM     17  H   LIG d   1      -5.705  72.852 116.631  0.00  0.00     0.149 HD
ENDBRANCH   6  13
BRANCH   5  18
ATOM     18  N   LIG d   1      -6.397  75.758 114.416  0.00  0.00     0.381 N 
ATOM     19  H   LIG d   1      -6.763  75.087 113.770  0.00  0.00    -0.090 HD
ATOM     20  H   LIG d   1      -6.244  76.620 113.922  0.00  0.00    -0.090 HD
ATOM     21  H   LIG d   1      -7.044  75.902 115.159  0.00  0.00    -0.090 HD
ENDBRANCH   5  18
BRANCH   3  22
ATOM     22  C   LIG d   1      -1.708  76.668 114.771  0.00  0.00     0.382 C 
ATOM     23  O   LIG d   1      -1.600  76.709 113.522  0.00  0.00    -0.241 OA
ATOM     24  O   LIG d   1      -0.771  77.078 115.482  0.00  0.00    -0.241 OA
ENDBRANCH   3  22
TORSDOF 7
ENDMDL
MODEL 2
REMARK VINA RESULT:      -5.4      3.635      6.663
REMARK  7 active torsions:
REMARK  status: ('A' for Active; 'I' for Inactive)
REMARK    1  A    between atoms: C_2  and  C_3 
REMARK    2  A    between atoms: C_3  and  O_6 
REMARK    3  A    between atoms: C_3  and  C_4 
REMARK    4  A    between atoms: C_7  and  O_6 
REMARK    5  A    between atoms: C_9  and  C_10 
REMARK    6  A    between atoms: N_15  and  C_14 
REMARK    7  A    between atoms: N_20  and  C_19 
REMARK       I    between atoms: C_22  and  N_20 
ROOT
ATOM      1  C   LIG d   1      -6.547  76.909 118.284  0.00  0.00     0.161 C 
ATOM      2  C   LIG d   1      -7.925  76.803 118.534  0.00  0.00     0.016 C 
ATOM      3  C   LIG d   1      -8.825  77.887 118.411  0.00  0.00     0.038 C 
ATOM      4  C   LIG d   1      -8.428  79.123 117.880  0.00  0.00     0.028 C 
ATOM      5  C   LIG d   1      -6.948  79.426 118.091  0.00  0.00    -0.047 C 
ATOM      6  C   LIG d   1      -6.114  78.222 117.597  0.00  0.00     0.091 C 
ENDROOT
BRANCH   1   7
ATOM      7  O   LIG d   1      -6.100  75.772 117.519  0.00  0.00    -0.368 OA
BRANCH   7   8
ATOM      8  C   LIG d   1      -7.064  75.204 116.598  0.00  0.00     0.119 C 
BRANCH   8   9
ATOM      9  C   LIG d   1      -6.956  73.671 116.704  0.00  0.00     0.028 C 
ATOM     10  C   LIG d   1      -8.170  73.045 117.412  0.00  0.00     0.006 C 
ENDBRANCH   8   9
BRANCH   8  11
ATOM     11  C   LIG d   1      -6.709  75.536 115.146  0.00  0.00     0.028 C 
ATOM     12  C   LIG d   1      -5.216  75.343 114.837  0.00  0.00     0.006 C 
ENDBRANCH   8  11
ENDBRANCH   7   8
ENDBRANCH   1   7
BRANCH   6  13
ATOM     13  N   LIG d   1      -4.660  78.400 117.843  0.00  0.00    -0.311 N 
ATOM     14  C   LIG d   1      -3.761  78.524 116.869  0.00  0.00     0.210 C 
ATOM     15  C   LIG d   1      -2.312  78.678 117.341  0.00  0.00     0.109 C 
ATOM     16  O   LIG d   1      -4.029  78.553 115.658  0.00  0.00    -0.276 OA
ATOM     17  H   LIG d   1      -4.358  78.419 118.798  0.00  0.00     0.149 HD
ENDBRANCH   6  13
BRANCH   5  18
ATOM     18  N   LIG d   1      -6.642  80.676 117.370  0.00  0.00     0.381 N 
ATOM     19  H   LIG d   1      -5.654  80.753 117.231  0.00  0.00    -0.090 HD
ATOM     20  H   LIG d   1      -6.944  81.455 117.929  0.00  0.00    -0.090 HD
ATOM     21  H   LIG d   1      -7.111  80.686 116.491  0.00  0.00    -0.090 HD
ENDBRANCH   5  18
BRANCH   3  22
ATOM     22  C   LIG d   1     -10.130  77.751 118.860  0.00  0.00     0.382 C 
ATOM     23  O   LIG d   1     -10.981  77.170 118.145  0.00  0.00    -0.241 OA
ATOM     24  O   LIG d   1     -10.477  78.241 119.951  0.00  0.00    -0.241 OA
ENDBRANCH   3  22
TORSDOF 7
ENDMDL
MODEL 3
REMARK VINA RESULT:      -5.3      3.856      5.107
REMARK  7 active torsions:
REMARK  status: ('A' for Active; 'I' for Inactive)
REMARK    1  A    between atoms: C_2  and  C_3 
REMARK    2  A    between atoms: C_3  and  O_6 
REMARK    3  A    between atoms: C_3  and  C_4 
REMARK    4  A    between atoms: C_7  and  O_6 
REMARK    5  A    between atoms: C_9  and  C_10 
REMARK    6  A    between atoms: N_15  and  C_14 
REMARK    7  A    between atoms: N_20  and  C_19 
REMARK       I    between atoms: C_22  and  N_20 
ROOT
ATOM      1  C   LIG d   1      -6.629  77.648 117.209  0.00  0.00     0.161 C 
ATOM      2  C   LIG d   1      -5.641  77.418 116.237  0.00  0.00     0.016 C 
ATOM      3  C   LIG d   1      -5.451  76.170 115.600  0.00  0.00     0.038 C 
ATOM      4  C   LIG d   1      -6.342  75.102 115.783  0.00  0.00     0.028 C 
ATOM      5  C   LIG d   1      -7.052  75.129 117.132  0.00  0.00    -0.047 C 
ATOM      6  C   LIG d   1      -7.681  76.526 117.340  0.00  0.00     0.091 C 
ENDROOT
BRANCH   1   7
ATOM      7  O   LIG d   1      -7.274  78.912 116.959  0.00  0.00    -0.368 OA
BRANCH   7   8
ATOM      8  C   LIG d   1      -6.647  80.076 117.552  0.00  0.00     0.119 C 
BRANCH   8   9
ATOM      9  C   LIG d   1      -6.469  79.790 119.056  0.00  0.00     0.028 C 
ATOM     10  C   LIG d   1      -5.896  80.997 119.819  0.00  0.00     0.006 C 
ENDBRANCH   8   9
BRANCH   8  11
ATOM     11  C   LIG d   1      -7.562  81.302 117.477  0.00  0.00     0.028 C 
ATOM     12  C   LIG d   1      -9.043  80.953 117.694  0.00  0.00     0.006 C 
ENDBRANCH   8  11
ENDBRANCH   7   8
ENDBRANCH   1   7
BRANCH   6  13
ATOM     13  N   LIG d   1      -8.324  76.666 118.672  0.00  0.00    -0.311 N 
ATOM     14  C   LIG d   1      -9.555  77.142 118.846  0.00  0.00     0.210 C 
ATOM     15  C   LIG d   1     -10.019  77.221 120.304  0.00  0.00     0.109 C 
ATOM     16  O   LIG d   1     -10.320  77.476 117.928  0.00  0.00    -0.276 OA
ATOM     17  H   LIG d   1      -7.785  76.389 119.470  0.00  0.00     0.149 HD
ENDBRANCH   6  13
BRANCH   5  18
ATOM     18  N   LIG d   1      -8.048  74.041 117.133  0.00  0.00     0.381 N 
ATOM     19  H   LIG d   1      -8.607  74.092 116.305  0.00  0.00    -0.090 HD
ATOM     20  H   LIG d   1      -8.652  74.154 117.928  0.00  0.00    -0.090 HD
ATOM     21  H   LIG d   1      -7.589  73.158 117.179  0.00  0.00    -0.090 HD
ENDBRANCH   5  18
BRANCH   3  22
ATOM     22  C   LIG d   1      -4.338  75.970 114.799  0.00  0.00     0.382 C 
ATOM     23  O   LIG d   1      -4.236  76.572 113.703  0.00  0.00    -0.241 OA
ATOM     24  O   LIG d   1      -3.454  75.160 115.137  0.00  0.00    -0.241 OA
ENDBRANCH   3  22
TORSDOF 7
ENDMDL
MODEL 4
REMARK VINA RESULT:      -5.2      3.012      5.095
REMARK  7 active torsions:
REMARK  status: ('A' for Active; 'I' for Inactive)
REMARK    1  A    between atoms: C_2  and  C_3 
REMARK    2  A    between atoms: C_3  and  O_6 
REMARK    3  A    between atoms: C_3  and  C_4 
REMARK    4  A    between atoms: C_7  and  O_6 
REMARK    5  A    between atoms: C_9  and  C_10 
REMARK    6  A    between atoms: N_15  and  C_14 
REMARK    7  A    between atoms: N_20  and  C_19 
REMARK       I    between atoms: C_22  and  N_20 
ROOT
ATOM      1  C   LIG d   1      -2.654  77.452 116.438  0.00  0.00     0.161 C 
ATOM      2  C   LIG d   1      -2.961  78.298 115.360  0.00  0.00     0.016 C 
ATOM      3  C   LIG d   1      -2.280  78.259 114.122  0.00  0.00     0.038 C 
ATOM      4  C   LIG d   1      -1.339  77.262 113.824  0.00  0.00     0.028 C 
ATOM      5  C   LIG d   1      -0.639  76.703 115.057  0.00  0.00    -0.047 C 
ATOM      6  C   LIG d   1      -1.707  76.284 116.094  0.00  0.00     0.091 C 
ENDROOT
BRANCH   1   7
ATOM      7  O   LIG d   1      -3.870  76.952 117.029  0.00  0.00    -0.368 OA
BRANCH   7   8
ATOM      8  C   LIG d   1      -5.080  77.140 116.254  0.00  0.00     0.119 C 
BRANCH   8   9
ATOM      9  C   LIG d   1      -6.130  77.782 117.181  0.00  0.00     0.028 C 
ATOM     10  C   LIG d   1      -5.970  79.309 117.280  0.00  0.00     0.006 C 
ENDBRANCH   8   9
BRANCH   8  11
ATOM     11  C   LIG d   1      -5.682  75.798 115.827  0.00  0.00     0.028 C 
ATOM     12  C   LIG d   1      -6.331  75.851 114.435  0.00  0.00     0.006 C 
ENDBRANCH   8  11
ENDBRANCH   7   8
ENDBRANCH   1   7
BRANCH   6  13
ATOM     13  N   LIG d   1      -1.105  75.803 117.365  0.00  0.00    -0.311 N 
ATOM     14  C   LIG d   1      -1.511  74.704 117.999  0.00  0.00     0.210 C 
ATOM     15  C   LIG d   1      -0.769  74.399 119.304  0.00  0.00     0.109 C 
ATOM     16  O   LIG d   1      -2.393  73.936 117.587  0.00  0.00    -0.276 OA
ATOM     17  H   LIG d   1      -0.361  76.350 117.753  0.00  0.00     0.149 HD
ENDBRANCH   6  13
BRANCH   5  18
ATOM     18  N   LIG d   1       0.211  75.580 114.617  0.00  0.00     0.381 N 
ATOM     19  H   LIG d   1       0.761  75.250 115.384  0.00  0.00    -0.090 HD
ATOM     20  H   LIG d   1       0.834  75.907 113.899  0.00  0.00    -0.090 HD
ATOM     21  H   LIG d   1      -0.356  74.841 114.264  0.00  0.00    -0.090 HD
ENDBRANCH   5  18
BRANCH   3  22
ATOM     22  C   LIG d   1      -2.509  79.251 113.180  0.00  0.00     0.382 C 
ATOM     23  O   LIG d   1      -1.955  79.188 112.056  0.00  0.00    -0.241 OA
ATOM     24  O   LIG d   1      -3.228  80.230 113.455  0.00  0.00    -0.241 OA
ENDBRANCH   3  22
TORSDOF 7
ENDMDL
MODEL 5
REMARK VINA RESULT:      -5.2     16.568     18.469
REMARK  7 active torsions:
REMARK  status: ('A' for Active; 'I' for Inactive)
REMARK    1  A    between atoms: C_2  and  C_3 
REMARK    2  A    between atoms: C_3  and  O_6 
REMARK    3  A    between atoms: C_3  and  C_4 
REMARK    4  A    between atoms: C_7  and  O_6 
REMARK    5  A    between atoms: C_9  and  C_10 
REMARK    6  A    between atoms: N_15  and  C_14 
REMARK    7  A    between atoms: N_20  and  C_19 
REMARK       I    between atoms: C_22  and  N_20 
ROOT
ATOM      1  C   LIG d   1       1.086  58.038 118.132  0.00  0.00     0.161 C 
ATOM      2  C   LIG d   1       0.874  58.901 117.044  0.00  0.00     0.016 C 
ATOM      3  C   LIG d   1      -0.278  58.854 116.226  0.00  0.00     0.038 C 
ATOM      4  C   LIG d   1      -1.374  58.035 116.536  0.00  0.00     0.028 C 
ATOM      5  C   LIG d   1      -0.995  56.790 117.330  0.00  0.00    -0.047 C 
ATOM      6  C   LIG d   1      -0.148  57.213 118.552  0.00  0.00     0.091 C 
ENDROOT
BRANCH   1   7
ATOM      7  O   LIG d   1       1.597  58.783 119.255  0.00  0.00    -0.368 OA
BRANCH   7   8
ATOM      8  C   LIG d   1       2.995  58.578 119.572  0.00  0.00     0.119 C 
BRANCH   8   9
ATOM      9  C   LIG d   1       3.746  59.876 119.214  0.00  0.00     0.028 C 
ATOM     10  C   LIG d   1       4.380  59.819 117.814  0.00  0.00     0.006 C 
ENDBRANCH   8   9
BRANCH   8  11
ATOM     11  C   LIG d   1       3.615  57.493 118.687  0.00  0.00     0.028 C 
ATOM     12  C   LIG d   1       4.410  56.451 119.489  0.00  0.00     0.006 C 
ENDBRANCH   8  11
ENDBRANCH   7   8
ENDBRANCH   1   7
BRANCH   6  13
ATOM     13  N   LIG d   1       0.336  56.047 119.337  0.00  0.00    -0.311 N 
ATOM     14  C   LIG d   1       0.994  55.022 118.797  0.00  0.00     0.210 C 
ATOM     15  C   LIG d   1       1.385  53.915 119.781  0.00  0.00     0.109 C 
ATOM     16  O   LIG d   1       1.318  54.940 117.603  0.00  0.00    -0.276 OA
ATOM     17  H   LIG d   1       0.143  56.046 120.319  0.00  0.00     0.149 HD
ENDBRANCH   6  13
BRANCH   5  18
ATOM     18  N   LIG d   1      -2.245  56.101 117.703  0.00  0.00     0.381 N 
ATOM     19  H   LIG d   1      -2.595  55.587 116.919  0.00  0.00    -0.090 HD
ATOM     20  H   LIG d   1      -2.930  56.788 117.961  0.00  0.00    -0.090 HD
ATOM     21  H   LIG d   1      -2.079  55.483 118.467  0.00  0.00    -0.090 HD
ENDBRANCH   5  18
BRANCH   3  22
ATOM     22  C   LIG d   1      -0.326  59.605 115.061  0.00  0.00     0.382 C 
ATOM     23  O   LIG d   1      -1.400  60.147 114.708  0.00  0.00    -0.241 OA
ATOM     24  O   LIG d   1       0.682  59.710 114.337  0.00  0.00    -0.241 OA
ENDBRANCH   3  22
TORSDOF 7
ENDMDL
MODEL 6
REMARK VINA RESULT:      -5.2      4.001      5.302
REMARK  7 active torsions:
REMARK  status: ('A' for Active; 'I' for Inactive)
REMARK    1  A    between atoms: C_2  and  C_3 
REMARK    2  A    between atoms: C_3  and  O_6 
REMARK    3  A    between atoms: C_3  and  C_4 
REMARK    4  A    between atoms: C_7  and  O_6 
REMARK    5  A    between atoms: C_9  and  C_10 
REMARK    6  A    between atoms: N_15  and  C_14 
REMARK    7  A    between atoms: N_20  and  C_19 
REMARK       I    between atoms: C_22  and  N_20 
ROOT
ATOM      1  C   LIG d   1      -6.432  77.697 117.219  0.00  0.00     0.161 C 
ATOM      2  C   LIG d   1      -6.402  79.101 117.259  0.00  0.00     0.016 C 
ATOM      3  C   LIG d   1      -7.495  79.891 117.683  0.00  0.00     0.038 C 
ATOM      4  C   LIG d   1      -8.648  79.321 118.244  0.00  0.00     0.028 C 
ATOM      5  C   LIG d   1      -8.922  77.903 117.755  0.00  0.00    -0.047 C 
ATOM      6  C   LIG d   1      -7.641  77.056 117.932  0.00  0.00     0.091 C 
ENDROOT
BRANCH   1   7
ATOM      7  O   LIG d   1      -5.200  77.167 117.747  0.00  0.00    -0.368 OA
BRANCH   7   8
ATOM      8  C   LIG d   1      -4.399  76.381 116.830  0.00  0.00     0.119 C 
BRANCH   8   9
ATOM      9  C   LIG d   1      -5.071  76.459 115.446  0.00  0.00     0.028 C 
ATOM     10  C   LIG d   1      -5.304  75.070 114.828  0.00  0.00     0.006 C 
ENDBRANCH   8   9
BRANCH   8  11
ATOM     11  C   LIG d   1      -4.417  74.897 117.207  0.00  0.00     0.028 C 
ATOM     12  C   LIG d   1      -3.073  74.409 117.770  0.00  0.00     0.006 C 
ENDBRANCH   8  11
ENDBRANCH   7   8
ENDBRANCH   1   7
BRANCH   6  13
ATOM     13  N   LIG d   1      -7.796  75.676 117.400  0.00  0.00    -0.311 N 
ATOM     14  C   LIG d   1      -8.155  74.637 118.152  0.00  0.00     0.210 C 
ATOM     15  C   LIG d   1      -8.236  73.300 117.410  0.00  0.00     0.109 C 
ATOM     16  O   LIG d   1      -8.444  74.702 119.356  0.00  0.00    -0.276 OA
ATOM     17  H   LIG d   1      -7.611  75.540 116.426  0.00  0.00     0.149 HD
ENDBRANCH   6  13
BRANCH   5  18
ATOM     18  N   LIG d   1     -10.070  77.382 118.521  0.00  0.00     0.381 N 
ATOM     19  H   LIG d   1     -10.264  77.986 119.294  0.00  0.00    -0.090 HD
ATOM     20  H   LIG d   1      -9.834  76.474 118.882  0.00  0.00    -0.090 HD
ATOM     21  H   LIG d   1     -10.870  77.316 117.932  0.00  0.00    -0.090 HD
ENDBRANCH   5  18
BRANCH   3  22
ATOM     22  C   LIG d   1      -7.457  81.266 117.512  0.00  0.00     0.382 C 
ATOM     23  O   LIG d   1      -7.018  82.001 118.429  0.00  0.00    -0.241 OA
ATOM     24  O   LIG d   1      -7.897  81.785 116.468  0.00  0.00    -0.241 OA
ENDBRANCH   3  22
TORSDOF 7
ENDMDL
MODEL 7
REMARK VINA RESULT:      -5.0      3.747      6.140
REMARK  7 active torsions:
REMARK  status: ('A' for Active; 'I' for Inactive)
REMARK    1  A    between atoms: C_2  and  C_3 
REMARK    2  A    between atoms: C_3  and  O_6 
REMARK    3  A    between atoms: C_3  and  C_4 
REMARK    4  A    between atoms: C_7  and  O_6 
REMARK    5  A    between atoms: C_9  and  C_10 
REMARK    6  A    between atoms: N_15  and  C_14 
REMARK    7  A    between atoms: N_20  and  C_19 
REMARK       I    between atoms: C_22  and  N_20 
ROOT
ATOM      1  C   LIG d   1      -6.783  77.141 117.816  0.00  0.00     0.161 C 
ATOM      2  C   LIG d   1      -7.805  78.061 117.529  0.00  0.00     0.016 C 
ATOM      3  C   LIG d   1      -7.674  79.455 117.723  0.00  0.00     0.038 C 
ATOM      4  C   LIG d   1      -6.450  80.043 118.077  0.00  0.00     0.028 C 
ATOM      5  C   LIG d   1      -5.535  79.110 118.863  0.00  0.00    -0.047 C 
ATOM      6  C   LIG d   1      -5.404  77.773 118.097  0.00  0.00     0.091 C 
ENDROOT
BRANCH   1   7
ATOM      7  O   LIG d   1      -6.683  76.174 116.751  0.00  0.00    -0.368 OA
BRANCH   7   8
ATOM      8  C   LIG d   1      -6.711  74.782 117.150  0.00  0.00     0.119 C 
BRANCH   8   9
ATOM      9  C   LIG d   1      -6.060  73.963 116.019  0.00  0.00     0.028 C 
ATOM     10  C   LIG d   1      -5.479  74.854 114.909  0.00  0.00     0.006 C 
ENDBRANCH   8   9
BRANCH   8  11
ATOM     11  C   LIG d   1      -8.148  74.261 117.253  0.00  0.00     0.028 C 
ATOM     12  C   LIG d   1      -8.218  72.735 117.420  0.00  0.00     0.006 C 
ENDBRANCH   8  11
ENDBRANCH   7   8
ENDBRANCH   1   7
BRANCH   6  13
ATOM     13  N   LIG d   1      -4.593  76.772 118.839  0.00  0.00    -0.311 N 
ATOM     14  C   LIG d   1      -3.542  76.145 118.313  0.00  0.00     0.210 C 
ATOM     15  C   LIG d   1      -2.859  75.137 119.242  0.00  0.00     0.109 C 
ATOM     16  O   LIG d   1      -3.092  76.351 117.176  0.00  0.00    -0.276 OA
ATOM     17  H   LIG d   1      -4.870  76.567 119.779  0.00  0.00     0.149 HD
ENDBRANCH   6  13
BRANCH   5  18
ATOM     18  N   LIG d   1      -4.245  79.800 119.046  0.00  0.00     0.381 N 
ATOM     19  H   LIG d   1      -3.500  79.132 119.052  0.00  0.00    -0.090 HD
ATOM     20  H   LIG d   1      -4.251  80.273 119.933  0.00  0.00    -0.090 HD
ATOM     21  H   LIG d   1      -4.103  80.459 118.312  0.00  0.00    -0.090 HD
ENDBRANCH   5  18
BRANCH   3  22
ATOM     22  C   LIG d   1      -8.786  80.274 117.601  0.00  0.00     0.382 C 
ATOM     23  O   LIG d   1      -9.893  79.900 118.059  0.00  0.00    -0.241 OA
ATOM     24  O   LIG d   1      -8.707  81.362 116.999  0.00  0.00    -0.241 OA
ENDBRANCH   3  22
TORSDOF 7
ENDMDL
MODEL 8
REMARK VINA RESULT:      -4.8      3.176      5.381
REMARK  7 active torsions:
REMARK  status: ('A' for Active; 'I' for Inactive)
REMARK    1  A    between atoms: C_2  and  C_3 
REMARK    2  A    between atoms: C_3  and  O_6 
REMARK    3  A    between atoms: C_3  and  C_4 
REMARK    4  A    between atoms: C_7  and  O_6 
REMARK    5  A    between atoms: C_9  and  C_10 
REMARK    6  A    between atoms: N_15  and  C_14 
REMARK    7  A    between atoms: N_20  and  C_19 
REMARK       I    between atoms: C_22  and  N_20 
ROOT
ATOM      1  C   LIG d   1      -5.406  76.212 117.469  0.00  0.00     0.161 C 
ATOM      2  C   LIG d   1      -4.412  75.221 117.541  0.00  0.00     0.016 C 
ATOM      3  C   LIG d   1      -3.082  75.482 117.944  0.00  0.00     0.038 C 
ATOM      4  C   LIG d   1      -2.692  76.731 118.450  0.00  0.00     0.028 C 
ATOM      5  C   LIG d   1      -3.532  77.888 117.921  0.00  0.00    -0.047 C 
ATOM      6  C   LIG d   1      -5.028  77.556 118.124  0.00  0.00     0.091 C 
ENDROOT
BRANCH   1   7
ATOM      7  O   LIG d   1      -6.636  75.710 118.029  0.00  0.00    -0.368 OA
BRANCH   7   8
ATOM      8  C   LIG d   1      -7.475  74.938 117.135  0.00  0.00     0.119 C 
BRANCH   8   9
ATOM      9  C   LIG d   1      -8.517  75.899 116.531  0.00  0.00     0.028 C 
ATOM     10  C   LIG d   1      -9.130  76.837 117.585  0.00  0.00     0.006 C 
ENDBRANCH   8   9
BRANCH   8  11
ATOM     11  C   LIG d   1      -8.287  73.889 117.901  0.00  0.00     0.028 C 
ATOM     12  C   LIG d   1      -8.116  72.471 117.332  0.00  0.00     0.006 C 
ENDBRANCH   8  11
ENDBRANCH   7   8
ENDBRANCH   1   7
BRANCH   6  13
ATOM     13  N   LIG d   1      -5.922  78.600 117.558  0.00  0.00    -0.311 N 
ATOM     14  C   LIG d   1      -6.422  79.604 118.274  0.00  0.00     0.210 C 
ATOM     15  C   LIG d   1      -7.338  80.558 117.500  0.00  0.00     0.109 C 
ATOM     16  O   LIG d   1      -6.170  79.815 119.470  0.00  0.00    -0.276 OA
ATOM     17  H   LIG d   1      -6.154  78.524 116.586  0.00  0.00     0.149 HD
ENDBRANCH   6  13
BRANCH   5  18
ATOM     18  N   LIG d   1      -3.108  79.108 118.634  0.00  0.00     0.381 N 
ATOM     19  H   LIG d   1      -3.862  79.766 118.658  0.00  0.00    -0.090 HD
ATOM     20  H   LIG d   1      -2.341  79.525 118.137  0.00  0.00    -0.090 HD
ATOM     21  H   LIG d   1      -2.827  78.881 119.562  0.00  0.00    -0.090 HD
ENDBRANCH   5  18
BRANCH   3  22
ATOM     22  C   LIG d   1      -2.116  74.497 117.804  0.00  0.00     0.382 C 
ATOM     23  O   LIG d   1      -1.166  74.661 117.001  0.00  0.00    -0.241 OA
ATOM     24  O   LIG d   1      -2.208  73.428 118.437  0.00  0.00    -0.241 OA
ENDBRANCH   3  22
TORSDOF 7
ENDMDL
MODEL 9
REMARK VINA RESULT:      -4.8     13.610     15.960
REMARK  7 active torsions:
REMARK  status: ('A' for Active; 'I' for Inactive)
REMARK    1  A    between atoms: C_2  and  C_3 
REMARK    2  A    between atoms: C_3  and  O_6 
REMARK    3  A    between atoms: C_3  and  C_4 
REMARK    4  A    between atoms: C_7  and  O_6 
REMARK    5  A    between atoms: C_9  and  C_10 
REMARK    6  A    between atoms: N_15  and  C_14 
REMARK    7  A    between atoms: N_20  and  C_19 
REMARK       I    between atoms: C_22  and  N_20 
ROOT
ATOM      1  C   LIG d   1       3.249  88.618 115.775  0.00  0.00     0.161 C 
ATOM      2  C   LIG d   1       3.412  89.748 116.593  0.00  0.00     0.016 C 
ATOM      3  C   LIG d   1       4.421  90.718 116.389  0.00  0.00     0.038 C 
ATOM      4  C   LIG d   1       5.246  90.702 115.255  0.00  0.00     0.028 C 
ATOM      5  C   LIG d   1       5.449  89.306 114.674  0.00  0.00    -0.047 C 
ATOM      6  C   LIG d   1       4.069  88.642 114.468  0.00  0.00     0.091 C 
ENDROOT
BRANCH   1   7
ATOM      7  O   LIG d   1       1.850  88.422 115.486  0.00  0.00    -0.368 OA
BRANCH   7   8
ATOM      8  C   LIG d   1       1.213  87.302 116.147  0.00  0.00     0.119 C 
BRANCH   8   9
ATOM      9  C   LIG d   1       0.795  86.297 115.057  0.00  0.00     0.028 C 
ATOM     10  C   LIG d   1       1.419  84.907 115.269  0.00  0.00     0.006 C 
ENDBRANCH   8   9
BRANCH   8  11
ATOM     11  C   LIG d   1      -0.091  87.726 116.830  0.00  0.00     0.028 C 
ATOM     12  C   LIG d   1      -0.149  87.318 118.310  0.00  0.00     0.006 C 
ENDBRANCH   8  11
ENDBRANCH   7   8
ENDBRANCH   1   7
BRANCH   6  13
ATOM     13  N   LIG d   1       4.180  87.242 113.981  0.00  0.00    -0.311 N 
ATOM     14  C   LIG d   1       3.616  86.811 112.854  0.00  0.00     0.210 C 
ATOM     15  C   LIG d   1       3.838  85.327 112.547  0.00  0.00     0.109 C 
ATOM     16  O   LIG d   1       2.981  87.525 112.063  0.00  0.00    -0.276 OA
ATOM     17  H   LIG d   1       4.704  86.603 114.546  0.00  0.00     0.149 HD
ENDBRANCH   6  13
BRANCH   5  18
ATOM     18  N   LIG d   1       6.213  89.453 113.420  0.00  0.00     0.381 N 
ATOM     19  H   LIG d   1       5.587  89.637 112.662  0.00  0.00    -0.090 HD
ATOM     20  H   LIG d   1       6.694  88.591 113.230  0.00  0.00    -0.090 HD
ATOM     21  H   LIG d   1       6.870  90.197 113.506  0.00  0.00    -0.090 HD
ENDBRANCH   5  18
BRANCH   3  22
ATOM     22  C   LIG d   1       4.638  91.696 117.348  0.00  0.00     0.382 C 
ATOM     23  O   LIG d   1       5.136  91.387 118.457  0.00  0.00    -0.241 OA
ATOM     24  O   LIG d   1       4.301  92.876 117.134  0.00  0.00    -0.241 OA
ENDBRANCH   3  22
TORSDOF 7
ENDMDL
