MODEL 1
REMARK VINA RESULT:      -5.6      0.000      0.000
REMARK  7 active torsions:
REMARK  status: ('A' for Active; 'I' for Inactive)
REMARK    1  A    between atoms: C_2  and  C_3 
REMARK    2  A    between atoms: C_3  and  O_6 
REMARK    3  A    between atoms: C_3  and  C_4 
REMARK    4  A    between atoms: C_7  and  O_6 
REMARK    5  A    between atoms: C_9  and  C_10 
REMARK    6  A    between atoms: N_15  and  C_14 
REMARK    7  A    between atoms: N_20  and  C_19 
REMARK       I    between atoms: C_22  and  N_20 
ROOT
ATOM      1  C   LIG d   1      -7.125  75.617 117.636  0.00  0.00     0.161 C 
ATOM      2  C   LIG d   1      -8.441  75.574 118.126  0.00  0.00     0.016 C 
ATOM      3  C   LIG d   1      -9.126  76.708 118.619  0.00  0.00     0.038 C 
ATOM      4  C   LIG d   1      -8.591  78.001 118.514  0.00  0.00     0.028 C 
ATOM      5  C   LIG d   1      -7.066  78.025 118.490  0.00  0.00    -0.047 C 
ATOM      6  C   LIG d   1      -6.566  77.038 117.411  0.00  0.00     0.091 C 
ENDROOT
BRANCH   1   7
ATOM      7  O   LIG d   1      -7.029  74.843 116.424  0.00  0.00    -0.368 OA
BRANCH   7   8
ATOM      8  C   LIG d   1      -5.967  73.859 116.379  0.00  0.00     0.119 C 
BRANCH   8   9
ATOM      9  C   LIG d   1      -5.062  74.208 115.182  0.00  0.00     0.028 C 
ATOM     10  C   LIG d   1      -5.739  75.178 114.199  0.00  0.00     0.006 C 
ENDBRANCH   8   9
BRANCH   8  11
ATOM     11  C   LIG d   1      -6.516  72.461 116.078  0.00  0.00     0.028 C 
ATOM     12  C   LIG d   1      -7.650  72.048 117.030  0.00  0.00     0.006 C 
ENDBRANCH   8  11
ENDBRANCH   7   8
ENDBRANCH   1   7
BRANCH   6  13
ATOM     13  N   LIG d   1      -5.083  76.937 117.379  0.00  0.00    -0.311 N 
ATOM     14  C   LIG d   1      -4.316  77.676 116.580  0.00  0.00     0.210 C 
ATOM     15  C   LIG d   1      -2.813  77.400 116.690  0.00  0.00     0.109 C 
ATOM     16  O   LIG d   1      -4.734  78.557 115.813  0.00  0.00    -0.276 OA
ATOM     17  H   LIG d   1      -4.658  76.269 117.992  0.00  0.00     0.149 HD
ENDBRANCH   6  13
BRANCH   5  18
ATOM     18  N   LIG d   1      -6.646  79.417 118.240  0.00  0.00     0.381 N 
ATOM     19  H   LIG d   1      -7.450  80.011 118.197  0.00  0.00    -0.090 HD
ATOM     20  H   LIG d   1      -6.175  79.460 117.353  0.00  0.00    -0.090 HD
ATOM     21  H   LIG d   1      -6.036  79.724 118.964  0.00  0.00    -0.090 HD
ENDBRANCH   5  18
BRANCH   3  22
ATOM     22  C   LIG d   1     -10.345  76.550 119.261  0.00  0.00     0.382 C 
ATOM     23  O   LIG d   1     -11.358  77.160 118.842  0.00  0.00    -0.241 OA
ATOM     24  O   LIG d   1     -10.434  75.840 120.281  0.00  0.00    -0.241 OA
ENDBRANCH   3  22
TORSDOF 7
ENDMDL
MODEL 2
REMARK VINA RESULT:      -5.5      2.450      4.130
REMARK  7 active torsions:
REMARK  status: ('A' for Active; 'I' for Inactive)
REMARK    1  A    between atoms: C_2  and  C_3 
REMARK    2  A    between atoms: C_3  and  O_6 
REMARK    3  A    between atoms: C_3  and  C_4 
REMARK    4  A    between atoms: C_7  and  O_6 
REMARK    5  A    between atoms: C_9  and  C_10 
REMARK    6  A    between atoms: N_15  and  C_14 
REMARK    7  A    between atoms: N_20  and  C_19 
REMARK       I    between atoms: C_22  and  N_20 
ROOT
ATOM      1  C   LIG d   1      -5.229  75.340 117.759  0.00  0.00     0.161 C 
ATOM      2  C   LIG d   1      -5.537  74.070 117.244  0.00  0.00     0.016 C 
ATOM      3  C   LIG d   1      -6.857  73.635 116.985  0.00  0.00     0.038 C 
ATOM      4  C   LIG d   1      -7.957  74.501 117.083  0.00  0.00     0.028 C 
ATOM      5  C   LIG d   1      -7.747  75.635 118.081  0.00  0.00    -0.047 C 
ATOM      6  C   LIG d   1      -6.407  76.338 117.767  0.00  0.00     0.091 C 
ENDROOT
BRANCH   1   7
ATOM      7  O   LIG d   1      -4.106  75.897 117.048  0.00  0.00    -0.368 OA
BRANCH   7   8
ATOM      8  C   LIG d   1      -3.766  75.258 115.793  0.00  0.00     0.119 C 
BRANCH   8   9
ATOM      9  C   LIG d   1      -2.229  75.207 115.700  0.00  0.00     0.028 C 
ATOM     10  C   LIG d   1      -1.598  74.396 116.844  0.00  0.00     0.006 C 
ENDBRANCH   8   9
BRANCH   8  11
ATOM     11  C   LIG d   1      -4.217  76.102 114.597  0.00  0.00     0.028 C 
ATOM     12  C   LIG d   1      -5.481  75.549 113.919  0.00  0.00     0.006 C 
ENDBRANCH   8  11
ENDBRANCH   7   8
ENDBRANCH   1   7
BRANCH   6  13
ATOM     13  N   LIG d   1      -6.084  77.407 118.749  0.00  0.00    -0.311 N 
ATOM     14  C   LIG d   1      -6.362  78.694 118.549  0.00  0.00     0.210 C 
ATOM     15  C   LIG d   1      -5.926  79.632 119.678  0.00  0.00     0.109 C 
ATOM     16  O   LIG d   1      -6.956  79.143 117.558  0.00  0.00    -0.276 OA
ATOM     17  H   LIG d   1      -5.628  77.126 119.595  0.00  0.00     0.149 HD
ENDBRANCH   6  13
BRANCH   5  18
ATOM     18  N   LIG d   1      -8.910  76.537 117.981  0.00  0.00     0.381 N 
ATOM     19  H   LIG d   1      -9.674  76.058 117.547  0.00  0.00    -0.090 HD
ATOM     20  H   LIG d   1      -8.663  77.324 117.407  0.00  0.00    -0.090 HD
ATOM     21  H   LIG d   1      -9.178  76.850 118.889  0.00  0.00    -0.090 HD
ENDBRANCH   5  18
BRANCH   3  22
ATOM     22  C   LIG d   1      -7.092  72.307 116.662  0.00  0.00     0.382 C 
ATOM     23  O   LIG d   1      -6.454  71.767 115.726  0.00  0.00    -0.241 OA
ATOM     24  O   LIG d   1      -7.965  71.655 117.265  0.00  0.00    -0.241 OA
ENDBRANCH   3  22
TORSDOF 7
ENDMDL
MODEL 3
REMARK VINA RESULT:      -5.4      2.583      5.497
REMARK  7 active torsions:
REMARK  status: ('A' for Active; 'I' for Inactive)
REMARK    1  A    between atoms: C_2  and  C_3 
REMARK    2  A    between atoms: C_3  and  O_6 
REMARK    3  A    between atoms: C_3  and  C_4 
REMARK    4  A    between atoms: C_7  and  O_6 
REMARK    5  A    between atoms: C_9  and  C_10 
REMARK    6  A    between atoms: N_15  and  C_14 
REMARK    7  A    between atoms: N_20  and  C_19 
REMARK       I    between atoms: C_22  and  N_20 
ROOT
ATOM      1  C   LIG d   1      -4.852  75.812 115.976  0.00  0.00     0.161 C 
ATOM      2  C   LIG d   1      -3.720  75.037 115.673  0.00  0.00     0.016 C 
ATOM      3  C   LIG d   1      -2.538  75.049 116.450  0.00  0.00     0.038 C 
ATOM      4  C   LIG d   1      -2.463  75.728 117.675  0.00  0.00     0.028 C 
ATOM      5  C   LIG d   1      -3.404  76.925 117.763  0.00  0.00    -0.047 C 
ATOM      6  C   LIG d   1      -4.829  76.473 117.370  0.00  0.00     0.091 C 
ENDROOT
BRANCH   1   7
ATOM      7  O   LIG d   1      -6.044  75.017 115.818  0.00  0.00    -0.368 OA
BRANCH   7   8
ATOM      8  C   LIG d   1      -6.332  74.080 116.885  0.00  0.00     0.119 C 
BRANCH   8   9
ATOM      9  C   LIG d   1      -6.465  72.683 116.250  0.00  0.00     0.028 C 
ATOM     10  C   LIG d   1      -7.463  71.788 117.005  0.00  0.00     0.006 C 
ENDBRANCH   8   9
BRANCH   8  11
ATOM     11  C   LIG d   1      -7.693  74.366 117.526  0.00  0.00     0.028 C 
ATOM     12  C   LIG d   1      -8.545  75.346 116.703  0.00  0.00     0.006 C 
ENDBRANCH   8  11
ENDBRANCH   7   8
ENDBRANCH   1   7
BRANCH   6  13
ATOM     13  N   LIG d   1      -5.796  77.602 117.348  0.00  0.00    -0.311 N 
ATOM     14  C   LIG d   1      -6.575  77.920 118.380  0.00  0.00     0.210 C 
ATOM     15  C   LIG d   1      -7.514  79.106 118.140  0.00  0.00     0.109 C 
ATOM     16  O   LIG d   1      -6.555  77.352 119.482  0.00  0.00    -0.276 OA
ATOM     17  H   LIG d   1      -5.855  78.136 116.503  0.00  0.00     0.149 HD
ENDBRANCH   6  13
BRANCH   5  18
ATOM     18  N   LIG d   1      -3.324  77.455 119.137  0.00  0.00     0.381 N 
ATOM     19  H   LIG d   1      -2.532  77.063 119.606  0.00  0.00    -0.090 HD
ATOM     20  H   LIG d   1      -4.152  77.186 119.638  0.00  0.00    -0.090 HD
ATOM     21  H   LIG d   1      -3.248  78.448 119.116  0.00  0.00    -0.090 HD
ENDBRANCH   5  18
BRANCH   3  22
ATOM     22  C   LIG d   1      -1.401  74.409 115.981  0.00  0.00     0.382 C 
ATOM     23  O   LIG d   1      -1.116  74.452 114.760  0.00  0.00    -0.241 OA
ATOM     24  O   LIG d   1      -0.682  73.752 116.756  0.00  0.00    -0.241 OA
ENDBRANCH   3  22
TORSDOF 7
ENDMDL
MODEL 4
REMARK VINA RESULT:      -5.3      2.138      3.146
REMARK  7 active torsions:
REMARK  status: ('A' for Active; 'I' for Inactive)
REMARK    1  A    between atoms: C_2  and  C_3 
REMARK    2  A    between atoms: C_3  and  O_6 
REMARK    3  A    between atoms: C_3  and  C_4 
REMARK    4  A    between atoms: C_7  and  O_6 
REMARK    5  A    between atoms: C_9  and  C_10 
REMARK    6  A    between atoms: N_15  and  C_14 
REMARK    7  A    between atoms: N_20  and  C_19 
REMARK       I    between atoms: C_22  and  N_20 
ROOT
ATOM      1  C   LIG d   1      -5.158  75.046 117.975  0.00  0.00     0.161 C 
ATOM      2  C   LIG d   1      -6.475  75.534 118.002  0.00  0.00     0.016 C 
ATOM      3  C   LIG d   1      -6.805  76.896 117.815  0.00  0.00     0.038 C 
ATOM      4  C   LIG d   1      -5.845  77.846 117.435  0.00  0.00     0.028 C 
ATOM      5  C   LIG d   1      -4.432  77.495 117.891  0.00  0.00    -0.047 C 
ATOM      6  C   LIG d   1      -4.108  76.049 117.452  0.00  0.00     0.091 C 
ENDROOT
BRANCH   1   7
ATOM      7  O   LIG d   1      -5.105  73.823 117.214  0.00  0.00    -0.368 OA
BRANCH   7   8
ATOM      8  C   LIG d   1      -6.048  73.713 116.119  0.00  0.00     0.119 C 
BRANCH   8   9
ATOM      9  C   LIG d   1      -6.473  72.235 116.021  0.00  0.00     0.028 C 
ATOM     10  C   LIG d   1      -7.567  71.870 117.039  0.00  0.00     0.006 C 
ENDBRANCH   8   9
BRANCH   8  11
ATOM     11  C   LIG d   1      -5.382  74.033 114.777  0.00  0.00     0.028 C 
ATOM     12  C   LIG d   1      -5.822  75.388 114.202  0.00  0.00     0.006 C 
ENDBRANCH   8  11
ENDBRANCH   7   8
ENDBRANCH   1   7
BRANCH   6  13
ATOM     13  N   LIG d   1      -2.776  75.596 117.931  0.00  0.00    -0.311 N 
ATOM     14  C   LIG d   1      -1.891  74.973 117.155  0.00  0.00     0.210 C 
ATOM     15  C   LIG d   1      -0.587  74.574 117.853  0.00  0.00     0.109 C 
ATOM     16  O   LIG d   1      -2.048  74.742 115.946  0.00  0.00    -0.276 OA
ATOM     17  H   LIG d   1      -2.553  75.771 118.891  0.00  0.00     0.149 HD
ENDBRANCH   6  13
BRANCH   5  18
ATOM     18  N   LIG d   1      -3.516  78.495 117.311  0.00  0.00     0.381 N 
ATOM     19  H   LIG d   1      -3.194  79.115 118.027  0.00  0.00    -0.090 HD
ATOM     20  H   LIG d   1      -4.015  79.035 116.626  0.00  0.00    -0.090 HD
ATOM     21  H   LIG d   1      -2.740  78.039 116.884  0.00  0.00    -0.090 HD
ENDBRANCH   5  18
BRANCH   3  22
ATOM     22  C   LIG d   1      -8.102  77.327 118.048  0.00  0.00     0.382 C 
ATOM     23  O   LIG d   1      -9.046  76.501 118.055  0.00  0.00    -0.241 OA
ATOM     24  O   LIG d   1      -8.346  78.538 118.206  0.00  0.00    -0.241 OA
ENDBRANCH   3  22
TORSDOF 7
ENDMDL
MODEL 5
REMARK VINA RESULT:      -5.1      3.796      6.587
REMARK  7 active torsions:
REMARK  status: ('A' for Active; 'I' for Inactive)
REMARK    1  A    between atoms: C_2  and  C_3 
REMARK    2  A    between atoms: C_3  and  O_6 
REMARK    3  A    between atoms: C_3  and  C_4 
REMARK    4  A    between atoms: C_7  and  O_6 
REMARK    5  A    between atoms: C_9  and  C_10 
REMARK    6  A    between atoms: N_15  and  C_14 
REMARK    7  A    between atoms: N_20  and  C_19 
REMARK       I    between atoms: C_22  and  N_20 
ROOT
ATOM      1  C   LIG d   1      -2.622  75.769 117.052  0.00  0.00     0.161 C 
ATOM      2  C   LIG d   1      -3.170  76.339 115.891  0.00  0.00     0.016 C 
ATOM      3  C   LIG d   1      -2.450  76.488 114.683  0.00  0.00     0.038 C 
ATOM      4  C   LIG d   1      -1.172  75.936 114.509  0.00  0.00     0.028 C 
ATOM      5  C   LIG d   1      -0.389  75.798 115.810  0.00  0.00    -0.047 C 
ATOM      6  C   LIG d   1      -1.267  75.060 116.847  0.00  0.00     0.091 C 
ENDROOT
BRANCH   1   7
ATOM      7  O   LIG d   1      -3.574  74.866 117.649  0.00  0.00    -0.368 OA
BRANCH   7   8
ATOM      8  C   LIG d   1      -4.939  74.974 117.175  0.00  0.00     0.119 C 
BRANCH   8   9
ATOM      9  C   LIG d   1      -5.851  75.084 118.412  0.00  0.00     0.028 C 
ATOM     10  C   LIG d   1      -7.344  75.023 118.047  0.00  0.00     0.006 C 
ENDBRANCH   8   9
BRANCH   8  11
ATOM     11  C   LIG d   1      -5.382  73.696 116.456  0.00  0.00     0.028 C 
ATOM     12  C   LIG d   1      -5.497  73.878 114.934  0.00  0.00     0.006 C 
ENDBRANCH   8  11
ENDBRANCH   7   8
ENDBRANCH   1   7
BRANCH   6  13
ATOM     13  N   LIG d   1      -0.608  74.957 118.176  0.00  0.00    -0.311 N 
ATOM     14  C   LIG d   1      -0.169  73.809 118.689  0.00  0.00     0.210 C 
ATOM     15  C   LIG d   1       0.461  73.922 120.081  0.00  0.00     0.109 C 
ATOM     16  O   LIG d   1      -0.212  72.713 118.110  0.00  0.00    -0.276 OA
ATOM     17  H   LIG d   1      -0.504  75.804 118.700  0.00  0.00     0.149 HD
ENDBRANCH   6  13
BRANCH   5  18
ATOM     18  N   LIG d   1       0.865  75.085 115.502  0.00  0.00     0.381 N 
ATOM     19  H   LIG d   1       1.517  75.207 116.251  0.00  0.00    -0.090 HD
ATOM     20  H   LIG d   1       1.265  75.476 114.668  0.00  0.00    -0.090 HD
ATOM     21  H   LIG d   1       0.681  74.115 115.368  0.00  0.00    -0.090 HD
ENDBRANCH   5  18
BRANCH   3  22
ATOM     22  C   LIG d   1      -2.993  77.232 113.646  0.00  0.00     0.382 C 
ATOM     23  O   LIG d   1      -3.372  78.410 113.851  0.00  0.00    -0.241 OA
ATOM     24  O   LIG d   1      -3.151  76.724 112.520  0.00  0.00    -0.241 OA
ENDBRANCH   3  22
TORSDOF 7
ENDMDL
MODEL 6
REMARK VINA RESULT:      -4.9      2.129      2.831
REMARK  7 active torsions:
REMARK  status: ('A' for Active; 'I' for Inactive)
REMARK    1  A    between atoms: C_2  and  C_3 
REMARK    2  A    between atoms: C_3  and  O_6 
REMARK    3  A    between atoms: C_3  and  C_4 
REMARK    4  A    between atoms: C_7  and  O_6 
REMARK    5  A    between atoms: C_9  and  C_10 
REMARK    6  A    between atoms: N_15  and  C_14 
REMARK    7  A    between atoms: N_20  and  C_19 
REMARK       I    between atoms: C_22  and  N_20 
ROOT
ATOM      1  C   LIG d   1      -7.404  77.836 118.344  0.00  0.00     0.161 C 
ATOM      2  C   LIG d   1      -8.507  77.014 118.631  0.00  0.00     0.016 C 
ATOM      3  C   LIG d   1      -9.788  77.517 118.956  0.00  0.00     0.038 C 
ATOM      4  C   LIG d   1     -10.093  78.883 118.869  0.00  0.00     0.028 C 
ATOM      5  C   LIG d   1      -8.882  79.788 119.076  0.00  0.00    -0.047 C 
ATOM      6  C   LIG d   1      -7.745  79.326 118.136  0.00  0.00     0.091 C 
ENDROOT
BRANCH   1   7
ATOM      7  O   LIG d   1      -6.694  77.320 117.201  0.00  0.00    -0.368 OA
BRANCH   7   8
ATOM      8  C   LIG d   1      -6.094  76.011 117.362  0.00  0.00     0.119 C 
BRANCH   8   9
ATOM      9  C   LIG d   1      -4.588  76.153 117.068  0.00  0.00     0.028 C 
ATOM     10  C   LIG d   1      -3.875  74.792 116.986  0.00  0.00     0.006 C 
ENDBRANCH   8   9
BRANCH   8  11
ATOM     11  C   LIG d   1      -6.620  75.025 116.314  0.00  0.00     0.028 C 
ATOM     12  C   LIG d   1      -7.490  73.915 116.925  0.00  0.00     0.006 C 
ENDBRANCH   8  11
ENDBRANCH   7   8
ENDBRANCH   1   7
BRANCH   6  13
ATOM     13  N   LIG d   1      -6.495  80.105 118.334  0.00  0.00    -0.311 N 
ATOM     14  C   LIG d   1      -6.213  81.221 117.664  0.00  0.00     0.210 C 
ATOM     15  C   LIG d   1      -4.861  81.857 118.007  0.00  0.00     0.109 C 
ATOM     16  O   LIG d   1      -6.967  81.763 116.842  0.00  0.00    -0.276 OA
ATOM     17  H   LIG d   1      -5.840  79.754 119.005  0.00  0.00     0.149 HD
ENDBRANCH   6  13
BRANCH   5  18
ATOM     18  N   LIG d   1      -9.315  81.175 118.822  0.00  0.00     0.381 N 
ATOM     19  H   LIG d   1      -8.917  81.784 119.509  0.00  0.00    -0.090 HD
ATOM     20  H   LIG d   1     -10.315  81.223 118.899  0.00  0.00    -0.090 HD
ATOM     21  H   LIG d   1      -9.030  81.460 117.911  0.00  0.00    -0.090 HD
ENDBRANCH   5  18
BRANCH   3  22
ATOM     22  C   LIG d   1     -10.770  76.651 119.413  0.00  0.00     0.382 C 
ATOM     23  O   LIG d   1     -10.500  75.810 120.304  0.00  0.00    -0.241 OA
ATOM     24  O   LIG d   1     -11.911  76.669 118.913  0.00  0.00    -0.241 OA
ENDBRANCH   3  22
TORSDOF 7
ENDMDL
MODEL 7
REMARK VINA RESULT:      -4.7      2.826      4.598
REMARK  7 active torsions:
REMARK  status: ('A' for Active; 'I' for Inactive)
REMARK    1  A    between atoms: C_2  and  C_3 
REMARK    2  A    between atoms: C_3  and  O_6 
REMARK    3  A    between atoms: C_3  and  C_4 
REMARK    4  A    between atoms: C_7  and  O_6 
REMARK    5  A    between atoms: C_9  and  C_10 
REMARK    6  A    between atoms: N_15  and  C_14 
REMARK    7  A    between atoms: N_20  and  C_19 
REMARK       I    between atoms: C_22  and  N_20 
ROOT
ATOM      1  C   LIG d   1      -4.220  74.991 116.881  0.00  0.00     0.161 C 
ATOM      2  C   LIG d   1      -4.812  73.718 116.840  0.00  0.00     0.016 C 
ATOM      3  C   LIG d   1      -6.198  73.498 117.018  0.00  0.00     0.038 C 
ATOM      4  C   LIG d   1      -7.112  74.558 117.099  0.00  0.00     0.028 C 
ATOM      5  C   LIG d   1      -6.503  75.843 117.651  0.00  0.00    -0.047 C 
ATOM      6  C   LIG d   1      -5.217  76.169 116.858  0.00  0.00     0.091 C 
ENDROOT
BRANCH   1   7
ATOM      7  O   LIG d   1      -3.266  75.121 115.808  0.00  0.00    -0.368 OA
BRANCH   7   8
ATOM      8  C   LIG d   1      -1.911  74.707 116.107  0.00  0.00     0.119 C 
BRANCH   8   9
ATOM      9  C   LIG d   1      -1.536  75.304 117.478  0.00  0.00     0.028 C 
ATOM     10  C   LIG d   1      -0.802  76.650 117.351  0.00  0.00     0.006 C 
ENDBRANCH   8   9
BRANCH   8  11
ATOM     11  C   LIG d   1      -0.912  75.311 115.116  0.00  0.00     0.028 C 
ATOM     12  C   LIG d   1       0.081  74.275 114.565  0.00  0.00     0.006 C 
ENDBRANCH   8  11
ENDBRANCH   7   8
ENDBRANCH   1   7
BRANCH   6  13
ATOM     13  N   LIG d   1      -4.512  77.365 117.388  0.00  0.00    -0.311 N 
ATOM     14  C   LIG d   1      -4.043  78.342 116.615  0.00  0.00     0.210 C 
ATOM     15  C   LIG d   1      -3.331  79.474 117.363  0.00  0.00     0.109 C 
ATOM     16  O   LIG d   1      -4.176  78.395 115.383  0.00  0.00    -0.276 OA
ATOM     17  H   LIG d   1      -4.388  77.418 118.380  0.00  0.00     0.149 HD
ENDBRANCH   6  13
BRANCH   5  18
ATOM     18  N   LIG d   1      -7.527  76.900 117.552  0.00  0.00     0.381 N 
ATOM     19  H   LIG d   1      -8.297  76.575 117.002  0.00  0.00    -0.090 HD
ATOM     20  H   LIG d   1      -7.126  77.699 117.094  0.00  0.00    -0.090 HD
ATOM     21  H   LIG d   1      -7.844  77.154 118.462  0.00  0.00    -0.090 HD
ENDBRANCH   5  18
BRANCH   3  22
ATOM     22  C   LIG d   1      -6.675  72.203 117.156  0.00  0.00     0.382 C 
ATOM     23  O   LIG d   1      -5.901  71.284 117.517  0.00  0.00    -0.241 OA
ATOM     24  O   LIG d   1      -7.860  71.935 116.881  0.00  0.00    -0.241 OA
ENDBRANCH   3  22
TORSDOF 7
ENDMDL
MODEL 8
REMARK VINA RESULT:      -4.7     13.106     15.637
REMARK  7 active torsions:
REMARK  status: ('A' for Active; 'I' for Inactive)
REMARK    1  A    between atoms: C_2  and  C_3 
REMARK    2  A    between atoms: C_3  and  O_6 
REMARK    3  A    between atoms: C_3  and  C_4 
REMARK    4  A    between atoms: C_7  and  O_6 
REMARK    5  A    between atoms: C_9  and  C_10 
REMARK    6  A    between atoms: N_15  and  C_14 
REMARK    7  A    between atoms: N_20  and  C_19 
REMARK       I    between atoms: C_22  and  N_20 
ROOT
ATOM      1  C   LIG d   1       1.423  88.899 116.253  0.00  0.00     0.161 C 
ATOM      2  C   LIG d   1       0.089  88.989 116.685  0.00  0.00     0.016 C 
ATOM      3  C   LIG d   1      -0.441  90.122 117.343  0.00  0.00     0.038 C 
ATOM      4  C   LIG d   1       0.293  91.310 117.480  0.00  0.00     0.028 C 
ATOM      5  C   LIG d   1       1.801  91.090 117.511  0.00  0.00    -0.047 C 
ATOM      6  C   LIG d   1       2.207  90.227 116.295  0.00  0.00     0.091 C 
ENDROOT
BRANCH   1   7
ATOM      7  O   LIG d   1       1.471  88.330 114.930  0.00  0.00    -0.368 OA
BRANCH   7   8
ATOM      8  C   LIG d   1       1.839  86.931 114.850  0.00  0.00     0.119 C 
BRANCH   8   9
ATOM      9  C   LIG d   1       2.899  86.793 113.740  0.00  0.00     0.028 C 
ATOM     10  C   LIG d   1       4.268  86.357 114.287  0.00  0.00     0.006 C 
ENDBRANCH   8   9
BRANCH   8  11
ATOM     11  C   LIG d   1       0.658  86.069 114.393  0.00  0.00     0.028 C 
ATOM     12  C   LIG d   1      -0.014  85.315 115.551  0.00  0.00     0.006 C 
ENDBRANCH   8  11
ENDBRANCH   7   8
ENDBRANCH   1   7
BRANCH   6  13
ATOM     13  N   LIG d   1       3.656  89.894 116.295  0.00  0.00    -0.311 N 
ATOM     14  C   LIG d   1       4.425  89.969 115.211  0.00  0.00     0.210 C 
ATOM     15  C   LIG d   1       5.886  89.562 115.425  0.00  0.00     0.109 C 
ATOM     16  O   LIG d   1       4.044  90.365 114.099  0.00  0.00    -0.276 OA
ATOM     17  H   LIG d   1       4.055  89.593 117.163  0.00  0.00     0.149 HD
ENDBRANCH   6  13
BRANCH   5  18
ATOM     18  N   LIG d   1       2.445  92.418 117.519  0.00  0.00     0.381 N 
ATOM     19  H   LIG d   1       2.551  92.737 118.461  0.00  0.00    -0.090 HD
ATOM     20  H   LIG d   1       1.855  93.068 117.029  0.00  0.00    -0.090 HD
ATOM     21  H   LIG d   1       3.336  92.367 117.075  0.00  0.00    -0.090 HD
ENDBRANCH   5  18
BRANCH   3  22
ATOM     22  C   LIG d   1      -1.706  90.060 117.907  0.00  0.00     0.382 C 
ATOM     23  O   LIG d   1      -2.698  89.776 117.194  0.00  0.00    -0.241 OA
ATOM     24  O   LIG d   1      -1.874  90.329 119.112  0.00  0.00    -0.241 OA
ENDBRANCH   3  22
TORSDOF 7
ENDMDL
MODEL 9
REMARK VINA RESULT:      -4.6      3.878      5.428
REMARK  7 active torsions:
REMARK  status: ('A' for Active; 'I' for Inactive)
REMARK    1  A    between atoms: C_2  and  C_3 
REMARK    2  A    between atoms: C_3  and  O_6 
REMARK    3  A    between atoms: C_3  and  C_4 
REMARK    4  A    between atoms: C_7  and  O_6 
REMARK    5  A    between atoms: C_9  and  C_10 
REMARK    6  A    between atoms: N_15  and  C_14 
REMARK    7  A    between atoms: N_20  and  C_19 
REMARK       I    between atoms: C_22  and  N_20 
ROOT
ATOM      1  C   LIG d   1      -3.594  74.828 116.738  0.00  0.00     0.161 C 
ATOM      2  C   LIG d   1      -4.419  73.767 117.143  0.00  0.00     0.016 C 
ATOM      3  C   LIG d   1      -5.562  73.350 116.422  0.00  0.00     0.038 C 
ATOM      4  C   LIG d   1      -5.872  73.874 115.158  0.00  0.00     0.028 C 
ATOM      5  C   LIG d   1      -5.356  75.293 114.947  0.00  0.00    -0.047 C 
ATOM      6  C   LIG d   1      -3.853  75.338 115.305  0.00  0.00     0.091 C 
ENDROOT
BRANCH   1   7
ATOM      7  O   LIG d   1      -2.210  74.458 116.895  0.00  0.00    -0.368 OA
BRANCH   7   8
ATOM      8  C   LIG d   1      -1.386  75.380 117.651  0.00  0.00     0.119 C 
BRANCH   8   9
ATOM      9  C   LIG d   1      -0.362  74.543 118.443  0.00  0.00     0.028 C 
ATOM     10  C   LIG d   1       0.919  75.332 118.762  0.00  0.00     0.006 C 
ENDBRANCH   8   9
BRANCH   8  11
ATOM     11  C   LIG d   1      -2.207  76.123 118.709  0.00  0.00     0.028 C 
ATOM     12  C   LIG d   1      -2.083  77.651 118.594  0.00  0.00     0.006 C 
ENDBRANCH   8  11
ENDBRANCH   7   8
ENDBRANCH   1   7
BRANCH   6  13
ATOM     13  N   LIG d   1      -3.288  76.709 115.206  0.00  0.00    -0.311 N 
ATOM     14  C   LIG d   1      -2.267  77.026 114.411  0.00  0.00     0.210 C 
ATOM     15  C   LIG d   1      -1.828  78.492 114.476  0.00  0.00     0.109 C 
ATOM     16  O   LIG d   1      -1.705  76.239 113.634  0.00  0.00    -0.276 OA
ATOM     17  H   LIG d   1      -3.705  77.417 115.779  0.00  0.00     0.149 HD
ENDBRANCH   6  13
BRANCH   5  18
ATOM     18  N   LIG d   1      -5.628  75.661 113.544  0.00  0.00     0.381 N 
ATOM     19  H   LIG d   1      -4.805  75.523 112.992  0.00  0.00    -0.090 HD
ATOM     20  H   LIG d   1      -5.874  76.635 113.506  0.00  0.00    -0.090 HD
ATOM     21  H   LIG d   1      -6.374  75.108 113.185  0.00  0.00    -0.090 HD
ENDBRANCH   5  18
BRANCH   3  22
ATOM     22  C   LIG d   1      -6.431  72.427 116.984  0.00  0.00     0.382 C 
ATOM     23  O   LIG d   1      -7.667  72.540 116.805  0.00  0.00    -0.241 OA
ATOM     24  O   LIG d   1      -5.997  71.509 117.705  0.00  0.00    -0.241 OA
ENDBRANCH   3  22
TORSDOF 7
ENDMDL
