MODEL 1
REMARK VINA RESULT:      -4.9      0.000      0.000
REMARK  7 active torsions:
REMARK  status: ('A' for Active; 'I' for Inactive)
REMARK    1  A    between atoms: C_2  and  C_3 
REMARK    2  A    between atoms: C_3  and  O_6 
REMARK    3  A    between atoms: C_3  and  C_4 
REMARK    4  A    between atoms: C_7  and  O_6 
REMARK    5  A    between atoms: C_9  and  C_10 
REMARK    6  A    between atoms: N_15  and  C_14 
REMARK    7  A    between atoms: N_20  and  C_19 
REMARK       I    between atoms: C_22  and  N_20 
ROOT
ATOM      1  C   LIG d   1      -3.100  78.799 115.938  0.00  0.00     0.161 C 
ATOM      2  C   LIG d   1      -3.112  79.852 115.008  0.00  0.00     0.016 C 
ATOM      3  C   LIG d   1      -2.491  79.777 113.740  0.00  0.00     0.038 C 
ATOM      4  C   LIG d   1      -1.942  78.581 113.253  0.00  0.00     0.028 C 
ATOM      5  C   LIG d   1      -1.462  77.642 114.355  0.00  0.00    -0.047 C 
ATOM      6  C   LIG d   1      -2.602  77.449 115.381  0.00  0.00     0.091 C 
ENDROOT
BRANCH   1   7
ATOM      7  O   LIG d   1      -4.410  78.648 116.521  0.00  0.00    -0.368 OA
BRANCH   7   8
ATOM      8  C   LIG d   1      -4.455  78.529 117.964  0.00  0.00     0.119 C 
BRANCH   8   9
ATOM      9  C   LIG d   1      -5.304  77.288 118.300  0.00  0.00     0.028 C 
ATOM     10  C   LIG d   1      -5.896  76.625 117.044  0.00  0.00     0.006 C 
ENDBRANCH   8   9
BRANCH   8  11
ATOM     11  C   LIG d   1      -5.195  79.710 118.599  0.00  0.00     0.028 C 
ATOM     12  C   LIG d   1      -5.993  80.532 117.575  0.00  0.00     0.006 C 
ENDBRANCH   8  11
ENDBRANCH   7   8
ENDBRANCH   1   7
BRANCH   6  13
ATOM     13  N   LIG d   1      -2.189  76.611 116.536  0.00  0.00    -0.311 N 
ATOM     14  C   LIG d   1      -2.392  75.296 116.597  0.00  0.00     0.210 C 
ATOM     15  C   LIG d   1      -1.907  74.626 117.887  0.00  0.00     0.109 C 
ATOM     16  O   LIG d   1      -2.899  74.616 115.693  0.00  0.00    -0.276 OA
ATOM     17  H   LIG d   1      -1.742  77.077 117.301  0.00  0.00     0.149 HD
ENDBRANCH   6  13
BRANCH   5  18
ATOM     18  N   LIG d   1      -1.042  76.382 113.714  0.00  0.00     0.381 N 
ATOM     19  H   LIG d   1      -0.473  76.581 112.915  0.00  0.00    -0.090 HD
ATOM     20  H   LIG d   1      -1.859  75.886 113.403  0.00  0.00    -0.090 HD
ATOM     21  H   LIG d   1      -0.533  75.823 114.362  0.00  0.00    -0.090 HD
ENDBRANCH   5  18
BRANCH   3  22
ATOM     22  C   LIG d   1      -2.380  80.918 112.960  0.00  0.00     0.382 C 
ATOM     23  O   LIG d   1      -3.171  81.876 113.134  0.00  0.00    -0.241 OA
ATOM     24  O   LIG d   1      -1.526  80.985 112.056  0.00  0.00    -0.241 OA
ENDBRANCH   3  22
TORSDOF 7
ENDMDL
MODEL 2
REMARK VINA RESULT:      -4.7      3.340      6.495
REMARK  7 active torsions:
REMARK  status: ('A' for Active; 'I' for Inactive)
REMARK    1  A    between atoms: C_2  and  C_3 
REMARK    2  A    between atoms: C_3  and  O_6 
REMARK    3  A    between atoms: C_3  and  C_4 
REMARK    4  A    between atoms: C_7  and  O_6 
REMARK    5  A    between atoms: C_9  and  C_10 
REMARK    6  A    between atoms: N_15  and  C_14 
REMARK    7  A    between atoms: N_20  and  C_19 
REMARK       I    between atoms: C_22  and  N_20 
ROOT
ATOM      1  C   LIG d   1      -6.266  77.925 117.267  0.00  0.00     0.161 C 
ATOM      2  C   LIG d   1      -7.632  77.687 117.494  0.00  0.00     0.016 C 
ATOM      3  C   LIG d   1      -8.507  78.648 118.050  0.00  0.00     0.038 C 
ATOM      4  C   LIG d   1      -8.106  79.973 118.278  0.00  0.00     0.028 C 
ATOM      5  C   LIG d   1      -6.609  80.116 118.536  0.00  0.00    -0.047 C 
ATOM      6  C   LIG d   1      -5.835  79.400 117.406  0.00  0.00     0.091 C 
ENDROOT
BRANCH   1   7
ATOM      7  O   LIG d   1      -5.889  77.413 115.973  0.00  0.00    -0.368 OA
BRANCH   7   8
ATOM      8  C   LIG d   1      -5.291  76.093 115.960  0.00  0.00     0.119 C 
BRANCH   8   9
ATOM      9  C   LIG d   1      -3.830  76.252 115.496  0.00  0.00     0.028 C 
ATOM     10  C   LIG d   1      -2.824  76.011 116.634  0.00  0.00     0.006 C 
ENDBRANCH   8   9
BRANCH   8  11
ATOM     11  C   LIG d   1      -5.954  75.192 114.913  0.00  0.00     0.028 C 
ATOM     12  C   LIG d   1      -5.710  73.697 115.174  0.00  0.00     0.006 C 
ENDBRANCH   8  11
ENDBRANCH   7   8
ENDBRANCH   1   7
BRANCH   6  13
ATOM     13  N   LIG d   1      -4.365  79.420 117.625  0.00  0.00    -0.311 N 
ATOM     14  C   LIG d   1      -3.487  79.759 116.683  0.00  0.00     0.210 C 
ATOM     15  C   LIG d   1      -2.019  79.694 117.113  0.00  0.00     0.109 C 
ATOM     16  O   LIG d   1      -3.787  80.139 115.541  0.00  0.00    -0.276 OA
ATOM     17  H   LIG d   1      -4.036  79.156 118.533  0.00  0.00     0.149 HD
ENDBRANCH   6  13
BRANCH   5  18
ATOM     18  N   LIG d   1      -6.308  81.558 118.620  0.00  0.00     0.381 N 
ATOM     19  H   LIG d   1      -5.440  81.750 118.161  0.00  0.00    -0.090 HD
ATOM     20  H   LIG d   1      -6.217  81.815 119.587  0.00  0.00    -0.090 HD
ATOM     21  H   LIG d   1      -7.039  82.085 118.196  0.00  0.00    -0.090 HD
ENDBRANCH   5  18
BRANCH   3  22
ATOM     22  C   LIG d   1      -9.790  78.276 118.421  0.00  0.00     0.382 C 
ATOM     23  O   LIG d   1     -10.480  79.036 119.142  0.00  0.00    -0.241 OA
ATOM     24  O   LIG d   1     -10.250  77.170 118.080  0.00  0.00    -0.241 OA
ENDBRANCH   3  22
TORSDOF 7
ENDMDL
MODEL 3
REMARK VINA RESULT:      -4.7      9.214     10.904
REMARK  7 active torsions:
REMARK  status: ('A' for Active; 'I' for Inactive)
REMARK    1  A    between atoms: C_2  and  C_3 
REMARK    2  A    between atoms: C_3  and  O_6 
REMARK    3  A    between atoms: C_3  and  C_4 
REMARK    4  A    between atoms: C_7  and  O_6 
REMARK    5  A    between atoms: C_9  and  C_10 
REMARK    6  A    between atoms: N_15  and  C_14 
REMARK    7  A    between atoms: N_20  and  C_19 
REMARK       I    between atoms: C_22  and  N_20 
ROOT
ATOM      1  C   LIG d   1       2.842  87.472 115.760  0.00  0.00     0.161 C 
ATOM      2  C   LIG d   1       3.518  88.209 114.773  0.00  0.00     0.016 C 
ATOM      3  C   LIG d   1       4.329  87.616 113.778  0.00  0.00     0.038 C 
ATOM      4  C   LIG d   1       4.397  86.226 113.610  0.00  0.00     0.028 C 
ATOM      5  C   LIG d   1       4.135  85.446 114.893  0.00  0.00    -0.047 C 
ATOM      6  C   LIG d   1       2.816  85.948 115.524  0.00  0.00     0.091 C 
ENDROOT
BRANCH   1   7
ATOM      7  O   LIG d   1       1.501  87.978 115.915  0.00  0.00    -0.368 OA
BRANCH   7   8
ATOM      8  C   LIG d   1       1.240  88.730 117.126  0.00  0.00     0.119 C 
BRANCH   8   9
ATOM      9  C   LIG d   1      -0.111  88.246 117.688  0.00  0.00     0.028 C 
ATOM     10  C   LIG d   1      -0.915  89.383 118.342  0.00  0.00     0.006 C 
ENDBRANCH   8   9
BRANCH   8  11
ATOM     11  C   LIG d   1       1.044  90.219 116.826  0.00  0.00     0.028 C 
ATOM     12  C   LIG d   1       2.320  91.045 117.052  0.00  0.00     0.006 C 
ENDBRANCH   8  11
ENDBRANCH   7   8
ENDBRANCH   1   7
BRANCH   6  13
ATOM     13  N   LIG d   1       2.527  85.296 116.828  0.00  0.00    -0.311 N 
ATOM     14  C   LIG d   1       1.823  84.172 116.946  0.00  0.00     0.210 C 
ATOM     15  C   LIG d   1       1.625  83.680 118.383  0.00  0.00     0.109 C 
ATOM     16  O   LIG d   1       1.371  83.517 115.994  0.00  0.00    -0.276 OA
ATOM     17  H   LIG d   1       2.883  85.743 117.650  0.00  0.00     0.149 HD
ENDBRANCH   6  13
BRANCH   5  18
ATOM     18  N   LIG d   1       4.101  84.013 114.546  0.00  0.00     0.381 N 
ATOM     19  H   LIG d   1       3.498  83.869 113.760  0.00  0.00    -0.090 HD
ATOM     20  H   LIG d   1       3.731  83.498 115.325  0.00  0.00    -0.090 HD
ATOM     21  H   LIG d   1       5.020  83.692 114.332  0.00  0.00    -0.090 HD
ENDBRANCH   5  18
BRANCH   3  22
ATOM     22  C   LIG d   1       5.113  88.418 112.963  0.00  0.00     0.382 C 
ATOM     23  O   LIG d   1       6.123  87.937 112.395  0.00  0.00    -0.241 OA
ATOM     24  O   LIG d   1       4.850  89.628 112.825  0.00  0.00    -0.241 OA
ENDBRANCH   3  22
TORSDOF 7
ENDMDL
MODEL 4
REMARK VINA RESULT:      -4.7     17.507     20.388
REMARK  7 active torsions:
REMARK  status: ('A' for Active; 'I' for Inactive)
REMARK    1  A    between atoms: C_2  and  C_3 
REMARK    2  A    between atoms: C_3  and  O_6 
REMARK    3  A    between atoms: C_3  and  C_4 
REMARK    4  A    between atoms: C_7  and  O_6 
REMARK    5  A    between atoms: C_9  and  C_10 
REMARK    6  A    between atoms: N_15  and  C_14 
REMARK    7  A    between atoms: N_20  and  C_19 
REMARK       I    between atoms: C_22  and  N_20 
ROOT
ATOM      1  C   LIG d   1     -16.860  63.485 116.016  0.00  0.00     0.161 C 
ATOM      2  C   LIG d   1     -17.096  62.247 115.395  0.00  0.00     0.016 C 
ATOM      3  C   LIG d   1     -17.446  62.114 114.032  0.00  0.00     0.038 C 
ATOM      4  C   LIG d   1     -17.434  63.208 113.153  0.00  0.00     0.028 C 
ATOM      5  C   LIG d   1     -17.694  64.542 113.844  0.00  0.00    -0.047 C 
ATOM      6  C   LIG d   1     -16.734  64.680 115.047  0.00  0.00     0.091 C 
ENDROOT
BRANCH   1   7
ATOM      7  O   LIG d   1     -15.692  63.395 116.855  0.00  0.00    -0.368 OA
BRANCH   7   8
ATOM      8  C   LIG d   1     -15.920  62.974 118.223  0.00  0.00     0.119 C 
BRANCH   8   9
ATOM      9  C   LIG d   1     -16.045  64.246 119.084  0.00  0.00     0.028 C 
ATOM     10  C   LIG d   1     -14.739  65.056 119.128  0.00  0.00     0.006 C 
ENDBRANCH   8   9
BRANCH   8  11
ATOM     11  C   LIG d   1     -14.710  62.222 118.784  0.00  0.00     0.028 C 
ATOM     12  C   LIG d   1     -15.106  60.976 119.593  0.00  0.00     0.006 C 
ENDBRANCH   8  11
ENDBRANCH   7   8
ENDBRANCH   1   7
BRANCH   6  13
ATOM     13  N   LIG d   1     -16.978  65.920 115.829  0.00  0.00    -0.311 N 
ATOM     14  C   LIG d   1     -16.014  66.772 116.173  0.00  0.00     0.210 C 
ATOM     15  C   LIG d   1     -16.480  67.978 116.995  0.00  0.00     0.109 C 
ATOM     16  O   LIG d   1     -14.823  66.661 115.847  0.00  0.00    -0.276 OA
ATOM     17  H   LIG d   1     -17.922  66.104 116.108  0.00  0.00     0.149 HD
ENDBRANCH   6  13
BRANCH   5  18
ATOM     18  N   LIG d   1     -17.517  65.606 112.838  0.00  0.00     0.381 N 
ATOM     19  H   LIG d   1     -17.948  65.334 111.977  0.00  0.00    -0.090 HD
ATOM     20  H   LIG d   1     -16.535  65.737 112.672  0.00  0.00    -0.090 HD
ATOM     21  H   LIG d   1     -17.922  66.456 113.166  0.00  0.00    -0.090 HD
ENDBRANCH   5  18
BRANCH   3  22
ATOM     22  C   LIG d   1     -17.850  60.881 113.543  0.00  0.00     0.382 C 
ATOM     23  O   LIG d   1     -18.933  60.779 112.918  0.00  0.00    -0.241 OA
ATOM     24  O   LIG d   1     -17.168  59.861 113.758  0.00  0.00    -0.241 OA
ENDBRANCH   3  22
TORSDOF 7
ENDMDL
MODEL 5
REMARK VINA RESULT:      -4.6      1.238      2.007
REMARK  7 active torsions:
REMARK  status: ('A' for Active; 'I' for Inactive)
REMARK    1  A    between atoms: C_2  and  C_3 
REMARK    2  A    between atoms: C_3  and  O_6 
REMARK    3  A    between atoms: C_3  and  C_4 
REMARK    4  A    between atoms: C_7  and  O_6 
REMARK    5  A    between atoms: C_9  and  C_10 
REMARK    6  A    between atoms: N_15  and  C_14 
REMARK    7  A    between atoms: N_20  and  C_19 
REMARK       I    between atoms: C_22  and  N_20 
ROOT
ATOM      1  C   LIG d   1      -2.536  79.024 116.694  0.00  0.00     0.161 C 
ATOM      2  C   LIG d   1      -2.859  79.806 115.572  0.00  0.00     0.016 C 
ATOM      3  C   LIG d   1      -2.409  79.513 114.264  0.00  0.00     0.038 C 
ATOM      4  C   LIG d   1      -1.725  78.325 113.964  0.00  0.00     0.028 C 
ATOM      5  C   LIG d   1      -0.944  77.761 115.146  0.00  0.00    -0.047 C 
ATOM      6  C   LIG d   1      -1.884  77.664 116.369  0.00  0.00     0.091 C 
ENDROOT
BRANCH   1   7
ATOM      7  O   LIG d   1      -3.708  78.836 117.512  0.00  0.00    -0.368 OA
BRANCH   7   8
ATOM      8  C   LIG d   1      -4.798  78.100 116.903  0.00  0.00     0.119 C 
BRANCH   8   9
ATOM      9  C   LIG d   1      -6.109  78.807 117.296  0.00  0.00     0.028 C 
ATOM     10  C   LIG d   1      -5.900  80.296 117.618  0.00  0.00     0.006 C 
ENDBRANCH   8   9
BRANCH   8  11
ATOM     11  C   LIG d   1      -4.909  76.687 117.484  0.00  0.00     0.028 C 
ATOM     12  C   LIG d   1      -5.879  76.606 118.673  0.00  0.00     0.006 C 
ENDBRANCH   8  11
ENDBRANCH   7   8
ENDBRANCH   1   7
BRANCH   6  13
ATOM     13  N   LIG d   1      -1.177  77.201 117.591  0.00  0.00    -0.311 N 
ATOM     14  C   LIG d   1      -1.116  75.923 117.962  0.00  0.00     0.210 C 
ATOM     15  C   LIG d   1      -0.355  75.664 119.266  0.00  0.00     0.109 C 
ATOM     16  O   LIG d   1      -1.591  74.976 117.318  0.00  0.00    -0.276 OA
ATOM     17  H   LIG d   1      -0.736  77.900 118.156  0.00  0.00     0.149 HD
ENDBRANCH   6  13
BRANCH   5  18
ATOM     18  N   LIG d   1      -0.394  76.455 114.734  0.00  0.00     0.381 N 
ATOM     19  H   LIG d   1      -1.013  76.018 114.080  0.00  0.00    -0.090 HD
ATOM     20  H   LIG d   1      -0.321  75.864 115.543  0.00  0.00    -0.090 HD
ATOM     21  H   LIG d   1       0.504  76.578 114.321  0.00  0.00    -0.090 HD
ENDBRANCH   5  18
BRANCH   3  22
ATOM     22  C   LIG d   1      -2.608  80.433 113.246  0.00  0.00     0.382 C 
ATOM     23  O   LIG d   1      -2.153  80.208 112.099  0.00  0.00    -0.241 OA
ATOM     24  O   LIG d   1      -3.199  81.506 113.472  0.00  0.00    -0.241 OA
ENDBRANCH   3  22
TORSDOF 7
ENDMDL
MODEL 6
REMARK VINA RESULT:      -4.5      1.780      4.994
REMARK  7 active torsions:
REMARK  status: ('A' for Active; 'I' for Inactive)
REMARK    1  A    between atoms: C_2  and  C_3 
REMARK    2  A    between atoms: C_3  and  O_6 
REMARK    3  A    between atoms: C_3  and  C_4 
REMARK    4  A    between atoms: C_7  and  O_6 
REMARK    5  A    between atoms: C_9  and  C_10 
REMARK    6  A    between atoms: N_15  and  C_14 
REMARK    7  A    between atoms: N_20  and  C_19 
REMARK       I    between atoms: C_22  and  N_20 
ROOT
ATOM      1  C   LIG d   1      -3.738  77.278 115.366  0.00  0.00     0.161 C 
ATOM      2  C   LIG d   1      -4.078  76.200 116.199  0.00  0.00     0.016 C 
ATOM      3  C   LIG d   1      -3.165  75.186 116.571  0.00  0.00     0.038 C 
ATOM      4  C   LIG d   1      -1.801  75.264 116.254  0.00  0.00     0.028 C 
ATOM      5  C   LIG d   1      -1.518  76.071 114.991  0.00  0.00    -0.047 C 
ATOM      6  C   LIG d   1      -2.227  77.441 115.101  0.00  0.00     0.091 C 
ENDROOT
BRANCH   1   7
ATOM      7  O   LIG d   1      -4.287  78.500 115.899  0.00  0.00    -0.368 OA
BRANCH   7   8
ATOM      8  C   LIG d   1      -4.592  78.496 117.316  0.00  0.00     0.119 C 
BRANCH   8   9
ATOM      9  C   LIG d   1      -5.945  79.210 117.500  0.00  0.00     0.028 C 
ATOM     10  C   LIG d   1      -5.799  80.739 117.564  0.00  0.00     0.006 C 
ENDBRANCH   8   9
BRANCH   8  11
ATOM     11  C   LIG d   1      -3.581  79.334 118.105  0.00  0.00     0.028 C 
ATOM     12  C   LIG d   1      -2.459  78.486 118.724  0.00  0.00     0.006 C 
ENDBRANCH   8  11
ENDBRANCH   7   8
ENDBRANCH   1   7
BRANCH   6  13
ATOM     13  N   LIG d   1      -2.071  78.260 113.871  0.00  0.00    -0.311 N 
ATOM     14  C   LIG d   1      -1.448  79.437 113.849  0.00  0.00     0.210 C 
ATOM     15  C   LIG d   1      -1.417  80.126 112.481  0.00  0.00     0.109 C 
ATOM     16  O   LIG d   1      -0.891  79.961 114.825  0.00  0.00    -0.276 OA
ATOM     17  H   LIG d   1      -2.467  77.895 113.027  0.00  0.00     0.149 HD
ENDBRANCH   6  13
BRANCH   5  18
ATOM     18  N   LIG d   1      -0.053  76.188 114.856  0.00  0.00     0.381 N 
ATOM     19  H   LIG d   1       0.350  76.438 115.737  0.00  0.00    -0.090 HD
ATOM     20  H   LIG d   1       0.155  76.917 114.196  0.00  0.00    -0.090 HD
ATOM     21  H   LIG d   1       0.330  75.324 114.540  0.00  0.00    -0.090 HD
ENDBRANCH   5  18
BRANCH   3  22
ATOM     22  C   LIG d   1      -3.623  74.058 117.234  0.00  0.00     0.382 C 
ATOM     23  O   LIG d   1      -2.806  73.212 117.671  0.00  0.00    -0.241 OA
ATOM     24  O   LIG d   1      -4.845  73.853 117.362  0.00  0.00    -0.241 OA
ENDBRANCH   3  22
TORSDOF 7
ENDMDL
MODEL 7
REMARK VINA RESULT:      -4.5      8.357     10.499
REMARK  7 active torsions:
REMARK  status: ('A' for Active; 'I' for Inactive)
REMARK    1  A    between atoms: C_2  and  C_3 
REMARK    2  A    between atoms: C_3  and  O_6 
REMARK    3  A    between atoms: C_3  and  C_4 
REMARK    4  A    between atoms: C_7  and  O_6 
REMARK    5  A    between atoms: C_9  and  C_10 
REMARK    6  A    between atoms: N_15  and  C_14 
REMARK    7  A    between atoms: N_20  and  C_19 
REMARK       I    between atoms: C_22  and  N_20 
ROOT
ATOM      1  C   LIG d   1       3.488  85.489 113.934  0.00  0.00     0.161 C 
ATOM      2  C   LIG d   1       3.728  86.817 113.543  0.00  0.00     0.016 C 
ATOM      3  C   LIG d   1       4.640  87.671 114.205  0.00  0.00     0.038 C 
ATOM      4  C   LIG d   1       5.491  87.204 115.218  0.00  0.00     0.028 C 
ATOM      5  C   LIG d   1       4.926  86.010 115.981  0.00  0.00    -0.047 C 
ATOM      6  C   LIG d   1       4.487  84.929 114.968  0.00  0.00     0.091 C 
ENDROOT
BRANCH   1   7
ATOM      7  O   LIG d   1       3.438  84.638 112.772  0.00  0.00    -0.368 OA
BRANCH   7   8
ATOM      8  C   LIG d   1       2.166  83.999 112.503  0.00  0.00     0.119 C 
BRANCH   8   9
ATOM      9  C   LIG d   1       1.142  84.567 113.505  0.00  0.00     0.028 C 
ATOM     10  C   LIG d   1      -0.065  85.216 112.807  0.00  0.00     0.006 C 
ENDBRANCH   8   9
BRANCH   8  11
ATOM     11  C   LIG d   1       2.225  82.497 112.792  0.00  0.00     0.028 C 
ATOM     12  C   LIG d   1       1.031  81.729 112.203  0.00  0.00     0.006 C 
ENDBRANCH   8  11
ENDBRANCH   7   8
ENDBRANCH   1   7
BRANCH   6  13
ATOM     13  N   LIG d   1       3.845  83.761 115.627  0.00  0.00    -0.311 N 
ATOM     14  C   LIG d   1       4.515  82.675 116.008  0.00  0.00     0.210 C 
ATOM     15  C   LIG d   1       3.658  81.580 116.650  0.00  0.00     0.109 C 
ATOM     16  O   LIG d   1       5.742  82.529 115.906  0.00  0.00    -0.276 OA
ATOM     17  H   LIG d   1       2.857  83.809 115.777  0.00  0.00     0.149 HD
ENDBRANCH   6  13
BRANCH   5  18
ATOM     18  N   LIG d   1       5.970  85.541 116.912  0.00  0.00     0.381 N 
ATOM     19  H   LIG d   1       5.880  86.015 117.788  0.00  0.00    -0.090 HD
ATOM     20  H   LIG d   1       6.871  85.760 116.526  0.00  0.00    -0.090 HD
ATOM     21  H   LIG d   1       5.889  84.558 117.047  0.00  0.00    -0.090 HD
ENDBRANCH   5  18
BRANCH   3  22
ATOM     22  C   LIG d   1       4.679  89.018 113.881  0.00  0.00     0.382 C 
ATOM     23  O   LIG d   1       4.994  89.375 112.721  0.00  0.00    -0.241 OA
ATOM     24  O   LIG d   1       4.447  89.883 114.747  0.00  0.00    -0.241 OA
ENDBRANCH   3  22
TORSDOF 7
ENDMDL
MODEL 8
REMARK VINA RESULT:      -4.5     11.099     13.167
REMARK  7 active torsions:
REMARK  status: ('A' for Active; 'I' for Inactive)
REMARK    1  A    between atoms: C_2  and  C_3 
REMARK    2  A    between atoms: C_3  and  O_6 
REMARK    3  A    between atoms: C_3  and  C_4 
REMARK    4  A    between atoms: C_7  and  O_6 
REMARK    5  A    between atoms: C_9  and  C_10 
REMARK    6  A    between atoms: N_15  and  C_14 
REMARK    7  A    between atoms: N_20  and  C_19 
REMARK       I    between atoms: C_22  and  N_20 
ROOT
ATOM      1  C   LIG d   1       4.174  87.480 116.395  0.00  0.00     0.161 C 
ATOM      2  C   LIG d   1       3.415  88.655 116.267  0.00  0.00     0.016 C 
ATOM      3  C   LIG d   1       3.957  89.952 116.415  0.00  0.00     0.038 C 
ATOM      4  C   LIG d   1       5.336  90.168 116.552  0.00  0.00     0.028 C 
ATOM      5  C   LIG d   1       6.072  88.995 117.191  0.00  0.00    -0.047 C 
ATOM      6  C   LIG d   1       5.701  87.698 116.435  0.00  0.00     0.091 C 
ENDROOT
BRANCH   1   7
ATOM      7  O   LIG d   1       3.827  86.557 115.344  0.00  0.00    -0.368 OA
BRANCH   7   8
ATOM      8  C   LIG d   1       3.357  87.147 114.107  0.00  0.00     0.119 C 
BRANCH   8   9
ATOM      9  C   LIG d   1       2.212  86.261 113.577  0.00  0.00     0.028 C 
ATOM     10  C   LIG d   1       1.543  85.438 114.691  0.00  0.00     0.006 C 
ENDBRANCH   8   9
BRANCH   8  11
ATOM     11  C   LIG d   1       4.438  87.104 113.023  0.00  0.00     0.028 C 
ATOM     12  C   LIG d   1       5.257  88.402 112.947  0.00  0.00     0.006 C 
ENDBRANCH   8  11
ENDBRANCH   7   8
ENDBRANCH   1   7
BRANCH   6  13
ATOM     13  N   LIG d   1       6.312  86.490 117.047  0.00  0.00    -0.311 N 
ATOM     14  C   LIG d   1       7.479  85.980 116.656  0.00  0.00     0.210 C 
ATOM     15  C   LIG d   1       7.918  84.719 117.407  0.00  0.00     0.109 C 
ATOM     16  O   LIG d   1       8.208  86.472 115.781  0.00  0.00    -0.276 OA
ATOM     17  H   LIG d   1       5.803  86.046 117.786  0.00  0.00     0.149 HD
ENDBRANCH   6  13
BRANCH   5  18
ATOM     18  N   LIG d   1       7.516  89.296 117.146  0.00  0.00     0.381 N 
ATOM     19  H   LIG d   1       7.989  88.606 116.599  0.00  0.00    -0.090 HD
ATOM     20  H   LIG d   1       7.883  89.265 118.081  0.00  0.00    -0.090 HD
ATOM     21  H   LIG d   1       7.663  90.200 116.754  0.00  0.00    -0.090 HD
ENDBRANCH   5  18
BRANCH   3  22
ATOM     22  C   LIG d   1       3.111  91.049 116.466  0.00  0.00     0.382 C 
ATOM     23  O   LIG d   1       1.868  90.881 116.497  0.00  0.00    -0.241 OA
ATOM     24  O   LIG d   1       3.573  92.206 116.437  0.00  0.00    -0.241 OA
ENDBRANCH   3  22
TORSDOF 7
ENDMDL
MODEL 9
REMARK VINA RESULT:      -4.3      8.464     10.690
REMARK  7 active torsions:
REMARK  status: ('A' for Active; 'I' for Inactive)
REMARK    1  A    between atoms: C_2  and  C_3 
REMARK    2  A    between atoms: C_3  and  O_6 
REMARK    3  A    between atoms: C_3  and  C_4 
REMARK    4  A    between atoms: C_7  and  O_6 
REMARK    5  A    between atoms: C_9  and  C_10 
REMARK    6  A    between atoms: N_15  and  C_14 
REMARK    7  A    between atoms: N_20  and  C_19 
REMARK       I    between atoms: C_22  and  N_20 
ROOT
ATOM      1  C   LIG d   1       2.287  86.487 114.685  0.00  0.00     0.161 C 
ATOM      2  C   LIG d   1       3.094  87.073 113.696  0.00  0.00     0.016 C 
ATOM      3  C   LIG d   1       4.390  87.580 113.948  0.00  0.00     0.038 C 
ATOM      4  C   LIG d   1       5.030  87.396 115.183  0.00  0.00     0.028 C 
ATOM      5  C   LIG d   1       4.062  87.259 116.353  0.00  0.00    -0.047 C 
ATOM      6  C   LIG d   1       3.012  86.177 116.011  0.00  0.00     0.091 C 
ENDROOT
BRANCH   1   7
ATOM      7  O   LIG d   1       1.665  85.295 114.164  0.00  0.00    -0.368 OA
BRANCH   7   8
ATOM      8  C   LIG d   1       2.143  84.838 112.875  0.00  0.00     0.119 C 
BRANCH   8   9
ATOM      9  C   LIG d   1       0.914  84.399 112.055  0.00  0.00     0.028 C 
ATOM     10  C   LIG d   1      -0.367  85.139 112.475  0.00  0.00     0.006 C 
ENDBRANCH   8   9
BRANCH   8  11
ATOM     11  C   LIG d   1       3.008  83.582 113.014  0.00  0.00     0.028 C 
ATOM     12  C   LIG d   1       2.291  82.445 113.761  0.00  0.00     0.006 C 
ENDBRANCH   8  11
ENDBRANCH   7   8
ENDBRANCH   1   7
BRANCH   6  13
ATOM     13  N   LIG d   1       1.976  86.038 117.068  0.00  0.00    -0.311 N 
ATOM     14  C   LIG d   1       2.036  85.127 118.038  0.00  0.00     0.210 C 
ATOM     15  C   LIG d   1       0.855  85.143 119.013  0.00  0.00     0.109 C 
ATOM     16  O   LIG d   1       2.971  84.329 118.202  0.00  0.00    -0.276 OA
ATOM     17  H   LIG d   1       1.198  86.667 117.029  0.00  0.00     0.149 HD
ENDBRANCH   6  13
BRANCH   5  18
ATOM     18  N   LIG d   1       4.856  86.935 117.553  0.00  0.00     0.381 N 
ATOM     19  H   LIG d   1       5.201  85.998 117.489  0.00  0.00    -0.090 HD
ATOM     20  H   LIG d   1       4.263  86.999 118.362  0.00  0.00    -0.090 HD
ATOM     21  H   LIG d   1       5.618  87.572 117.640  0.00  0.00    -0.090 HD
ENDBRANCH   5  18
BRANCH   3  22
ATOM     22  C   LIG d   1       5.043  88.315 112.971  0.00  0.00     0.382 C 
ATOM     23  O   LIG d   1       5.922  87.771 112.260  0.00  0.00    -0.241 OA
ATOM     24  O   LIG d   1       4.795  89.526 112.820  0.00  0.00    -0.241 OA
ENDBRANCH   3  22
TORSDOF 7
ENDMDL
