MODEL 1
REMARK VINA RESULT:      -6.0      0.000      0.000
REMARK  7 active torsions:
REMARK  status: ('A' for Active; 'I' for Inactive)
REMARK    1  A    between atoms: C_2  and  C_3 
REMARK    2  A    between atoms: C_3  and  O_6 
REMARK    3  A    between atoms: C_3  and  C_4 
REMARK    4  A    between atoms: C_7  and  O_6 
REMARK    5  A    between atoms: C_9  and  C_10 
REMARK    6  A    between atoms: N_15  and  C_14 
REMARK    7  A    between atoms: N_20  and  C_19 
REMARK       I    between atoms: C_22  and  N_20 
ROOT
ATOM      1  C   LIG d   1      -8.207  75.328 117.602  0.00  0.00     0.161 C 
ATOM      2  C   LIG d   1      -9.331  76.003 118.106  0.00  0.00     0.016 C 
ATOM      3  C   LIG d   1      -9.392  77.407 118.259  0.00  0.00     0.038 C 
ATOM      4  C   LIG d   1      -8.381  78.250 117.774  0.00  0.00     0.028 C 
ATOM      5  C   LIG d   1      -7.011  77.583 117.719  0.00  0.00    -0.047 C 
ATOM      6  C   LIG d   1      -7.137  76.239 116.965  0.00  0.00     0.091 C 
ENDROOT
BRANCH   1   7
ATOM      7  O   LIG d   1      -8.624  74.314 116.666  0.00  0.00    -0.368 OA
BRANCH   7   8
ATOM      8  C   LIG d   1      -8.642  72.954 117.165  0.00  0.00     0.119 C 
BRANCH   8   9
ATOM      9  C   LIG d   1      -7.202  72.411 117.082  0.00  0.00     0.028 C 
ATOM     10  C   LIG d   1      -6.718  72.254 115.630  0.00  0.00     0.006 C 
ENDBRANCH   8   9
BRANCH   8  11
ATOM     11  C   LIG d   1      -9.473  72.040 116.261  0.00  0.00     0.028 C 
ATOM     12  C   LIG d   1      -9.710  70.651 116.874  0.00  0.00     0.006 C 
ENDBRANCH   8  11
ENDBRANCH   7   8
ENDBRANCH   1   7
BRANCH   6  13
ATOM     13  N   LIG d   1      -5.859  75.482 116.939  0.00  0.00    -0.311 N 
ATOM     14  C   LIG d   1      -4.975  75.570 115.946  0.00  0.00     0.210 C 
ATOM     15  C   LIG d   1      -3.732  74.689 116.107  0.00  0.00     0.109 C 
ATOM     16  O   LIG d   1      -5.088  76.317 114.963  0.00  0.00    -0.276 OA
ATOM     17  H   LIG d   1      -5.672  74.875 117.713  0.00  0.00     0.149 HD
ENDBRANCH   6  13
BRANCH   5  18
ATOM     18  N   LIG d   1      -6.082  78.526 117.068  0.00  0.00     0.381 N 
ATOM     19  H   LIG d   1      -5.676  78.098 116.260  0.00  0.00    -0.090 HD
ATOM     20  H   LIG d   1      -5.343  78.751 117.711  0.00  0.00    -0.090 HD
ATOM     21  H   LIG d   1      -6.567  79.356 116.805  0.00  0.00    -0.090 HD
ENDBRANCH   5  18
BRANCH   3  22
ATOM     22  C   LIG d   1     -10.457  77.978 118.939  0.00  0.00     0.382 C 
ATOM     23  O   LIG d   1     -10.340  79.124 119.437  0.00  0.00    -0.241 OA
ATOM     24  O   LIG d   1     -11.517  77.345 119.100  0.00  0.00    -0.241 OA
ENDBRANCH   3  22
TORSDOF 7
ENDMDL
MODEL 2
REMARK VINA RESULT:      -5.6      2.117      4.970
REMARK  7 active torsions:
REMARK  status: ('A' for Active; 'I' for Inactive)
REMARK    1  A    between atoms: C_2  and  C_3 
REMARK    2  A    between atoms: C_3  and  O_6 
REMARK    3  A    between atoms: C_3  and  C_4 
REMARK    4  A    between atoms: C_7  and  O_6 
REMARK    5  A    between atoms: C_9  and  C_10 
REMARK    6  A    between atoms: N_15  and  C_14 
REMARK    7  A    between atoms: N_20  and  C_19 
REMARK       I    between atoms: C_22  and  N_20 
ROOT
ATOM      1  C   LIG d   1      -6.387  74.905 117.779  0.00  0.00     0.161 C 
ATOM      2  C   LIG d   1      -6.794  73.668 117.252  0.00  0.00     0.016 C 
ATOM      3  C   LIG d   1      -8.137  73.363 116.931  0.00  0.00     0.038 C 
ATOM      4  C   LIG d   1      -9.149  74.333 116.975  0.00  0.00     0.028 C 
ATOM      5  C   LIG d   1      -8.876  75.447 117.980  0.00  0.00    -0.047 C 
ATOM      6  C   LIG d   1      -7.460  76.013 117.730  0.00  0.00     0.091 C 
ENDROOT
BRANCH   1   7
ATOM      7  O   LIG d   1      -5.182  75.345 117.121  0.00  0.00    -0.368 OA
BRANCH   7   8
ATOM      8  C   LIG d   1      -4.651  74.458 116.106  0.00  0.00     0.119 C 
BRANCH   8   9
ATOM      9  C   LIG d   1      -3.183  74.165 116.469  0.00  0.00     0.028 C 
ATOM     10  C   LIG d   1      -2.193  74.885 115.538  0.00  0.00     0.006 C 
ENDBRANCH   8   9
BRANCH   8  11
ATOM     11  C   LIG d   1      -4.601  75.145 114.738  0.00  0.00     0.028 C 
ATOM     12  C   LIG d   1      -5.997  75.461 114.178  0.00  0.00     0.006 C 
ENDBRANCH   8  11
ENDBRANCH   7   8
ENDBRANCH   1   7
BRANCH   6  13
ATOM     13  N   LIG d   1      -7.080  77.051 118.723  0.00  0.00    -0.311 N 
ATOM     14  C   LIG d   1      -7.182  78.359 118.493  0.00  0.00     0.210 C 
ATOM     15  C   LIG d   1      -6.718  79.257 119.644  0.00  0.00     0.109 C 
ATOM     16  O   LIG d   1      -7.643  78.861 117.456  0.00  0.00    -0.276 OA
ATOM     17  H   LIG d   1      -6.726  76.732 119.604  0.00  0.00     0.149 HD
ENDBRANCH   6  13
BRANCH   5  18
ATOM     18  N   LIG d   1      -9.939  76.458 117.824  0.00  0.00     0.381 N 
ATOM     19  H   LIG d   1     -10.417  76.316 116.956  0.00  0.00    -0.090 HD
ATOM     20  H   LIG d   1      -9.519  77.371 117.807  0.00  0.00    -0.090 HD
ATOM     21  H   LIG d   1     -10.584  76.395 118.580  0.00  0.00    -0.090 HD
ENDBRANCH   5  18
BRANCH   3  22
ATOM     22  C   LIG d   1      -8.485  72.062 116.600  0.00  0.00     0.382 C 
ATOM     23  O   LIG d   1      -7.654  71.133 116.748  0.00  0.00    -0.241 OA
ATOM     24  O   LIG d   1      -9.604  71.812 116.113  0.00  0.00    -0.241 OA
ENDBRANCH   3  22
TORSDOF 7
ENDMDL
MODEL 3
REMARK VINA RESULT:      -5.5      2.014      5.368
REMARK  7 active torsions:
REMARK  status: ('A' for Active; 'I' for Inactive)
REMARK    1  A    between atoms: C_2  and  C_3 
REMARK    2  A    between atoms: C_3  and  O_6 
REMARK    3  A    between atoms: C_3  and  C_4 
REMARK    4  A    between atoms: C_7  and  O_6 
REMARK    5  A    between atoms: C_9  and  C_10 
REMARK    6  A    between atoms: N_15  and  C_14 
REMARK    7  A    between atoms: N_20  and  C_19 
REMARK       I    between atoms: C_22  and  N_20 
ROOT
ATOM      1  C   LIG d   1      -5.825  75.773 115.886  0.00  0.00     0.161 C 
ATOM      2  C   LIG d   1      -4.720  74.942 115.639  0.00  0.00     0.016 C 
ATOM      3  C   LIG d   1      -3.547  74.952 116.428  0.00  0.00     0.038 C 
ATOM      4  C   LIG d   1      -3.460  75.690 117.618  0.00  0.00     0.028 C 
ATOM      5  C   LIG d   1      -4.356  76.924 117.632  0.00  0.00    -0.047 C 
ATOM      6  C   LIG d   1      -5.792  76.505 117.244  0.00  0.00     0.091 C 
ENDROOT
BRANCH   1   7
ATOM      7  O   LIG d   1      -7.044  75.016 115.754  0.00  0.00    -0.368 OA
BRANCH   7   8
ATOM      8  C   LIG d   1      -7.243  73.954 116.720  0.00  0.00     0.119 C 
BRANCH   8   9
ATOM      9  C   LIG d   1      -7.098  72.615 115.972  0.00  0.00     0.028 C 
ATOM     10  C   LIG d   1      -8.371  71.755 116.055  0.00  0.00     0.006 C 
ENDBRANCH   8   9
BRANCH   8  11
ATOM     11  C   LIG d   1      -8.673  73.960 117.269  0.00  0.00     0.028 C 
ATOM     12  C   LIG d   1      -9.378  75.312 117.080  0.00  0.00     0.006 C 
ENDBRANCH   8  11
ENDBRANCH   7   8
ENDBRANCH   1   7
BRANCH   6  13
ATOM     13  N   LIG d   1      -6.716  77.666 117.152  0.00  0.00    -0.311 N 
ATOM     14  C   LIG d   1      -7.464  78.091 118.169  0.00  0.00     0.210 C 
ATOM     15  C   LIG d   1      -8.361  79.291 117.854  0.00  0.00     0.109 C 
ATOM     16  O   LIG d   1      -7.445  77.607 119.311  0.00  0.00    -0.276 OA
ATOM     17  H   LIG d   1      -6.770  78.136 116.270  0.00  0.00     0.149 HD
ENDBRANCH   6  13
BRANCH   5  18
ATOM     18  N   LIG d   1      -4.271  77.521 118.978  0.00  0.00     0.381 N 
ATOM     19  H   LIG d   1      -3.881  78.441 118.916  0.00  0.00    -0.090 HD
ATOM     20  H   LIG d   1      -3.662  76.959 119.545  0.00  0.00    -0.090 HD
ATOM     21  H   LIG d   1      -5.177  77.563 119.390  0.00  0.00    -0.090 HD
ENDBRANCH   5  18
BRANCH   3  22
ATOM     22  C   LIG d   1      -2.430  74.246 116.008  0.00  0.00     0.382 C 
ATOM     23  O   LIG d   1      -1.995  74.398 114.841  0.00  0.00    -0.241 OA
ATOM     24  O   LIG d   1      -1.878  73.426 116.766  0.00  0.00    -0.241 OA
ENDBRANCH   3  22
TORSDOF 7
ENDMDL
MODEL 4
REMARK VINA RESULT:      -5.2     15.760     18.185
REMARK  7 active torsions:
REMARK  status: ('A' for Active; 'I' for Inactive)
REMARK    1  A    between atoms: C_2  and  C_3 
REMARK    2  A    between atoms: C_3  and  O_6 
REMARK    3  A    between atoms: C_3  and  C_4 
REMARK    4  A    between atoms: C_7  and  O_6 
REMARK    5  A    between atoms: C_9  and  C_10 
REMARK    6  A    between atoms: N_15  and  C_14 
REMARK    7  A    between atoms: N_20  and  C_19 
REMARK       I    between atoms: C_22  and  N_20 
ROOT
ATOM      1  C   LIG d   1     -23.162  83.699 116.135  0.00  0.00     0.161 C 
ATOM      2  C   LIG d   1     -22.709  84.987 115.803  0.00  0.00     0.016 C 
ATOM      3  C   LIG d   1     -22.955  85.600 114.553  0.00  0.00     0.038 C 
ATOM      4  C   LIG d   1     -23.806  85.023 113.598  0.00  0.00     0.028 C 
ATOM      5  C   LIG d   1     -23.874  83.502 113.689  0.00  0.00    -0.047 C 
ATOM      6  C   LIG d   1     -24.186  83.099 115.148  0.00  0.00     0.091 C 
ENDROOT
BRANCH   1   7
ATOM      7  O   LIG d   1     -23.697  83.699 117.473  0.00  0.00    -0.368 OA
BRANCH   7   8
ATOM      8  C   LIG d   1     -22.900  83.025 118.478  0.00  0.00     0.119 C 
BRANCH   8   9
ATOM      9  C   LIG d   1     -22.256  84.110 119.363  0.00  0.00     0.028 C 
ATOM     10  C   LIG d   1     -23.302  84.979 120.081  0.00  0.00     0.006 C 
ENDBRANCH   8   9
BRANCH   8  11
ATOM     11  C   LIG d   1     -21.728  82.269 117.845  0.00  0.00     0.028 C 
ATOM     12  C   LIG d   1     -21.008  81.345 118.840  0.00  0.00     0.006 C 
ENDBRANCH   8  11
ENDBRANCH   7   8
ENDBRANCH   1   7
BRANCH   6  13
ATOM     13  N   LIG d   1     -24.187  81.626 115.342  0.00  0.00    -0.311 N 
ATOM     14  C   LIG d   1     -25.127  80.977 116.028  0.00  0.00     0.210 C 
ATOM     15  C   LIG d   1     -24.928  79.461 116.123  0.00  0.00     0.109 C 
ATOM     16  O   LIG d   1     -26.124  81.510 116.539  0.00  0.00    -0.276 OA
ATOM     17  H   LIG d   1     -23.431  81.112 114.934  0.00  0.00     0.149 HD
ENDBRANCH   6  13
BRANCH   5  18
ATOM     18  N   LIG d   1     -24.899  83.044 112.731  0.00  0.00     0.381 N 
ATOM     19  H   LIG d   1     -25.680  82.663 113.227  0.00  0.00    -0.090 HD
ATOM     20  H   LIG d   1     -24.506  82.320 112.157  0.00  0.00    -0.090 HD
ATOM     21  H   LIG d   1     -25.197  83.805 112.161  0.00  0.00    -0.090 HD
ENDBRANCH   5  18
BRANCH   3  22
ATOM     22  C   LIG d   1     -22.314  86.787 114.231  0.00  0.00     0.382 C 
ATOM     23  O   LIG d   1     -22.687  87.863 114.757  0.00  0.00    -0.241 OA
ATOM     24  O   LIG d   1     -21.396  86.801 113.390  0.00  0.00    -0.241 OA
ENDBRANCH   3  22
TORSDOF 7
ENDMDL
MODEL 5
REMARK VINA RESULT:      -5.1      2.094      5.231
REMARK  7 active torsions:
REMARK  status: ('A' for Active; 'I' for Inactive)
REMARK    1  A    between atoms: C_2  and  C_3 
REMARK    2  A    between atoms: C_3  and  O_6 
REMARK    3  A    between atoms: C_3  and  C_4 
REMARK    4  A    between atoms: C_7  and  O_6 
REMARK    5  A    between atoms: C_9  and  C_10 
REMARK    6  A    between atoms: N_15  and  C_14 
REMARK    7  A    between atoms: N_20  and  C_19 
REMARK       I    between atoms: C_22  and  N_20 
ROOT
ATOM      1  C   LIG d   1      -7.218  75.596 117.371  0.00  0.00     0.161 C 
ATOM      2  C   LIG d   1      -7.905  74.371 117.310  0.00  0.00     0.016 C 
ATOM      3  C   LIG d   1      -7.485  73.283 116.510  0.00  0.00     0.038 C 
ATOM      4  C   LIG d   1      -6.259  73.293 115.829  0.00  0.00     0.028 C 
ATOM      5  C   LIG d   1      -5.783  74.693 115.459  0.00  0.00    -0.047 C 
ATOM      6  C   LIG d   1      -5.819  75.585 116.721  0.00  0.00     0.091 C 
ENDROOT
BRANCH   1   7
ATOM      7  O   LIG d   1      -7.132  76.040 118.739  0.00  0.00    -0.368 OA
BRANCH   7   8
ATOM      8  C   LIG d   1      -7.974  77.162 119.099  0.00  0.00     0.119 C 
BRANCH   8   9
ATOM      9  C   LIG d   1      -9.004  77.349 117.969  0.00  0.00     0.028 C 
ATOM     10  C   LIG d   1     -10.442  77.055 118.430  0.00  0.00     0.006 C 
ENDBRANCH   8   9
BRANCH   8  11
ATOM     11  C   LIG d   1      -7.175  78.468 119.140  0.00  0.00     0.028 C 
ATOM     12  C   LIG d   1      -7.613  79.469 118.059  0.00  0.00     0.006 C 
ENDBRANCH   8  11
ENDBRANCH   7   8
ENDBRANCH   1   7
BRANCH   6  13
ATOM     13  N   LIG d   1      -5.448  76.995 116.430  0.00  0.00    -0.311 N 
ATOM     14  C   LIG d   1      -4.396  77.604 116.975  0.00  0.00     0.210 C 
ATOM     15  C   LIG d   1      -4.205  79.064 116.555  0.00  0.00     0.109 C 
ATOM     16  O   LIG d   1      -3.585  77.064 117.743  0.00  0.00    -0.276 OA
ATOM     17  H   LIG d   1      -6.034  77.498 115.793  0.00  0.00     0.149 HD
ENDBRANCH   6  13
BRANCH   5  18
ATOM     18  N   LIG d   1      -4.432  74.566 114.879  0.00  0.00     0.381 N 
ATOM     19  H   LIG d   1      -4.468  73.994 114.060  0.00  0.00    -0.090 HD
ATOM     20  H   LIG d   1      -3.831  74.120 115.550  0.00  0.00    -0.090 HD
ATOM     21  H   LIG d   1      -4.074  75.467 114.649  0.00  0.00    -0.090 HD
ENDBRANCH   5  18
BRANCH   3  22
ATOM     22  C   LIG d   1      -8.317  72.184 116.355  0.00  0.00     0.382 C 
ATOM     23  O   LIG d   1      -9.486  72.213 116.809  0.00  0.00    -0.241 OA
ATOM     24  O   LIG d   1      -7.898  71.148 115.805  0.00  0.00    -0.241 OA
ENDBRANCH   3  22
TORSDOF 7
ENDMDL
MODEL 6
REMARK VINA RESULT:      -5.0      2.588      3.454
REMARK  7 active torsions:
REMARK  status: ('A' for Active; 'I' for Inactive)
REMARK    1  A    between atoms: C_2  and  C_3 
REMARK    2  A    between atoms: C_3  and  O_6 
REMARK    3  A    between atoms: C_3  and  C_4 
REMARK    4  A    between atoms: C_7  and  O_6 
REMARK    5  A    between atoms: C_9  and  C_10 
REMARK    6  A    between atoms: N_15  and  C_14 
REMARK    7  A    between atoms: N_20  and  C_19 
REMARK       I    between atoms: C_22  and  N_20 
ROOT
ATOM      1  C   LIG d   1      -5.633  76.935 117.118  0.00  0.00     0.161 C 
ATOM      2  C   LIG d   1      -6.428  78.071 117.344  0.00  0.00     0.016 C 
ATOM      3  C   LIG d   1      -5.921  79.391 117.326  0.00  0.00     0.038 C 
ATOM      4  C   LIG d   1      -4.607  79.675 116.928  0.00  0.00     0.028 C 
ATOM      5  C   LIG d   1      -3.635  78.527 117.182  0.00  0.00    -0.047 C 
ATOM      6  C   LIG d   1      -4.220  77.232 116.573  0.00  0.00     0.091 C 
ENDROOT
BRANCH   1   7
ATOM      7  O   LIG d   1      -6.324  76.021 116.244  0.00  0.00    -0.368 OA
BRANCH   7   8
ATOM      8  C   LIG d   1      -6.533  74.682 116.758  0.00  0.00     0.119 C 
BRANCH   8   9
ATOM      9  C   LIG d   1      -6.829  73.765 115.556  0.00  0.00     0.028 C 
ATOM     10  C   LIG d   1      -6.878  72.279 115.949  0.00  0.00     0.006 C 
ENDBRANCH   8   9
BRANCH   8  11
ATOM     11  C   LIG d   1      -7.784  74.613 117.639  0.00  0.00     0.028 C 
ATOM     12  C   LIG d   1      -9.035  75.173 116.943  0.00  0.00     0.006 C 
ENDBRANCH   8  11
ENDBRANCH   7   8
ENDBRANCH   1   7
BRANCH   6  13
ATOM     13  N   LIG d   1      -3.372  76.043 116.849  0.00  0.00    -0.311 N 
ATOM     14  C   LIG d   1      -2.912  75.234 115.897  0.00  0.00     0.210 C 
ATOM     15  C   LIG d   1      -2.072  74.055 116.400  0.00  0.00     0.109 C 
ATOM     16  O   LIG d   1      -3.092  75.398 114.681  0.00  0.00    -0.276 OA
ATOM     17  H   LIG d   1      -3.151  75.853 117.807  0.00  0.00     0.149 HD
ENDBRANCH   6  13
BRANCH   5  18
ATOM     18  N   LIG d   1      -2.335  78.906 116.596  0.00  0.00     0.381 N 
ATOM     19  H   LIG d   1      -2.144  79.869 116.790  0.00  0.00    -0.090 HD
ATOM     20  H   LIG d   1      -2.381  78.788 115.599  0.00  0.00    -0.090 HD
ATOM     21  H   LIG d   1      -1.612  78.334 116.972  0.00  0.00    -0.090 HD
ENDBRANCH   5  18
BRANCH   3  22
ATOM     22  C   LIG d   1      -6.724  80.440 117.747  0.00  0.00     0.382 C 
ATOM     23  O   LIG d   1      -7.065  80.524 118.952  0.00  0.00    -0.241 OA
ATOM     24  O   LIG d   1      -7.148  81.279 116.930  0.00  0.00    -0.241 OA
ENDBRANCH   3  22
TORSDOF 7
ENDMDL
MODEL 7
REMARK VINA RESULT:      -4.9     16.768     19.082
REMARK  7 active torsions:
REMARK  status: ('A' for Active; 'I' for Inactive)
REMARK    1  A    between atoms: C_2  and  C_3 
REMARK    2  A    between atoms: C_3  and  O_6 
REMARK    3  A    between atoms: C_3  and  C_4 
REMARK    4  A    between atoms: C_7  and  O_6 
REMARK    5  A    between atoms: C_9  and  C_10 
REMARK    6  A    between atoms: N_15  and  C_14 
REMARK    7  A    between atoms: N_20  and  C_19 
REMARK       I    between atoms: C_22  and  N_20 
ROOT
ATOM      1  C   LIG d   1     -23.935  83.582 114.835  0.00  0.00     0.161 C 
ATOM      2  C   LIG d   1     -23.030  84.657 114.827  0.00  0.00     0.016 C 
ATOM      3  C   LIG d   1     -23.347  85.938 114.318  0.00  0.00     0.038 C 
ATOM      4  C   LIG d   1     -24.649  86.275 113.918  0.00  0.00     0.028 C 
ATOM      5  C   LIG d   1     -25.464  85.079 113.438  0.00  0.00    -0.047 C 
ATOM      6  C   LIG d   1     -25.393  83.962 114.504  0.00  0.00     0.091 C 
ENDROOT
BRANCH   1   7
ATOM      7  O   LIG d   1     -23.870  82.898 116.101  0.00  0.00    -0.368 OA
BRANCH   7   8
ATOM      8  C   LIG d   1     -23.056  81.700 116.138  0.00  0.00     0.119 C 
BRANCH   8   9
ATOM      9  C   LIG d   1     -24.011  80.491 116.137  0.00  0.00     0.028 C 
ATOM     10  C   LIG d   1     -24.831  80.389 117.434  0.00  0.00     0.006 C 
ENDBRANCH   8   9
BRANCH   8  11
ATOM     11  C   LIG d   1     -22.274  81.597 117.450  0.00  0.00     0.028 C 
ATOM     12  C   LIG d   1     -21.711  82.950 117.916  0.00  0.00     0.006 C 
ENDBRANCH   8  11
ENDBRANCH   7   8
ENDBRANCH   1   7
BRANCH   6  13
ATOM     13  N   LIG d   1     -26.095  82.724 114.076  0.00  0.00    -0.311 N 
ATOM     14  C   LIG d   1     -27.027  82.119 114.810  0.00  0.00     0.210 C 
ATOM     15  C   LIG d   1     -27.610  80.844 114.191  0.00  0.00     0.109 C 
ATOM     16  O   LIG d   1     -27.450  82.534 115.899  0.00  0.00    -0.276 OA
ATOM     17  H   LIG d   1     -25.836  82.336 113.190  0.00  0.00     0.149 HD
ENDBRANCH   6  13
BRANCH   5  18
ATOM     18  N   LIG d   1     -26.839  85.550 113.183  0.00  0.00     0.381 N 
ATOM     19  H   LIG d   1     -26.814  86.460 112.769  0.00  0.00    -0.090 HD
ATOM     20  H   LIG d   1     -27.327  85.615 114.059  0.00  0.00    -0.090 HD
ATOM     21  H   LIG d   1     -27.310  84.914 112.578  0.00  0.00    -0.090 HD
ENDBRANCH   5  18
BRANCH   3  22
ATOM     22  C   LIG d   1     -22.346  86.885 114.169  0.00  0.00     0.382 C 
ATOM     23  O   LIG d   1     -21.368  86.650 113.420  0.00  0.00    -0.241 OA
ATOM     24  O   LIG d   1     -22.386  87.953 114.809  0.00  0.00    -0.241 OA
ENDBRANCH   3  22
TORSDOF 7
ENDMDL
MODEL 8
REMARK VINA RESULT:      -4.8      1.821      2.889
REMARK  7 active torsions:
REMARK  status: ('A' for Active; 'I' for Inactive)
REMARK    1  A    between atoms: C_2  and  C_3 
REMARK    2  A    between atoms: C_3  and  O_6 
REMARK    3  A    between atoms: C_3  and  C_4 
REMARK    4  A    between atoms: C_7  and  O_6 
REMARK    5  A    between atoms: C_9  and  C_10 
REMARK    6  A    between atoms: N_15  and  C_14 
REMARK    7  A    between atoms: N_20  and  C_19 
REMARK       I    between atoms: C_22  and  N_20 
ROOT
ATOM      1  C   LIG d   1      -6.409  76.632 118.133  0.00  0.00     0.161 C 
ATOM      2  C   LIG d   1      -7.788  76.602 118.400  0.00  0.00     0.016 C 
ATOM      3  C   LIG d   1      -8.618  77.745 118.331  0.00  0.00     0.038 C 
ATOM      4  C   LIG d   1      -8.151  78.972 117.839  0.00  0.00     0.028 C 
ATOM      5  C   LIG d   1      -6.652  79.173 118.038  0.00  0.00    -0.047 C 
ATOM      6  C   LIG d   1      -5.903  77.938 117.487  0.00  0.00     0.091 C 
ENDROOT
BRANCH   1   7
ATOM      7  O   LIG d   1      -6.045  75.498 117.321  0.00  0.00    -0.368 OA
BRANCH   7   8
ATOM      8  C   LIG d   1      -6.955  75.166 116.244  0.00  0.00     0.119 C 
BRANCH   8   9
ATOM      9  C   LIG d   1      -7.194  73.645 116.291  0.00  0.00     0.028 C 
ATOM     10  C   LIG d   1      -8.589  73.286 116.829  0.00  0.00     0.006 C 
ENDBRANCH   8   9
BRANCH   8  11
ATOM     11  C   LIG d   1      -6.321  75.435 114.876  0.00  0.00     0.028 C 
ATOM     12  C   LIG d   1      -4.829  75.070 114.828  0.00  0.00     0.006 C 
ENDBRANCH   8  11
ENDBRANCH   7   8
ENDBRANCH   1   7
BRANCH   6  13
ATOM     13  N   LIG d   1      -4.437  78.016 117.718  0.00  0.00    -0.311 N 
ATOM     14  C   LIG d   1      -3.548  78.177 116.739  0.00  0.00     0.210 C 
ATOM     15  C   LIG d   1      -2.085  78.211 117.193  0.00  0.00     0.109 C 
ATOM     16  O   LIG d   1      -3.834  78.328 115.542  0.00  0.00    -0.276 OA
ATOM     17  H   LIG d   1      -4.119  77.934 118.664  0.00  0.00     0.149 HD
ENDBRANCH   6  13
BRANCH   5  18
ATOM     18  N   LIG d   1      -6.277  80.428 117.358  0.00  0.00     0.381 N 
ATOM     19  H   LIG d   1      -6.679  80.450 116.442  0.00  0.00    -0.090 HD
ATOM     20  H   LIG d   1      -5.277  80.460 117.265  0.00  0.00    -0.090 HD
ATOM     21  H   LIG d   1      -6.594  81.210 117.887  0.00  0.00    -0.090 HD
ENDBRANCH   5  18
BRANCH   3  22
ATOM     22  C   LIG d   1      -9.923  77.675 118.794  0.00  0.00     0.382 C 
ATOM     23  O   LIG d   1     -10.795  77.071 118.123  0.00  0.00    -0.241 OA
ATOM     24  O   LIG d   1     -10.250  78.245 119.852  0.00  0.00    -0.241 OA
ENDBRANCH   3  22
TORSDOF 7
ENDMDL
MODEL 9
REMARK VINA RESULT:      -4.8      2.614      6.099
REMARK  7 active torsions:
REMARK  status: ('A' for Active; 'I' for Inactive)
REMARK    1  A    between atoms: C_2  and  C_3 
REMARK    2  A    between atoms: C_3  and  O_6 
REMARK    3  A    between atoms: C_3  and  C_4 
REMARK    4  A    between atoms: C_7  and  O_6 
REMARK    5  A    between atoms: C_9  and  C_10 
REMARK    6  A    between atoms: N_15  and  C_14 
REMARK    7  A    between atoms: N_20  and  C_19 
REMARK       I    between atoms: C_22  and  N_20 
ROOT
ATOM      1  C   LIG d   1      -4.350  76.455 115.513  0.00  0.00     0.161 C 
ATOM      2  C   LIG d   1      -3.521  75.339 115.311  0.00  0.00     0.016 C 
ATOM      3  C   LIG d   1      -2.499  74.956 116.210  0.00  0.00     0.038 C 
ATOM      4  C   LIG d   1      -2.336  75.579 117.456  0.00  0.00     0.028 C 
ATOM      5  C   LIG d   1      -2.820  77.025 117.478  0.00  0.00    -0.047 C 
ATOM      6  C   LIG d   1      -4.260  77.081 116.920  0.00  0.00     0.091 C 
ENDROOT
BRANCH   1   7
ATOM      7  O   LIG d   1      -5.715  76.111 115.203  0.00  0.00    -0.368 OA
BRANCH   7   8
ATOM      8  C   LIG d   1      -6.391  75.258 116.160  0.00  0.00     0.119 C 
BRANCH   8   9
ATOM      9  C   LIG d   1      -6.625  73.895 115.482  0.00  0.00     0.028 C 
ATOM     10  C   LIG d   1      -6.924  72.778 116.496  0.00  0.00     0.006 C 
ENDBRANCH   8   9
BRANCH   8  11
ATOM     11  C   LIG d   1      -7.787  75.791 116.493  0.00  0.00     0.028 C 
ATOM     12  C   LIG d   1      -8.000  76.006 118.000  0.00  0.00     0.006 C 
ENDBRANCH   8  11
ENDBRANCH   7   8
ENDBRANCH   1   7
BRANCH   6  13
ATOM     13  N   LIG d   1      -4.779  78.471 116.827  0.00  0.00    -0.311 N 
ATOM     14  C   LIG d   1      -5.481  79.057 117.796  0.00  0.00     0.210 C 
ATOM     15  C   LIG d   1      -5.937  80.487 117.489  0.00  0.00     0.109 C 
ATOM     16  O   LIG d   1      -5.741  78.541 118.893  0.00  0.00    -0.276 OA
ATOM     17  H   LIG d   1      -4.587  78.974 115.984  0.00  0.00     0.149 HD
ENDBRANCH   6  13
BRANCH   5  18
ATOM     18  N   LIG d   1      -2.719  77.508 118.868  0.00  0.00     0.381 N 
ATOM     19  H   LIG d   1      -2.262  76.821 119.433  0.00  0.00    -0.090 HD
ATOM     20  H   LIG d   1      -3.646  77.650 119.231  0.00  0.00    -0.090 HD
ATOM     21  H   LIG d   1      -2.210  78.364 118.896  0.00  0.00    -0.090 HD
ENDBRANCH   5  18
BRANCH   3  22
ATOM     22  C   LIG d   1      -1.601  73.963 115.848  0.00  0.00     0.382 C 
ATOM     23  O   LIG d   1      -1.080  73.237 116.729  0.00  0.00    -0.241 OA
ATOM     24  O   LIG d   1      -1.272  73.814 114.656  0.00  0.00    -0.241 OA
ENDBRANCH   3  22
TORSDOF 7
ENDMDL
