MODEL 1
REMARK VINA RESULT:      -6.0      0.000      0.000
REMARK  7 active torsions:
REMARK  status: ('A' for Active; 'I' for Inactive)
REMARK    1  A    between atoms: C_2  and  C_3 
REMARK    2  A    between atoms: C_3  and  O_6 
REMARK    3  A    between atoms: C_3  and  C_4 
REMARK    4  A    between atoms: C_7  and  O_6 
REMARK    5  A    between atoms: C_9  and  C_10 
REMARK    6  A    between atoms: N_15  and  C_14 
REMARK    7  A    between atoms: N_20  and  C_19 
REMARK       I    between atoms: C_22  and  N_20 
ROOT
ATOM      1  C   LIG d   1     -16.174  66.033 114.343  0.00  0.00     0.161 C 
ATOM      2  C   LIG d   1     -15.609  66.852 113.351  0.00  0.00     0.016 C 
ATOM      3  C   LIG d   1     -15.028  68.112 113.620  0.00  0.00     0.038 C 
ATOM      4  C   LIG d   1     -14.835  68.575 114.930  0.00  0.00     0.028 C 
ATOM      5  C   LIG d   1     -15.842  68.011 115.926  0.00  0.00    -0.047 C 
ATOM      6  C   LIG d   1     -15.873  66.472 115.791  0.00  0.00     0.091 C 
ENDROOT
BRANCH   1   7
ATOM      7  O   LIG d   1     -15.767  64.666 114.138  0.00  0.00    -0.368 OA
BRANCH   7   8
ATOM      8  C   LIG d   1     -16.823  63.728 113.817  0.00  0.00     0.119 C 
BRANCH   8   9
ATOM      9  C   LIG d   1     -18.130  64.532 113.676  0.00  0.00     0.028 C 
ATOM     10  C   LIG d   1     -18.840  64.266 112.338  0.00  0.00     0.006 C 
ENDBRANCH   8   9
BRANCH   8  11
ATOM     11  C   LIG d   1     -17.070  62.752 114.971  0.00  0.00     0.028 C 
ATOM     12  C   LIG d   1     -17.758  61.454 114.517  0.00  0.00     0.006 C 
ENDBRANCH   8  11
ENDBRANCH   7   8
ENDBRANCH   1   7
BRANCH   6  13
ATOM     13  N   LIG d   1     -16.894  65.846 116.671  0.00  0.00    -0.311 N 
ATOM     14  C   LIG d   1     -16.622  65.364 117.883  0.00  0.00     0.210 C 
ATOM     15  C   LIG d   1     -17.815  64.742 118.615  0.00  0.00     0.109 C 
ATOM     16  O   LIG d   1     -15.512  65.420 118.433  0.00  0.00    -0.276 OA
ATOM     17  H   LIG d   1     -17.829  65.787 116.316  0.00  0.00     0.149 HD
ENDBRANCH   6  13
BRANCH   5  18
ATOM     18  N   LIG d   1     -15.442  68.466 117.271  0.00  0.00     0.381 N 
ATOM     19  H   LIG d   1     -15.869  67.886 117.966  0.00  0.00    -0.090 HD
ATOM     20  H   LIG d   1     -15.764  69.408 117.405  0.00  0.00    -0.090 HD
ATOM     21  H   LIG d   1     -14.450  68.430 117.362  0.00  0.00    -0.090 HD
ENDBRANCH   5  18
BRANCH   3  22
ATOM     22  C   LIG d   1     -14.668  68.942 112.569  0.00  0.00     0.382 C 
ATOM     23  O   LIG d   1     -15.499  69.756 112.099  0.00  0.00    -0.241 OA
ATOM     24  O   LIG d   1     -13.536  68.856 112.055  0.00  0.00    -0.241 OA
ENDBRANCH   3  22
TORSDOF 7
ENDMDL
MODEL 2
REMARK VINA RESULT:      -5.7     11.217     13.958
REMARK  7 active torsions:
REMARK  status: ('A' for Active; 'I' for Inactive)
REMARK    1  A    between atoms: C_2  and  C_3 
REMARK    2  A    between atoms: C_3  and  O_6 
REMARK    3  A    between atoms: C_3  and  C_4 
REMARK    4  A    between atoms: C_7  and  O_6 
REMARK    5  A    between atoms: C_9  and  C_10 
REMARK    6  A    between atoms: N_15  and  C_14 
REMARK    7  A    between atoms: N_20  and  C_19 
REMARK       I    between atoms: C_22  and  N_20 
ROOT
ATOM      1  C   LIG d   1      -7.613  75.633 117.806  0.00  0.00     0.161 C 
ATOM      2  C   LIG d   1      -8.991  75.663 118.073  0.00  0.00     0.016 C 
ATOM      3  C   LIG d   1      -9.694  76.843 118.408  0.00  0.00     0.038 C 
ATOM      4  C   LIG d   1      -9.090  78.107 118.350  0.00  0.00     0.028 C 
ATOM      5  C   LIG d   1      -7.583  78.069 118.577  0.00  0.00    -0.047 C 
ATOM      6  C   LIG d   1      -6.959  77.020 117.629  0.00  0.00     0.091 C 
ENDROOT
BRANCH   1   7
ATOM      7  O   LIG d   1      -7.356  74.808 116.652  0.00  0.00    -0.368 OA
BRANCH   7   8
ATOM      8  C   LIG d   1      -7.046  73.418 116.920  0.00  0.00     0.119 C 
BRANCH   8   9
ATOM      9  C   LIG d   1      -6.194  72.899 115.745  0.00  0.00     0.028 C 
ATOM     10  C   LIG d   1      -5.522  74.038 114.960  0.00  0.00     0.006 C 
ENDBRANCH   8   9
BRANCH   8  11
ATOM     11  C   LIG d   1      -8.311  72.554 116.916  0.00  0.00     0.028 C 
ATOM     12  C   LIG d   1      -8.005  71.049 116.852  0.00  0.00     0.006 C 
ENDBRANCH   8  11
ENDBRANCH   7   8
ENDBRANCH   1   7
BRANCH   6  13
ATOM     13  N   LIG d   1      -5.497  76.859 117.844  0.00  0.00    -0.311 N 
ATOM     14  C   LIG d   1      -4.590  77.048 116.888  0.00  0.00     0.210 C 
ATOM     15  C   LIG d   1      -3.139  76.810 117.317  0.00  0.00     0.109 C 
ATOM     16  O   LIG d   1      -4.846  77.421 115.734  0.00  0.00    -0.276 OA
ATOM     17  H   LIG d   1      -5.199  76.588 118.761  0.00  0.00     0.149 HD
ENDBRANCH   6  13
BRANCH   5  18
ATOM     18  N   LIG d   1      -7.064  79.432 118.353  0.00  0.00     0.381 N 
ATOM     19  H   LIG d   1      -7.786  80.011 117.972  0.00  0.00    -0.090 HD
ATOM     20  H   LIG d   1      -6.312  79.388 117.688  0.00  0.00    -0.090 HD
ATOM     21  H   LIG d   1      -6.736  79.817 119.211  0.00  0.00    -0.090 HD
ENDBRANCH   5  18
BRANCH   3  22
ATOM     22  C   LIG d   1     -11.008  76.760 118.845  0.00  0.00     0.382 C 
ATOM     23  O   LIG d   1     -11.291  77.040 120.035  0.00  0.00    -0.241 OA
ATOM     24  O   LIG d   1     -11.905  76.365 118.077  0.00  0.00    -0.241 OA
ENDBRANCH   3  22
TORSDOF 7
ENDMDL
MODEL 3
REMARK VINA RESULT:      -5.5      2.201      4.730
REMARK  7 active torsions:
REMARK  status: ('A' for Active; 'I' for Inactive)
REMARK    1  A    between atoms: C_2  and  C_3 
REMARK    2  A    between atoms: C_3  and  O_6 
REMARK    3  A    between atoms: C_3  and  C_4 
REMARK    4  A    between atoms: C_7  and  O_6 
REMARK    5  A    between atoms: C_9  and  C_10 
REMARK    6  A    between atoms: N_15  and  C_14 
REMARK    7  A    between atoms: N_20  and  C_19 
REMARK       I    between atoms: C_22  and  N_20 
ROOT
ATOM      1  C   LIG d   1     -15.975  64.957 115.350  0.00  0.00     0.161 C 
ATOM      2  C   LIG d   1     -16.872  64.863 114.273  0.00  0.00     0.016 C 
ATOM      3  C   LIG d   1     -18.274  64.770 114.433  0.00  0.00     0.038 C 
ATOM      4  C   LIG d   1     -18.888  64.918 115.686  0.00  0.00     0.028 C 
ATOM      5  C   LIG d   1     -17.994  64.509 116.851  0.00  0.00    -0.047 C 
ATOM      6  C   LIG d   1     -16.634  65.232 116.718  0.00  0.00     0.091 C 
ENDROOT
BRANCH   1   7
ATOM      7  O   LIG d   1     -14.974  65.955 115.066  0.00  0.00    -0.368 OA
BRANCH   7   8
ATOM      8  C   LIG d   1     -15.466  67.238 114.607  0.00  0.00     0.119 C 
BRANCH   8   9
ATOM      9  C   LIG d   1     -14.948  67.444 113.170  0.00  0.00     0.028 C 
ATOM     10  C   LIG d   1     -14.929  68.926 112.761  0.00  0.00     0.006 C 
ENDBRANCH   8   9
BRANCH   8  11
ATOM     11  C   LIG d   1     -14.867  68.388 115.423  0.00  0.00     0.028 C 
ATOM     12  C   LIG d   1     -15.755  68.803 116.607  0.00  0.00     0.006 C 
ENDBRANCH   8  11
ENDBRANCH   7   8
ENDBRANCH   1   7
BRANCH   6  13
ATOM     13  N   LIG d   1     -15.669  64.823 117.772  0.00  0.00    -0.311 N 
ATOM     14  C   LIG d   1     -15.532  65.467 118.930  0.00  0.00     0.210 C 
ATOM     15  C   LIG d   1     -14.466  64.892 119.867  0.00  0.00     0.109 C 
ATOM     16  O   LIG d   1     -16.214  66.441 119.283  0.00  0.00    -0.276 OA
ATOM     17  H   LIG d   1     -15.097  64.024 117.582  0.00  0.00     0.149 HD
ENDBRANCH   6  13
BRANCH   5  18
ATOM     18  N   LIG d   1     -18.707  64.844 118.099  0.00  0.00     0.381 N 
ATOM     19  H   LIG d   1     -18.234  65.590 118.569  0.00  0.00    -0.090 HD
ATOM     20  H   LIG d   1     -18.704  64.039 118.701  0.00  0.00    -0.090 HD
ATOM     21  H   LIG d   1     -19.644  65.111 117.895  0.00  0.00    -0.090 HD
ENDBRANCH   5  18
BRANCH   3  22
ATOM     22  C   LIG d   1     -19.074  64.487 113.337  0.00  0.00     0.382 C 
ATOM     23  O   LIG d   1     -18.797  63.515 112.593  0.00  0.00    -0.241 OA
ATOM     24  O   LIG d   1     -20.044  65.217 113.057  0.00  0.00    -0.241 OA
ENDBRANCH   3  22
TORSDOF 7
ENDMDL
MODEL 4
REMARK VINA RESULT:      -5.5     14.074     16.651
REMARK  7 active torsions:
REMARK  status: ('A' for Active; 'I' for Inactive)
REMARK    1  A    between atoms: C_2  and  C_3 
REMARK    2  A    between atoms: C_3  and  O_6 
REMARK    3  A    between atoms: C_3  and  C_4 
REMARK    4  A    between atoms: C_7  and  O_6 
REMARK    5  A    between atoms: C_9  and  C_10 
REMARK    6  A    between atoms: N_15  and  C_14 
REMARK    7  A    between atoms: N_20  and  C_19 
REMARK       I    between atoms: C_22  and  N_20 
ROOT
ATOM      1  C   LIG d   1      -3.250  76.044 115.103  0.00  0.00     0.161 C 
ATOM      2  C   LIG d   1      -3.290  77.060 114.134  0.00  0.00     0.016 C 
ATOM      3  C   LIG d   1      -2.135  77.704 113.634  0.00  0.00     0.038 C 
ATOM      4  C   LIG d   1      -0.843  77.268 113.961  0.00  0.00     0.028 C 
ATOM      5  C   LIG d   1      -0.761  76.580 115.320  0.00  0.00    -0.047 C 
ATOM      6  C   LIG d   1      -1.843  75.478 115.390  0.00  0.00     0.091 C 
ENDROOT
BRANCH   1   7
ATOM      7  O   LIG d   1      -4.152  74.981 114.734  0.00  0.00    -0.368 OA
BRANCH   7   8
ATOM      8  C   LIG d   1      -5.246  74.727 115.649  0.00  0.00     0.119 C 
BRANCH   8   9
ATOM      9  C   LIG d   1      -5.859  73.365 115.271  0.00  0.00     0.028 C 
ATOM     10  C   LIG d   1      -6.869  72.865 116.317  0.00  0.00     0.006 C 
ENDBRANCH   8   9
BRANCH   8  11
ATOM     11  C   LIG d   1      -6.375  75.745 115.462  0.00  0.00     0.028 C 
ATOM     12  C   LIG d   1      -6.596  76.624 116.704  0.00  0.00     0.006 C 
ENDBRANCH   8  11
ENDBRANCH   7   8
ENDBRANCH   1   7
BRANCH   6  13
ATOM     13  N   LIG d   1      -1.889  74.811 116.717  0.00  0.00    -0.311 N 
ATOM     14  C   LIG d   1      -1.269  73.662 116.982  0.00  0.00     0.210 C 
ATOM     15  C   LIG d   1      -1.461  73.138 118.408  0.00  0.00     0.109 C 
ATOM     16  O   LIG d   1      -0.553  73.044 116.180  0.00  0.00    -0.276 OA
ATOM     17  H   LIG d   1      -2.422  75.261 117.435  0.00  0.00     0.149 HD
ENDBRANCH   6  13
BRANCH   5  18
ATOM     18  N   LIG d   1       0.609  76.055 115.472  0.00  0.00     0.381 N 
ATOM     19  H   LIG d   1       0.594  75.230 116.037  0.00  0.00    -0.090 HD
ATOM     20  H   LIG d   1       1.172  76.746 115.937  0.00  0.00    -0.090 HD
ATOM     21  H   LIG d   1       0.996  75.847 114.578  0.00  0.00    -0.090 HD
ENDBRANCH   5  18
BRANCH   3  22
ATOM     22  C   LIG d   1      -2.268  78.824 112.827  0.00  0.00     0.382 C 
ATOM     23  O   LIG d   1      -3.350  79.459 112.810  0.00  0.00    -0.241 OA
ATOM     24  O   LIG d   1      -1.335  79.181 112.084  0.00  0.00    -0.241 OA
ENDBRANCH   3  22
TORSDOF 7
ENDMDL
MODEL 5
REMARK VINA RESULT:      -5.5     26.631     29.661
REMARK  7 active torsions:
REMARK  status: ('A' for Active; 'I' for Inactive)
REMARK    1  A    between atoms: C_2  and  C_3 
REMARK    2  A    between atoms: C_3  and  O_6 
REMARK    3  A    between atoms: C_3  and  C_4 
REMARK    4  A    between atoms: C_7  and  O_6 
REMARK    5  A    between atoms: C_9  and  C_10 
REMARK    6  A    between atoms: N_15  and  C_14 
REMARK    7  A    between atoms: N_20  and  C_19 
REMARK       I    between atoms: C_22  and  N_20 
ROOT
ATOM      1  C   LIG d   1      -5.850  93.259 118.147  0.00  0.00     0.161 C 
ATOM      2  C   LIG d   1      -6.683  92.481 117.326  0.00  0.00     0.016 C 
ATOM      3  C   LIG d   1      -6.199  91.484 116.448  0.00  0.00     0.038 C 
ATOM      4  C   LIG d   1      -4.852  91.091 116.443  0.00  0.00     0.028 C 
ATOM      5  C   LIG d   1      -3.898  92.194 116.888  0.00  0.00    -0.047 C 
ATOM      6  C   LIG d   1      -4.389  92.769 118.236  0.00  0.00     0.091 C 
ENDROOT
BRANCH   1   7
ATOM      7  O   LIG d   1      -6.424  93.366 119.465  0.00  0.00    -0.368 OA
BRANCH   7   8
ATOM      8  C   LIG d   1      -6.932  94.671 119.835  0.00  0.00     0.119 C 
BRANCH   8   9
ATOM      9  C   LIG d   1      -8.466  94.627 119.695  0.00  0.00     0.028 C 
ATOM     10  C   LIG d   1      -8.974  95.493 118.530  0.00  0.00     0.006 C 
ENDBRANCH   8   9
BRANCH   8  11
ATOM     11  C   LIG d   1      -6.466  95.749 118.853  0.00  0.00     0.028 C 
ATOM     12  C   LIG d   1      -5.602  96.831 119.521  0.00  0.00     0.006 C 
ENDBRANCH   8  11
ENDBRANCH   7   8
ENDBRANCH   1   7
BRANCH   6  13
ATOM     13  N   LIG d   1      -3.559  93.910 118.702  0.00  0.00    -0.311 N 
ATOM     14  C   LIG d   1      -2.539  93.777 119.548  0.00  0.00     0.210 C 
ATOM     15  C   LIG d   1      -1.828  95.084 119.914  0.00  0.00     0.109 C 
ATOM     16  O   LIG d   1      -2.134  92.697 120.003  0.00  0.00    -0.276 OA
ATOM     17  H   LIG d   1      -3.799  94.819 118.357  0.00  0.00     0.149 HD
ENDBRANCH   6  13
BRANCH   5  18
ATOM     18  N   LIG d   1      -2.546  91.608 116.967  0.00  0.00     0.381 N 
ATOM     19  H   LIG d   1      -2.450  90.884 116.284  0.00  0.00    -0.090 HD
ATOM     20  H   LIG d   1      -2.421  91.201 117.878  0.00  0.00    -0.090 HD
ATOM     21  H   LIG d   1      -1.860  92.314 116.814  0.00  0.00    -0.090 HD
ENDBRANCH   5  18
BRANCH   3  22
ATOM     22  C   LIG d   1      -7.061  90.896 115.534  0.00  0.00     0.382 C 
ATOM     23  O   LIG d   1      -7.261  91.441 114.422  0.00  0.00    -0.241 OA
ATOM     24  O   LIG d   1      -7.674  89.852 115.826  0.00  0.00    -0.241 OA
ENDBRANCH   3  22
TORSDOF 7
ENDMDL
MODEL 6
REMARK VINA RESULT:      -5.4      2.522      4.838
REMARK  7 active torsions:
REMARK  status: ('A' for Active; 'I' for Inactive)
REMARK    1  A    between atoms: C_2  and  C_3 
REMARK    2  A    between atoms: C_3  and  O_6 
REMARK    3  A    between atoms: C_3  and  C_4 
REMARK    4  A    between atoms: C_7  and  O_6 
REMARK    5  A    between atoms: C_9  and  C_10 
REMARK    6  A    between atoms: N_15  and  C_14 
REMARK    7  A    between atoms: N_20  and  C_19 
REMARK       I    between atoms: C_22  and  N_20 
ROOT
ATOM      1  C   LIG d   1     -16.336  64.623 116.492  0.00  0.00     0.161 C 
ATOM      2  C   LIG d   1     -15.735  65.871 116.725  0.00  0.00     0.016 C 
ATOM      3  C   LIG d   1     -15.346  66.753 115.690  0.00  0.00     0.038 C 
ATOM      4  C   LIG d   1     -15.671  66.510 114.348  0.00  0.00     0.028 C 
ATOM      5  C   LIG d   1     -15.827  65.028 114.021  0.00  0.00    -0.047 C 
ATOM      6  C   LIG d   1     -16.800  64.390 115.039  0.00  0.00     0.091 C 
ENDROOT
BRANCH   1   7
ATOM      7  O   LIG d   1     -17.435  64.432 117.405  0.00  0.00    -0.368 OA
BRANCH   7   8
ATOM      8  C   LIG d   1     -17.679  65.508 118.344  0.00  0.00     0.119 C 
BRANCH   8   9
ATOM      9  C   LIG d   1     -17.602  64.912 119.762  0.00  0.00     0.028 C 
ATOM     10  C   LIG d   1     -16.164  64.869 120.304  0.00  0.00     0.006 C 
ENDBRANCH   8   9
BRANCH   8  11
ATOM     11  C   LIG d   1     -19.104  66.053 118.209  0.00  0.00     0.028 C 
ATOM     12  C   LIG d   1     -19.197  67.247 117.246  0.00  0.00     0.006 C 
ENDBRANCH   8  11
ENDBRANCH   7   8
ENDBRANCH   1   7
BRANCH   6  13
ATOM     13  N   LIG d   1     -16.943  62.923 114.843  0.00  0.00    -0.311 N 
ATOM     14  C   LIG d   1     -17.918  62.372 114.121  0.00  0.00     0.210 C 
ATOM     15  C   LIG d   1     -17.893  60.842 114.064  0.00  0.00     0.109 C 
ATOM     16  O   LIG d   1     -18.781  63.007 113.496  0.00  0.00    -0.276 OA
ATOM     17  H   LIG d   1     -16.267  62.335 115.289  0.00  0.00     0.149 HD
ENDBRANCH   6  13
BRANCH   5  18
ATOM     18  N   LIG d   1     -16.300  64.927 112.627  0.00  0.00     0.381 N 
ATOM     19  H   LIG d   1     -17.271  65.163 112.581  0.00  0.00    -0.090 HD
ATOM     20  H   LIG d   1     -16.192  63.978 112.316  0.00  0.00    -0.090 HD
ATOM     21  H   LIG d   1     -15.774  65.538 112.043  0.00  0.00    -0.090 HD
ENDBRANCH   5  18
BRANCH   3  22
ATOM     22  C   LIG d   1     -14.588  67.874 115.992  0.00  0.00     0.382 C 
ATOM     23  O   LIG d   1     -13.628  67.784 116.795  0.00  0.00    -0.241 OA
ATOM     24  O   LIG d   1     -14.879  68.983 115.505  0.00  0.00    -0.241 OA
ENDBRANCH   3  22
TORSDOF 7
ENDMDL
MODEL 7
REMARK VINA RESULT:      -5.3      2.599      4.330
REMARK  7 active torsions:
REMARK  status: ('A' for Active; 'I' for Inactive)
REMARK    1  A    between atoms: C_2  and  C_3 
REMARK    2  A    between atoms: C_3  and  O_6 
REMARK    3  A    between atoms: C_3  and  C_4 
REMARK    4  A    between atoms: C_7  and  O_6 
REMARK    5  A    between atoms: C_9  and  C_10 
REMARK    6  A    between atoms: N_15  and  C_14 
REMARK    7  A    between atoms: N_20  and  C_19 
REMARK       I    between atoms: C_22  and  N_20 
ROOT
ATOM      1  C   LIG d   1     -16.452  64.628 116.605  0.00  0.00     0.161 C 
ATOM      2  C   LIG d   1     -15.837  65.870 116.838  0.00  0.00     0.016 C 
ATOM      3  C   LIG d   1     -15.402  66.728 115.802  0.00  0.00     0.038 C 
ATOM      4  C   LIG d   1     -15.690  66.469 114.454  0.00  0.00     0.028 C 
ATOM      5  C   LIG d   1     -15.861  64.986 114.145  0.00  0.00    -0.047 C 
ATOM      6  C   LIG d   1     -16.875  64.380 115.142  0.00  0.00     0.091 C 
ENDROOT
BRANCH   1   7
ATOM      7  O   LIG d   1     -17.581  64.469 117.487  0.00  0.00    -0.368 OA
BRANCH   7   8
ATOM      8  C   LIG d   1     -18.849  64.970 116.996  0.00  0.00     0.119 C 
BRANCH   8   9
ATOM      9  C   LIG d   1     -19.282  66.122 117.924  0.00  0.00     0.028 C 
ATOM     10  C   LIG d   1     -19.640  67.399 117.146  0.00  0.00     0.006 C 
ENDBRANCH   8   9
BRANCH   8  11
ATOM     11  C   LIG d   1     -19.951  63.914 117.119  0.00  0.00     0.028 C 
ATOM     12  C   LIG d   1     -20.932  63.936 115.936  0.00  0.00     0.006 C 
ENDBRANCH   8  11
ENDBRANCH   7   8
ENDBRANCH   1   7
BRANCH   6  13
ATOM     13  N   LIG d   1     -17.037  62.913 114.964  0.00  0.00    -0.311 N 
ATOM     14  C   LIG d   1     -17.949  62.369 114.160  0.00  0.00     0.210 C 
ATOM     15  C   LIG d   1     -17.960  60.837 114.139  0.00  0.00     0.109 C 
ATOM     16  O   LIG d   1     -18.728  63.009 113.439  0.00  0.00    -0.276 OA
ATOM     17  H   LIG d   1     -16.425  62.319 115.489  0.00  0.00     0.149 HD
ENDBRANCH   6  13
BRANCH   5  18
ATOM     18  N   LIG d   1     -16.293  64.870 112.740  0.00  0.00     0.381 N 
ATOM     19  H   LIG d   1     -16.599  65.762 112.405  0.00  0.00    -0.090 HD
ATOM     20  H   LIG d   1     -17.067  64.232 112.689  0.00  0.00    -0.090 HD
ATOM     21  H   LIG d   1     -15.541  64.537 112.178  0.00  0.00    -0.090 HD
ENDBRANCH   5  18
BRANCH   3  22
ATOM     22  C   LIG d   1     -14.634  67.841 116.110  0.00  0.00     0.382 C 
ATOM     23  O   LIG d   1     -13.604  67.717 116.816  0.00  0.00    -0.241 OA
ATOM     24  O   LIG d   1     -14.982  68.974 115.727  0.00  0.00    -0.241 OA
ENDBRANCH   3  22
TORSDOF 7
ENDMDL
MODEL 8
REMARK VINA RESULT:      -5.1      1.775      2.116
REMARK  7 active torsions:
REMARK  status: ('A' for Active; 'I' for Inactive)
REMARK    1  A    between atoms: C_2  and  C_3 
REMARK    2  A    between atoms: C_3  and  O_6 
REMARK    3  A    between atoms: C_3  and  C_4 
REMARK    4  A    between atoms: C_7  and  O_6 
REMARK    5  A    between atoms: C_9  and  C_10 
REMARK    6  A    between atoms: N_15  and  C_14 
REMARK    7  A    between atoms: N_20  and  C_19 
REMARK       I    between atoms: C_22  and  N_20 
ROOT
ATOM      1  C   LIG d   1     -16.194  65.241 116.151  0.00  0.00     0.161 C 
ATOM      2  C   LIG d   1     -15.876  66.129 115.110  0.00  0.00     0.016 C 
ATOM      3  C   LIG d   1     -15.069  67.276 115.285  0.00  0.00     0.038 C 
ATOM      4  C   LIG d   1     -14.397  67.534 116.489  0.00  0.00     0.028 C 
ATOM      5  C   LIG d   1     -15.092  66.940 117.709  0.00  0.00    -0.047 C 
ATOM      6  C   LIG d   1     -15.379  65.444 117.446  0.00  0.00     0.091 C 
ENDROOT
BRANCH   1   7
ATOM      7  O   LIG d   1     -16.070  63.881 115.689  0.00  0.00    -0.368 OA
BRANCH   7   8
ATOM      8  C   LIG d   1     -17.311  63.161 115.487  0.00  0.00     0.119 C 
BRANCH   8   9
ATOM      9  C   LIG d   1     -17.381  62.769 113.999  0.00  0.00     0.028 C 
ATOM     10  C   LIG d   1     -18.139  63.808 113.154  0.00  0.00     0.006 C 
ENDBRANCH   8   9
BRANCH   8  11
ATOM     11  C   LIG d   1     -18.524  64.064 115.727  0.00  0.00     0.028 C 
ATOM     12  C   LIG d   1     -19.562  63.429 116.666  0.00  0.00     0.006 C 
ENDBRANCH   8  11
ENDBRANCH   7   8
ENDBRANCH   1   7
BRANCH   6  13
ATOM     13  N   LIG d   1     -16.133  64.808 118.557  0.00  0.00    -0.311 N 
ATOM     14  C   LIG d   1     -17.304  65.261 119.002  0.00  0.00     0.210 C 
ATOM     15  C   LIG d   1     -17.902  64.468 120.169  0.00  0.00     0.109 C 
ATOM     16  O   LIG d   1     -17.919  66.224 118.521  0.00  0.00    -0.276 OA
ATOM     17  H   LIG d   1     -15.722  64.001 118.984  0.00  0.00     0.149 HD
ENDBRANCH   6  13
BRANCH   5  18
ATOM     18  N   LIG d   1     -14.215  67.164 118.874  0.00  0.00     0.381 N 
ATOM     19  H   LIG d   1     -14.770  67.372 119.681  0.00  0.00    -0.090 HD
ATOM     20  H   LIG d   1     -13.622  67.953 118.688  0.00  0.00    -0.090 HD
ATOM     21  H   LIG d   1     -13.660  66.354 119.044  0.00  0.00    -0.090 HD
ENDBRANCH   5  18
BRANCH   3  22
ATOM     22  C   LIG d   1     -14.960  68.203 114.259  0.00  0.00     0.382 C 
ATOM     23  O   LIG d   1     -14.345  69.279 114.449  0.00  0.00    -0.241 OA
ATOM     24  O   LIG d   1     -15.508  67.996 113.160  0.00  0.00    -0.241 OA
ENDBRANCH   3  22
TORSDOF 7
ENDMDL
MODEL 9
REMARK VINA RESULT:      -5.0     16.152     18.830
REMARK  7 active torsions:
REMARK  status: ('A' for Active; 'I' for Inactive)
REMARK    1  A    between atoms: C_2  and  C_3 
REMARK    2  A    between atoms: C_3  and  O_6 
REMARK    3  A    between atoms: C_3  and  C_4 
REMARK    4  A    between atoms: C_7  and  O_6 
REMARK    5  A    between atoms: C_9  and  C_10 
REMARK    6  A    between atoms: N_15  and  C_14 
REMARK    7  A    between atoms: N_20  and  C_19 
REMARK       I    between atoms: C_22  and  N_20 
ROOT
ATOM      1  C   LIG d   1      -2.129  78.242 115.097  0.00  0.00     0.161 C 
ATOM      2  C   LIG d   1      -2.625  79.152 114.149  0.00  0.00     0.016 C 
ATOM      3  C   LIG d   1      -1.888  80.261 113.675  0.00  0.00     0.038 C 
ATOM      4  C   LIG d   1      -0.538  80.451 114.007  0.00  0.00     0.028 C 
ATOM      5  C   LIG d   1      -0.153  79.842 115.351  0.00  0.00    -0.047 C 
ATOM      6  C   LIG d   1      -0.618  78.369 115.386  0.00  0.00     0.091 C 
ENDROOT
BRANCH   1   7
ATOM      7  O   LIG d   1      -2.450  76.895 114.696  0.00  0.00    -0.368 OA
BRANCH   7   8
ATOM      8  C   LIG d   1      -3.537  76.259 115.413  0.00  0.00     0.119 C 
BRANCH   8   9
ATOM      9  C   LIG d   1      -3.068  74.844 115.803  0.00  0.00     0.028 C 
ATOM     10  C   LIG d   1      -2.935  74.669 117.326  0.00  0.00     0.006 C 
ENDBRANCH   8   9
BRANCH   8  11
ATOM     11  C   LIG d   1      -4.754  76.047 114.508  0.00  0.00     0.028 C 
ATOM     12  C   LIG d   1      -5.619  74.854 114.942  0.00  0.00     0.006 C 
ENDBRANCH   8  11
ENDBRANCH   7   8
ENDBRANCH   1   7
BRANCH   6  13
ATOM     13  N   LIG d   1      -0.356  77.723 116.699  0.00  0.00    -0.311 N 
ATOM     14  C   LIG d   1       0.168  76.505 116.825  0.00  0.00     0.210 C 
ATOM     15  C   LIG d   1       0.337  76.020 118.268  0.00  0.00     0.109 C 
ATOM     16  O   LIG d   1       0.540  75.793 115.879  0.00  0.00    -0.276 OA
ATOM     17  H   LIG d   1      -0.599  78.242 117.519  0.00  0.00     0.149 HD
ENDBRANCH   6  13
BRANCH   5  18
ATOM     18  N   LIG d   1       1.306  79.992 115.507  0.00  0.00     0.381 N 
ATOM     19  H   LIG d   1       1.575  79.736 116.436  0.00  0.00    -0.090 HD
ATOM     20  H   LIG d   1       1.551  80.956 115.362  0.00  0.00    -0.090 HD
ATOM     21  H   LIG d   1       1.780  79.418 114.845  0.00  0.00    -0.090 HD
ENDBRANCH   5  18
BRANCH   3  22
ATOM     22  C   LIG d   1      -2.514  81.218 112.891  0.00  0.00     0.382 C 
ATOM     23  O   LIG d   1      -1.854  82.181 112.431  0.00  0.00    -0.241 OA
ATOM     24  O   LIG d   1      -3.739  81.155 112.674  0.00  0.00    -0.241 OA
ENDBRANCH   3  22
TORSDOF 7
ENDMDL
