MODEL 1
REMARK VINA RESULT:      -5.7      0.000      0.000
REMARK  7 active torsions:
REMARK  status: ('A' for Active; 'I' for Inactive)
REMARK    1  A    between atoms: C_2  and  C_3 
REMARK    2  A    between atoms: C_3  and  O_6 
REMARK    3  A    between atoms: C_3  and  C_4 
REMARK    4  A    between atoms: C_7  and  O_6 
REMARK    5  A    between atoms: C_9  and  C_10 
REMARK    6  A    between atoms: N_15  and  C_14 
REMARK    7  A    between atoms: N_20  and  C_19 
REMARK       I    between atoms: C_22  and  N_20 
ROOT
ATOM      1  C   LIG d   1      -4.007  74.640 116.841  0.00  0.00     0.161 C 
ATOM      2  C   LIG d   1      -4.387  75.264 115.641  0.00  0.00     0.016 C 
ATOM      3  C   LIG d   1      -3.462  75.727 114.677  0.00  0.00     0.038 C 
ATOM      4  C   LIG d   1      -2.089  75.458 114.779  0.00  0.00     0.028 C 
ATOM      5  C   LIG d   1      -1.612  75.275 116.216  0.00  0.00    -0.047 C 
ATOM      6  C   LIG d   1      -2.519  74.238 116.917  0.00  0.00     0.091 C 
ENDROOT
BRANCH   1   7
ATOM      7  O   LIG d   1      -4.848  73.494 117.083  0.00  0.00    -0.368 OA
BRANCH   7   8
ATOM      8  C   LIG d   1      -6.155  73.519 116.458  0.00  0.00     0.119 C 
BRANCH   8   9
ATOM      9  C   LIG d   1      -7.190  73.815 117.561  0.00  0.00     0.028 C 
ATOM     10  C   LIG d   1      -7.674  75.275 117.535  0.00  0.00     0.006 C 
ENDBRANCH   8   9
BRANCH   8  11
ATOM     11  C   LIG d   1      -6.534  72.143 115.905  0.00  0.00     0.028 C 
ATOM     12  C   LIG d   1      -7.705  71.498 116.663  0.00  0.00     0.006 C 
ENDBRANCH   8  11
ENDBRANCH   7   8
ENDBRANCH   1   7
BRANCH   6  13
ATOM     13  N   LIG d   1      -2.174  74.062 118.352  0.00  0.00    -0.311 N 
ATOM     14  C   LIG d   1      -1.258  73.198 118.785  0.00  0.00     0.210 C 
ATOM     15  C   LIG d   1      -1.071  73.161 120.305  0.00  0.00     0.109 C 
ATOM     16  O   LIG d   1      -0.559  72.482 118.052  0.00  0.00    -0.276 OA
ATOM     17  H   LIG d   1      -2.671  74.627 119.013  0.00  0.00     0.149 HD
ENDBRANCH   6  13
BRANCH   5  18
ATOM     18  N   LIG d   1      -0.196  74.866 116.167  0.00  0.00     0.381 N 
ATOM     19  H   LIG d   1       0.127  74.876 115.220  0.00  0.00    -0.090 HD
ATOM     20  H   LIG d   1      -0.117  73.927 116.517  0.00  0.00    -0.090 HD
ATOM     21  H   LIG d   1       0.357  75.483 116.720  0.00  0.00    -0.090 HD
ENDBRANCH   5  18
BRANCH   3  22
ATOM     22  C   LIG d   1      -3.905  76.502 113.616  0.00  0.00     0.382 C 
ATOM     23  O   LIG d   1      -3.076  77.066 112.863  0.00  0.00    -0.241 OA
ATOM     24  O   LIG d   1      -5.124  76.680 113.430  0.00  0.00    -0.241 OA
ENDBRANCH   3  22
TORSDOF 7
ENDMDL
MODEL 2
REMARK VINA RESULT:      -5.5      4.013      6.144
REMARK  7 active torsions:
REMARK  status: ('A' for Active; 'I' for Inactive)
REMARK    1  A    between atoms: C_2  and  C_3 
REMARK    2  A    between atoms: C_3  and  O_6 
REMARK    3  A    between atoms: C_3  and  C_4 
REMARK    4  A    between atoms: C_7  and  O_6 
REMARK    5  A    between atoms: C_9  and  C_10 
REMARK    6  A    between atoms: N_15  and  C_14 
REMARK    7  A    between atoms: N_20  and  C_19 
REMARK       I    between atoms: C_22  and  N_20 
ROOT
ATOM      1  C   LIG d   1      -8.513  75.161 117.520  0.00  0.00     0.161 C 
ATOM      2  C   LIG d   1      -8.428  73.801 117.179  0.00  0.00     0.016 C 
ATOM      3  C   LIG d   1      -7.204  73.132 116.949  0.00  0.00     0.038 C 
ATOM      4  C   LIG d   1      -5.966  73.745 117.196  0.00  0.00     0.028 C 
ATOM      5  C   LIG d   1      -6.003  75.262 117.053  0.00  0.00    -0.047 C 
ATOM      6  C   LIG d   1      -7.170  75.818 117.901  0.00  0.00     0.091 C 
ENDROOT
BRANCH   1   7
ATOM      7  O   LIG d   1      -9.476  75.340 118.577  0.00  0.00    -0.368 OA
BRANCH   7   8
ATOM      8  C   LIG d   1     -10.644  76.133 118.248  0.00  0.00     0.119 C 
BRANCH   8   9
ATOM      9  C   LIG d   1     -11.011  76.956 119.497  0.00  0.00     0.028 C 
ATOM     10  C   LIG d   1     -10.824  78.467 119.281  0.00  0.00     0.006 C 
ENDBRANCH   8   9
BRANCH   8  11
ATOM     11  C   LIG d   1     -11.861  75.245 117.974  0.00  0.00     0.028 C 
ATOM     12  C   LIG d   1     -12.880  75.260 119.125  0.00  0.00     0.006 C 
ENDBRANCH   8  11
ENDBRANCH   7   8
ENDBRANCH   1   7
BRANCH   6  13
ATOM     13  N   LIG d   1      -7.329  77.288 117.752  0.00  0.00    -0.311 N 
ATOM     14  C   LIG d   1      -7.208  78.145 118.764  0.00  0.00     0.210 C 
ATOM     15  C   LIG d   1      -7.431  79.615 118.397  0.00  0.00     0.109 C 
ATOM     16  O   LIG d   1      -6.906  77.830 119.925  0.00  0.00    -0.276 OA
ATOM     17  H   LIG d   1      -7.545  77.633 116.837  0.00  0.00     0.149 HD
ENDBRANCH   6  13
BRANCH   5  18
ATOM     18  N   LIG d   1      -4.687  75.781 117.471  0.00  0.00     0.381 N 
ATOM     19  H   LIG d   1      -3.981  75.093 117.300  0.00  0.00    -0.090 HD
ATOM     20  H   LIG d   1      -4.710  75.970 118.457  0.00  0.00    -0.090 HD
ATOM     21  H   LIG d   1      -4.475  76.616 116.970  0.00  0.00    -0.090 HD
ENDBRANCH   5  18
BRANCH   3  22
ATOM     22  C   LIG d   1      -7.210  71.846 116.430  0.00  0.00     0.382 C 
ATOM     23  O   LIG d   1      -6.636  71.607 115.341  0.00  0.00    -0.241 OA
ATOM     24  O   LIG d   1      -7.821  70.932 117.016  0.00  0.00    -0.241 OA
ENDBRANCH   3  22
TORSDOF 7
ENDMDL
MODEL 3
REMARK VINA RESULT:      -5.4      3.897      6.397
REMARK  7 active torsions:
REMARK  status: ('A' for Active; 'I' for Inactive)
REMARK    1  A    between atoms: C_2  and  C_3 
REMARK    2  A    between atoms: C_3  and  O_6 
REMARK    3  A    between atoms: C_3  and  C_4 
REMARK    4  A    between atoms: C_7  and  O_6 
REMARK    5  A    between atoms: C_9  and  C_10 
REMARK    6  A    between atoms: N_15  and  C_14 
REMARK    7  A    between atoms: N_20  and  C_19 
REMARK       I    between atoms: C_22  and  N_20 
ROOT
ATOM      1  C   LIG d   1      -7.995  75.143 117.997  0.00  0.00     0.161 C 
ATOM      2  C   LIG d   1      -9.375  74.886 117.970  0.00  0.00     0.016 C 
ATOM      3  C   LIG d   1     -10.357  75.902 118.041  0.00  0.00     0.038 C 
ATOM      4  C   LIG d   1     -10.021  77.263 117.991  0.00  0.00     0.028 C 
ATOM      5  C   LIG d   1      -8.625  77.562 118.527  0.00  0.00    -0.047 C 
ATOM      6  C   LIG d   1      -7.609  76.628 117.830  0.00  0.00     0.091 C 
ENDROOT
BRANCH   1   7
ATOM      7  O   LIG d   1      -7.329  74.338 117.004  0.00  0.00    -0.368 OA
BRANCH   7   8
ATOM      8  C   LIG d   1      -6.304  73.439 117.495  0.00  0.00     0.119 C 
BRANCH   8   9
ATOM      9  C   LIG d   1      -4.963  73.885 116.879  0.00  0.00     0.028 C 
ATOM     10  C   LIG d   1      -5.139  74.528 115.493  0.00  0.00     0.006 C 
ENDBRANCH   8   9
BRANCH   8  11
ATOM     11  C   LIG d   1      -6.527  72.010 116.989  0.00  0.00     0.028 C 
ATOM     12  C   LIG d   1      -7.828  71.859 116.185  0.00  0.00     0.006 C 
ENDBRANCH   8  11
ENDBRANCH   7   8
ENDBRANCH   1   7
BRANCH   6  13
ATOM     13  N   LIG d   1      -6.230  76.796 118.358  0.00  0.00    -0.311 N 
ATOM     14  C   LIG d   1      -5.306  77.552 117.767  0.00  0.00     0.210 C 
ATOM     15  C   LIG d   1      -3.943  77.572 118.465  0.00  0.00     0.109 C 
ATOM     16  O   LIG d   1      -5.496  78.234 116.749  0.00  0.00    -0.276 OA
ATOM     17  H   LIG d   1      -5.999  76.303 119.198  0.00  0.00     0.149 HD
ENDBRANCH   6  13
BRANCH   5  18
ATOM     18  N   LIG d   1      -8.353  78.992 118.289  0.00  0.00     0.381 N 
ATOM     19  H   LIG d   1      -7.777  79.097 117.477  0.00  0.00    -0.090 HD
ATOM     20  H   LIG d   1      -7.855  79.364 119.078  0.00  0.00    -0.090 HD
ATOM     21  H   LIG d   1      -9.209  79.486 118.164  0.00  0.00    -0.090 HD
ENDBRANCH   5  18
BRANCH   3  22
ATOM     22  C   LIG d   1     -11.690  75.558 118.203  0.00  0.00     0.382 C 
ATOM     23  O   LIG d   1     -11.996  74.435 118.671  0.00  0.00    -0.241 OA
ATOM     24  O   LIG d   1     -12.592  76.340 117.845  0.00  0.00    -0.241 OA
ENDBRANCH   3  22
TORSDOF 7
ENDMDL
MODEL 4
REMARK VINA RESULT:      -5.3      3.670      6.846
REMARK  7 active torsions:
REMARK  status: ('A' for Active; 'I' for Inactive)
REMARK    1  A    between atoms: C_2  and  C_3 
REMARK    2  A    between atoms: C_3  and  O_6 
REMARK    3  A    between atoms: C_3  and  C_4 
REMARK    4  A    between atoms: C_7  and  O_6 
REMARK    5  A    between atoms: C_9  and  C_10 
REMARK    6  A    between atoms: N_15  and  C_14 
REMARK    7  A    between atoms: N_20  and  C_19 
REMARK       I    between atoms: C_22  and  N_20 
ROOT
ATOM      1  C   LIG d   1      -6.915  75.189 117.874  0.00  0.00     0.161 C 
ATOM      2  C   LIG d   1      -6.697  73.950 117.248  0.00  0.00     0.016 C 
ATOM      3  C   LIG d   1      -7.737  73.053 116.914  0.00  0.00     0.038 C 
ATOM      4  C   LIG d   1      -9.089  73.402 117.048  0.00  0.00     0.028 C 
ATOM      5  C   LIG d   1      -9.342  74.435 118.141  0.00  0.00    -0.047 C 
ATOM      6  C   LIG d   1      -8.391  75.635 117.928  0.00  0.00     0.091 C 
ENDROOT
BRANCH   1   7
ATOM      7  O   LIG d   1      -6.107  76.204 117.246  0.00  0.00    -0.368 OA
BRANCH   7   8
ATOM      8  C   LIG d   1      -4.927  75.737 116.547  0.00  0.00     0.119 C 
BRANCH   8   9
ATOM      9  C   LIG d   1      -3.697  76.255 117.318  0.00  0.00     0.028 C 
ATOM     10  C   LIG d   1      -2.744  75.121 117.732  0.00  0.00     0.006 C 
ENDBRANCH   8   9
BRANCH   8  11
ATOM     11  C   LIG d   1      -4.823  76.359 115.152  0.00  0.00     0.028 C 
ATOM     12  C   LIG d   1      -4.568  75.317 114.051  0.00  0.00     0.006 C 
ENDBRANCH   8  11
ENDBRANCH   7   8
ENDBRANCH   1   7
BRANCH   6  13
ATOM     13  N   LIG d   1      -8.515  76.654 119.002  0.00  0.00    -0.311 N 
ATOM     14  C   LIG d   1      -9.389  77.657 118.964  0.00  0.00     0.210 C 
ATOM     15  C   LIG d   1      -9.337  78.607 120.165  0.00  0.00     0.109 C 
ATOM     16  O   LIG d   1     -10.225  77.833 118.065  0.00  0.00    -0.276 OA
ATOM     17  H   LIG d   1      -7.895  76.569 119.785  0.00  0.00     0.149 HD
ENDBRANCH   6  13
BRANCH   5  18
ATOM     18  N   LIG d   1     -10.768  74.809 118.079  0.00  0.00     0.381 N 
ATOM     19  H   LIG d   1     -10.945  75.571 118.703  0.00  0.00    -0.090 HD
ATOM     20  H   LIG d   1     -11.322  74.024 118.374  0.00  0.00    -0.090 HD
ATOM     21  H   LIG d   1     -11.013  75.067 117.149  0.00  0.00    -0.090 HD
ENDBRANCH   5  18
BRANCH   3  22
ATOM     22  C   LIG d   1      -7.427  71.774 116.476  0.00  0.00     0.382 C 
ATOM     23  O   LIG d   1      -6.678  71.616 115.482  0.00  0.00    -0.241 OA
ATOM     24  O   LIG d   1      -7.922  70.778 117.035  0.00  0.00    -0.241 OA
ENDBRANCH   3  22
TORSDOF 7
ENDMDL
MODEL 5
REMARK VINA RESULT:      -5.3     12.988     16.560
REMARK  7 active torsions:
REMARK  status: ('A' for Active; 'I' for Inactive)
REMARK    1  A    between atoms: C_2  and  C_3 
REMARK    2  A    between atoms: C_3  and  O_6 
REMARK    3  A    between atoms: C_3  and  C_4 
REMARK    4  A    between atoms: C_7  and  O_6 
REMARK    5  A    between atoms: C_9  and  C_10 
REMARK    6  A    between atoms: N_15  and  C_14 
REMARK    7  A    between atoms: N_20  and  C_19 
REMARK       I    between atoms: C_22  and  N_20 
ROOT
ATOM      1  C   LIG d   1     -16.748  65.687 115.173  0.00  0.00     0.161 C 
ATOM      2  C   LIG d   1     -15.480  66.290 115.190  0.00  0.00     0.016 C 
ATOM      3  C   LIG d   1     -15.145  67.376 116.031  0.00  0.00     0.038 C 
ATOM      4  C   LIG d   1     -16.019  67.839 117.026  0.00  0.00     0.028 C 
ATOM      5  C   LIG d   1     -17.489  67.594 116.704  0.00  0.00    -0.047 C 
ATOM      6  C   LIG d   1     -17.679  66.106 116.330  0.00  0.00     0.091 C 
ENDROOT
BRANCH   1   7
ATOM      7  O   LIG d   1     -16.607  64.253 115.137  0.00  0.00    -0.368 OA
BRANCH   7   8
ATOM      8  C   LIG d   1     -16.943  63.611 113.882  0.00  0.00     0.119 C 
BRANCH   8   9
ATOM      9  C   LIG d   1     -17.515  64.693 112.947  0.00  0.00     0.028 C 
ATOM     10  C   LIG d   1     -18.961  64.394 112.519  0.00  0.00     0.006 C 
ENDBRANCH   8   9
BRANCH   8  11
ATOM     11  C   LIG d   1     -18.072  62.592 114.062  0.00  0.00     0.028 C 
ATOM     12  C   LIG d   1     -17.559  61.148 114.180  0.00  0.00     0.006 C 
ENDBRANCH   8  11
ENDBRANCH   7   8
ENDBRANCH   1   7
BRANCH   6  13
ATOM     13  N   LIG d   1     -19.074  65.798 115.920  0.00  0.00    -0.311 N 
ATOM     14  C   LIG d   1     -19.788  64.802 116.440  0.00  0.00     0.210 C 
ATOM     15  C   LIG d   1     -21.198  64.646 115.861  0.00  0.00     0.109 C 
ATOM     16  O   LIG d   1     -19.400  64.053 117.349  0.00  0.00    -0.276 OA
ATOM     17  H   LIG d   1     -19.478  66.377 115.209  0.00  0.00     0.149 HD
ENDBRANCH   6  13
BRANCH   5  18
ATOM     18  N   LIG d   1     -18.277  67.998 117.884  0.00  0.00     0.381 N 
ATOM     19  H   LIG d   1     -17.677  68.423 118.563  0.00  0.00    -0.090 HD
ATOM     20  H   LIG d   1     -18.689  67.180 118.296  0.00  0.00    -0.090 HD
ATOM     21  H   LIG d   1     -18.991  68.639 117.614  0.00  0.00    -0.090 HD
ENDBRANCH   5  18
BRANCH   3  22
ATOM     22  C   LIG d   1     -13.940  68.038 115.852  0.00  0.00     0.382 C 
ATOM     23  O   LIG d   1     -12.940  67.714 116.537  0.00  0.00    -0.241 OA
ATOM     24  O   LIG d   1     -13.852  68.984 115.047  0.00  0.00    -0.241 OA
ENDBRANCH   3  22
TORSDOF 7
ENDMDL
MODEL 6
REMARK VINA RESULT:      -5.2     13.174     16.034
REMARK  7 active torsions:
REMARK  status: ('A' for Active; 'I' for Inactive)
REMARK    1  A    between atoms: C_2  and  C_3 
REMARK    2  A    between atoms: C_3  and  O_6 
REMARK    3  A    between atoms: C_3  and  C_4 
REMARK    4  A    between atoms: C_7  and  O_6 
REMARK    5  A    between atoms: C_9  and  C_10 
REMARK    6  A    between atoms: N_15  and  C_14 
REMARK    7  A    between atoms: N_20  and  C_19 
REMARK       I    between atoms: C_22  and  N_20 
ROOT
ATOM      1  C   LIG d   1     -15.339  64.948 115.724  0.00  0.00     0.161 C 
ATOM      2  C   LIG d   1     -16.146  65.263 114.619  0.00  0.00     0.016 C 
ATOM      3  C   LIG d   1     -17.434  64.718 114.415  0.00  0.00     0.038 C 
ATOM      4  C   LIG d   1     -18.069  63.932 115.388  0.00  0.00     0.028 C 
ATOM      5  C   LIG d   1     -17.095  63.180 116.289  0.00  0.00    -0.047 C 
ATOM      6  C   LIG d   1     -16.058  64.179 116.852  0.00  0.00     0.091 C 
ENDROOT
BRANCH   1   7
ATOM      7  O   LIG d   1     -14.732  66.147 116.244  0.00  0.00    -0.368 OA
BRANCH   7   8
ATOM      8  C   LIG d   1     -15.624  67.077 116.906  0.00  0.00     0.119 C 
BRANCH   8   9
ATOM      9  C   LIG d   1     -15.394  68.466 116.279  0.00  0.00     0.028 C 
ATOM     10  C   LIG d   1     -14.111  68.523 115.433  0.00  0.00     0.006 C 
ENDBRANCH   8   9
BRANCH   8  11
ATOM     11  C   LIG d   1     -15.264  67.237 118.387  0.00  0.00     0.028 C 
ATOM     12  C   LIG d   1     -13.810  66.844 118.692  0.00  0.00     0.006 C 
ENDBRANCH   8  11
ENDBRANCH   7   8
ENDBRANCH   1   7
BRANCH   6  13
ATOM     13  N   LIG d   1     -15.017  63.511 117.676  0.00  0.00    -0.311 N 
ATOM     14  C   LIG d   1     -15.100  63.385 119.000  0.00  0.00     0.210 C 
ATOM     15  C   LIG d   1     -13.909  62.681 119.657  0.00  0.00     0.109 C 
ATOM     16  O   LIG d   1     -16.061  63.761 119.687  0.00  0.00    -0.276 OA
ATOM     17  H   LIG d   1     -14.217  63.149 117.195  0.00  0.00     0.149 HD
ENDBRANCH   6  13
BRANCH   5  18
ATOM     18  N   LIG d   1     -17.885  62.512 117.340  0.00  0.00     0.381 N 
ATOM     19  H   LIG d   1     -17.298  62.302 118.123  0.00  0.00    -0.090 HD
ATOM     20  H   LIG d   1     -18.246  61.648 116.976  0.00  0.00    -0.090 HD
ATOM     21  H   LIG d   1     -18.636  63.100 117.627  0.00  0.00    -0.090 HD
ENDBRANCH   5  18
BRANCH   3  22
ATOM     22  C   LIG d   1     -18.086  64.927 113.209  0.00  0.00     0.382 C 
ATOM     23  O   LIG d   1     -19.340  64.916 113.164  0.00  0.00    -0.241 OA
ATOM     24  O   LIG d   1     -17.436  65.082 112.158  0.00  0.00    -0.241 OA
ENDBRANCH   3  22
TORSDOF 7
ENDMDL
MODEL 7
REMARK VINA RESULT:      -5.2      3.984      6.704
REMARK  7 active torsions:
REMARK  status: ('A' for Active; 'I' for Inactive)
REMARK    1  A    between atoms: C_2  and  C_3 
REMARK    2  A    between atoms: C_3  and  O_6 
REMARK    3  A    between atoms: C_3  and  C_4 
REMARK    4  A    between atoms: C_7  and  O_6 
REMARK    5  A    between atoms: C_9  and  C_10 
REMARK    6  A    between atoms: N_15  and  C_14 
REMARK    7  A    between atoms: N_20  and  C_19 
REMARK       I    between atoms: C_22  and  N_20 
ROOT
ATOM      1  C   LIG d   1      -7.563  75.960 117.629  0.00  0.00     0.161 C 
ATOM      2  C   LIG d   1      -7.867  77.292 117.958  0.00  0.00     0.016 C 
ATOM      3  C   LIG d   1      -9.171  77.737 118.274  0.00  0.00     0.038 C 
ATOM      4  C   LIG d   1     -10.242  76.844 118.431  0.00  0.00     0.028 C 
ATOM      5  C   LIG d   1     -10.087  75.564 117.617  0.00  0.00    -0.047 C 
ATOM      6  C   LIG d   1      -8.697  74.951 117.904  0.00  0.00     0.091 C 
ENDROOT
BRANCH   1   7
ATOM      7  O   LIG d   1      -6.356  75.554 118.304  0.00  0.00    -0.368 OA
BRANCH   7   8
ATOM      8  C   LIG d   1      -5.130  75.667 117.541  0.00  0.00     0.119 C 
BRANCH   8   9
ATOM      9  C   LIG d   1      -4.859  74.295 116.894  0.00  0.00     0.028 C 
ATOM     10  C   LIG d   1      -5.108  74.302 115.377  0.00  0.00     0.006 C 
ENDBRANCH   8   9
BRANCH   8  11
ATOM     11  C   LIG d   1      -3.928  75.929 118.453  0.00  0.00     0.028 C 
ATOM     12  C   LIG d   1      -2.847  74.842 118.342  0.00  0.00     0.006 C 
ENDBRANCH   8  11
ENDBRANCH   7   8
ENDBRANCH   1   7
BRANCH   6  13
ATOM     13  N   LIG d   1      -8.431  73.741 117.084  0.00  0.00    -0.311 N 
ATOM     14  C   LIG d   1      -7.994  72.591 117.594  0.00  0.00     0.210 C 
ATOM     15  C   LIG d   1      -7.764  71.475 116.570  0.00  0.00     0.109 C 
ATOM     16  O   LIG d   1      -7.805  72.379 118.801  0.00  0.00    -0.276 OA
ATOM     17  H   LIG d   1      -8.588  73.815 116.097  0.00  0.00     0.149 HD
ENDBRANCH   6  13
BRANCH   5  18
ATOM     18  N   LIG d   1     -11.200  74.667 117.981  0.00  0.00     0.381 N 
ATOM     19  H   LIG d   1     -11.905  74.697 117.271  0.00  0.00    -0.090 HD
ATOM     20  H   LIG d   1     -11.607  74.986 118.843  0.00  0.00    -0.090 HD
ATOM     21  H   LIG d   1     -10.866  73.734 118.087  0.00  0.00    -0.090 HD
ENDBRANCH   5  18
BRANCH   3  22
ATOM     22  C   LIG d   1      -9.423  79.095 118.397  0.00  0.00     0.382 C 
ATOM     23  O   LIG d   1      -8.469  79.909 118.433  0.00  0.00    -0.241 OA
ATOM     24  O   LIG d   1     -10.591  79.512 118.518  0.00  0.00    -0.241 OA
ENDBRANCH   3  22
TORSDOF 7
ENDMDL
MODEL 8
REMARK VINA RESULT:      -5.2      3.869      5.875
REMARK  7 active torsions:
REMARK  status: ('A' for Active; 'I' for Inactive)
REMARK    1  A    between atoms: C_2  and  C_3 
REMARK    2  A    between atoms: C_3  and  O_6 
REMARK    3  A    between atoms: C_3  and  C_4 
REMARK    4  A    between atoms: C_7  and  O_6 
REMARK    5  A    between atoms: C_9  and  C_10 
REMARK    6  A    between atoms: N_15  and  C_14 
REMARK    7  A    between atoms: N_20  and  C_19 
REMARK       I    between atoms: C_22  and  N_20 
ROOT
ATOM      1  C   LIG d   1      -8.052  75.175 117.860  0.00  0.00     0.161 C 
ATOM      2  C   LIG d   1      -8.014  73.824 117.475  0.00  0.00     0.016 C 
ATOM      3  C   LIG d   1      -6.904  73.230 116.831  0.00  0.00     0.038 C 
ATOM      4  C   LIG d   1      -5.691  73.913 116.663  0.00  0.00     0.028 C 
ATOM      5  C   LIG d   1      -5.854  75.427 116.581  0.00  0.00    -0.047 C 
ATOM      6  C   LIG d   1      -6.696  75.907 117.785  0.00  0.00     0.091 C 
ENDROOT
BRANCH   1   7
ATOM      7  O   LIG d   1      -8.611  75.290 119.184  0.00  0.00    -0.368 OA
BRANCH   7   8
ATOM      8  C   LIG d   1      -9.902  75.941 119.275  0.00  0.00     0.119 C 
BRANCH   8   9
ATOM      9  C   LIG d   1     -10.456  76.074 117.844  0.00  0.00     0.028 C 
ATOM     10  C   LIG d   1     -11.755  75.276 117.640  0.00  0.00     0.006 C 
ENDBRANCH   8   9
BRANCH   8  11
ATOM     11  C   LIG d   1      -9.768  77.376 119.793  0.00  0.00     0.028 C 
ATOM     12  C   LIG d   1     -10.231  78.425 118.770  0.00  0.00     0.006 C 
ENDBRANCH   8  11
ENDBRANCH   7   8
ENDBRANCH   1   7
BRANCH   6  13
ATOM     13  N   LIG d   1      -6.974  77.366 117.736  0.00  0.00    -0.311 N 
ATOM     14  C   LIG d   1      -6.251  78.273 118.391  0.00  0.00     0.210 C 
ATOM     15  C   LIG d   1      -6.721  79.721 118.220  0.00  0.00     0.109 C 
ATOM     16  O   LIG d   1      -5.246  78.019 119.072  0.00  0.00    -0.276 OA
ATOM     17  H   LIG d   1      -7.753  77.663 117.182  0.00  0.00     0.149 HD
ENDBRANCH   6  13
BRANCH   5  18
ATOM     18  N   LIG d   1      -4.504  76.020 116.545  0.00  0.00     0.381 N 
ATOM     19  H   LIG d   1      -3.846  75.389 116.959  0.00  0.00    -0.090 HD
ATOM     20  H   LIG d   1      -4.508  76.869 117.082  0.00  0.00    -0.090 HD
ATOM     21  H   LIG d   1      -4.242  76.214 115.604  0.00  0.00    -0.090 HD
ENDBRANCH   5  18
BRANCH   3  22
ATOM     22  C   LIG d   1      -7.017  71.949 116.312  0.00  0.00     0.382 C 
ATOM     23  O   LIG d   1      -7.544  71.039 116.996  0.00  0.00    -0.241 OA
ATOM     24  O   LIG d   1      -6.558  71.682 115.185  0.00  0.00    -0.241 OA
ENDBRANCH   3  22
TORSDOF 7
ENDMDL
MODEL 9
REMARK VINA RESULT:      -5.2     14.927     16.740
REMARK  7 active torsions:
REMARK  status: ('A' for Active; 'I' for Inactive)
REMARK    1  A    between atoms: C_2  and  C_3 
REMARK    2  A    between atoms: C_3  and  O_6 
REMARK    3  A    between atoms: C_3  and  C_4 
REMARK    4  A    between atoms: C_7  and  O_6 
REMARK    5  A    between atoms: C_9  and  C_10 
REMARK    6  A    between atoms: N_15  and  C_14 
REMARK    7  A    between atoms: N_20  and  C_19 
REMARK       I    between atoms: C_22  and  N_20 
ROOT
ATOM      1  C   LIG d   1       4.600  89.459 116.280  0.00  0.00     0.161 C 
ATOM      2  C   LIG d   1       3.443  89.930 115.636  0.00  0.00     0.016 C 
ATOM      3  C   LIG d   1       3.325  90.043 114.232  0.00  0.00     0.038 C 
ATOM      4  C   LIG d   1       4.309  89.547 113.363  0.00  0.00     0.028 C 
ATOM      5  C   LIG d   1       5.705  89.527 113.977  0.00  0.00    -0.047 C 
ATOM      6  C   LIG d   1       5.641  88.809 115.344  0.00  0.00     0.091 C 
ENDROOT
BRANCH   1   7
ATOM      7  O   LIG d   1       4.235  88.546 117.334  0.00  0.00    -0.368 OA
BRANCH   7   8
ATOM      8  C   LIG d   1       2.819  88.270 117.476  0.00  0.00     0.119 C 
BRANCH   8   9
ATOM      9  C   LIG d   1       2.414  88.657 118.912  0.00  0.00     0.028 C 
ATOM     10  C   LIG d   1       1.521  89.908 118.952  0.00  0.00     0.006 C 
ENDBRANCH   8   9
BRANCH   8  11
ATOM     11  C   LIG d   1       2.531  86.770 117.363  0.00  0.00     0.028 C 
ATOM     12  C   LIG d   1       2.975  86.177 116.017  0.00  0.00     0.006 C 
ENDBRANCH   8  11
ENDBRANCH   7   8
ENDBRANCH   1   7
BRANCH   6  13
ATOM     13  N   LIG d   1       6.948  88.819 116.051  0.00  0.00    -0.311 N 
ATOM     14  C   LIG d   1       7.439  87.764 116.700  0.00  0.00     0.210 C 
ATOM     15  C   LIG d   1       8.794  87.994 117.377  0.00  0.00     0.109 C 
ATOM     16  O   LIG d   1       6.896  86.650 116.751  0.00  0.00    -0.276 OA
ATOM     17  H   LIG d   1       7.470  89.673 116.034  0.00  0.00     0.149 HD
ENDBRANCH   6  13
BRANCH   5  18
ATOM     18  N   LIG d   1       6.604  88.861 113.016  0.00  0.00     0.381 N 
ATOM     19  H   LIG d   1       6.341  89.103 112.082  0.00  0.00    -0.090 HD
ATOM     20  H   LIG d   1       6.513  87.866 113.121  0.00  0.00    -0.090 HD
ATOM     21  H   LIG d   1       7.547  89.135 113.185  0.00  0.00    -0.090 HD
ENDBRANCH   5  18
BRANCH   3  22
ATOM     22  C   LIG d   1       2.231  90.695 113.684  0.00  0.00     0.382 C 
ATOM     23  O   LIG d   1       1.141  90.720 114.305  0.00  0.00    -0.241 OA
ATOM     24  O   LIG d   1       2.307  91.220 112.557  0.00  0.00    -0.241 OA
ENDBRANCH   3  22
TORSDOF 7
ENDMDL
