MODEL 1
REMARK VINA RESULT:      -5.6      0.000      0.000
REMARK  7 active torsions:
REMARK  status: ('A' for Active; 'I' for Inactive)
REMARK    1  A    between atoms: C_2  and  C_3 
REMARK    2  A    between atoms: C_3  and  O_6 
REMARK    3  A    between atoms: C_3  and  C_4 
REMARK    4  A    between atoms: C_7  and  O_6 
REMARK    5  A    between atoms: C_9  and  C_10 
REMARK    6  A    between atoms: N_15  and  C_14 
REMARK    7  A    between atoms: N_20  and  C_19 
REMARK       I    between atoms: C_22  and  N_20 
ROOT
ATOM      1  C   LIG d   1      -6.819  76.771 117.152  0.00  0.00     0.161 C 
ATOM      2  C   LIG d   1      -8.080  77.114 117.667  0.00  0.00     0.016 C 
ATOM      3  C   LIG d   1      -8.425  78.424 118.072  0.00  0.00     0.038 C 
ATOM      4  C   LIG d   1      -7.577  79.518 117.845  0.00  0.00     0.028 C 
ATOM      5  C   LIG d   1      -6.101  79.139 117.791  0.00  0.00    -0.047 C 
ATOM      6  C   LIG d   1      -5.919  77.972 116.793  0.00  0.00     0.091 C 
ENDROOT
BRANCH   1   7
ATOM      7  O   LIG d   1      -6.977  75.906 116.010  0.00  0.00    -0.368 OA
BRANCH   7   8
ATOM      8  C   LIG d   1      -6.415  74.576 116.136  0.00  0.00     0.119 C 
BRANCH   8   9
ATOM      9  C   LIG d   1      -5.797  74.204 114.774  0.00  0.00     0.028 C 
ATOM     10  C   LIG d   1      -5.624  75.425 113.855  0.00  0.00     0.006 C 
ENDBRANCH   8   9
BRANCH   8  11
ATOM     11  C   LIG d   1      -7.507  73.531 116.384  0.00  0.00     0.028 C 
ATOM     12  C   LIG d   1      -7.104  72.125 115.913  0.00  0.00     0.006 C 
ENDBRANCH   8  11
ENDBRANCH   7   8
ENDBRANCH   1   7
BRANCH   6  13
ATOM     13  N   LIG d   1      -4.516  77.483 116.743  0.00  0.00    -0.311 N 
ATOM     14  C   LIG d   1      -3.615  77.929 115.868  0.00  0.00     0.210 C 
ATOM     15  C   LIG d   1      -2.233  77.277 115.975  0.00  0.00     0.109 C 
ATOM     16  O   LIG d   1      -3.821  78.825 115.036  0.00  0.00    -0.276 OA
ATOM     17  H   LIG d   1      -4.255  76.778 117.403  0.00  0.00     0.149 HD
ENDBRANCH   6  13
BRANCH   5  18
ATOM     18  N   LIG d   1      -5.343  80.347 117.413  0.00  0.00     0.381 N 
ATOM     19  H   LIG d   1      -5.833  81.163 117.720  0.00  0.00    -0.090 HD
ATOM     20  H   LIG d   1      -5.268  80.383 116.411  0.00  0.00    -0.090 HD
ATOM     21  H   LIG d   1      -4.435  80.322 117.821  0.00  0.00    -0.090 HD
ENDBRANCH   5  18
BRANCH   3  22
ATOM     22  C   LIG d   1      -9.616  78.644 118.747  0.00  0.00     0.382 C 
ATOM     23  O   LIG d   1      -9.672  79.509 119.655  0.00  0.00    -0.241 OA
ATOM     24  O   LIG d   1     -10.623  77.957 118.492  0.00  0.00    -0.241 OA
ENDBRANCH   3  22
TORSDOF 7
ENDMDL
MODEL 2
REMARK VINA RESULT:      -5.2      4.128      5.653
REMARK  7 active torsions:
REMARK  status: ('A' for Active; 'I' for Inactive)
REMARK    1  A    between atoms: C_2  and  C_3 
REMARK    2  A    between atoms: C_3  and  O_6 
REMARK    3  A    between atoms: C_3  and  C_4 
REMARK    4  A    between atoms: C_7  and  O_6 
REMARK    5  A    between atoms: C_9  and  C_10 
REMARK    6  A    between atoms: N_15  and  C_14 
REMARK    7  A    between atoms: N_20  and  C_19 
REMARK       I    between atoms: C_22  and  N_20 
ROOT
ATOM      1  C   LIG d   1      -3.542  75.447 115.615  0.00  0.00     0.161 C 
ATOM      2  C   LIG d   1      -4.336  74.384 116.078  0.00  0.00     0.016 C 
ATOM      3  C   LIG d   1      -5.558  74.006 115.477  0.00  0.00     0.038 C 
ATOM      4  C   LIG d   1      -5.998  74.574 114.272  0.00  0.00     0.028 C 
ATOM      5  C   LIG d   1      -5.485  75.992 114.047  0.00  0.00    -0.047 C 
ATOM      6  C   LIG d   1      -3.950  76.005 114.236  0.00  0.00     0.091 C 
ENDROOT
BRANCH   1   7
ATOM      7  O   LIG d   1      -2.156  75.053 115.606  0.00  0.00    -0.368 OA
BRANCH   7   8
ATOM      8  C   LIG d   1      -1.383  75.416 116.777  0.00  0.00     0.119 C 
BRANCH   8   9
ATOM      9  C   LIG d   1      -0.173  76.241 116.295  0.00  0.00     0.028 C 
ATOM     10  C   LIG d   1      -0.428  77.756 116.373  0.00  0.00     0.006 C 
ENDBRANCH   8   9
BRANCH   8  11
ATOM     11  C   LIG d   1      -0.786  74.179 117.455  0.00  0.00     0.028 C 
ATOM     12  C   LIG d   1       0.065  74.527 118.687  0.00  0.00     0.006 C 
ENDBRANCH   8  11
ENDBRANCH   7   8
ENDBRANCH   1   7
BRANCH   6  13
ATOM     13  N   LIG d   1      -3.377  77.371 114.116  0.00  0.00    -0.311 N 
ATOM     14  C   LIG d   1      -2.591  77.751 113.110  0.00  0.00     0.210 C 
ATOM     15  C   LIG d   1      -2.092  79.197 113.190  0.00  0.00     0.109 C 
ATOM     16  O   LIG d   1      -2.287  77.038 112.142  0.00  0.00    -0.276 OA
ATOM     17  H   LIG d   1      -3.598  78.024 114.842  0.00  0.00     0.149 HD
ENDBRANCH   6  13
BRANCH   5  18
ATOM     18  N   LIG d   1      -5.904  76.409 112.695  0.00  0.00     0.381 N 
ATOM     19  H   LIG d   1      -5.137  76.841 112.221  0.00  0.00    -0.090 HD
ATOM     20  H   LIG d   1      -6.644  77.083 112.778  0.00  0.00    -0.090 HD
ATOM     21  H   LIG d   1      -6.221  75.619 112.178  0.00  0.00    -0.090 HD
ENDBRANCH   5  18
BRANCH   3  22
ATOM     22  C   LIG d   1      -6.375  73.078 116.104  0.00  0.00     0.382 C 
ATOM     23  O   LIG d   1      -6.857  72.123 115.449  0.00  0.00    -0.241 OA
ATOM     24  O   LIG d   1      -6.671  73.207 117.307  0.00  0.00    -0.241 OA
ENDBRANCH   3  22
TORSDOF 7
ENDMDL
MODEL 3
REMARK VINA RESULT:      -5.0      2.197      5.394
REMARK  7 active torsions:
REMARK  status: ('A' for Active; 'I' for Inactive)
REMARK    1  A    between atoms: C_2  and  C_3 
REMARK    2  A    between atoms: C_3  and  O_6 
REMARK    3  A    between atoms: C_3  and  C_4 
REMARK    4  A    between atoms: C_7  and  O_6 
REMARK    5  A    between atoms: C_9  and  C_10 
REMARK    6  A    between atoms: N_15  and  C_14 
REMARK    7  A    between atoms: N_20  and  C_19 
REMARK       I    between atoms: C_22  and  N_20 
ROOT
ATOM      1  C   LIG d   1      -4.870  76.608 115.410  0.00  0.00     0.161 C 
ATOM      2  C   LIG d   1      -3.727  75.895 115.013  0.00  0.00     0.016 C 
ATOM      3  C   LIG d   1      -2.486  75.977 115.686  0.00  0.00     0.038 C 
ATOM      4  C   LIG d   1      -2.345  76.666 116.900  0.00  0.00     0.028 C 
ATOM      5  C   LIG d   1      -3.340  77.810 117.066  0.00  0.00    -0.047 C 
ATOM      6  C   LIG d   1      -4.766  77.278 116.796  0.00  0.00     0.091 C 
ENDROOT
BRANCH   1   7
ATOM      7  O   LIG d   1      -6.026  75.748 115.355  0.00  0.00    -0.368 OA
BRANCH   7   8
ATOM      8  C   LIG d   1      -6.008  74.599 116.237  0.00  0.00     0.119 C 
BRANCH   8   9
ATOM      9  C   LIG d   1      -6.274  73.350 115.376  0.00  0.00     0.028 C 
ATOM     10  C   LIG d   1      -6.874  72.192 116.190  0.00  0.00     0.006 C 
ENDBRANCH   8   9
BRANCH   8  11
ATOM     11  C   LIG d   1      -7.162  74.651 117.243  0.00  0.00     0.028 C 
ATOM     12  C   LIG d   1      -8.261  75.647 116.838  0.00  0.00     0.006 C 
ENDBRANCH   8  11
ENDBRANCH   7   8
ENDBRANCH   1   7
BRANCH   6  13
ATOM     13  N   LIG d   1      -5.792  78.352 116.855  0.00  0.00    -0.311 N 
ATOM     14  C   LIG d   1      -6.490  78.639 117.952  0.00  0.00     0.210 C 
ATOM     15  C   LIG d   1      -7.512  79.769 117.791  0.00  0.00     0.109 C 
ATOM     16  O   LIG d   1      -6.338  78.086 119.052  0.00  0.00    -0.276 OA
ATOM     17  H   LIG d   1      -5.957  78.871 116.015  0.00  0.00     0.149 HD
ENDBRANCH   6  13
BRANCH   5  18
ATOM     18  N   LIG d   1      -3.173  78.351 118.428  0.00  0.00     0.381 N 
ATOM     19  H   LIG d   1      -3.152  77.602 119.090  0.00  0.00    -0.090 HD
ATOM     20  H   LIG d   1      -3.958  78.940 118.642  0.00  0.00    -0.090 HD
ATOM     21  H   LIG d   1      -2.328  78.877 118.485  0.00  0.00    -0.090 HD
ENDBRANCH   5  18
BRANCH   3  22
ATOM     22  C   LIG d   1      -1.359  75.397 115.123  0.00  0.00     0.382 C 
ATOM     23  O   LIG d   1      -0.626  74.651 115.815  0.00  0.00    -0.241 OA
ATOM     24  O   LIG d   1      -1.043  75.646 113.944  0.00  0.00    -0.241 OA
ENDBRANCH   3  22
TORSDOF 7
ENDMDL
MODEL 4
REMARK VINA RESULT:      -4.9      2.138      5.281
REMARK  7 active torsions:
REMARK  status: ('A' for Active; 'I' for Inactive)
REMARK    1  A    between atoms: C_2  and  C_3 
REMARK    2  A    between atoms: C_3  and  O_6 
REMARK    3  A    between atoms: C_3  and  C_4 
REMARK    4  A    between atoms: C_7  and  O_6 
REMARK    5  A    between atoms: C_9  and  C_10 
REMARK    6  A    between atoms: N_15  and  C_14 
REMARK    7  A    between atoms: N_20  and  C_19 
REMARK       I    between atoms: C_22  and  N_20 
ROOT
ATOM      1  C   LIG d   1      -5.003  76.658 115.623  0.00  0.00     0.161 C 
ATOM      2  C   LIG d   1      -3.894  76.266 114.855  0.00  0.00     0.016 C 
ATOM      3  C   LIG d   1      -2.735  77.061 114.700  0.00  0.00     0.038 C 
ATOM      4  C   LIG d   1      -2.543  78.243 115.430  0.00  0.00     0.028 C 
ATOM      5  C   LIG d   1      -3.847  78.928 115.827  0.00  0.00    -0.047 C 
ATOM      6  C   LIG d   1      -4.766  77.894 116.516  0.00  0.00     0.091 C 
ENDROOT
BRANCH   1   7
ATOM      7  O   LIG d   1      -5.465  75.547 116.417  0.00  0.00    -0.368 OA
BRANCH   7   8
ATOM      8  C   LIG d   1      -6.524  74.747 115.838  0.00  0.00     0.119 C 
BRANCH   8   9
ATOM      9  C   LIG d   1      -7.655  74.651 116.881  0.00  0.00     0.028 C 
ATOM     10  C   LIG d   1      -8.545  75.905 116.898  0.00  0.00     0.006 C 
ENDBRANCH   8   9
BRANCH   8  11
ATOM     11  C   LIG d   1      -6.067  73.304 115.602  0.00  0.00     0.028 C 
ATOM     12  C   LIG d   1      -7.161  72.273 115.920  0.00  0.00     0.006 C 
ENDBRANCH   8  11
ENDBRANCH   7   8
ENDBRANCH   1   7
BRANCH   6  13
ATOM     13  N   LIG d   1      -6.096  78.460 116.862  0.00  0.00    -0.311 N 
ATOM     14  C   LIG d   1      -6.379  78.998 118.048  0.00  0.00     0.210 C 
ATOM     15  C   LIG d   1      -7.816  79.505 118.202  0.00  0.00     0.109 C 
ATOM     16  O   LIG d   1      -5.566  79.132 118.975  0.00  0.00    -0.276 OA
ATOM     17  H   LIG d   1      -6.806  78.421 116.157  0.00  0.00     0.149 HD
ENDBRANCH   6  13
BRANCH   5  18
ATOM     18  N   LIG d   1      -3.504  80.068 116.698  0.00  0.00     0.381 N 
ATOM     19  H   LIG d   1      -2.589  79.938 117.082  0.00  0.00    -0.090 HD
ATOM     20  H   LIG d   1      -4.161  80.107 117.457  0.00  0.00    -0.090 HD
ATOM     21  H   LIG d   1      -3.536  80.917 116.177  0.00  0.00    -0.090 HD
ENDBRANCH   5  18
BRANCH   3  22
ATOM     22  C   LIG d   1      -1.769  76.694 113.775  0.00  0.00     0.382 C 
ATOM     23  O   LIG d   1      -0.838  75.925 114.113  0.00  0.00    -0.241 OA
ATOM     24  O   LIG d   1      -1.793  77.157 112.619  0.00  0.00    -0.241 OA
ENDBRANCH   3  22
TORSDOF 7
ENDMDL
MODEL 5
REMARK VINA RESULT:      -4.9      1.967      2.649
REMARK  7 active torsions:
REMARK  status: ('A' for Active; 'I' for Inactive)
REMARK    1  A    between atoms: C_2  and  C_3 
REMARK    2  A    between atoms: C_3  and  O_6 
REMARK    3  A    between atoms: C_3  and  C_4 
REMARK    4  A    between atoms: C_7  and  O_6 
REMARK    5  A    between atoms: C_9  and  C_10 
REMARK    6  A    between atoms: N_15  and  C_14 
REMARK    7  A    between atoms: N_20  and  C_19 
REMARK       I    between atoms: C_22  and  N_20 
ROOT
ATOM      1  C   LIG d   1      -6.612  78.808 117.840  0.00  0.00     0.161 C 
ATOM      2  C   LIG d   1      -7.947  78.511 118.158  0.00  0.00     0.016 C 
ATOM      3  C   LIG d   1      -8.903  79.495 118.499  0.00  0.00     0.038 C 
ATOM      4  C   LIG d   1      -8.625  80.866 118.397  0.00  0.00     0.028 C 
ATOM      5  C   LIG d   1      -7.146  81.198 118.569  0.00  0.00    -0.047 C 
ATOM      6  C   LIG d   1      -6.318  80.306 117.616  0.00  0.00     0.091 C 
ENDROOT
BRANCH   1   7
ATOM      7  O   LIG d   1      -6.200  78.039 116.692  0.00  0.00    -0.368 OA
BRANCH   7   8
ATOM      8  C   LIG d   1      -5.939  76.634 116.926  0.00  0.00     0.119 C 
BRANCH   8   9
ATOM      9  C   LIG d   1      -4.507  76.341 116.437  0.00  0.00     0.028 C 
ATOM     10  C   LIG d   1      -4.374  74.940 115.818  0.00  0.00     0.006 C 
ENDBRANCH   8   9
BRANCH   8  11
ATOM     11  C   LIG d   1      -6.849  75.748 116.070  0.00  0.00     0.028 C 
ATOM     12  C   LIG d   1      -7.924  75.024 116.896  0.00  0.00     0.006 C 
ENDBRANCH   8  11
ENDBRANCH   7   8
ENDBRANCH   1   7
BRANCH   6  13
ATOM     13  N   LIG d   1      -4.855  80.507 117.780  0.00  0.00    -0.311 N 
ATOM     14  C   LIG d   1      -4.153  81.395 117.077  0.00  0.00     0.210 C 
ATOM     15  C   LIG d   1      -2.654  81.426 117.388  0.00  0.00     0.109 C 
ATOM     16  O   LIG d   1      -4.636  82.181 116.248  0.00  0.00    -0.276 OA
ATOM     17  H   LIG d   1      -4.388  79.932 118.453  0.00  0.00     0.149 HD
ENDBRANCH   6  13
BRANCH   5  18
ATOM     18  N   LIG d   1      -6.979  82.639 118.303  0.00  0.00     0.381 N 
ATOM     19  H   LIG d   1      -7.827  83.014 117.926  0.00  0.00    -0.090 HD
ATOM     20  H   LIG d   1      -6.250  82.762 117.622  0.00  0.00    -0.090 HD
ATOM     21  H   LIG d   1      -6.742  83.116 119.145  0.00  0.00    -0.090 HD
ENDBRANCH   5  18
BRANCH   3  22
ATOM     22  C   LIG d   1     -10.143  79.109 118.986  0.00  0.00     0.382 C 
ATOM     23  O   LIG d   1     -10.670  78.043 118.585  0.00  0.00    -0.241 OA
ATOM     24  O   LIG d   1     -10.761  79.835 119.788  0.00  0.00    -0.241 OA
ENDBRANCH   3  22
TORSDOF 7
ENDMDL
MODEL 6
REMARK VINA RESULT:      -4.9      4.738      6.068
REMARK  7 active torsions:
REMARK  status: ('A' for Active; 'I' for Inactive)
REMARK    1  A    between atoms: C_2  and  C_3 
REMARK    2  A    between atoms: C_3  and  O_6 
REMARK    3  A    between atoms: C_3  and  C_4 
REMARK    4  A    between atoms: C_7  and  O_6 
REMARK    5  A    between atoms: C_9  and  C_10 
REMARK    6  A    between atoms: N_15  and  C_14 
REMARK    7  A    between atoms: N_20  and  C_19 
REMARK       I    between atoms: C_22  and  N_20 
ROOT
ATOM      1  C   LIG d   1      -2.554  77.960 114.408  0.00  0.00     0.161 C 
ATOM      2  C   LIG d   1      -2.885  79.140 113.722  0.00  0.00     0.016 C 
ATOM      3  C   LIG d   1      -2.079  80.302 113.738  0.00  0.00     0.038 C 
ATOM      4  C   LIG d   1      -0.804  80.311 114.323  0.00  0.00     0.028 C 
ATOM      5  C   LIG d   1      -0.650  79.303 115.457  0.00  0.00    -0.047 C 
ATOM      6  C   LIG d   1      -1.113  77.915 114.960  0.00  0.00     0.091 C 
ENDROOT
BRANCH   1   7
ATOM      7  O   LIG d   1      -2.803  76.818 113.565  0.00  0.00    -0.368 OA
BRANCH   7   8
ATOM      8  C   LIG d   1      -3.872  75.935 113.987  0.00  0.00     0.119 C 
BRANCH   8   9
ATOM      9  C   LIG d   1      -5.067  76.172 113.044  0.00  0.00     0.028 C 
ATOM     10  C   LIG d   1      -6.412  76.172 113.790  0.00  0.00     0.006 C 
ENDBRANCH   8   9
BRANCH   8  11
ATOM     11  C   LIG d   1      -4.379  76.302 115.384  0.00  0.00     0.028 C 
ATOM     12  C   LIG d   1      -4.278  75.136 116.380  0.00  0.00     0.006 C 
ENDBRANCH   8  11
ENDBRANCH   7   8
ENDBRANCH   1   7
BRANCH   6  13
ATOM     13  N   LIG d   1      -1.074  76.887 116.032  0.00  0.00    -0.311 N 
ATOM     14  C   LIG d   1      -0.555  75.672 115.865  0.00  0.00     0.210 C 
ATOM     15  C   LIG d   1      -0.634  74.760 117.093  0.00  0.00     0.109 C 
ATOM     16  O   LIG d   1      -0.007  75.274 114.826  0.00  0.00    -0.276 OA
ATOM     17  H   LIG d   1      -1.469  77.136 116.918  0.00  0.00     0.149 HD
ENDBRANCH   6  13
BRANCH   5  18
ATOM     18  N   LIG d   1       0.763  79.323 115.882  0.00  0.00     0.381 N 
ATOM     19  H   LIG d   1       0.822  79.579 116.847  0.00  0.00    -0.090 HD
ATOM     20  H   LIG d   1       1.255  80.013 115.341  0.00  0.00    -0.090 HD
ATOM     21  H   LIG d   1       1.173  78.426 115.742  0.00  0.00    -0.090 HD
ENDBRANCH   5  18
BRANCH   3  22
ATOM     22  C   LIG d   1      -2.566  81.483 113.199  0.00  0.00     0.382 C 
ATOM     23  O   LIG d   1      -2.168  82.586 113.645  0.00  0.00    -0.241 OA
ATOM     24  O   LIG d   1      -3.430  81.459 112.302  0.00  0.00    -0.241 OA
ENDBRANCH   3  22
TORSDOF 7
ENDMDL
MODEL 7
REMARK VINA RESULT:      -4.8     13.593     17.238
REMARK  7 active torsions:
REMARK  status: ('A' for Active; 'I' for Inactive)
REMARK    1  A    between atoms: C_2  and  C_3 
REMARK    2  A    between atoms: C_3  and  O_6 
REMARK    3  A    between atoms: C_3  and  C_4 
REMARK    4  A    between atoms: C_7  and  O_6 
REMARK    5  A    between atoms: C_9  and  C_10 
REMARK    6  A    between atoms: N_15  and  C_14 
REMARK    7  A    between atoms: N_20  and  C_19 
REMARK       I    between atoms: C_22  and  N_20 
ROOT
ATOM      1  C   LIG d   1       9.648  78.018 115.066  0.00  0.00     0.161 C 
ATOM      2  C   LIG d   1       9.878  79.244 114.420  0.00  0.00     0.016 C 
ATOM      3  C   LIG d   1      11.109  79.585 113.814  0.00  0.00     0.038 C 
ATOM      4  C   LIG d   1      12.152  78.657 113.680  0.00  0.00     0.028 C 
ATOM      5  C   LIG d   1      12.147  77.580 114.760  0.00  0.00    -0.047 C 
ATOM      6  C   LIG d   1      10.738  76.950 114.834  0.00  0.00     0.091 C 
ENDROOT
BRANCH   1   7
ATOM      7  O   LIG d   1       8.355  77.503 114.693  0.00  0.00    -0.368 OA
BRANCH   7   8
ATOM      8  C   LIG d   1       7.405  77.321 115.772  0.00  0.00     0.119 C 
BRANCH   8   9
ATOM      9  C   LIG d   1       6.053  77.889 115.300  0.00  0.00     0.028 C 
ATOM     10  C   LIG d   1       5.137  78.276 116.473  0.00  0.00     0.006 C 
ENDBRANCH   8   9
BRANCH   8  11
ATOM     11  C   LIG d   1       7.789  78.154 116.998  0.00  0.00     0.028 C 
ATOM     12  C   LIG d   1       8.201  77.290 118.201  0.00  0.00     0.006 C 
ENDBRANCH   8  11
ENDBRANCH   7   8
ENDBRANCH   1   7
BRANCH   6  13
ATOM     13  N   LIG d   1      10.622  75.945 115.923  0.00  0.00    -0.311 N 
ATOM     14  C   LIG d   1      10.006  74.773 115.777  0.00  0.00     0.210 C 
ATOM     15  C   LIG d   1       9.984  73.894 117.031  0.00  0.00     0.109 C 
ATOM     16  O   LIG d   1       9.504  74.365 114.718  0.00  0.00    -0.276 OA
ATOM     17  H   LIG d   1      11.029  76.181 116.806  0.00  0.00     0.149 HD
ENDBRANCH   6  13
BRANCH   5  18
ATOM     18  N   LIG d   1      13.200  76.605 114.422  0.00  0.00     0.381 N 
ATOM     19  H   LIG d   1      13.601  76.833 113.534  0.00  0.00    -0.090 HD
ATOM     20  H   LIG d   1      12.787  75.691 114.355  0.00  0.00    -0.090 HD
ATOM     21  H   LIG d   1      13.907  76.608 115.124  0.00  0.00    -0.090 HD
ENDBRANCH   5  18
BRANCH   3  22
ATOM     22  C   LIG d   1      11.319  80.881 113.369  0.00  0.00     0.382 C 
ATOM     23  O   LIG d   1      10.374  81.531 112.860  0.00  0.00    -0.241 OA
ATOM     24  O   LIG d   1      12.453  81.394 113.429  0.00  0.00    -0.241 OA
ENDBRANCH   3  22
TORSDOF 7
ENDMDL
MODEL 8
REMARK VINA RESULT:      -4.8      2.051      5.104
REMARK  7 active torsions:
REMARK  status: ('A' for Active; 'I' for Inactive)
REMARK    1  A    between atoms: C_2  and  C_3 
REMARK    2  A    between atoms: C_3  and  O_6 
REMARK    3  A    between atoms: C_3  and  C_4 
REMARK    4  A    between atoms: C_7  and  O_6 
REMARK    5  A    between atoms: C_9  and  C_10 
REMARK    6  A    between atoms: N_15  and  C_14 
REMARK    7  A    between atoms: N_20  and  C_19 
REMARK       I    between atoms: C_22  and  N_20 
ROOT
ATOM      1  C   LIG d   1      -5.019  77.102 116.130  0.00  0.00     0.161 C 
ATOM      2  C   LIG d   1      -5.293  75.805 115.664  0.00  0.00     0.016 C 
ATOM      3  C   LIG d   1      -6.494  75.114 115.946  0.00  0.00     0.038 C 
ATOM      4  C   LIG d   1      -7.573  75.736 116.592  0.00  0.00     0.028 C 
ATOM      5  C   LIG d   1      -7.152  76.871 117.519  0.00  0.00    -0.047 C 
ATOM      6  C   LIG d   1      -6.230  77.838 116.742  0.00  0.00     0.091 C 
ENDROOT
BRANCH   1   7
ATOM      7  O   LIG d   1      -4.437  77.889 115.072  0.00  0.00    -0.368 OA
BRANCH   7   8
ATOM      8  C   LIG d   1      -3.001  78.071 115.129  0.00  0.00     0.119 C 
BRANCH   8   9
ATOM      9  C   LIG d   1      -2.704  79.530 114.731  0.00  0.00     0.028 C 
ATOM     10  C   LIG d   1      -3.091  80.530 115.834  0.00  0.00     0.006 C 
ENDBRANCH   8   9
BRANCH   8  11
ATOM     11  C   LIG d   1      -2.287  77.212 114.082  0.00  0.00     0.028 C 
ATOM     12  C   LIG d   1      -1.185  76.328 114.687  0.00  0.00     0.006 C 
ENDBRANCH   8  11
ENDBRANCH   7   8
ENDBRANCH   1   7
BRANCH   6  13
ATOM     13  N   LIG d   1      -5.704  78.932 117.599  0.00  0.00    -0.311 N 
ATOM     14  C   LIG d   1      -6.323  80.101 117.757  0.00  0.00     0.210 C 
ATOM     15  C   LIG d   1      -5.600  81.097 118.669  0.00  0.00     0.109 C 
ATOM     16  O   LIG d   1      -7.418  80.396 117.255  0.00  0.00    -0.276 OA
ATOM     17  H   LIG d   1      -4.836  78.766 118.069  0.00  0.00     0.149 HD
ENDBRANCH   6  13
BRANCH   5  18
ATOM     18  N   LIG d   1      -8.380  77.518 118.018  0.00  0.00     0.381 N 
ATOM     19  H   LIG d   1      -9.087  77.493 117.310  0.00  0.00    -0.090 HD
ATOM     20  H   LIG d   1      -8.178  78.480 118.229  0.00  0.00    -0.090 HD
ATOM     21  H   LIG d   1      -8.703  77.051 118.837  0.00  0.00    -0.090 HD
ENDBRANCH   5  18
BRANCH   3  22
ATOM     22  C   LIG d   1      -6.608  73.772 115.616  0.00  0.00     0.382 C 
ATOM     23  O   LIG d   1      -7.487  73.065 116.164  0.00  0.00    -0.241 OA
ATOM     24  O   LIG d   1      -5.815  73.250 114.810  0.00  0.00    -0.241 OA
ENDBRANCH   3  22
TORSDOF 7
ENDMDL
MODEL 9
REMARK VINA RESULT:      -4.7      2.263      4.221
REMARK  7 active torsions:
REMARK  status: ('A' for Active; 'I' for Inactive)
REMARK    1  A    between atoms: C_2  and  C_3 
REMARK    2  A    between atoms: C_3  and  O_6 
REMARK    3  A    between atoms: C_3  and  C_4 
REMARK    4  A    between atoms: C_7  and  O_6 
REMARK    5  A    between atoms: C_9  and  C_10 
REMARK    6  A    between atoms: N_15  and  C_14 
REMARK    7  A    between atoms: N_20  and  C_19 
REMARK       I    between atoms: C_22  and  N_20 
ROOT
ATOM      1  C   LIG d   1      -5.382  76.993 116.257  0.00  0.00     0.161 C 
ATOM      2  C   LIG d   1      -5.768  78.223 116.816  0.00  0.00     0.016 C 
ATOM      3  C   LIG d   1      -7.031  78.445 117.411  0.00  0.00     0.038 C 
ATOM      4  C   LIG d   1      -7.944  77.401 117.624  0.00  0.00     0.028 C 
ATOM      5  C   LIG d   1      -7.802  76.258 116.625  0.00  0.00    -0.047 C 
ATOM      6  C   LIG d   1      -6.322  75.813 116.580  0.00  0.00     0.091 C 
ENDROOT
BRANCH   1   7
ATOM      7  O   LIG d   1      -4.032  76.680 116.651  0.00  0.00    -0.368 OA
BRANCH   7   8
ATOM      8  C   LIG d   1      -2.988  77.094 115.734  0.00  0.00     0.119 C 
BRANCH   8   9
ATOM      9  C   LIG d   1      -3.377  76.587 114.332  0.00  0.00     0.028 C 
ATOM     10  C   LIG d   1      -2.908  77.535 113.215  0.00  0.00     0.006 C 
ENDBRANCH   8   9
BRANCH   8  11
ATOM     11  C   LIG d   1      -1.658  76.409 116.059  0.00  0.00     0.028 C 
ATOM     12  C   LIG d   1      -1.833  74.953 116.518  0.00  0.00     0.006 C 
ENDBRANCH   8  11
ENDBRANCH   7   8
ENDBRANCH   1   7
BRANCH   6  13
ATOM     13  N   LIG d   1      -6.080  74.755 115.565  0.00  0.00    -0.311 N 
ATOM     14  C   LIG d   1      -6.110  73.452 115.843  0.00  0.00     0.210 C 
ATOM     15  C   LIG d   1      -5.812  72.531 114.655  0.00  0.00     0.109 C 
ATOM     16  O   LIG d   1      -6.386  72.972 116.952  0.00  0.00    -0.276 OA
ATOM     17  H   LIG d   1      -5.879  75.055 114.631  0.00  0.00     0.149 HD
ENDBRANCH   6  13
BRANCH   5  18
ATOM     18  N   LIG d   1      -8.717  75.181 117.046  0.00  0.00     0.381 N 
ATOM     19  H   LIG d   1      -8.715  74.449 116.365  0.00  0.00    -0.090 HD
ATOM     20  H   LIG d   1      -9.649  75.552 117.108  0.00  0.00    -0.090 HD
ATOM     21  H   LIG d   1      -8.436  74.822 117.932  0.00  0.00    -0.090 HD
ENDBRANCH   5  18
BRANCH   3  22
ATOM     22  C   LIG d   1      -7.408  79.732 117.764  0.00  0.00     0.382 C 
ATOM     23  O   LIG d   1      -8.376  79.911 118.542  0.00  0.00    -0.241 OA
ATOM     24  O   LIG d   1      -6.820  80.718 117.280  0.00  0.00    -0.241 OA
ENDBRANCH   3  22
TORSDOF 7
ENDMDL
