MODEL 1
REMARK VINA RESULT:      -5.4      0.000      0.000
REMARK  7 active torsions:
REMARK  status: ('A' for Active; 'I' for Inactive)
REMARK    1  A    between atoms: C_2  and  C_3 
REMARK    2  A    between atoms: C_3  and  O_6 
REMARK    3  A    between atoms: C_3  and  C_4 
REMARK    4  A    between atoms: C_7  and  O_6 
REMARK    5  A    between atoms: C_9  and  C_10 
REMARK    6  A    between atoms: N_15  and  C_14 
REMARK    7  A    between atoms: N_20  and  C_19 
REMARK       I    between atoms: C_22  and  N_20 
ROOT
ATOM      1  C   LIG d   1      -3.780  75.728 116.072  0.00  0.00     0.161 C 
ATOM      2  C   LIG d   1      -4.052  76.604 115.007  0.00  0.00     0.016 C 
ATOM      3  C   LIG d   1      -3.046  77.184 114.201  0.00  0.00     0.038 C 
ATOM      4  C   LIG d   1      -1.699  76.807 114.310  0.00  0.00     0.028 C 
ATOM      5  C   LIG d   1      -1.320  76.309 115.700  0.00  0.00    -0.047 C 
ATOM      6  C   LIG d   1      -2.325  75.218 116.134  0.00  0.00     0.091 C 
ENDROOT
BRANCH   1   7
ATOM      7  O   LIG d   1      -4.699  74.618 116.037  0.00  0.00    -0.368 OA
BRANCH   7   8
ATOM      8  C   LIG d   1      -5.647  74.542 117.130  0.00  0.00     0.119 C 
BRANCH   8   9
ATOM      9  C   LIG d   1      -5.335  73.259 117.925  0.00  0.00     0.028 C 
ATOM     10  C   LIG d   1      -6.392  72.163 117.708  0.00  0.00     0.006 C 
ENDBRANCH   8   9
BRANCH   8  11
ATOM     11  C   LIG d   1      -7.078  74.362 116.615  0.00  0.00     0.028 C 
ATOM     12  C   LIG d   1      -7.788  75.699 116.348  0.00  0.00     0.006 C 
ENDBRANCH   8  11
ENDBRANCH   7   8
ENDBRANCH   1   7
BRANCH   6  13
ATOM     13  N   LIG d   1      -2.077  74.737 117.518  0.00  0.00    -0.311 N 
ATOM     14  C   LIG d   1      -1.404  73.622 117.797  0.00  0.00     0.210 C 
ATOM     15  C   LIG d   1      -1.279  73.297 119.288  0.00  0.00     0.109 C 
ATOM     16  O   LIG d   1      -0.870  72.888 116.951  0.00  0.00    -0.276 OA
ATOM     17  H   LIG d   1      -2.448  75.288 118.267  0.00  0.00     0.149 HD
ENDBRANCH   6  13
BRANCH   5  18
ATOM     18  N   LIG d   1       0.070  75.821 115.635  0.00  0.00     0.381 N 
ATOM     19  H   LIG d   1       0.145  74.945 116.112  0.00  0.00    -0.090 HD
ATOM     20  H   LIG d   1       0.669  76.483 116.097  0.00  0.00    -0.090 HD
ATOM     21  H   LIG d   1       0.350  75.715 114.685  0.00  0.00    -0.090 HD
ENDBRANCH   5  18
BRANCH   3  22
ATOM     22  C   LIG d   1      -3.379  78.184 113.300  0.00  0.00     0.382 C 
ATOM     23  O   LIG d   1      -3.927  77.889 112.210  0.00  0.00    -0.241 OA
ATOM     24  O   LIG d   1      -3.098  79.373 113.542  0.00  0.00    -0.241 OA
ENDBRANCH   3  22
TORSDOF 7
ENDMDL
MODEL 2
REMARK VINA RESULT:      -5.1      2.467      5.852
REMARK  7 active torsions:
REMARK  status: ('A' for Active; 'I' for Inactive)
REMARK    1  A    between atoms: C_2  and  C_3 
REMARK    2  A    between atoms: C_3  and  O_6 
REMARK    3  A    between atoms: C_3  and  C_4 
REMARK    4  A    between atoms: C_7  and  O_6 
REMARK    5  A    between atoms: C_9  and  C_10 
REMARK    6  A    between atoms: N_15  and  C_14 
REMARK    7  A    between atoms: N_20  and  C_19 
REMARK       I    between atoms: C_22  and  N_20 
ROOT
ATOM      1  C   LIG d   1      -4.487  74.661 117.917  0.00  0.00     0.161 C 
ATOM      2  C   LIG d   1      -4.952  73.339 117.816  0.00  0.00     0.016 C 
ATOM      3  C   LIG d   1      -5.889  72.915 116.845  0.00  0.00     0.038 C 
ATOM      4  C   LIG d   1      -6.313  73.757 115.807  0.00  0.00     0.028 C 
ATOM      5  C   LIG d   1      -6.258  75.238 116.167  0.00  0.00    -0.047 C 
ATOM      6  C   LIG d   1      -4.854  75.568 116.724  0.00  0.00     0.091 C 
ENDROOT
BRANCH   1   7
ATOM      7  O   LIG d   1      -3.062  74.663 118.128  0.00  0.00    -0.368 OA
BRANCH   7   8
ATOM      8  C   LIG d   1      -2.331  73.548 117.559  0.00  0.00     0.119 C 
BRANCH   8   9
ATOM      9  C   LIG d   1      -1.240  73.145 118.569  0.00  0.00     0.028 C 
ATOM     10  C   LIG d   1      -1.242  74.037 119.822  0.00  0.00     0.006 C 
ENDBRANCH   8   9
BRANCH   8  11
ATOM     11  C   LIG d   1      -1.577  73.965 116.293  0.00  0.00     0.028 C 
ATOM     12  C   LIG d   1      -1.156  75.443 116.309  0.00  0.00     0.006 C 
ENDBRANCH   8  11
ENDBRANCH   7   8
ENDBRANCH   1   7
BRANCH   6  13
ATOM     13  N   LIG d   1      -4.742  76.978 117.180  0.00  0.00    -0.311 N 
ATOM     14  C   LIG d   1      -4.333  77.972 116.393  0.00  0.00     0.210 C 
ATOM     15  C   LIG d   1      -4.270  79.346 117.068  0.00  0.00     0.109 C 
ATOM     16  O   LIG d   1      -4.046  77.852 115.193  0.00  0.00    -0.276 OA
ATOM     17  H   LIG d   1      -4.985  77.170 118.132  0.00  0.00     0.149 HD
ENDBRANCH   6  13
BRANCH   5  18
ATOM     18  N   LIG d   1      -6.594  76.005 114.953  0.00  0.00     0.381 N 
ATOM     19  H   LIG d   1      -7.162  75.448 114.347  0.00  0.00    -0.090 HD
ATOM     20  H   LIG d   1      -5.744  76.233 114.468  0.00  0.00    -0.090 HD
ATOM     21  H   LIG d   1      -7.078  76.840 115.200  0.00  0.00    -0.090 HD
ENDBRANCH   5  18
BRANCH   3  22
ATOM     22  C   LIG d   1      -6.441  71.646 116.932  0.00  0.00     0.382 C 
ATOM     23  O   LIG d   1      -6.596  71.105 118.053  0.00  0.00    -0.241 OA
ATOM     24  O   LIG d   1      -6.746  71.018 115.900  0.00  0.00    -0.241 OA
ENDBRANCH   3  22
TORSDOF 7
ENDMDL
MODEL 3
REMARK VINA RESULT:      -5.0     11.811     14.245
REMARK  7 active torsions:
REMARK  status: ('A' for Active; 'I' for Inactive)
REMARK    1  A    between atoms: C_2  and  C_3 
REMARK    2  A    between atoms: C_3  and  O_6 
REMARK    3  A    between atoms: C_3  and  C_4 
REMARK    4  A    between atoms: C_7  and  O_6 
REMARK    5  A    between atoms: C_9  and  C_10 
REMARK    6  A    between atoms: N_15  and  C_14 
REMARK    7  A    between atoms: N_20  and  C_19 
REMARK       I    between atoms: C_22  and  N_20 
ROOT
ATOM      1  C   LIG d   1       9.804  79.369 115.525  0.00  0.00     0.161 C 
ATOM      2  C   LIG d   1      10.932  79.563 114.710  0.00  0.00     0.016 C 
ATOM      3  C   LIG d   1      11.436  78.577 113.831  0.00  0.00     0.038 C 
ATOM      4  C   LIG d   1      10.752  77.375 113.595  0.00  0.00     0.028 C 
ATOM      5  C   LIG d   1       9.886  76.930 114.769  0.00  0.00    -0.047 C 
ATOM      6  C   LIG d   1       8.980  78.106 115.199  0.00  0.00     0.091 C 
ENDROOT
BRANCH   1   7
ATOM      7  O   LIG d   1       8.964  80.539 115.484  0.00  0.00    -0.368 OA
BRANCH   7   8
ATOM      8  C   LIG d   1       9.440  81.692 116.221  0.00  0.00     0.119 C 
BRANCH   8   9
ATOM      9  C   LIG d   1       9.540  81.285 117.704  0.00  0.00     0.028 C 
ATOM     10  C   LIG d   1       8.162  81.033 118.337  0.00  0.00     0.006 C 
ENDBRANCH   8   9
BRANCH   8  11
ATOM     11  C   LIG d   1       8.424  82.837 116.183  0.00  0.00     0.028 C 
ATOM     12  C   LIG d   1       9.044  84.197 116.539  0.00  0.00     0.006 C 
ENDBRANCH   8  11
ENDBRANCH   7   8
ENDBRANCH   1   7
BRANCH   6  13
ATOM     13  N   LIG d   1       8.161  77.781 116.396  0.00  0.00    -0.311 N 
ATOM     14  C   LIG d   1       6.935  77.265 116.327  0.00  0.00     0.210 C 
ATOM     15  C   LIG d   1       6.258  77.025 117.680  0.00  0.00     0.109 C 
ATOM     16  O   LIG d   1       6.358  76.952 115.275  0.00  0.00    -0.276 OA
ATOM     17  H   LIG d   1       8.565  77.974 117.291  0.00  0.00     0.149 HD
ENDBRANCH   6  13
BRANCH   5  18
ATOM     18  N   LIG d   1       9.126  75.742 114.336  0.00  0.00     0.381 N 
ATOM     19  H   LIG d   1       8.198  75.780 114.708  0.00  0.00    -0.090 HD
ATOM     20  H   LIG d   1       9.577  74.919 114.696  0.00  0.00    -0.090 HD
ATOM     21  H   LIG d   1       9.091  75.703 113.341  0.00  0.00    -0.090 HD
ENDBRANCH   5  18
BRANCH   3  22
ATOM     22  C   LIG d   1      12.659  78.773 113.208  0.00  0.00     0.382 C 
ATOM     23  O   LIG d   1      12.728  79.476 112.171  0.00  0.00    -0.241 OA
ATOM     24  O   LIG d   1      13.686  78.218 113.643  0.00  0.00    -0.241 OA
ENDBRANCH   3  22
TORSDOF 7
ENDMDL
MODEL 4
REMARK VINA RESULT:      -5.0      5.476      7.519
REMARK  7 active torsions:
REMARK  status: ('A' for Active; 'I' for Inactive)
REMARK    1  A    between atoms: C_2  and  C_3 
REMARK    2  A    between atoms: C_3  and  O_6 
REMARK    3  A    between atoms: C_3  and  C_4 
REMARK    4  A    between atoms: C_7  and  O_6 
REMARK    5  A    between atoms: C_9  and  C_10 
REMARK    6  A    between atoms: N_15  and  C_14 
REMARK    7  A    between atoms: N_20  and  C_19 
REMARK       I    between atoms: C_22  and  N_20 
ROOT
ATOM      1  C   LIG d   1      -6.653  79.350 117.954  0.00  0.00     0.161 C 
ATOM      2  C   LIG d   1      -7.950  78.907 118.263  0.00  0.00     0.016 C 
ATOM      3  C   LIG d   1      -8.985  79.768 118.692  0.00  0.00     0.038 C 
ATOM      4  C   LIG d   1      -8.835  81.163 118.697  0.00  0.00     0.028 C 
ATOM      5  C   LIG d   1      -7.390  81.616 118.877  0.00  0.00    -0.047 C 
ATOM      6  C   LIG d   1      -6.502  80.882 117.846  0.00  0.00     0.091 C 
ENDROOT
BRANCH   1   7
ATOM      7  O   LIG d   1      -6.195  78.716 116.744  0.00  0.00    -0.368 OA
BRANCH   7   8
ATOM      8  C   LIG d   1      -5.928  77.294 116.831  0.00  0.00     0.119 C 
BRANCH   8   9
ATOM      9  C   LIG d   1      -4.421  77.090 116.582  0.00  0.00     0.028 C 
ATOM     10  C   LIG d   1      -4.081  75.641 116.195  0.00  0.00     0.006 C 
ENDBRANCH   8   9
BRANCH   8  11
ATOM     11  C   LIG d   1      -6.633  76.525 115.710  0.00  0.00     0.028 C 
ATOM     12  C   LIG d   1      -7.890  75.786 116.194  0.00  0.00     0.006 C 
ENDBRANCH   8  11
ENDBRANCH   7   8
ENDBRANCH   1   7
BRANCH   6  13
ATOM     13  N   LIG d   1      -5.060  81.205 118.009  0.00  0.00    -0.311 N 
ATOM     14  C   LIG d   1      -4.440  82.159 117.318  0.00  0.00     0.210 C 
ATOM     15  C   LIG d   1      -2.947  82.314 117.625  0.00  0.00     0.109 C 
ATOM     16  O   LIG d   1      -4.992  82.915 116.503  0.00  0.00    -0.276 OA
ATOM     17  H   LIG d   1      -4.543  80.661 118.672  0.00  0.00     0.149 HD
ENDBRANCH   6  13
BRANCH   5  18
ATOM     18  N   LIG d   1      -7.361  83.083 118.725  0.00  0.00     0.381 N 
ATOM     19  H   LIG d   1      -8.278  83.420 118.511  0.00  0.00    -0.090 HD
ATOM     20  H   LIG d   1      -6.753  83.319 117.960  0.00  0.00    -0.090 HD
ATOM     21  H   LIG d   1      -7.031  83.507 119.564  0.00  0.00    -0.090 HD
ENDBRANCH   5  18
BRANCH   3  22
ATOM     22  C   LIG d   1     -10.175  79.232 119.161  0.00  0.00     0.382 C 
ATOM     23  O   LIG d   1     -10.606  78.153 118.689  0.00  0.00    -0.241 OA
ATOM     24  O   LIG d   1     -10.845  79.837 120.020  0.00  0.00    -0.241 OA
ENDBRANCH   3  22
TORSDOF 7
ENDMDL
MODEL 5
REMARK VINA RESULT:      -4.9      2.343      4.253
REMARK  7 active torsions:
REMARK  status: ('A' for Active; 'I' for Inactive)
REMARK    1  A    between atoms: C_2  and  C_3 
REMARK    2  A    between atoms: C_3  and  O_6 
REMARK    3  A    between atoms: C_3  and  C_4 
REMARK    4  A    between atoms: C_7  and  O_6 
REMARK    5  A    between atoms: C_9  and  C_10 
REMARK    6  A    between atoms: N_15  and  C_14 
REMARK    7  A    between atoms: N_20  and  C_19 
REMARK       I    between atoms: C_22  and  N_20 
ROOT
ATOM      1  C   LIG d   1      -4.047  74.077 115.981  0.00  0.00     0.161 C 
ATOM      2  C   LIG d   1      -3.390  75.219 115.493  0.00  0.00     0.016 C 
ATOM      3  C   LIG d   1      -4.064  76.403 115.114  0.00  0.00     0.038 C 
ATOM      4  C   LIG d   1      -5.437  76.579 115.341  0.00  0.00     0.028 C 
ATOM      5  C   LIG d   1      -6.220  75.271 115.363  0.00  0.00    -0.047 C 
ATOM      6  C   LIG d   1      -5.532  74.290 116.340  0.00  0.00     0.091 C 
ENDROOT
BRANCH   1   7
ATOM      7  O   LIG d   1      -3.329  73.547 117.112  0.00  0.00    -0.368 OA
BRANCH   7   8
ATOM      8  C   LIG d   1      -2.343  74.424 117.710  0.00  0.00     0.119 C 
BRANCH   8   9
ATOM      9  C   LIG d   1      -1.042  73.614 117.874  0.00  0.00     0.028 C 
ATOM     10  C   LIG d   1      -1.091  72.663 119.082  0.00  0.00     0.006 C 
ENDBRANCH   8   9
BRANCH   8  11
ATOM     11  C   LIG d   1      -2.748  74.833 119.129  0.00  0.00     0.028 C 
ATOM     12  C   LIG d   1      -3.667  76.064 119.155  0.00  0.00     0.006 C 
ENDBRANCH   8  11
ENDBRANCH   7   8
ENDBRANCH   1   7
BRANCH   6  13
ATOM     13  N   LIG d   1      -6.186  72.956 116.359  0.00  0.00    -0.311 N 
ATOM     14  C   LIG d   1      -6.342  72.231 117.465  0.00  0.00     0.210 C 
ATOM     15  C   LIG d   1      -7.025  70.875 117.259  0.00  0.00     0.109 C 
ATOM     16  O   LIG d   1      -6.009  72.596 118.602  0.00  0.00    -0.276 OA
ATOM     17  H   LIG d   1      -6.515  72.597 115.484  0.00  0.00     0.149 HD
ENDBRANCH   6  13
BRANCH   5  18
ATOM     18  N   LIG d   1      -7.609  75.589 115.745  0.00  0.00     0.381 N 
ATOM     19  H   LIG d   1      -8.036  74.789 116.169  0.00  0.00    -0.090 HD
ATOM     20  H   LIG d   1      -8.128  75.823 114.918  0.00  0.00    -0.090 HD
ATOM     21  H   LIG d   1      -7.620  76.356 116.381  0.00  0.00    -0.090 HD
ENDBRANCH   5  18
BRANCH   3  22
ATOM     22  C   LIG d   1      -3.369  77.411 114.463  0.00  0.00     0.382 C 
ATOM     23  O   LIG d   1      -2.507  77.121 113.598  0.00  0.00    -0.241 OA
ATOM     24  O   LIG d   1      -3.562  78.605 114.761  0.00  0.00    -0.241 OA
ENDBRANCH   3  22
TORSDOF 7
ENDMDL
MODEL 6
REMARK VINA RESULT:      -4.9     16.345     18.575
REMARK  7 active torsions:
REMARK  status: ('A' for Active; 'I' for Inactive)
REMARK    1  A    between atoms: C_2  and  C_3 
REMARK    2  A    between atoms: C_3  and  O_6 
REMARK    3  A    between atoms: C_3  and  C_4 
REMARK    4  A    between atoms: C_7  and  O_6 
REMARK    5  A    between atoms: C_9  and  C_10 
REMARK    6  A    between atoms: N_15  and  C_14 
REMARK    7  A    between atoms: N_20  and  C_19 
REMARK       I    between atoms: C_22  and  N_20 
ROOT
ATOM      1  C   LIG d   1      -4.828  93.105 118.242  0.00  0.00     0.161 C 
ATOM      2  C   LIG d   1      -6.183  93.281 117.915  0.00  0.00     0.016 C 
ATOM      3  C   LIG d   1      -6.895  94.477 118.162  0.00  0.00     0.038 C 
ATOM      4  C   LIG d   1      -6.255  95.640 118.618  0.00  0.00     0.028 C 
ATOM      5  C   LIG d   1      -4.999  95.358 119.436  0.00  0.00    -0.047 C 
ATOM      6  C   LIG d   1      -4.086  94.399 118.639  0.00  0.00     0.091 C 
ENDROOT
BRANCH   1   7
ATOM      7  O   LIG d   1      -4.144  92.448 117.157  0.00  0.00    -0.368 OA
BRANCH   7   8
ATOM      8  C   LIG d   1      -3.593  91.140 117.450  0.00  0.00     0.119 C 
BRANCH   8   9
ATOM      9  C   LIG d   1      -4.089  90.174 116.357  0.00  0.00     0.028 C 
ATOM     10  C   LIG d   1      -5.455  90.586 115.785  0.00  0.00     0.006 C 
ENDBRANCH   8   9
BRANCH   8  11
ATOM     11  C   LIG d   1      -4.147  90.584 118.765  0.00  0.00     0.028 C 
ATOM     12  C   LIG d   1      -3.046  90.068 119.705  0.00  0.00     0.006 C 
ENDBRANCH   8  11
ENDBRANCH   7   8
ENDBRANCH   1   7
BRANCH   6  13
ATOM     13  N   LIG d   1      -2.873  94.005 119.403  0.00  0.00    -0.311 N 
ATOM     14  C   LIG d   1      -1.654  93.955 118.868  0.00  0.00     0.210 C 
ATOM     15  C   LIG d   1      -0.546  93.505 119.826  0.00  0.00     0.109 C 
ATOM     16  O   LIG d   1      -1.381  94.270 117.700  0.00  0.00    -0.276 OA
ATOM     17  H   LIG d   1      -3.000  93.763 120.366  0.00  0.00     0.149 HD
ENDBRANCH   6  13
BRANCH   5  18
ATOM     18  N   LIG d   1      -4.359  96.654 119.730  0.00  0.00     0.381 N 
ATOM     19  H   LIG d   1      -3.527  96.753 119.184  0.00  0.00    -0.090 HD
ATOM     20  H   LIG d   1      -4.104  96.678 120.701  0.00  0.00    -0.090 HD
ATOM     21  H   LIG d   1      -4.988  97.399 119.526  0.00  0.00    -0.090 HD
ENDBRANCH   5  18
BRANCH   3  22
ATOM     22  C   LIG d   1      -8.270  94.507 117.989  0.00  0.00     0.382 C 
ATOM     23  O   LIG d   1      -9.024  94.629 118.984  0.00  0.00    -0.241 OA
ATOM     24  O   LIG d   1      -8.767  94.369 116.855  0.00  0.00    -0.241 OA
ENDBRANCH   3  22
TORSDOF 7
ENDMDL
MODEL 7
REMARK VINA RESULT:      -4.8      2.141      4.957
REMARK  7 active torsions:
REMARK  status: ('A' for Active; 'I' for Inactive)
REMARK    1  A    between atoms: C_2  and  C_3 
REMARK    2  A    between atoms: C_3  and  O_6 
REMARK    3  A    between atoms: C_3  and  C_4 
REMARK    4  A    between atoms: C_7  and  O_6 
REMARK    5  A    between atoms: C_9  and  C_10 
REMARK    6  A    between atoms: N_15  and  C_14 
REMARK    7  A    between atoms: N_20  and  C_19 
REMARK       I    between atoms: C_22  and  N_20 
ROOT
ATOM      1  C   LIG d   1      -3.670  76.552 114.885  0.00  0.00     0.161 C 
ATOM      2  C   LIG d   1      -3.599  75.376 115.650  0.00  0.00     0.016 C 
ATOM      3  C   LIG d   1      -2.516  75.068 116.505  0.00  0.00     0.038 C 
ATOM      4  C   LIG d   1      -1.493  75.991 116.768  0.00  0.00     0.028 C 
ATOM      5  C   LIG d   1      -1.265  76.983 115.632  0.00  0.00    -0.047 C 
ATOM      6  C   LIG d   1      -2.617  77.622 115.244  0.00  0.00     0.091 C 
ENDROOT
BRANCH   1   7
ATOM      7  O   LIG d   1      -4.997  77.109 114.965  0.00  0.00    -0.368 OA
BRANCH   7   8
ATOM      8  C   LIG d   1      -5.859  76.556 115.990  0.00  0.00     0.119 C 
BRANCH   8   9
ATOM      9  C   LIG d   1      -7.137  76.047 115.296  0.00  0.00     0.028 C 
ATOM     10  C   LIG d   1      -8.246  75.688 116.299  0.00  0.00     0.006 C 
ENDBRANCH   8   9
BRANCH   8  11
ATOM     11  C   LIG d   1      -6.331  77.640 116.964  0.00  0.00     0.028 C 
ATOM     12  C   LIG d   1      -5.303  77.940 118.066  0.00  0.00     0.006 C 
ENDBRANCH   8  11
ENDBRANCH   7   8
ENDBRANCH   1   7
BRANCH   6  13
ATOM     13  N   LIG d   1      -2.497  78.542 114.083  0.00  0.00    -0.311 N 
ATOM     14  C   LIG d   1      -2.945  79.796 114.093  0.00  0.00     0.210 C 
ATOM     15  C   LIG d   1      -2.738  80.567 112.785  0.00  0.00     0.109 C 
ATOM     16  O   LIG d   1      -3.466  80.354 115.070  0.00  0.00    -0.276 OA
ATOM     17  H   LIG d   1      -2.059  78.181 113.258  0.00  0.00     0.149 HD
ENDBRANCH   6  13
BRANCH   5  18
ATOM     18  N   LIG d   1      -0.270  77.969 116.095  0.00  0.00     0.381 N 
ATOM     19  H   LIG d   1       0.189  78.382 115.308  0.00  0.00    -0.090 HD
ATOM     20  H   LIG d   1       0.420  77.498 116.652  0.00  0.00    -0.090 HD
ATOM     21  H   LIG d   1      -0.718  78.676 116.636  0.00  0.00    -0.090 HD
ENDBRANCH   5  18
BRANCH   3  22
ATOM     22  C   LIG d   1      -2.428  73.807 117.075  0.00  0.00     0.382 C 
ATOM     23  O   LIG d   1      -1.346  73.173 117.030  0.00  0.00    -0.241 OA
ATOM     24  O   LIG d   1      -3.428  73.278 117.594  0.00  0.00    -0.241 OA
ENDBRANCH   3  22
TORSDOF 7
ENDMDL
MODEL 8
REMARK VINA RESULT:      -4.8      3.667      5.374
REMARK  7 active torsions:
REMARK  status: ('A' for Active; 'I' for Inactive)
REMARK    1  A    between atoms: C_2  and  C_3 
REMARK    2  A    between atoms: C_3  and  O_6 
REMARK    3  A    between atoms: C_3  and  C_4 
REMARK    4  A    between atoms: C_7  and  O_6 
REMARK    5  A    between atoms: C_9  and  C_10 
REMARK    6  A    between atoms: N_15  and  C_14 
REMARK    7  A    between atoms: N_20  and  C_19 
REMARK       I    between atoms: C_22  and  N_20 
ROOT
ATOM      1  C   LIG d   1      -2.707  79.894 115.014  0.00  0.00     0.161 C 
ATOM      2  C   LIG d   1      -2.235  81.058 114.385  0.00  0.00     0.016 C 
ATOM      3  C   LIG d   1      -1.602  81.059 113.121  0.00  0.00     0.038 C 
ATOM      4  C   LIG d   1      -1.533  79.905 112.326  0.00  0.00     0.028 C 
ATOM      5  C   LIG d   1      -1.544  78.611 113.134  0.00  0.00    -0.047 C 
ATOM      6  C   LIG d   1      -2.740  78.642 114.113  0.00  0.00     0.091 C 
ENDROOT
BRANCH   1   7
ATOM      7  O   LIG d   1      -4.009  80.138 115.581  0.00  0.00    -0.368 OA
BRANCH   7   8
ATOM      8  C   LIG d   1      -4.032  80.552 116.969  0.00  0.00     0.119 C 
BRANCH   8   9
ATOM      9  C   LIG d   1      -5.306  79.964 117.606  0.00  0.00     0.028 C 
ATOM     10  C   LIG d   1      -5.499  78.477 117.267  0.00  0.00     0.006 C 
ENDBRANCH   8   9
BRANCH   8  11
ATOM     11  C   LIG d   1      -4.180  82.072 117.095  0.00  0.00     0.028 C 
ATOM     12  C   LIG d   1      -3.923  82.579 118.522  0.00  0.00     0.006 C 
ENDBRANCH   8  11
ENDBRANCH   7   8
ENDBRANCH   1   7
BRANCH   6  13
ATOM     13  N   LIG d   1      -2.776  77.450 115.000  0.00  0.00    -0.311 N 
ATOM     14  C   LIG d   1      -3.654  76.458 114.861  0.00  0.00     0.210 C 
ATOM     15  C   LIG d   1      -3.531  75.335 115.895  0.00  0.00     0.109 C 
ATOM     16  O   LIG d   1      -4.503  76.386 113.959  0.00  0.00    -0.276 OA
ATOM     17  H   LIG d   1      -2.103  77.411 115.740  0.00  0.00     0.149 HD
ENDBRANCH   6  13
BRANCH   5  18
ATOM     18  N   LIG d   1      -1.608  77.490 112.178  0.00  0.00     0.381 N 
ATOM     19  H   LIG d   1      -0.850  77.555 111.528  0.00  0.00    -0.090 HD
ATOM     20  H   LIG d   1      -2.469  77.549 111.664  0.00  0.00    -0.090 HD
ATOM     21  H   LIG d   1      -1.562  76.622 112.666  0.00  0.00    -0.090 HD
ENDBRANCH   5  18
BRANCH   3  22
ATOM     22  C   LIG d   1      -0.993  82.215 112.657  0.00  0.00     0.382 C 
ATOM     23  O   LIG d   1      -1.672  83.082 112.056  0.00  0.00    -0.241 OA
ATOM     24  O   LIG d   1       0.233  82.382 112.794  0.00  0.00    -0.241 OA
ENDBRANCH   3  22
TORSDOF 7
ENDMDL
MODEL 9
REMARK VINA RESULT:      -4.8     14.750     15.890
REMARK  7 active torsions:
REMARK  status: ('A' for Active; 'I' for Inactive)
REMARK    1  A    between atoms: C_2  and  C_3 
REMARK    2  A    between atoms: C_3  and  O_6 
REMARK    3  A    between atoms: C_3  and  C_4 
REMARK    4  A    between atoms: C_7  and  O_6 
REMARK    5  A    between atoms: C_9  and  C_10 
REMARK    6  A    between atoms: N_15  and  C_14 
REMARK    7  A    between atoms: N_20  and  C_19 
REMARK       I    between atoms: C_22  and  N_20 
ROOT
ATOM      1  C   LIG d   1       3.302  89.665 116.079  0.00  0.00     0.161 C 
ATOM      2  C   LIG d   1       2.879  89.093 114.867  0.00  0.00     0.016 C 
ATOM      3  C   LIG d   1       3.621  88.113 114.169  0.00  0.00     0.038 C 
ATOM      4  C   LIG d   1       4.771  87.524 114.715  0.00  0.00     0.028 C 
ATOM      5  C   LIG d   1       5.506  88.429 115.698  0.00  0.00    -0.047 C 
ATOM      6  C   LIG d   1       4.498  88.954 116.746  0.00  0.00     0.091 C 
ENDROOT
BRANCH   1   7
ATOM      7  O   LIG d   1       2.192  89.744 116.995  0.00  0.00    -0.368 OA
BRANCH   7   8
ATOM      8  C   LIG d   1       1.688  91.074 117.271  0.00  0.00     0.119 C 
BRANCH   8   9
ATOM      9  C   LIG d   1       1.976  91.379 118.754  0.00  0.00     0.028 C 
ATOM     10  C   LIG d   1       1.722  90.165 119.663  0.00  0.00     0.006 C 
ENDBRANCH   8   9
BRANCH   8  11
ATOM     11  C   LIG d   1       0.164  91.132 117.134  0.00  0.00     0.028 C 
ATOM     12  C   LIG d   1      -0.430  92.458 117.636  0.00  0.00     0.006 C 
ENDBRANCH   8  11
ENDBRANCH   7   8
ENDBRANCH   1   7
BRANCH   6  13
ATOM     13  N   LIG d   1       5.118  89.914 117.697  0.00  0.00    -0.311 N 
ATOM     14  C   LIG d   1       5.279  89.661 118.994  0.00  0.00     0.210 C 
ATOM     15  C   LIG d   1       5.922  90.794 119.800  0.00  0.00     0.109 C 
ATOM     16  O   LIG d   1       4.980  88.592 119.548  0.00  0.00    -0.276 OA
ATOM     17  H   LIG d   1       5.418  90.794 117.325  0.00  0.00     0.149 HD
ENDBRANCH   6  13
BRANCH   5  18
ATOM     18  N   LIG d   1       6.602  87.642 116.294  0.00  0.00     0.381 N 
ATOM     19  H   LIG d   1       7.291  87.438 115.598  0.00  0.00    -0.090 HD
ATOM     20  H   LIG d   1       6.231  86.772 116.634  0.00  0.00    -0.090 HD
ATOM     21  H   LIG d   1       7.018  88.149 117.044  0.00  0.00    -0.090 HD
ENDBRANCH   5  18
BRANCH   3  22
ATOM     22  C   LIG d   1       3.235  87.741 112.890  0.00  0.00     0.382 C 
ATOM     23  O   LIG d   1       2.117  88.095 112.444  0.00  0.00    -0.241 OA
ATOM     24  O   LIG d   1       3.972  87.018 112.193  0.00  0.00    -0.241 OA
ENDBRANCH   3  22
TORSDOF 7
ENDMDL
