MODEL 1
REMARK VINA RESULT:      -5.8      0.000      0.000
REMARK  7 active torsions:
REMARK  status: ('A' for Active; 'I' for Inactive)
REMARK    1  A    between atoms: C_2  and  C_3 
REMARK    2  A    between atoms: C_3  and  O_6 
REMARK    3  A    between atoms: C_3  and  C_4 
REMARK    4  A    between atoms: C_7  and  O_6 
REMARK    5  A    between atoms: C_9  and  C_10 
REMARK    6  A    between atoms: N_15  and  C_14 
REMARK    7  A    between atoms: N_20  and  C_19 
REMARK       I    between atoms: C_22  and  N_20 
ROOT
ATOM      1  C   LIG d   1      -7.386  75.978 117.427  0.00  0.00     0.161 C 
ATOM      2  C   LIG d   1      -8.703  76.233 117.845  0.00  0.00     0.016 C 
ATOM      3  C   LIG d   1      -9.137  77.489 118.328  0.00  0.00     0.038 C 
ATOM      4  C   LIG d   1      -8.315  78.625 118.282  0.00  0.00     0.028 C 
ATOM      5  C   LIG d   1      -6.827  78.299 118.339  0.00  0.00    -0.047 C 
ATOM      6  C   LIG d   1      -6.505  77.234 117.265  0.00  0.00     0.091 C 
ENDROOT
BRANCH   1   7
ATOM      7  O   LIG d   1      -7.401  75.216 116.203  0.00  0.00    -0.368 OA
BRANCH   7   8
ATOM      8  C   LIG d   1      -6.763  73.917 116.254  0.00  0.00     0.119 C 
BRANCH   8   9
ATOM      9  C   LIG d   1      -5.877  73.786 115.000  0.00  0.00     0.028 C 
ATOM     10  C   LIG d   1      -5.839  75.081 114.172  0.00  0.00     0.006 C 
ENDBRANCH   8   9
BRANCH   8  11
ATOM     11  C   LIG d   1      -7.790  72.786 116.145  0.00  0.00     0.028 C 
ATOM     12  C   LIG d   1      -7.186  71.402 116.429  0.00  0.00     0.006 C 
ENDBRANCH   8  11
ENDBRANCH   7   8
ENDBRANCH   1   7
BRANCH   6  13
ATOM     13  N   LIG d   1      -5.085  76.796 117.309  0.00  0.00    -0.311 N 
ATOM     14  C   LIG d   1      -4.128  77.337 116.558  0.00  0.00     0.210 C 
ATOM     15  C   LIG d   1      -2.736  76.724 116.744  0.00  0.00     0.109 C 
ATOM     16  O   LIG d   1      -4.292  78.288 115.779  0.00  0.00    -0.276 OA
ATOM     17  H   LIG d   1      -4.857  76.051 117.937  0.00  0.00     0.149 HD
ENDBRANCH   6  13
BRANCH   5  18
ATOM     18  N   LIG d   1      -6.086  79.559 118.145  0.00  0.00     0.381 N 
ATOM     19  H   LIG d   1      -5.905  79.699 117.171  0.00  0.00    -0.090 HD
ATOM     20  H   LIG d   1      -5.205  79.496 118.624  0.00  0.00    -0.090 HD
ATOM     21  H   LIG d   1      -6.614  80.324 118.504  0.00  0.00    -0.090 HD
ENDBRANCH   5  18
BRANCH   3  22
ATOM     22  C   LIG d   1     -10.394  77.608 118.900  0.00  0.00     0.382 C 
ATOM     23  O   LIG d   1     -10.634  78.547 119.698  0.00  0.00    -0.241 OA
ATOM     24  O   LIG d   1     -11.279  76.764 118.664  0.00  0.00    -0.241 OA
ENDBRANCH   3  22
TORSDOF 7
ENDMDL
MODEL 2
REMARK VINA RESULT:      -5.6      1.917      5.115
REMARK  7 active torsions:
REMARK  status: ('A' for Active; 'I' for Inactive)
REMARK    1  A    between atoms: C_2  and  C_3 
REMARK    2  A    between atoms: C_3  and  O_6 
REMARK    3  A    between atoms: C_3  and  C_4 
REMARK    4  A    between atoms: C_7  and  O_6 
REMARK    5  A    between atoms: C_9  and  C_10 
REMARK    6  A    between atoms: N_15  and  C_14 
REMARK    7  A    between atoms: N_20  and  C_19 
REMARK       I    between atoms: C_22  and  N_20 
ROOT
ATOM      1  C   LIG d   1      -6.561  76.149 115.789  0.00  0.00     0.161 C 
ATOM      2  C   LIG d   1      -5.350  75.770 115.186  0.00  0.00     0.016 C 
ATOM      3  C   LIG d   1      -4.084  75.985 115.779  0.00  0.00     0.038 C 
ATOM      4  C   LIG d   1      -3.952  76.460 117.092  0.00  0.00     0.028 C 
ATOM      5  C   LIG d   1      -5.124  77.325 117.545  0.00  0.00    -0.047 C 
ATOM      6  C   LIG d   1      -6.442  76.566 117.270  0.00  0.00     0.091 C 
ENDROOT
BRANCH   1   7
ATOM      7  O   LIG d   1      -7.530  75.092 115.642  0.00  0.00    -0.368 OA
BRANCH   7   8
ATOM      8  C   LIG d   1      -7.470  74.031 116.626  0.00  0.00     0.119 C 
BRANCH   8   9
ATOM      9  C   LIG d   1      -6.829  72.805 115.947  0.00  0.00     0.028 C 
ATOM     10  C   LIG d   1      -7.471  71.482 116.396  0.00  0.00     0.006 C 
ENDBRANCH   8   9
BRANCH   8  11
ATOM     11  C   LIG d   1      -8.872  73.576 117.042  0.00  0.00     0.028 C 
ATOM     12  C   LIG d   1      -9.897  74.722 117.035  0.00  0.00     0.006 C 
ENDBRANCH   8  11
ENDBRANCH   7   8
ENDBRANCH   1   7
BRANCH   6  13
ATOM     13  N   LIG d   1      -7.642  77.376 117.606  0.00  0.00    -0.311 N 
ATOM     14  C   LIG d   1      -8.228  77.357 118.802  0.00  0.00     0.210 C 
ATOM     15  C   LIG d   1      -9.465  78.252 118.930  0.00  0.00     0.109 C 
ATOM     16  O   LIG d   1      -7.822  76.709 119.778  0.00  0.00    -0.276 OA
ATOM     17  H   LIG d   1      -8.020  77.955 116.881  0.00  0.00     0.149 HD
ENDBRANCH   6  13
BRANCH   5  18
ATOM     18  N   LIG d   1      -4.922  77.636 118.972  0.00  0.00     0.381 N 
ATOM     19  H   LIG d   1      -5.533  77.074 119.531  0.00  0.00    -0.090 HD
ATOM     20  H   LIG d   1      -5.150  78.602 119.130  0.00  0.00    -0.090 HD
ATOM     21  H   LIG d   1      -3.975  77.465 119.229  0.00  0.00    -0.090 HD
ENDBRANCH   5  18
BRANCH   3  22
ATOM     22  C   LIG d   1      -2.932  75.762 115.040  0.00  0.00     0.382 C 
ATOM     23  O   LIG d   1      -2.872  76.136 113.844  0.00  0.00    -0.241 OA
ATOM     24  O   LIG d   1      -1.969  75.151 115.541  0.00  0.00    -0.241 OA
ENDBRANCH   3  22
TORSDOF 7
ENDMDL
MODEL 3
REMARK VINA RESULT:      -5.3      2.088      4.642
REMARK  7 active torsions:
REMARK  status: ('A' for Active; 'I' for Inactive)
REMARK    1  A    between atoms: C_2  and  C_3 
REMARK    2  A    between atoms: C_3  and  O_6 
REMARK    3  A    between atoms: C_3  and  C_4 
REMARK    4  A    between atoms: C_7  and  O_6 
REMARK    5  A    between atoms: C_9  and  C_10 
REMARK    6  A    between atoms: N_15  and  C_14 
REMARK    7  A    between atoms: N_20  and  C_19 
REMARK       I    between atoms: C_22  and  N_20 
ROOT
ATOM      1  C   LIG d   1      -6.909  75.991 116.948  0.00  0.00     0.161 C 
ATOM      2  C   LIG d   1      -6.328  75.673 115.709  0.00  0.00     0.016 C 
ATOM      3  C   LIG d   1      -5.073  76.169 115.288  0.00  0.00     0.038 C 
ATOM      4  C   LIG d   1      -4.239  76.902 116.147  0.00  0.00     0.028 C 
ATOM      5  C   LIG d   1      -5.001  77.668 117.222  0.00  0.00    -0.047 C 
ATOM      6  C   LIG d   1      -5.964  76.698 117.943  0.00  0.00     0.091 C 
ENDROOT
BRANCH   1   7
ATOM      7  O   LIG d   1      -7.467  74.803 117.545  0.00  0.00    -0.368 OA
BRANCH   7   8
ATOM      8  C   LIG d   1      -8.073  73.855 116.632  0.00  0.00     0.119 C 
BRANCH   8   9
ATOM      9  C   LIG d   1      -9.569  73.760 116.990  0.00  0.00     0.028 C 
ATOM     10  C   LIG d   1     -10.176  75.128 117.342  0.00  0.00     0.006 C 
ENDBRANCH   8   9
BRANCH   8  11
ATOM     11  C   LIG d   1      -7.515  72.445 116.841  0.00  0.00     0.028 C 
ATOM     12  C   LIG d   1      -6.629  71.975 115.676  0.00  0.00     0.006 C 
ENDBRANCH   8  11
ENDBRANCH   7   8
ENDBRANCH   1   7
BRANCH   6  13
ATOM     13  N   LIG d   1      -6.809  77.385 118.954  0.00  0.00    -0.311 N 
ATOM     14  C   LIG d   1      -7.507  78.490 118.698  0.00  0.00     0.210 C 
ATOM     15  C   LIG d   1      -8.296  79.047 119.887  0.00  0.00     0.109 C 
ATOM     16  O   LIG d   1      -7.573  79.044 117.590  0.00  0.00    -0.276 OA
ATOM     17  H   LIG d   1      -6.838  76.985 119.872  0.00  0.00     0.149 HD
ENDBRANCH   6  13
BRANCH   5  18
ATOM     18  N   LIG d   1      -4.006  78.273 118.128  0.00  0.00     0.381 N 
ATOM     19  H   LIG d   1      -3.502  77.554 118.607  0.00  0.00    -0.090 HD
ATOM     20  H   LIG d   1      -4.486  78.831 118.812  0.00  0.00    -0.090 HD
ATOM     21  H   LIG d   1      -3.374  78.842 117.608  0.00  0.00    -0.090 HD
ENDBRANCH   5  18
BRANCH   3  22
ATOM     22  C   LIG d   1      -4.657  75.968 113.981  0.00  0.00     0.382 C 
ATOM     23  O   LIG d   1      -3.433  75.938 113.709  0.00  0.00    -0.241 OA
ATOM     24  O   LIG d   1      -5.492  75.860 113.062  0.00  0.00    -0.241 OA
ENDBRANCH   3  22
TORSDOF 7
ENDMDL
MODEL 4
REMARK VINA RESULT:      -5.2      2.120      4.158
REMARK  7 active torsions:
REMARK  status: ('A' for Active; 'I' for Inactive)
REMARK    1  A    between atoms: C_2  and  C_3 
REMARK    2  A    between atoms: C_3  and  O_6 
REMARK    3  A    between atoms: C_3  and  C_4 
REMARK    4  A    between atoms: C_7  and  O_6 
REMARK    5  A    between atoms: C_9  and  C_10 
REMARK    6  A    between atoms: N_15  and  C_14 
REMARK    7  A    between atoms: N_20  and  C_19 
REMARK       I    between atoms: C_22  and  N_20 
ROOT
ATOM      1  C   LIG d   1      -6.566  76.264 116.932  0.00  0.00     0.161 C 
ATOM      2  C   LIG d   1      -7.198  77.369 117.526  0.00  0.00     0.016 C 
ATOM      3  C   LIG d   1      -8.546  77.358 117.951  0.00  0.00     0.038 C 
ATOM      4  C   LIG d   1      -9.316  76.185 117.947  0.00  0.00     0.028 C 
ATOM      5  C   LIG d   1      -8.878  75.177 116.890  0.00  0.00    -0.047 C 
ATOM      6  C   LIG d   1      -7.356  74.941 117.021  0.00  0.00     0.091 C 
ENDROOT
BRANCH   1   7
ATOM      7  O   LIG d   1      -5.247  76.098 117.488  0.00  0.00    -0.368 OA
BRANCH   7   8
ATOM      8  C   LIG d   1      -4.148  76.590 116.682  0.00  0.00     0.119 C 
BRANCH   8   9
ATOM      9  C   LIG d   1      -3.647  75.417 115.817  0.00  0.00     0.028 C 
ATOM     10  C   LIG d   1      -3.980  75.602 114.327  0.00  0.00     0.006 C 
ENDBRANCH   8   9
BRANCH   8  11
ATOM     11  C   LIG d   1      -2.954  76.991 117.552  0.00  0.00     0.028 C 
ATOM     12  C   LIG d   1      -1.965  75.837 117.776  0.00  0.00     0.006 C 
ENDBRANCH   8  11
ENDBRANCH   7   8
ENDBRANCH   1   7
BRANCH   6  13
ATOM     13  N   LIG d   1      -6.831  74.031 115.970  0.00  0.00    -0.311 N 
ATOM     14  C   LIG d   1      -6.742  72.711 116.122  0.00  0.00     0.210 C 
ATOM     15  C   LIG d   1      -6.153  71.961 114.922  0.00  0.00     0.109 C 
ATOM     16  O   LIG d   1      -7.124  72.086 117.122  0.00  0.00    -0.276 OA
ATOM     17  H   LIG d   1      -6.527  74.451 115.114  0.00  0.00     0.149 HD
ENDBRANCH   6  13
BRANCH   5  18
ATOM     18  N   LIG d   1      -9.672  73.950 117.089  0.00  0.00     0.381 N 
ATOM     19  H   LIG d   1      -9.576  73.351 116.293  0.00  0.00    -0.090 HD
ATOM     20  H   LIG d   1     -10.641  74.201 117.179  0.00  0.00    -0.090 HD
ATOM     21  H   LIG d   1      -9.367  73.475 117.910  0.00  0.00    -0.090 HD
ENDBRANCH   5  18
BRANCH   3  22
ATOM     22  C   LIG d   1      -9.151  78.541 118.348  0.00  0.00     0.382 C 
ATOM     23  O   LIG d   1      -8.456  79.571 118.528  0.00  0.00    -0.241 OA
ATOM     24  O   LIG d   1     -10.375  78.581 118.571  0.00  0.00    -0.241 OA
ENDBRANCH   3  22
TORSDOF 7
ENDMDL
MODEL 5
REMARK VINA RESULT:      -4.9      2.458      4.683
REMARK  7 active torsions:
REMARK  status: ('A' for Active; 'I' for Inactive)
REMARK    1  A    between atoms: C_2  and  C_3 
REMARK    2  A    between atoms: C_3  and  O_6 
REMARK    3  A    between atoms: C_3  and  C_4 
REMARK    4  A    between atoms: C_7  and  O_6 
REMARK    5  A    between atoms: C_9  and  C_10 
REMARK    6  A    between atoms: N_15  and  C_14 
REMARK    7  A    between atoms: N_20  and  C_19 
REMARK       I    between atoms: C_22  and  N_20 
ROOT
ATOM      1  C   LIG d   1      -6.175  76.087 116.392  0.00  0.00     0.161 C 
ATOM      2  C   LIG d   1      -7.471  75.863 116.885  0.00  0.00     0.016 C 
ATOM      3  C   LIG d   1      -8.108  74.601 116.852  0.00  0.00     0.038 C 
ATOM      4  C   LIG d   1      -7.430  73.438 116.460  0.00  0.00     0.028 C 
ATOM      5  C   LIG d   1      -6.289  73.702 115.483  0.00  0.00    -0.047 C 
ATOM      6  C   LIG d   1      -5.378  74.808 116.063  0.00  0.00     0.091 C 
ENDROOT
BRANCH   1   7
ATOM      7  O   LIG d   1      -5.438  76.913 117.316  0.00  0.00    -0.368 OA
BRANCH   7   8
ATOM      8  C   LIG d   1      -5.225  78.288 116.911  0.00  0.00     0.119 C 
BRANCH   8   9
ATOM      9  C   LIG d   1      -3.709  78.558 116.971  0.00  0.00     0.028 C 
ATOM     10  C   LIG d   1      -3.294  79.767 116.115  0.00  0.00     0.006 C 
ENDBRANCH   8   9
BRANCH   8  11
ATOM     11  C   LIG d   1      -5.851  79.266 117.910  0.00  0.00     0.028 C 
ATOM     12  C   LIG d   1      -6.020  78.659 119.312  0.00  0.00     0.006 C 
ENDBRANCH   8  11
ENDBRANCH   7   8
ENDBRANCH   1   7
BRANCH   6  13
ATOM     13  N   LIG d   1      -4.284  75.187 115.131  0.00  0.00    -0.311 N 
ATOM     14  C   LIG d   1      -3.000  75.226 115.485  0.00  0.00     0.210 C 
ATOM     15  C   LIG d   1      -2.037  75.662 114.377  0.00  0.00     0.109 C 
ATOM     16  O   LIG d   1      -2.565  74.911 116.603  0.00  0.00    -0.276 OA
ATOM     17  H   LIG d   1      -4.544  75.428 114.195  0.00  0.00     0.149 HD
ENDBRANCH   6  13
BRANCH   5  18
ATOM     18  N   LIG d   1      -5.583  72.425 115.267  0.00  0.00     0.381 N 
ATOM     19  H   LIG d   1      -5.721  71.824 116.055  0.00  0.00    -0.090 HD
ATOM     20  H   LIG d   1      -4.599  72.609 115.179  0.00  0.00    -0.090 HD
ATOM     21  H   LIG d   1      -5.921  71.984 114.440  0.00  0.00    -0.090 HD
ENDBRANCH   5  18
BRANCH   3  22
ATOM     22  C   LIG d   1      -9.453  74.502 117.178  0.00  0.00     0.382 C 
ATOM     23  O   LIG d   1     -10.059  73.416 117.013  0.00  0.00    -0.241 OA
ATOM     24  O   LIG d   1     -10.077  75.496 117.593  0.00  0.00    -0.241 OA
ENDBRANCH   3  22
TORSDOF 7
ENDMDL
MODEL 6
REMARK VINA RESULT:      -4.8      3.934      6.635
REMARK  7 active torsions:
REMARK  status: ('A' for Active; 'I' for Inactive)
REMARK    1  A    between atoms: C_2  and  C_3 
REMARK    2  A    between atoms: C_3  and  O_6 
REMARK    3  A    between atoms: C_3  and  C_4 
REMARK    4  A    between atoms: C_7  and  O_6 
REMARK    5  A    between atoms: C_9  and  C_10 
REMARK    6  A    between atoms: N_15  and  C_14 
REMARK    7  A    between atoms: N_20  and  C_19 
REMARK       I    between atoms: C_22  and  N_20 
ROOT
ATOM      1  C   LIG d   1      -2.798  76.811 114.355  0.00  0.00     0.161 C 
ATOM      2  C   LIG d   1      -2.098  75.654 114.734  0.00  0.00     0.016 C 
ATOM      3  C   LIG d   1      -1.114  75.637 115.749  0.00  0.00     0.038 C 
ATOM      4  C   LIG d   1      -0.870  76.754 116.563  0.00  0.00     0.028 C 
ATOM      5  C   LIG d   1      -1.193  78.080 115.884  0.00  0.00    -0.047 C 
ATOM      6  C   LIG d   1      -2.625  78.013 115.307  0.00  0.00     0.091 C 
ENDROOT
BRANCH   1   7
ATOM      7  O   LIG d   1      -4.196  76.503 114.187  0.00  0.00    -0.368 OA
BRANCH   7   8
ATOM      8  C   LIG d   1      -4.775  75.610 115.170  0.00  0.00     0.119 C 
BRANCH   8   9
ATOM      9  C   LIG d   1      -5.519  74.498 114.405  0.00  0.00     0.028 C 
ATOM     10  C   LIG d   1      -5.864  73.298 115.302  0.00  0.00     0.006 C 
ENDBRANCH   8   9
BRANCH   8  11
ATOM     11  C   LIG d   1      -5.848  76.318 116.002  0.00  0.00     0.028 C 
ATOM     12  C   LIG d   1      -5.359  76.696 117.409  0.00  0.00     0.006 C 
ENDBRANCH   8  11
ENDBRANCH   7   8
ENDBRANCH   1   7
BRANCH   6  13
ATOM     13  N   LIG d   1      -2.990  79.240 114.552  0.00  0.00    -0.311 N 
ATOM     14  C   LIG d   1      -2.439  79.576 113.387  0.00  0.00     0.210 C 
ATOM     15  C   LIG d   1      -2.945  80.892 112.788  0.00  0.00     0.109 C 
ATOM     16  O   LIG d   1      -1.604  78.892 112.777  0.00  0.00    -0.276 OA
ATOM     17  H   LIG d   1      -3.683  79.837 114.960  0.00  0.00     0.149 HD
ENDBRANCH   6  13
BRANCH   5  18
ATOM     18  N   LIG d   1      -1.024  79.148 116.889  0.00  0.00     0.381 N 
ATOM     19  H   LIG d   1      -1.752  79.088 117.572  0.00  0.00    -0.090 HD
ATOM     20  H   LIG d   1      -1.093  80.039 116.430  0.00  0.00    -0.090 HD
ATOM     21  H   LIG d   1      -0.136  79.062 117.331  0.00  0.00    -0.090 HD
ENDBRANCH   5  18
BRANCH   3  22
ATOM     22  C   LIG d   1      -0.334  74.506 115.932  0.00  0.00     0.382 C 
ATOM     23  O   LIG d   1      -0.318  73.928 117.046  0.00  0.00    -0.241 OA
ATOM     24  O   LIG d   1       0.388  74.081 115.010  0.00  0.00    -0.241 OA
ENDBRANCH   3  22
TORSDOF 7
ENDMDL
MODEL 7
REMARK VINA RESULT:      -4.6      2.274      5.280
REMARK  7 active torsions:
REMARK  status: ('A' for Active; 'I' for Inactive)
REMARK    1  A    between atoms: C_2  and  C_3 
REMARK    2  A    between atoms: C_3  and  O_6 
REMARK    3  A    between atoms: C_3  and  C_4 
REMARK    4  A    between atoms: C_7  and  O_6 
REMARK    5  A    between atoms: C_9  and  C_10 
REMARK    6  A    between atoms: N_15  and  C_14 
REMARK    7  A    between atoms: N_20  and  C_19 
REMARK       I    between atoms: C_22  and  N_20 
ROOT
ATOM      1  C   LIG d   1      -4.899  77.563 116.489  0.00  0.00     0.161 C 
ATOM      2  C   LIG d   1      -3.970  76.512 116.412  0.00  0.00     0.016 C 
ATOM      3  C   LIG d   1      -2.944  76.309 117.365  0.00  0.00     0.038 C 
ATOM      4  C   LIG d   1      -2.873  77.059 118.548  0.00  0.00     0.028 C 
ATOM      5  C   LIG d   1      -3.482  78.451 118.421  0.00  0.00    -0.047 C 
ATOM      6  C   LIG d   1      -4.905  78.324 117.832  0.00  0.00     0.091 C 
ENDROOT
BRANCH   1   7
ATOM      7  O   LIG d   1      -6.220  77.070 116.187  0.00  0.00    -0.368 OA
BRANCH   7   8
ATOM      8  C   LIG d   1      -6.581  75.803 116.791  0.00  0.00     0.119 C 
BRANCH   8   9
ATOM      9  C   LIG d   1      -7.084  74.880 115.665  0.00  0.00     0.028 C 
ATOM     10  C   LIG d   1      -6.140  73.691 115.416  0.00  0.00     0.006 C 
ENDBRANCH   8   9
BRANCH   8  11
ATOM     11  C   LIG d   1      -7.768  75.961 117.747  0.00  0.00     0.028 C 
ATOM     12  C   LIG d   1      -9.038  75.261 117.239  0.00  0.00     0.006 C 
ENDBRANCH   8  11
ENDBRANCH   7   8
ENDBRANCH   1   7
BRANCH   6  13
ATOM     13  N   LIG d   1      -5.541  79.646 117.596  0.00  0.00    -0.311 N 
ATOM     14  C   LIG d   1      -6.703  80.008 118.138  0.00  0.00     0.210 C 
ATOM     15  C   LIG d   1      -7.190  81.407 117.749  0.00  0.00     0.109 C 
ATOM     16  O   LIG d   1      -7.360  79.315 118.930  0.00  0.00    -0.276 OA
ATOM     17  H   LIG d   1      -5.060  80.282 116.991  0.00  0.00     0.149 HD
ENDBRANCH   6  13
BRANCH   5  18
ATOM     18  N   LIG d   1      -3.464  79.069 119.760  0.00  0.00     0.381 N 
ATOM     19  H   LIG d   1      -2.519  79.191 120.064  0.00  0.00    -0.090 HD
ATOM     20  H   LIG d   1      -3.927  78.456 120.408  0.00  0.00    -0.090 HD
ATOM     21  H   LIG d   1      -3.929  79.950 119.736  0.00  0.00    -0.090 HD
ENDBRANCH   5  18
BRANCH   3  22
ATOM     22  C   LIG d   1      -1.953  75.372 117.117  0.00  0.00     0.382 C 
ATOM     23  O   LIG d   1      -2.263  74.182 116.866  0.00  0.00    -0.241 OA
ATOM     24  O   LIG d   1      -0.751  75.691 117.186  0.00  0.00    -0.241 OA
ENDBRANCH   3  22
TORSDOF 7
ENDMDL
MODEL 8
REMARK VINA RESULT:      -4.5      5.070      7.217
REMARK  7 active torsions:
REMARK  status: ('A' for Active; 'I' for Inactive)
REMARK    1  A    between atoms: C_2  and  C_3 
REMARK    2  A    between atoms: C_3  and  O_6 
REMARK    3  A    between atoms: C_3  and  C_4 
REMARK    4  A    between atoms: C_7  and  O_6 
REMARK    5  A    between atoms: C_9  and  C_10 
REMARK    6  A    between atoms: N_15  and  C_14 
REMARK    7  A    between atoms: N_20  and  C_19 
REMARK       I    between atoms: C_22  and  N_20 
ROOT
ATOM      1  C   LIG d   1      -1.775  77.015 114.902  0.00  0.00     0.161 C 
ATOM      2  C   LIG d   1      -3.009  76.655 114.335  0.00  0.00     0.016 C 
ATOM      3  C   LIG d   1      -3.800  75.583 114.809  0.00  0.00     0.038 C 
ATOM      4  C   LIG d   1      -3.480  74.889 115.986  0.00  0.00     0.028 C 
ATOM      5  C   LIG d   1      -1.988  74.887 116.301  0.00  0.00    -0.047 C 
ATOM      6  C   LIG d   1      -1.463  76.340 116.254  0.00  0.00     0.091 C 
ENDROOT
BRANCH   1   7
ATOM      7  O   LIG d   1      -1.695  78.449 115.027  0.00  0.00    -0.368 OA
BRANCH   7   8
ATOM      8  C   LIG d   1      -1.274  79.169 113.843  0.00  0.00     0.119 C 
BRANCH   8   9
ATOM      9  C   LIG d   1      -0.211  80.196 114.278  0.00  0.00     0.028 C 
ATOM     10  C   LIG d   1       0.328  79.919 115.692  0.00  0.00     0.006 C 
ENDBRANCH   8   9
BRANCH   8  11
ATOM     11  C   LIG d   1      -2.422  79.997 113.257  0.00  0.00     0.028 C 
ATOM     12  C   LIG d   1      -2.691  81.286 114.049  0.00  0.00     0.006 C 
ENDBRANCH   8  11
ENDBRANCH   7   8
ENDBRANCH   1   7
BRANCH   6  13
ATOM     13  N   LIG d   1       0.005  76.420 116.468  0.00  0.00    -0.311 N 
ATOM     14  C   LIG d   1       0.561  76.648 117.657  0.00  0.00     0.210 C 
ATOM     15  C   LIG d   1       2.092  76.711 117.653  0.00  0.00     0.109 C 
ATOM     16  O   LIG d   1      -0.066  76.773 118.719  0.00  0.00    -0.276 OA
ATOM     17  H   LIG d   1       0.590  76.299 115.665  0.00  0.00     0.149 HD
ENDBRANCH   6  13
BRANCH   5  18
ATOM     18  N   LIG d   1      -1.812  74.250 117.619  0.00  0.00     0.381 N 
ATOM     19  H   LIG d   1      -2.325  74.758 118.312  0.00  0.00    -0.090 HD
ATOM     20  H   LIG d   1      -0.838  74.277 117.866  0.00  0.00    -0.090 HD
ATOM     21  H   LIG d   1      -2.128  73.306 117.587  0.00  0.00    -0.090 HD
ENDBRANCH   5  18
BRANCH   3  22
ATOM     22  C   LIG d   1      -4.905  75.170 114.081  0.00  0.00     0.382 C 
ATOM     23  O   LIG d   1      -5.370  75.904 113.175  0.00  0.00    -0.241 OA
ATOM     24  O   LIG d   1      -5.471  74.093 114.347  0.00  0.00    -0.241 OA
ENDBRANCH   3  22
TORSDOF 7
ENDMDL
MODEL 9
REMARK VINA RESULT:      -4.5     15.509     19.141
REMARK  7 active torsions:
REMARK  status: ('A' for Active; 'I' for Inactive)
REMARK    1  A    between atoms: C_2  and  C_3 
REMARK    2  A    between atoms: C_3  and  O_6 
REMARK    3  A    between atoms: C_3  and  C_4 
REMARK    4  A    between atoms: C_7  and  O_6 
REMARK    5  A    between atoms: C_9  and  C_10 
REMARK    6  A    between atoms: N_15  and  C_14 
REMARK    7  A    between atoms: N_20  and  C_19 
REMARK       I    between atoms: C_22  and  N_20 
ROOT
ATOM      1  C   LIG d   1      10.928  79.107 114.291  0.00  0.00     0.161 C 
ATOM      2  C   LIG d   1       9.619  79.167 114.798  0.00  0.00     0.016 C 
ATOM      3  C   LIG d   1       8.938  78.047 115.327  0.00  0.00     0.038 C 
ATOM      4  C   LIG d   1       9.579  76.815 115.526  0.00  0.00     0.028 C 
ATOM      5  C   LIG d   1      10.739  76.574 114.565  0.00  0.00    -0.047 C 
ATOM      6  C   LIG d   1      11.683  77.797 114.601  0.00  0.00     0.091 C 
ENDROOT
BRANCH   1   7
ATOM      7  O   LIG d   1      11.684  80.243 114.755  0.00  0.00    -0.368 OA
BRANCH   7   8
ATOM      8  C   LIG d   1      12.138  81.167 113.736  0.00  0.00     0.119 C 
BRANCH   8   9
ATOM      9  C   LIG d   1      11.347  80.860 112.449  0.00  0.00     0.028 C 
ATOM     10  C   LIG d   1      10.378  81.993 112.071  0.00  0.00     0.006 C 
ENDBRANCH   8   9
BRANCH   8  11
ATOM     11  C   LIG d   1      13.607  80.924 113.377  0.00  0.00     0.028 C 
ATOM     12  C   LIG d   1      14.571  81.810 114.182  0.00  0.00     0.006 C 
ENDBRANCH   8  11
ENDBRANCH   7   8
ENDBRANCH   1   7
BRANCH   6  13
ATOM     13  N   LIG d   1      12.799  77.680 113.627  0.00  0.00    -0.311 N 
ATOM     14  C   LIG d   1      13.997  77.189 113.941  0.00  0.00     0.210 C 
ATOM     15  C   LIG d   1      15.011  77.176 112.793  0.00  0.00     0.109 C 
ATOM     16  O   LIG d   1      14.306  76.733 115.052  0.00  0.00    -0.276 OA
ATOM     17  H   LIG d   1      12.626  77.998 112.694  0.00  0.00     0.149 HD
ENDBRANCH   6  13
BRANCH   5  18
ATOM     18  N   LIG d   1      11.401  75.320 114.972  0.00  0.00     0.381 N 
ATOM     19  H   LIG d   1      12.174  75.525 115.574  0.00  0.00    -0.090 HD
ATOM     20  H   LIG d   1      11.754  74.858 114.153  0.00  0.00    -0.090 HD
ATOM     21  H   LIG d   1      10.752  74.729 115.443  0.00  0.00    -0.090 HD
ENDBRANCH   5  18
BRANCH   3  22
ATOM     22  C   LIG d   1       7.588  78.143 115.628  0.00  0.00     0.382 C 
ATOM     23  O   LIG d   1       6.734  77.681 114.833  0.00  0.00    -0.241 OA
ATOM     24  O   LIG d   1       7.211  78.724 116.663  0.00  0.00    -0.241 OA
ENDBRANCH   3  22
TORSDOF 7
ENDMDL
