MODEL 1
REMARK VINA RESULT:      -6.3      0.000      0.000
REMARK  7 active torsions:
REMARK  status: ('A' for Active; 'I' for Inactive)
REMARK    1  A    between atoms: C_2  and  C_3 
REMARK    2  A    between atoms: C_3  and  O_6 
REMARK    3  A    between atoms: C_3  and  C_4 
REMARK    4  A    between atoms: C_7  and  O_6 
REMARK    5  A    between atoms: C_9  and  C_10 
REMARK    6  A    between atoms: N_15  and  C_14 
REMARK    7  A    between atoms: N_20  and  C_19 
REMARK       I    between atoms: C_22  and  N_20 
ROOT
ATOM      1  C   LIG d   1      -6.251  75.119 116.155  0.00  0.00     0.161 C 
ATOM      2  C   LIG d   1      -5.068  74.491 115.732  0.00  0.00     0.016 C 
ATOM      3  C   LIG d   1      -3.788  75.080 115.852  0.00  0.00     0.038 C 
ATOM      4  C   LIG d   1      -3.588  76.283 116.545  0.00  0.00     0.028 C 
ATOM      5  C   LIG d   1      -4.812  77.193 116.545  0.00  0.00    -0.047 C 
ATOM      6  C   LIG d   1      -6.041  76.382 117.015  0.00  0.00     0.091 C 
ENDROOT
BRANCH   1   7
ATOM      7  O   LIG d   1      -7.084  74.171 116.852  0.00  0.00    -0.368 OA
BRANCH   7   8
ATOM      8  C   LIG d   1      -8.153  73.572 116.079  0.00  0.00     0.119 C 
BRANCH   8   9
ATOM      9  C   LIG d   1      -9.443  73.675 116.915  0.00  0.00     0.028 C 
ATOM     10  C   LIG d   1     -10.213  74.980 116.650  0.00  0.00     0.006 C 
ENDBRANCH   8   9
BRANCH   8  11
ATOM     11  C   LIG d   1      -7.920  72.073 115.875  0.00  0.00     0.028 C 
ATOM     12  C   LIG d   1      -9.116  71.217 116.323  0.00  0.00     0.006 C 
ENDBRANCH   8  11
ENDBRANCH   7   8
ENDBRANCH   1   7
BRANCH   6  13
ATOM     13  N   LIG d   1      -7.297  77.176 116.963  0.00  0.00    -0.311 N 
ATOM     14  C   LIG d   1      -7.745  77.905 117.983  0.00  0.00     0.210 C 
ATOM     15  C   LIG d   1      -9.071  78.629 117.727  0.00  0.00     0.109 C 
ATOM     16  O   LIG d   1      -7.155  78.047 119.065  0.00  0.00    -0.276 OA
ATOM     17  H   LIG d   1      -7.823  77.142 116.112  0.00  0.00     0.149 HD
ENDBRANCH   6  13
BRANCH   5  18
ATOM     18  N   LIG d   1      -4.511  78.345 117.417  0.00  0.00     0.381 N 
ATOM     19  H   LIG d   1      -4.433  78.040 118.366  0.00  0.00    -0.090 HD
ATOM     20  H   LIG d   1      -5.267  79.004 117.358  0.00  0.00    -0.090 HD
ATOM     21  H   LIG d   1      -3.661  78.777 117.129  0.00  0.00    -0.090 HD
ENDBRANCH   5  18
BRANCH   3  22
ATOM     22  C   LIG d   1      -2.697  74.484 115.238  0.00  0.00     0.382 C 
ATOM     23  O   LIG d   1      -1.801  73.949 115.935  0.00  0.00    -0.241 OA
ATOM     24  O   LIG d   1      -2.575  74.514 113.999  0.00  0.00    -0.241 OA
ENDBRANCH   3  22
TORSDOF 7
ENDMDL
MODEL 2
REMARK VINA RESULT:      -6.2      1.635      5.109
REMARK  7 active torsions:
REMARK  status: ('A' for Active; 'I' for Inactive)
REMARK    1  A    between atoms: C_2  and  C_3 
REMARK    2  A    between atoms: C_3  and  O_6 
REMARK    3  A    between atoms: C_3  and  C_4 
REMARK    4  A    between atoms: C_7  and  O_6 
REMARK    5  A    between atoms: C_9  and  C_10 
REMARK    6  A    between atoms: N_15  and  C_14 
REMARK    7  A    between atoms: N_20  and  C_19 
REMARK       I    between atoms: C_22  and  N_20 
ROOT
ATOM      1  C   LIG d   1      -7.351  76.367 117.300  0.00  0.00     0.161 C 
ATOM      2  C   LIG d   1      -8.367  77.296 117.580  0.00  0.00     0.016 C 
ATOM      3  C   LIG d   1      -8.149  78.691 117.647  0.00  0.00     0.038 C 
ATOM      4  C   LIG d   1      -6.922  79.268 117.286  0.00  0.00     0.028 C 
ATOM      5  C   LIG d   1      -5.732  78.336 117.485  0.00  0.00    -0.047 C 
ATOM      6  C   LIG d   1      -6.031  76.986 116.794  0.00  0.00     0.091 C 
ENDROOT
BRANCH   1   7
ATOM      7  O   LIG d   1      -7.833  75.383 116.364  0.00  0.00    -0.368 OA
BRANCH   7   8
ATOM      8  C   LIG d   1      -7.851  74.012 116.834  0.00  0.00     0.119 C 
BRANCH   8   9
ATOM      9  C   LIG d   1      -7.154  73.148 115.765  0.00  0.00     0.028 C 
ATOM     10  C   LIG d   1      -7.570  71.669 115.843  0.00  0.00     0.006 C 
ENDBRANCH   8   9
BRANCH   8  11
ATOM     11  C   LIG d   1      -9.281  73.472 116.922  0.00  0.00     0.028 C 
ATOM     12  C   LIG d   1     -10.339  74.523 116.551  0.00  0.00     0.006 C 
ENDBRANCH   8  11
ENDBRANCH   7   8
ENDBRANCH   1   7
BRANCH   6  13
ATOM     13  N   LIG d   1      -4.953  75.986 117.012  0.00  0.00    -0.311 N 
ATOM     14  C   LIG d   1      -4.271  75.416 116.021  0.00  0.00     0.210 C 
ATOM     15  C   LIG d   1      -3.216  74.397 116.464  0.00  0.00     0.109 C 
ATOM     16  O   LIG d   1      -4.417  75.679 114.818  0.00  0.00    -0.276 OA
ATOM     17  H   LIG d   1      -4.747  75.737 117.960  0.00  0.00     0.149 HD
ENDBRANCH   6  13
BRANCH   5  18
ATOM     18  N   LIG d   1      -4.540  79.013 116.942  0.00  0.00     0.381 N 
ATOM     19  H   LIG d   1      -4.220  78.532 116.125  0.00  0.00    -0.090 HD
ATOM     20  H   LIG d   1      -3.808  78.985 117.630  0.00  0.00    -0.090 HD
ATOM     21  H   LIG d   1      -4.758  79.958 116.715  0.00  0.00    -0.090 HD
ENDBRANCH   5  18
BRANCH   3  22
ATOM     22  C   LIG d   1      -9.155  79.522 118.117  0.00  0.00     0.382 C 
ATOM     23  O   LIG d   1      -8.868  80.649 118.587  0.00  0.00    -0.241 OA
ATOM     24  O   LIG d   1     -10.340  79.140 118.119  0.00  0.00    -0.241 OA
ENDBRANCH   3  22
TORSDOF 7
ENDMDL
MODEL 3
REMARK VINA RESULT:      -6.0      0.793      1.632
REMARK  7 active torsions:
REMARK  status: ('A' for Active; 'I' for Inactive)
REMARK    1  A    between atoms: C_2  and  C_3 
REMARK    2  A    between atoms: C_3  and  O_6 
REMARK    3  A    between atoms: C_3  and  C_4 
REMARK    4  A    between atoms: C_7  and  O_6 
REMARK    5  A    between atoms: C_9  and  C_10 
REMARK    6  A    between atoms: N_15  and  C_14 
REMARK    7  A    between atoms: N_20  and  C_19 
REMARK       I    between atoms: C_22  and  N_20 
ROOT
ATOM      1  C   LIG d   1      -6.013  75.602 115.323  0.00  0.00     0.161 C 
ATOM      2  C   LIG d   1      -4.880  74.887 114.900  0.00  0.00     0.016 C 
ATOM      3  C   LIG d   1      -3.625  74.964 115.547  0.00  0.00     0.038 C 
ATOM      4  C   LIG d   1      -3.457  75.650 116.760  0.00  0.00     0.028 C 
ATOM      5  C   LIG d   1      -4.445  76.796 116.949  0.00  0.00    -0.047 C 
ATOM      6  C   LIG d   1      -5.878  76.269 116.708  0.00  0.00     0.091 C 
ENDROOT
BRANCH   1   7
ATOM      7  O   LIG d   1      -7.172  74.746 115.290  0.00  0.00    -0.368 OA
BRANCH   7   8
ATOM      8  C   LIG d   1      -7.310  73.818 116.394  0.00  0.00     0.119 C 
BRANCH   8   9
ATOM      9  C   LIG d   1      -7.179  72.393 115.820  0.00  0.00     0.028 C 
ATOM     10  C   LIG d   1      -8.440  71.547 116.058  0.00  0.00     0.006 C 
ENDBRANCH   8   9
BRANCH   8  11
ATOM     11  C   LIG d   1      -8.713  73.882 117.003  0.00  0.00     0.028 C 
ATOM     12  C   LIG d   1      -9.574  75.003 116.400  0.00  0.00     0.006 C 
ENDBRANCH   8  11
ENDBRANCH   7   8
ENDBRANCH   1   7
BRANCH   6  13
ATOM     13  N   LIG d   1      -6.899  77.345 116.791  0.00  0.00    -0.311 N 
ATOM     14  C   LIG d   1      -7.498  77.701 117.926  0.00  0.00     0.210 C 
ATOM     15  C   LIG d   1      -8.535  78.820 117.787  0.00  0.00     0.109 C 
ATOM     16  O   LIG d   1      -7.246  77.219 119.041  0.00  0.00    -0.276 OA
ATOM     17  H   LIG d   1      -7.142  77.810 115.939  0.00  0.00     0.149 HD
ENDBRANCH   6  13
BRANCH   5  18
ATOM     18  N   LIG d   1      -4.248  77.334 118.309  0.00  0.00     0.381 N 
ATOM     19  H   LIG d   1      -3.470  77.963 118.315  0.00  0.00    -0.090 HD
ATOM     20  H   LIG d   1      -4.043  76.573 118.933  0.00  0.00    -0.090 HD
ATOM     21  H   LIG d   1      -5.070  77.808 118.610  0.00  0.00    -0.090 HD
ENDBRANCH   5  18
BRANCH   3  22
ATOM     22  C   LIG d   1      -2.512  74.383 114.960  0.00  0.00     0.382 C 
ATOM     23  O   LIG d   1      -1.608  73.891 115.678  0.00  0.00    -0.241 OA
ATOM     24  O   LIG d   1      -2.379  74.384 113.721  0.00  0.00    -0.241 OA
ENDBRANCH   3  22
TORSDOF 7
ENDMDL
MODEL 4
REMARK VINA RESULT:      -5.9      1.971      5.193
REMARK  7 active torsions:
REMARK  status: ('A' for Active; 'I' for Inactive)
REMARK    1  A    between atoms: C_2  and  C_3 
REMARK    2  A    between atoms: C_3  and  O_6 
REMARK    3  A    between atoms: C_3  and  C_4 
REMARK    4  A    between atoms: C_7  and  O_6 
REMARK    5  A    between atoms: C_9  and  C_10 
REMARK    6  A    between atoms: N_15  and  C_14 
REMARK    7  A    between atoms: N_20  and  C_19 
REMARK       I    between atoms: C_22  and  N_20 
ROOT
ATOM      1  C   LIG d   1      -5.370  74.862 116.411  0.00  0.00     0.161 C 
ATOM      2  C   LIG d   1      -6.081  73.695 116.087  0.00  0.00     0.016 C 
ATOM      3  C   LIG d   1      -7.493  73.616 116.092  0.00  0.00     0.038 C 
ATOM      4  C   LIG d   1      -8.298  74.750 116.275  0.00  0.00     0.028 C 
ATOM      5  C   LIG d   1      -7.627  75.842 117.102  0.00  0.00    -0.047 C 
ATOM      6  C   LIG d   1      -6.232  76.139 116.505  0.00  0.00     0.091 C 
ENDROOT
BRANCH   1   7
ATOM      7  O   LIG d   1      -4.292  75.054 115.473  0.00  0.00    -0.368 OA
BRANCH   7   8
ATOM      8  C   LIG d   1      -3.021  74.460 115.833  0.00  0.00     0.119 C 
BRANCH   8   9
ATOM      9  C   LIG d   1      -2.690  74.909 117.270  0.00  0.00     0.028 C 
ATOM     10  C   LIG d   1      -1.668  73.986 117.953  0.00  0.00     0.006 C 
ENDBRANCH   8   9
BRANCH   8  11
ATOM     11  C   LIG d   1      -1.884  75.007 114.965  0.00  0.00     0.028 C 
ATOM     12  C   LIG d   1      -1.156  73.908 114.176  0.00  0.00     0.006 C 
ENDBRANCH   8  11
ENDBRANCH   7   8
ENDBRANCH   1   7
BRANCH   6  13
ATOM     13  N   LIG d   1      -5.474  77.136 117.305  0.00  0.00    -0.311 N 
ATOM     14  C   LIG d   1      -4.782  78.137 116.763  0.00  0.00     0.210 C 
ATOM     15  C   LIG d   1      -4.056  79.038 117.766  0.00  0.00     0.109 C 
ATOM     16  O   LIG d   1      -4.727  78.383 115.549  0.00  0.00    -0.276 OA
ATOM     17  H   LIG d   1      -5.490  77.030 118.300  0.00  0.00     0.149 HD
ENDBRANCH   6  13
BRANCH   5  18
ATOM     18  N   LIG d   1      -8.519  77.016 117.099  0.00  0.00     0.381 N 
ATOM     19  H   LIG d   1      -8.665  77.328 116.159  0.00  0.00    -0.090 HD
ATOM     20  H   LIG d   1      -8.081  77.759 117.613  0.00  0.00    -0.090 HD
ATOM     21  H   LIG d   1      -9.393  76.782 117.517  0.00  0.00    -0.090 HD
ENDBRANCH   5  18
BRANCH   3  22
ATOM     22  C   LIG d   1      -8.113  72.384 115.950  0.00  0.00     0.382 C 
ATOM     23  O   LIG d   1      -7.472  71.408 115.491  0.00  0.00    -0.241 OA
ATOM     24  O   LIG d   1      -9.318  72.247 116.235  0.00  0.00    -0.241 OA
ENDBRANCH   3  22
TORSDOF 7
ENDMDL
MODEL 5
REMARK VINA RESULT:      -5.8     14.452     17.829
REMARK  7 active torsions:
REMARK  status: ('A' for Active; 'I' for Inactive)
REMARK    1  A    between atoms: C_2  and  C_3 
REMARK    2  A    between atoms: C_3  and  O_6 
REMARK    3  A    between atoms: C_3  and  C_4 
REMARK    4  A    between atoms: C_7  and  O_6 
REMARK    5  A    between atoms: C_9  and  C_10 
REMARK    6  A    between atoms: N_15  and  C_14 
REMARK    7  A    between atoms: N_20  and  C_19 
REMARK       I    between atoms: C_22  and  N_20 
ROOT
ATOM      1  C   LIG d   1      -5.585  92.432 117.821  0.00  0.00     0.161 C 
ATOM      2  C   LIG d   1      -6.125  93.560 118.460  0.00  0.00     0.016 C 
ATOM      3  C   LIG d   1      -7.263  94.252 117.987  0.00  0.00     0.038 C 
ATOM      4  C   LIG d   1      -8.033  93.770 116.918  0.00  0.00     0.028 C 
ATOM      5  C   LIG d   1      -7.237  92.920 115.933  0.00  0.00    -0.047 C 
ATOM      6  C   LIG d   1      -6.476  91.826 116.717  0.00  0.00     0.091 C 
ENDROOT
BRANCH   1   7
ATOM      7  O   LIG d   1      -5.248  91.429 118.800  0.00  0.00    -0.368 OA
BRANCH   7   8
ATOM      8  C   LIG d   1      -3.835  91.161 118.978  0.00  0.00     0.119 C 
BRANCH   8   9
ATOM      9  C   LIG d   1      -3.062  92.118 118.050  0.00  0.00     0.028 C 
ATOM     10  C   LIG d   1      -1.962  92.895 118.794  0.00  0.00     0.006 C 
ENDBRANCH   8   9
BRANCH   8  11
ATOM     11  C   LIG d   1      -3.471  89.752 118.502  0.00  0.00     0.028 C 
ATOM     12  C   LIG d   1      -2.432  89.068 119.404  0.00  0.00     0.006 C 
ENDBRANCH   8  11
ENDBRANCH   7   8
ENDBRANCH   1   7
BRANCH   6  13
ATOM     13  N   LIG d   1      -5.605  91.001 115.838  0.00  0.00    -0.311 N 
ATOM     14  C   LIG d   1      -5.778  89.693 115.654  0.00  0.00     0.210 C 
ATOM     15  C   LIG d   1      -4.756  89.031 114.724  0.00  0.00     0.109 C 
ATOM     16  O   LIG d   1      -6.698  89.025 116.148  0.00  0.00    -0.276 OA
ATOM     17  H   LIG d   1      -4.852  91.469 115.374  0.00  0.00     0.149 HD
ENDBRANCH   6  13
BRANCH   5  18
ATOM     18  N   LIG d   1      -8.188  92.370 114.949  0.00  0.00     0.381 N 
ATOM     19  H   LIG d   1      -7.800  92.438 114.029  0.00  0.00    -0.090 HD
ATOM     20  H   LIG d   1      -9.033  92.913 114.975  0.00  0.00    -0.090 HD
ATOM     21  H   LIG d   1      -8.388  91.418 115.163  0.00  0.00    -0.090 HD
ENDBRANCH   5  18
BRANCH   3  22
ATOM     22  C   LIG d   1      -7.619  95.464 118.560  0.00  0.00     0.382 C 
ATOM     23  O   LIG d   1      -8.362  96.259 117.936  0.00  0.00    -0.241 OA
ATOM     24  O   LIG d   1      -7.170  95.790 119.675  0.00  0.00    -0.241 OA
ENDBRANCH   3  22
TORSDOF 7
ENDMDL
MODEL 6
REMARK VINA RESULT:      -5.6      2.110      4.820
REMARK  7 active torsions:
REMARK  status: ('A' for Active; 'I' for Inactive)
REMARK    1  A    between atoms: C_2  and  C_3 
REMARK    2  A    between atoms: C_3  and  O_6 
REMARK    3  A    between atoms: C_3  and  C_4 
REMARK    4  A    between atoms: C_7  and  O_6 
REMARK    5  A    between atoms: C_9  and  C_10 
REMARK    6  A    between atoms: N_15  and  C_14 
REMARK    7  A    between atoms: N_20  and  C_19 
REMARK       I    between atoms: C_22  and  N_20 
ROOT
ATOM      1  C   LIG d   1      -5.713  74.762 116.545  0.00  0.00     0.161 C 
ATOM      2  C   LIG d   1      -6.466  73.627 116.197  0.00  0.00     0.016 C 
ATOM      3  C   LIG d   1      -7.879  73.592 116.229  0.00  0.00     0.038 C 
ATOM      4  C   LIG d   1      -8.645  74.743 116.467  0.00  0.00     0.028 C 
ATOM      5  C   LIG d   1      -7.924  75.785 117.316  0.00  0.00    -0.047 C 
ATOM      6  C   LIG d   1      -6.533  76.060 116.699  0.00  0.00     0.091 C 
ENDROOT
BRANCH   1   7
ATOM      7  O   LIG d   1      -4.649  74.952 115.592  0.00  0.00    -0.368 OA
BRANCH   7   8
ATOM      8  C   LIG d   1      -4.819  76.046 114.657  0.00  0.00     0.119 C 
BRANCH   8   9
ATOM      9  C   LIG d   1      -5.285  75.442 113.318  0.00  0.00     0.028 C 
ATOM     10  C   LIG d   1      -6.694  75.914 112.920  0.00  0.00     0.006 C 
ENDBRANCH   8   9
BRANCH   8  11
ATOM     11  C   LIG d   1      -3.483  76.729 114.350  0.00  0.00     0.028 C 
ATOM     12  C   LIG d   1      -2.292  76.047 115.043  0.00  0.00     0.006 C 
ENDBRANCH   8  11
ENDBRANCH   7   8
ENDBRANCH   1   7
BRANCH   6  13
ATOM     13  N   LIG d   1      -5.728  77.005 117.516  0.00  0.00    -0.311 N 
ATOM     14  C   LIG d   1      -5.783  78.328 117.371  0.00  0.00     0.210 C 
ATOM     15  C   LIG d   1      -4.856  79.119 118.300  0.00  0.00     0.109 C 
ATOM     16  O   LIG d   1      -6.534  78.923 116.584  0.00  0.00    -0.276 OA
ATOM     17  H   LIG d   1      -5.114  76.609 118.200  0.00  0.00     0.149 HD
ENDBRANCH   6  13
BRANCH   5  18
ATOM     18  N   LIG d   1      -8.780  76.985 117.369  0.00  0.00     0.381 N 
ATOM     19  H   LIG d   1      -8.669  77.518 116.530  0.00  0.00    -0.090 HD
ATOM     20  H   LIG d   1      -8.492  77.555 118.145  0.00  0.00    -0.090 HD
ATOM     21  H   LIG d   1      -9.734  76.720 117.479  0.00  0.00    -0.090 HD
ENDBRANCH   5  18
BRANCH   3  22
ATOM     22  C   LIG d   1      -8.540  72.385 116.060  0.00  0.00     0.382 C 
ATOM     23  O   LIG d   1      -7.928  71.395 115.591  0.00  0.00    -0.241 OA
ATOM     24  O   LIG d   1      -9.752  72.285 116.329  0.00  0.00    -0.241 OA
ENDBRANCH   3  22
TORSDOF 7
ENDMDL
MODEL 7
REMARK VINA RESULT:      -5.6      2.028      5.008
REMARK  7 active torsions:
REMARK  status: ('A' for Active; 'I' for Inactive)
REMARK    1  A    between atoms: C_2  and  C_3 
REMARK    2  A    between atoms: C_3  and  O_6 
REMARK    3  A    between atoms: C_3  and  C_4 
REMARK    4  A    between atoms: C_7  and  O_6 
REMARK    5  A    between atoms: C_9  and  C_10 
REMARK    6  A    between atoms: N_15  and  C_14 
REMARK    7  A    between atoms: N_20  and  C_19 
REMARK       I    between atoms: C_22  and  N_20 
ROOT
ATOM      1  C   LIG d   1      -7.044  75.059 116.174  0.00  0.00     0.161 C 
ATOM      2  C   LIG d   1      -7.092  73.665 116.007  0.00  0.00     0.016 C 
ATOM      3  C   LIG d   1      -8.281  72.908 116.116  0.00  0.00     0.038 C 
ATOM      4  C   LIG d   1      -9.538  73.517 116.251  0.00  0.00     0.028 C 
ATOM      5  C   LIG d   1      -9.479  74.882 116.929  0.00  0.00    -0.047 C 
ATOM      6  C   LIG d   1      -8.422  75.753 116.213  0.00  0.00     0.091 C 
ENDROOT
BRANCH   1   7
ATOM      7  O   LIG d   1      -6.216  75.646 115.152  0.00  0.00    -0.368 OA
BRANCH   7   8
ATOM      8  C   LIG d   1      -4.822  75.843 115.496  0.00  0.00     0.119 C 
BRANCH   8   9
ATOM      9  C   LIG d   1      -4.602  77.356 115.686  0.00  0.00     0.028 C 
ATOM     10  C   LIG d   1      -3.930  77.688 117.029  0.00  0.00     0.006 C 
ENDBRANCH   8   9
BRANCH   8  11
ATOM     11  C   LIG d   1      -3.901  75.441 114.340  0.00  0.00     0.028 C 
ATOM     12  C   LIG d   1      -2.567  74.848 114.821  0.00  0.00     0.006 C 
ENDBRANCH   8  11
ENDBRANCH   7   8
ENDBRANCH   1   7
BRANCH   6  13
ATOM     13  N   LIG d   1      -8.241  77.076 116.865  0.00  0.00    -0.311 N 
ATOM     14  C   LIG d   1      -7.573  77.246 118.005  0.00  0.00     0.210 C 
ATOM     15  C   LIG d   1      -7.523  78.689 118.515  0.00  0.00     0.109 C 
ATOM     16  O   LIG d   1      -6.990  76.344 118.625  0.00  0.00    -0.276 OA
ATOM     17  H   LIG d   1      -8.655  77.868 116.413  0.00  0.00     0.149 HD
ENDBRANCH   6  13
BRANCH   5  18
ATOM     18  N   LIG d   1     -10.835  75.462 116.881  0.00  0.00     0.381 N 
ATOM     19  H   LIG d   1     -11.457  74.915 117.442  0.00  0.00    -0.090 HD
ATOM     20  H   LIG d   1     -11.164  75.440 115.932  0.00  0.00    -0.090 HD
ATOM     21  H   LIG d   1     -10.816  76.401 117.212  0.00  0.00    -0.090 HD
ENDBRANCH   5  18
BRANCH   3  22
ATOM     22  C   LIG d   1      -8.216  71.523 116.129  0.00  0.00     0.382 C 
ATOM     23  O   LIG d   1      -9.205  70.852 116.511  0.00  0.00    -0.241 OA
ATOM     24  O   LIG d   1      -7.165  70.937 115.807  0.00  0.00    -0.241 OA
ENDBRANCH   3  22
TORSDOF 7
ENDMDL
MODEL 8
REMARK VINA RESULT:      -5.2      1.815      4.308
REMARK  7 active torsions:
REMARK  status: ('A' for Active; 'I' for Inactive)
REMARK    1  A    between atoms: C_2  and  C_3 
REMARK    2  A    between atoms: C_3  and  O_6 
REMARK    3  A    between atoms: C_3  and  C_4 
REMARK    4  A    between atoms: C_7  and  O_6 
REMARK    5  A    between atoms: C_9  and  C_10 
REMARK    6  A    between atoms: N_15  and  C_14 
REMARK    7  A    between atoms: N_20  and  C_19 
REMARK       I    between atoms: C_22  and  N_20 
ROOT
ATOM      1  C   LIG d   1      -5.775  75.531 116.785  0.00  0.00     0.161 C 
ATOM      2  C   LIG d   1      -4.450  75.181 116.476  0.00  0.00     0.016 C 
ATOM      3  C   LIG d   1      -3.967  75.056 115.153  0.00  0.00     0.038 C 
ATOM      4  C   LIG d   1      -4.743  75.423 114.043  0.00  0.00     0.028 C 
ATOM      5  C   LIG d   1      -6.243  75.298 114.284  0.00  0.00    -0.047 C 
ATOM      6  C   LIG d   1      -6.605  76.043 115.590  0.00  0.00     0.091 C 
ENDROOT
BRANCH   1   7
ATOM      7  O   LIG d   1      -5.787  76.498 117.855  0.00  0.00    -0.368 OA
BRANCH   7   8
ATOM      8  C   LIG d   1      -5.930  77.884 117.459  0.00  0.00     0.119 C 
BRANCH   8   9
ATOM      9  C   LIG d   1      -4.557  78.560 117.637  0.00  0.00     0.028 C 
ATOM     10  C   LIG d   1      -3.890  78.900 116.294  0.00  0.00     0.006 C 
ENDBRANCH   8   9
BRANCH   8  11
ATOM     11  C   LIG d   1      -6.878  78.637 118.397  0.00  0.00     0.028 C 
ATOM     12  C   LIG d   1      -8.181  79.068 117.707  0.00  0.00     0.006 C 
ENDBRANCH   8  11
ENDBRANCH   7   8
ENDBRANCH   1   7
BRANCH   6  13
ATOM     13  N   LIG d   1      -8.041  75.899 115.945  0.00  0.00    -0.311 N 
ATOM     14  C   LIG d   1      -8.629  74.724 116.161  0.00  0.00     0.210 C 
ATOM     15  C   LIG d   1     -10.122  74.800 116.495  0.00  0.00     0.109 C 
ATOM     16  O   LIG d   1      -8.048  73.628 116.140  0.00  0.00    -0.276 OA
ATOM     17  H   LIG d   1      -8.580  76.740 116.014  0.00  0.00     0.149 HD
ENDBRANCH   6  13
BRANCH   5  18
ATOM     18  N   LIG d   1      -6.932  75.842 113.099  0.00  0.00     0.381 N 
ATOM     19  H   LIG d   1      -6.685  76.803 112.974  0.00  0.00    -0.090 HD
ATOM     20  H   LIG d   1      -7.925  75.788 113.246  0.00  0.00    -0.090 HD
ATOM     21  H   LIG d   1      -6.681  75.319 112.289  0.00  0.00    -0.090 HD
ENDBRANCH   5  18
BRANCH   3  22
ATOM     22  C   LIG d   1      -2.707  74.522 114.928  0.00  0.00     0.382 C 
ATOM     23  O   LIG d   1      -2.053  74.036 115.883  0.00  0.00    -0.241 OA
ATOM     24  O   LIG d   1      -2.199  74.558 113.792  0.00  0.00    -0.241 OA
ENDBRANCH   3  22
TORSDOF 7
ENDMDL
MODEL 9
REMARK VINA RESULT:      -5.1      2.207      5.633
REMARK  7 active torsions:
REMARK  status: ('A' for Active; 'I' for Inactive)
REMARK    1  A    between atoms: C_2  and  C_3 
REMARK    2  A    between atoms: C_3  and  O_6 
REMARK    3  A    between atoms: C_3  and  C_4 
REMARK    4  A    between atoms: C_7  and  O_6 
REMARK    5  A    between atoms: C_9  and  C_10 
REMARK    6  A    between atoms: N_15  and  C_14 
REMARK    7  A    between atoms: N_20  and  C_19 
REMARK       I    between atoms: C_22  and  N_20 
ROOT
ATOM      1  C   LIG d   1      -4.967  75.895 116.578  0.00  0.00     0.161 C 
ATOM      2  C   LIG d   1      -4.822  77.273 116.811  0.00  0.00     0.016 C 
ATOM      3  C   LIG d   1      -5.914  78.144 117.027  0.00  0.00     0.038 C 
ATOM      4  C   LIG d   1      -7.226  77.668 117.174  0.00  0.00     0.028 C 
ATOM      5  C   LIG d   1      -7.477  76.352 116.444  0.00  0.00    -0.047 C 
ATOM      6  C   LIG d   1      -6.381  75.339 116.845  0.00  0.00     0.091 C 
ENDROOT
BRANCH   1   7
ATOM      7  O   LIG d   1      -3.988  75.164 117.343  0.00  0.00    -0.368 OA
BRANCH   7   8
ATOM      8  C   LIG d   1      -2.957  74.489 116.581  0.00  0.00     0.119 C 
BRANCH   8   9
ATOM      9  C   LIG d   1      -1.597  75.021 117.070  0.00  0.00     0.028 C 
ATOM     10  C   LIG d   1      -0.778  73.948 117.808  0.00  0.00     0.006 C 
ENDBRANCH   8   9
BRANCH   8  11
ATOM     11  C   LIG d   1      -3.028  74.861 115.096  0.00  0.00     0.028 C 
ATOM     12  C   LIG d   1      -1.881  74.252 114.274  0.00  0.00     0.006 C 
ENDBRANCH   8  11
ENDBRANCH   7   8
ENDBRANCH   1   7
BRANCH   6  13
ATOM     13  N   LIG d   1      -6.504  74.052 116.112  0.00  0.00    -0.311 N 
ATOM     14  C   LIG d   1      -7.135  72.986 116.602  0.00  0.00     0.210 C 
ATOM     15  C   LIG d   1      -7.128  71.754 115.691  0.00  0.00     0.109 C 
ATOM     16  O   LIG d   1      -7.727  72.954 117.691  0.00  0.00    -0.276 OA
ATOM     17  H   LIG d   1      -6.079  74.000 115.207  0.00  0.00     0.149 HD
ENDBRANCH   6  13
BRANCH   5  18
ATOM     18  N   LIG d   1      -8.837  75.902 116.795  0.00  0.00     0.381 N 
ATOM     19  H   LIG d   1      -9.489  76.228 116.110  0.00  0.00    -0.090 HD
ATOM     20  H   LIG d   1      -9.091  76.294 117.684  0.00  0.00    -0.090 HD
ATOM     21  H   LIG d   1      -8.865  74.907 116.842  0.00  0.00    -0.090 HD
ENDBRANCH   5  18
BRANCH   3  22
ATOM     22  C   LIG d   1      -5.704  79.515 117.057  0.00  0.00     0.382 C 
ATOM     23  O   LIG d   1      -6.676  80.295 117.201  0.00  0.00    -0.241 OA
ATOM     24  O   LIG d   1      -4.561  79.982 116.898  0.00  0.00    -0.241 OA
ENDBRANCH   3  22
TORSDOF 7
ENDMDL
