MODEL 1
REMARK VINA RESULT:      -5.4      0.000      0.000
REMARK  7 active torsions:
REMARK  status: ('A' for Active; 'I' for Inactive)
REMARK    1  A    between atoms: C_2  and  C_3 
REMARK    2  A    between atoms: C_3  and  O_6 
REMARK    3  A    between atoms: C_3  and  C_4 
REMARK    4  A    between atoms: C_7  and  O_6 
REMARK    5  A    between atoms: C_9  and  C_10 
REMARK    6  A    between atoms: N_15  and  C_14 
REMARK    7  A    between atoms: N_20  and  C_19 
REMARK       I    between atoms: C_22  and  N_20 
ROOT
ATOM      1  C   LIG d   1      -1.500  76.112 114.826  0.00  0.00     0.161 C 
ATOM      2  C   LIG d   1      -1.364  75.182 115.870  0.00  0.00     0.016 C 
ATOM      3  C   LIG d   1      -0.745  75.482 117.105  0.00  0.00     0.038 C 
ATOM      4  C   LIG d   1      -0.352  76.787 117.439  0.00  0.00     0.028 C 
ATOM      5  C   LIG d   1      -0.010  77.646 116.226  0.00  0.00    -0.047 C 
ATOM      6  C   LIG d   1      -1.176  77.570 115.214  0.00  0.00     0.091 C 
ENDROOT
BRANCH   1   7
ATOM      7  O   LIG d   1      -2.824  76.026 114.263  0.00  0.00    -0.368 OA
BRANCH   7   8
ATOM      8  C   LIG d   1      -3.871  75.588 115.163  0.00  0.00     0.119 C 
BRANCH   8   9
ATOM      9  C   LIG d   1      -4.793  74.639 114.372  0.00  0.00     0.028 C 
ATOM     10  C   LIG d   1      -5.892  74.020 115.253  0.00  0.00     0.006 C 
ENDBRANCH   8   9
BRANCH   8  11
ATOM     11  C   LIG d   1      -4.764  76.757 115.590  0.00  0.00     0.028 C 
ATOM     12  C   LIG d   1      -4.403  77.304 116.980  0.00  0.00     0.006 C 
ENDBRANCH   8  11
ENDBRANCH   7   8
ENDBRANCH   1   7
BRANCH   6  13
ATOM     13  N   LIG d   1      -0.887  78.315 113.961  0.00  0.00    -0.311 N 
ATOM     14  C   LIG d   1      -1.698  79.244 113.457  0.00  0.00     0.210 C 
ATOM     15  C   LIG d   1      -1.221  79.876 112.145  0.00  0.00     0.109 C 
ATOM     16  O   LIG d   1      -2.751  79.628 113.988  0.00  0.00    -0.276 OA
ATOM     17  H   LIG d   1      -0.038  78.090 113.481  0.00  0.00     0.149 HD
ENDBRANCH   6  13
BRANCH   5  18
ATOM     18  N   LIG d   1       0.249  79.015 116.709  0.00  0.00     0.381 N 
ATOM     19  H   LIG d   1      -0.483  79.300 117.329  0.00  0.00    -0.090 HD
ATOM     20  H   LIG d   1       0.257  79.641 115.922  0.00  0.00    -0.090 HD
ATOM     21  H   LIG d   1       1.126  79.051 117.180  0.00  0.00    -0.090 HD
ENDBRANCH   5  18
BRANCH   3  22
ATOM     22  C   LIG d   1      -0.478  74.463 118.006  0.00  0.00     0.382 C 
ATOM     23  O   LIG d   1      -0.793  73.281 117.726  0.00  0.00    -0.241 OA
ATOM     24  O   LIG d   1       0.033  74.716 119.114  0.00  0.00    -0.241 OA
ENDBRANCH   3  22
TORSDOF 7
ENDMDL
MODEL 2
REMARK VINA RESULT:      -5.1     10.598     13.180
REMARK  7 active torsions:
REMARK  status: ('A' for Active; 'I' for Inactive)
REMARK    1  A    between atoms: C_2  and  C_3 
REMARK    2  A    between atoms: C_3  and  O_6 
REMARK    3  A    between atoms: C_3  and  C_4 
REMARK    4  A    between atoms: C_7  and  O_6 
REMARK    5  A    between atoms: C_9  and  C_10 
REMARK    6  A    between atoms: N_15  and  C_14 
REMARK    7  A    between atoms: N_20  and  C_19 
REMARK       I    between atoms: C_22  and  N_20 
ROOT
ATOM      1  C   LIG d   1       1.366  88.286 116.188  0.00  0.00     0.161 C 
ATOM      2  C   LIG d   1       0.063  88.308 116.713  0.00  0.00     0.016 C 
ATOM      3  C   LIG d   1      -0.534  89.465 117.263  0.00  0.00     0.038 C 
ATOM      4  C   LIG d   1       0.080  90.724 117.189  0.00  0.00     0.028 C 
ATOM      5  C   LIG d   1       1.602  90.652 117.123  0.00  0.00    -0.047 C 
ATOM      6  C   LIG d   1       2.010  89.675 115.997  0.00  0.00     0.091 C 
ENDROOT
BRANCH   1   7
ATOM      7  O   LIG d   1       1.381  87.552 114.948  0.00  0.00    -0.368 OA
BRANCH   7   8
ATOM      8  C   LIG d   1       1.949  86.220 115.002  0.00  0.00     0.119 C 
BRANCH   8   9
ATOM      9  C   LIG d   1       3.250  86.238 114.176  0.00  0.00     0.028 C 
ATOM     10  C   LIG d   1       3.052  86.860 112.784  0.00  0.00     0.006 C 
ENDBRANCH   8   9
BRANCH   8  11
ATOM     11  C   LIG d   1       1.042  85.198 114.309  0.00  0.00     0.028 C 
ATOM     12  C   LIG d   1      -0.396  85.707 114.126  0.00  0.00     0.006 C 
ENDBRANCH   8  11
ENDBRANCH   7   8
ENDBRANCH   1   7
BRANCH   6  13
ATOM     13  N   LIG d   1       3.482  89.482 115.920  0.00  0.00    -0.311 N 
ATOM     14  C   LIG d   1       4.201  89.756 114.833  0.00  0.00     0.210 C 
ATOM     15  C   LIG d   1       5.700  89.466 114.960  0.00  0.00     0.109 C 
ATOM     16  O   LIG d   1       3.746  90.243 113.788  0.00  0.00    -0.276 OA
ATOM     17  H   LIG d   1       3.937  89.120 116.735  0.00  0.00     0.149 HD
ENDBRANCH   6  13
BRANCH   5  18
ATOM     18  N   LIG d   1       2.104  92.023 116.909  0.00  0.00     0.381 N 
ATOM     19  H   LIG d   1       2.455  92.113 115.977  0.00  0.00    -0.090 HD
ATOM     20  H   LIG d   1       2.859  92.196 117.549  0.00  0.00    -0.090 HD
ATOM     21  H   LIG d   1       1.372  92.681 117.062  0.00  0.00    -0.090 HD
ENDBRANCH   5  18
BRANCH   3  22
ATOM     22  C   LIG d   1      -1.744  89.361 117.933  0.00  0.00     0.382 C 
ATOM     23  O   LIG d   1      -2.741  88.866 117.354  0.00  0.00    -0.241 OA
ATOM     24  O   LIG d   1      -1.863  89.797 119.094  0.00  0.00    -0.241 OA
ENDBRANCH   3  22
TORSDOF 7
ENDMDL
MODEL 3
REMARK VINA RESULT:      -5.0      2.599      3.653
REMARK  7 active torsions:
REMARK  status: ('A' for Active; 'I' for Inactive)
REMARK    1  A    between atoms: C_2  and  C_3 
REMARK    2  A    between atoms: C_3  and  O_6 
REMARK    3  A    between atoms: C_3  and  C_4 
REMARK    4  A    between atoms: C_7  and  O_6 
REMARK    5  A    between atoms: C_9  and  C_10 
REMARK    6  A    between atoms: N_15  and  C_14 
REMARK    7  A    between atoms: N_20  and  C_19 
REMARK       I    between atoms: C_22  and  N_20 
ROOT
ATOM      1  C   LIG d   1      -1.469  75.216 115.809  0.00  0.00     0.161 C 
ATOM      2  C   LIG d   1      -1.887  76.141 116.779  0.00  0.00     0.016 C 
ATOM      3  C   LIG d   1      -0.998  76.978 117.491  0.00  0.00     0.038 C 
ATOM      4  C   LIG d   1       0.366  77.054 117.170  0.00  0.00     0.028 C 
ATOM      5  C   LIG d   1       0.913  75.775 116.545  0.00  0.00    -0.047 C 
ATOM      6  C   LIG d   1       0.002  75.363 115.366  0.00  0.00     0.091 C 
ENDROOT
BRANCH   1   7
ATOM      7  O   LIG d   1      -2.345  75.277 114.665  0.00  0.00    -0.368 OA
BRANCH   7   8
ATOM      8  C   LIG d   1      -3.159  76.470 114.550  0.00  0.00     0.119 C 
BRANCH   8   9
ATOM      9  C   LIG d   1      -4.563  76.029 114.093  0.00  0.00     0.028 C 
ATOM     10  C   LIG d   1      -4.928  74.621 114.593  0.00  0.00     0.006 C 
ENDBRANCH   8   9
BRANCH   8  11
ATOM     11  C   LIG d   1      -2.643  77.391 113.441  0.00  0.00     0.028 C 
ATOM     12  C   LIG d   1      -1.659  78.453 113.958  0.00  0.00     0.006 C 
ENDBRANCH   8  11
ENDBRANCH   7   8
ENDBRANCH   1   7
BRANCH   6  13
ATOM     13  N   LIG d   1       0.418  74.076 114.751  0.00  0.00    -0.311 N 
ATOM     14  C   LIG d   1       0.711  73.941 113.459  0.00  0.00     0.210 C 
ATOM     15  C   LIG d   1       1.098  72.523 113.028  0.00  0.00     0.109 C 
ATOM     16  O   LIG d   1       0.719  74.868 112.635  0.00  0.00    -0.276 OA
ATOM     17  H   LIG d   1       0.468  73.278 115.354  0.00  0.00     0.149 HD
ENDBRANCH   6  13
BRANCH   5  18
ATOM     18  N   LIG d   1       2.305  76.040 116.134  0.00  0.00     0.381 N 
ATOM     19  H   LIG d   1       2.401  76.998 115.860  0.00  0.00    -0.090 HD
ATOM     20  H   LIG d   1       2.526  75.462 115.343  0.00  0.00    -0.090 HD
ATOM     21  H   LIG d   1       2.926  75.839 116.886  0.00  0.00    -0.090 HD
ENDBRANCH   5  18
BRANCH   3  22
ATOM     22  C   LIG d   1      -1.464  77.722 118.564  0.00  0.00     0.382 C 
ATOM     23  O   LIG d   1      -2.694  77.939 118.689  0.00  0.00    -0.241 OA
ATOM     24  O   LIG d   1      -0.667  78.217 119.383  0.00  0.00    -0.241 OA
ENDBRANCH   3  22
TORSDOF 7
ENDMDL
MODEL 4
REMARK VINA RESULT:      -5.0      1.790      4.972
REMARK  7 active torsions:
REMARK  status: ('A' for Active; 'I' for Inactive)
REMARK    1  A    between atoms: C_2  and  C_3 
REMARK    2  A    between atoms: C_3  and  O_6 
REMARK    3  A    between atoms: C_3  and  C_4 
REMARK    4  A    between atoms: C_7  and  O_6 
REMARK    5  A    between atoms: C_9  and  C_10 
REMARK    6  A    between atoms: N_15  and  C_14 
REMARK    7  A    between atoms: N_20  and  C_19 
REMARK       I    between atoms: C_22  and  N_20 
ROOT
ATOM      1  C   LIG d   1      -2.635  77.550 116.451  0.00  0.00     0.161 C 
ATOM      2  C   LIG d   1      -2.988  78.419 115.405  0.00  0.00     0.016 C 
ATOM      3  C   LIG d   1      -2.253  78.527 114.202  0.00  0.00     0.038 C 
ATOM      4  C   LIG d   1      -1.195  77.657 113.899  0.00  0.00     0.028 C 
ATOM      5  C   LIG d   1      -0.490  77.107 115.134  0.00  0.00    -0.047 C 
ATOM      6  C   LIG d   1      -1.548  76.514 116.093  0.00  0.00     0.091 C 
ENDROOT
BRANCH   1   7
ATOM      7  O   LIG d   1      -3.812  76.888 116.954  0.00  0.00    -0.368 OA
BRANCH   7   8
ATOM      8  C   LIG d   1      -4.991  76.958 116.115  0.00  0.00     0.119 C 
BRANCH   8   9
ATOM      9  C   LIG d   1      -6.203  77.185 117.039  0.00  0.00     0.028 C 
ATOM     10  C   LIG d   1      -7.219  76.032 116.967  0.00  0.00     0.006 C 
ENDBRANCH   8   9
BRANCH   8  11
ATOM     11  C   LIG d   1      -5.257  75.622 115.416  0.00  0.00     0.028 C 
ATOM     12  C   LIG d   1      -5.034  75.690 113.897  0.00  0.00     0.006 C 
ENDBRANCH   8  11
ENDBRANCH   7   8
ENDBRANCH   1   7
BRANCH   6  13
ATOM     13  N   LIG d   1      -0.952  76.030 117.365  0.00  0.00    -0.311 N 
ATOM     14  C   LIG d   1      -0.511  74.785 117.541  0.00  0.00     0.210 C 
ATOM     15  C   LIG d   1       0.049  74.489 118.935  0.00  0.00     0.109 C 
ATOM     16  O   LIG d   1      -0.500  73.909 116.664  0.00  0.00    -0.276 OA
ATOM     17  H   LIG d   1      -0.893  76.685 118.120  0.00  0.00     0.149 HD
ENDBRANCH   6  13
BRANCH   5  18
ATOM     18  N   LIG d   1       0.498  76.111 114.677  0.00  0.00     0.381 N 
ATOM     19  H   LIG d   1       0.113  75.572 113.927  0.00  0.00    -0.090 HD
ATOM     20  H   LIG d   1       0.708  75.489 115.438  0.00  0.00    -0.090 HD
ATOM     21  H   LIG d   1       1.329  76.570 114.374  0.00  0.00    -0.090 HD
ENDBRANCH   5  18
BRANCH   3  22
ATOM     22  C   LIG d   1      -2.551  79.540 113.303  0.00  0.00     0.382 C 
ATOM     23  O   LIG d   1      -2.357  79.367 112.076  0.00  0.00    -0.241 OA
ATOM     24  O   LIG d   1      -2.971  80.640 113.709  0.00  0.00    -0.241 OA
ENDBRANCH   3  22
TORSDOF 7
ENDMDL
MODEL 5
REMARK VINA RESULT:      -4.8      3.084      5.539
REMARK  7 active torsions:
REMARK  status: ('A' for Active; 'I' for Inactive)
REMARK    1  A    between atoms: C_2  and  C_3 
REMARK    2  A    between atoms: C_3  and  O_6 
REMARK    3  A    between atoms: C_3  and  C_4 
REMARK    4  A    between atoms: C_7  and  O_6 
REMARK    5  A    between atoms: C_9  and  C_10 
REMARK    6  A    between atoms: N_15  and  C_14 
REMARK    7  A    between atoms: N_20  and  C_19 
REMARK       I    between atoms: C_22  and  N_20 
ROOT
ATOM      1  C   LIG d   1      -3.718  77.411 115.772  0.00  0.00     0.161 C 
ATOM      2  C   LIG d   1      -4.066  76.249 115.062  0.00  0.00     0.016 C 
ATOM      3  C   LIG d   1      -5.278  75.550 115.261  0.00  0.00     0.038 C 
ATOM      4  C   LIG d   1      -6.299  76.054 116.081  0.00  0.00     0.028 C 
ATOM      5  C   LIG d   1      -5.788  76.956 117.199  0.00  0.00    -0.047 C 
ATOM      6  C   LIG d   1      -4.866  78.037 116.591  0.00  0.00     0.091 C 
ENDROOT
BRANCH   1   7
ATOM      7  O   LIG d   1      -3.156  78.385 114.870  0.00  0.00    -0.368 OA
BRANCH   7   8
ATOM      8  C   LIG d   1      -1.758  78.209 114.533  0.00  0.00     0.119 C 
BRANCH   8   9
ATOM      9  C   LIG d   1      -0.937  78.465 115.811  0.00  0.00     0.028 C 
ATOM     10  C   LIG d   1      -0.711  79.963 116.074  0.00  0.00     0.006 C 
ENDBRANCH   8   9
BRANCH   8  11
ATOM     11  C   LIG d   1      -1.289  79.269 113.531  0.00  0.00     0.028 C 
ATOM     12  C   LIG d   1      -2.289  79.489 112.385  0.00  0.00     0.006 C 
ENDBRANCH   8  11
ENDBRANCH   7   8
ENDBRANCH   1   7
BRANCH   6  13
ATOM     13  N   LIG d   1      -4.256  78.911 117.626  0.00  0.00    -0.311 N 
ATOM     14  C   LIG d   1      -4.805  80.051 118.040  0.00  0.00     0.210 C 
ATOM     15  C   LIG d   1      -4.001  80.809 119.101  0.00  0.00     0.109 C 
ATOM     16  O   LIG d   1      -5.898  80.492 117.652  0.00  0.00    -0.276 OA
ATOM     17  H   LIG d   1      -3.384  78.613 118.018  0.00  0.00     0.149 HD
ENDBRANCH   6  13
BRANCH   5  18
ATOM     18  N   LIG d   1      -6.963  77.520 117.890  0.00  0.00     0.381 N 
ATOM     19  H   LIG d   1      -6.900  77.335 118.871  0.00  0.00    -0.090 HD
ATOM     20  H   LIG d   1      -7.792  77.074 117.537  0.00  0.00    -0.090 HD
ATOM     21  H   LIG d   1      -7.013  78.502 117.732  0.00  0.00    -0.090 HD
ENDBRANCH   5  18
BRANCH   3  22
ATOM     22  C   LIG d   1      -5.463  74.312 114.665  0.00  0.00     0.382 C 
ATOM     23  O   LIG d   1      -6.161  73.440 115.236  0.00  0.00    -0.241 OA
ATOM     24  O   LIG d   1      -4.904  74.040 113.586  0.00  0.00    -0.241 OA
ENDBRANCH   3  22
TORSDOF 7
ENDMDL
MODEL 6
REMARK VINA RESULT:      -4.7      1.969      5.043
REMARK  7 active torsions:
REMARK  status: ('A' for Active; 'I' for Inactive)
REMARK    1  A    between atoms: C_2  and  C_3 
REMARK    2  A    between atoms: C_3  and  O_6 
REMARK    3  A    between atoms: C_3  and  C_4 
REMARK    4  A    between atoms: C_7  and  O_6 
REMARK    5  A    between atoms: C_9  and  C_10 
REMARK    6  A    between atoms: N_15  and  C_14 
REMARK    7  A    between atoms: N_20  and  C_19 
REMARK       I    between atoms: C_22  and  N_20 
ROOT
ATOM      1  C   LIG d   1      -2.494  78.384 115.079  0.00  0.00     0.161 C 
ATOM      2  C   LIG d   1      -2.762  79.325 114.071  0.00  0.00     0.016 C 
ATOM      3  C   LIG d   1      -1.914  80.418 113.781  0.00  0.00     0.038 C 
ATOM      4  C   LIG d   1      -0.655  80.560 114.384  0.00  0.00     0.028 C 
ATOM      5  C   LIG d   1      -0.569  79.918 115.764  0.00  0.00    -0.047 C 
ATOM      6  C   LIG d   1      -1.071  78.459 115.671  0.00  0.00     0.091 C 
ENDROOT
BRANCH   1   7
ATOM      7  O   LIG d   1      -2.764  77.055 114.591  0.00  0.00    -0.368 OA
BRANCH   7   8
ATOM      8  C   LIG d   1      -3.815  76.327 115.273  0.00  0.00     0.119 C 
BRANCH   8   9
ATOM      9  C   LIG d   1      -4.887  75.972 114.224  0.00  0.00     0.028 C 
ATOM     10  C   LIG d   1      -5.104  74.455 114.098  0.00  0.00     0.006 C 
ENDBRANCH   8   9
BRANCH   8  11
ATOM     11  C   LIG d   1      -4.530  77.211 116.299  0.00  0.00     0.028 C 
ATOM     12  C   LIG d   1      -5.972  76.757 116.576  0.00  0.00     0.006 C 
ENDBRANCH   8  11
ENDBRANCH   7   8
ENDBRANCH   1   7
BRANCH   6  13
ATOM     13  N   LIG d   1      -1.099  77.784 116.995  0.00  0.00    -0.311 N 
ATOM     14  C   LIG d   1      -0.109  77.017 117.448  0.00  0.00     0.210 C 
ATOM     15  C   LIG d   1      -0.349  76.400 118.830  0.00  0.00     0.109 C 
ATOM     16  O   LIG d   1       0.960  76.816 116.851  0.00  0.00    -0.276 OA
ATOM     17  H   LIG d   1      -1.916  77.919 117.559  0.00  0.00     0.149 HD
ENDBRANCH   6  13
BRANCH   5  18
ATOM     18  N   LIG d   1       0.832  80.019 116.216  0.00  0.00     0.381 N 
ATOM     19  H   LIG d   1       1.063  79.228 116.782  0.00  0.00    -0.090 HD
ATOM     20  H   LIG d   1       0.934  80.848 116.775  0.00  0.00    -0.090 HD
ATOM     21  H   LIG d   1       1.441  80.064 115.429  0.00  0.00    -0.090 HD
ENDBRANCH   5  18
BRANCH   3  22
ATOM     22  C   LIG d   1      -2.341  81.406 112.907  0.00  0.00     0.382 C 
ATOM     23  O   LIG d   1      -3.499  81.361 112.427  0.00  0.00    -0.241 OA
ATOM     24  O   LIG d   1      -1.568  82.319 112.559  0.00  0.00    -0.241 OA
ENDBRANCH   3  22
TORSDOF 7
ENDMDL
MODEL 7
REMARK VINA RESULT:      -4.5      3.445      5.929
REMARK  7 active torsions:
REMARK  status: ('A' for Active; 'I' for Inactive)
REMARK    1  A    between atoms: C_2  and  C_3 
REMARK    2  A    between atoms: C_3  and  O_6 
REMARK    3  A    between atoms: C_3  and  C_4 
REMARK    4  A    between atoms: C_7  and  O_6 
REMARK    5  A    between atoms: C_9  and  C_10 
REMARK    6  A    between atoms: N_15  and  C_14 
REMARK    7  A    between atoms: N_20  and  C_19 
REMARK       I    between atoms: C_22  and  N_20 
ROOT
ATOM      1  C   LIG d   1      -3.685  78.757 116.460  0.00  0.00     0.161 C 
ATOM      2  C   LIG d   1      -3.552  77.616 115.650  0.00  0.00     0.016 C 
ATOM      3  C   LIG d   1      -4.483  76.552 115.645  0.00  0.00     0.038 C 
ATOM      4  C   LIG d   1      -5.697  76.626 116.344  0.00  0.00     0.028 C 
ATOM      5  C   LIG d   1      -5.638  77.535 117.567  0.00  0.00    -0.047 C 
ATOM      6  C   LIG d   1      -5.059  78.906 117.145  0.00  0.00     0.091 C 
ENDROOT
BRANCH   1   7
ATOM      7  O   LIG d   1      -3.377  79.938 115.694  0.00  0.00    -0.368 OA
BRANCH   7   8
ATOM      8  C   LIG d   1      -2.042  80.477 115.863  0.00  0.00     0.119 C 
BRANCH   8   9
ATOM      9  C   LIG d   1      -2.178  81.839 116.570  0.00  0.00     0.028 C 
ATOM     10  C   LIG d   1      -1.706  81.790 118.033  0.00  0.00     0.006 C 
ENDBRANCH   8   9
BRANCH   8  11
ATOM     11  C   LIG d   1      -1.391  80.785 114.511  0.00  0.00     0.028 C 
ATOM     12  C   LIG d   1      -2.301  81.607 113.585  0.00  0.00     0.006 C 
ENDBRANCH   8  11
ENDBRANCH   7   8
ENDBRANCH   1   7
BRANCH   6  13
ATOM     13  N   LIG d   1      -4.889  79.828 118.299  0.00  0.00    -0.311 N 
ATOM     14  C   LIG d   1      -5.408  81.054 118.340  0.00  0.00     0.210 C 
ATOM     15  C   LIG d   1      -5.096  81.845 119.613  0.00  0.00     0.109 C 
ATOM     16  O   LIG d   1      -6.125  81.548 117.457  0.00  0.00    -0.276 OA
ATOM     17  H   LIG d   1      -4.348  79.495 119.072  0.00  0.00     0.149 HD
ENDBRANCH   6  13
BRANCH   5  18
ATOM     18  N   LIG d   1      -7.002  77.629 118.119  0.00  0.00     0.381 N 
ATOM     19  H   LIG d   1      -7.029  78.320 118.842  0.00  0.00    -0.090 HD
ATOM     20  H   LIG d   1      -7.251  76.742 118.522  0.00  0.00    -0.090 HD
ATOM     21  H   LIG d   1      -7.647  77.867 117.398  0.00  0.00    -0.090 HD
ENDBRANCH   5  18
BRANCH   3  22
ATOM     22  C   LIG d   1      -4.183  75.381 114.967  0.00  0.00     0.382 C 
ATOM     23  O   LIG d   1      -4.986  74.416 114.997  0.00  0.00    -0.241 OA
ATOM     24  O   LIG d   1      -3.101  75.260 114.362  0.00  0.00    -0.241 OA
ENDBRANCH   3  22
TORSDOF 7
ENDMDL
MODEL 8
REMARK VINA RESULT:      -4.4      2.341      4.578
REMARK  7 active torsions:
REMARK  status: ('A' for Active; 'I' for Inactive)
REMARK    1  A    between atoms: C_2  and  C_3 
REMARK    2  A    between atoms: C_3  and  O_6 
REMARK    3  A    between atoms: C_3  and  C_4 
REMARK    4  A    between atoms: C_7  and  O_6 
REMARK    5  A    between atoms: C_9  and  C_10 
REMARK    6  A    between atoms: N_15  and  C_14 
REMARK    7  A    between atoms: N_20  and  C_19 
REMARK       I    between atoms: C_22  and  N_20 
ROOT
ATOM      1  C   LIG d   1      -2.732  77.363 116.029  0.00  0.00     0.161 C 
ATOM      2  C   LIG d   1      -3.138  78.648 116.427  0.00  0.00     0.016 C 
ATOM      3  C   LIG d   1      -2.892  79.813 115.666  0.00  0.00     0.038 C 
ATOM      4  C   LIG d   1      -2.351  79.753 114.372  0.00  0.00     0.028 C 
ATOM      5  C   LIG d   1      -1.467  78.533 114.142  0.00  0.00    -0.047 C 
ATOM      6  C   LIG d   1      -2.240  77.264 114.570  0.00  0.00     0.091 C 
ENDROOT
BRANCH   1   7
ATOM      7  O   LIG d   1      -3.796  76.420 116.264  0.00  0.00    -0.368 OA
BRANCH   7   8
ATOM      8  C   LIG d   1      -5.120  76.836 115.851  0.00  0.00     0.119 C 
BRANCH   8   9
ATOM      9  C   LIG d   1      -6.036  76.761 117.088  0.00  0.00     0.028 C 
ATOM     10  C   LIG d   1      -7.336  75.988 116.809  0.00  0.00     0.006 C 
ENDBRANCH   8   9
BRANCH   8  11
ATOM     11  C   LIG d   1      -5.722  75.855 114.840  0.00  0.00     0.028 C 
ATOM     12  C   LIG d   1      -4.791  74.672 114.531  0.00  0.00     0.006 C 
ENDBRANCH   8  11
ENDBRANCH   7   8
ENDBRANCH   1   7
BRANCH   6  13
ATOM     13  N   LIG d   1      -1.416  76.033 114.456  0.00  0.00    -0.311 N 
ATOM     14  C   LIG d   1      -0.232  75.885 115.048  0.00  0.00     0.210 C 
ATOM     15  C   LIG d   1       0.461  74.545 114.784  0.00  0.00     0.109 C 
ATOM     16  O   LIG d   1       0.296  76.725 115.792  0.00  0.00    -0.276 OA
ATOM     17  H   LIG d   1      -1.783  75.288 113.896  0.00  0.00     0.149 HD
ENDBRANCH   6  13
BRANCH   5  18
ATOM     18  N   LIG d   1      -1.083  78.523 112.718  0.00  0.00     0.381 N 
ATOM     19  H   LIG d   1      -0.141  78.845 112.618  0.00  0.00    -0.090 HD
ATOM     20  H   LIG d   1      -1.686  79.150 112.214  0.00  0.00    -0.090 HD
ATOM     21  H   LIG d   1      -1.168  77.601 112.348  0.00  0.00    -0.090 HD
ENDBRANCH   5  18
BRANCH   3  22
ATOM     22  C   LIG d   1      -3.151  81.060 116.214  0.00  0.00     0.382 C 
ATOM     23  O   LIG d   1      -3.129  82.082 115.486  0.00  0.00    -0.241 OA
ATOM     24  O   LIG d   1      -3.362  81.182 117.435  0.00  0.00    -0.241 OA
ENDBRANCH   3  22
TORSDOF 7
ENDMDL
MODEL 9
REMARK VINA RESULT:      -4.4     12.316     15.234
REMARK  7 active torsions:
REMARK  status: ('A' for Active; 'I' for Inactive)
REMARK    1  A    between atoms: C_2  and  C_3 
REMARK    2  A    between atoms: C_3  and  O_6 
REMARK    3  A    between atoms: C_3  and  C_4 
REMARK    4  A    between atoms: C_7  and  O_6 
REMARK    5  A    between atoms: C_9  and  C_10 
REMARK    6  A    between atoms: N_15  and  C_14 
REMARK    7  A    between atoms: N_20  and  C_19 
REMARK       I    between atoms: C_22  and  N_20 
ROOT
ATOM      1  C   LIG d   1       3.880  88.961 116.281  0.00  0.00     0.161 C 
ATOM      2  C   LIG d   1       2.635  89.588 116.103  0.00  0.00     0.016 C 
ATOM      3  C   LIG d   1       2.334  90.876 116.602  0.00  0.00     0.038 C 
ATOM      4  C   LIG d   1       3.314  91.693 117.186  0.00  0.00     0.028 C 
ATOM      5  C   LIG d   1       4.448  90.908 117.836  0.00  0.00    -0.047 C 
ATOM      6  C   LIG d   1       4.996  89.881 116.819  0.00  0.00     0.091 C 
ENDROOT
BRANCH   1   7
ATOM      7  O   LIG d   1       4.294  88.338 115.049  0.00  0.00    -0.368 OA
BRANCH   7   8
ATOM      8  C   LIG d   1       3.611  88.780 113.850  0.00  0.00     0.119 C 
BRANCH   8   9
ATOM      9  C   LIG d   1       3.436  87.551 112.937  0.00  0.00     0.028 C 
ATOM     10  C   LIG d   1       3.004  86.298 113.716  0.00  0.00     0.006 C 
ENDBRANCH   8   9
BRANCH   8  11
ATOM     11  C   LIG d   1       4.470  89.762 113.049  0.00  0.00     0.028 C 
ATOM     12  C   LIG d   1       5.977  89.561 113.279  0.00  0.00     0.006 C 
ENDBRANCH   8  11
ENDBRANCH   7   8
ENDBRANCH   1   7
BRANCH   6  13
ATOM     13  N   LIG d   1       6.052  89.014 117.402  0.00  0.00    -0.311 N 
ATOM     14  C   LIG d   1       7.350  89.311 117.362  0.00  0.00     0.210 C 
ATOM     15  C   LIG d   1       8.272  88.270 118.005  0.00  0.00     0.109 C 
ATOM     16  O   LIG d   1       7.822  90.353 116.884  0.00  0.00    -0.276 OA
ATOM     17  H   LIG d   1       5.755  88.163 117.838  0.00  0.00     0.149 HD
ENDBRANCH   6  13
BRANCH   5  18
ATOM     18  N   LIG d   1       5.464  91.879 118.282  0.00  0.00     0.381 N 
ATOM     19  H   LIG d   1       6.364  91.443 118.301  0.00  0.00    -0.090 HD
ATOM     20  H   LIG d   1       5.240  92.180 119.214  0.00  0.00    -0.090 HD
ATOM     21  H   LIG d   1       5.479  92.663 117.667  0.00  0.00    -0.090 HD
ENDBRANCH   5  18
BRANCH   3  22
ATOM     22  C   LIG d   1       1.030  91.344 116.554  0.00  0.00     0.382 C 
ATOM     23  O   LIG d   1       0.108  90.591 116.155  0.00  0.00    -0.241 OA
ATOM     24  O   LIG d   1       0.769  92.522 116.862  0.00  0.00    -0.241 OA
ENDBRANCH   3  22
TORSDOF 7
ENDMDL
