MODEL 1
REMARK VINA RESULT:      -5.4      0.000      0.000
REMARK  7 active torsions:
REMARK  status: ('A' for Active; 'I' for Inactive)
REMARK    1  A    between atoms: C_2  and  C_3 
REMARK    2  A    between atoms: C_3  and  O_6 
REMARK    3  A    between atoms: C_3  and  C_4 
REMARK    4  A    between atoms: C_7  and  O_6 
REMARK    5  A    between atoms: C_9  and  C_10 
REMARK    6  A    between atoms: N_15  and  C_14 
REMARK    7  A    between atoms: N_20  and  C_19 
REMARK       I    between atoms: C_22  and  N_20 
ROOT
ATOM      1  C   LIG d   1      -3.227  74.852 116.217  0.00  0.00     0.161 C 
ATOM      2  C   LIG d   1      -2.915  74.108 117.367  0.00  0.00     0.016 C 
ATOM      3  C   LIG d   1      -1.664  74.177 118.023  0.00  0.00     0.038 C 
ATOM      4  C   LIG d   1      -0.687  75.116 117.659  0.00  0.00     0.028 C 
ATOM      5  C   LIG d   1      -0.765  75.534 116.194  0.00  0.00    -0.047 C 
ATOM      6  C   LIG d   1      -2.214  75.963 115.871  0.00  0.00     0.091 C 
ENDROOT
BRANCH   1   7
ATOM      7  O   LIG d   1      -4.553  75.404 116.338  0.00  0.00    -0.368 OA
BRANCH   7   8
ATOM      8  C   LIG d   1      -5.648  74.460 116.233  0.00  0.00     0.119 C 
BRANCH   8   9
ATOM      9  C   LIG d   1      -6.052  74.383 114.748  0.00  0.00     0.028 C 
ATOM     10  C   LIG d   1      -6.461  75.752 114.179  0.00  0.00     0.006 C 
ENDBRANCH   8   9
BRANCH   8  11
ATOM     11  C   LIG d   1      -6.893  74.968 116.966  0.00  0.00     0.028 C 
ATOM     12  C   LIG d   1      -7.923  73.858 117.230  0.00  0.00     0.006 C 
ENDBRANCH   8  11
ENDBRANCH   7   8
ENDBRANCH   1   7
BRANCH   6  13
ATOM     13  N   LIG d   1      -2.397  76.308 114.437  0.00  0.00    -0.311 N 
ATOM     14  C   LIG d   1      -3.089  77.366 114.020  0.00  0.00     0.210 C 
ATOM     15  C   LIG d   1      -3.171  77.526 112.498  0.00  0.00     0.109 C 
ATOM     16  O   LIG d   1      -3.617  78.205 114.765  0.00  0.00    -0.276 OA
ATOM     17  H   LIG d   1      -1.975  75.698 113.764  0.00  0.00     0.149 HD
ENDBRANCH   6  13
BRANCH   5  18
ATOM     18  N   LIG d   1       0.219  76.614 115.986  0.00  0.00     0.381 N 
ATOM     19  H   LIG d   1       1.105  76.341 116.362  0.00  0.00    -0.090 HD
ATOM     20  H   LIG d   1      -0.092  77.435 116.475  0.00  0.00    -0.090 HD
ATOM     21  H   LIG d   1       0.308  76.811 115.014  0.00  0.00    -0.090 HD
ENDBRANCH   5  18
BRANCH   3  22
ATOM     22  C   LIG d   1      -1.366  73.273 119.031  0.00  0.00     0.382 C 
ATOM     23  O   LIG d   1      -0.409  73.498 119.812  0.00  0.00    -0.241 OA
ATOM     24  O   LIG d   1      -2.013  72.215 119.142  0.00  0.00    -0.241 OA
ENDBRANCH   3  22
TORSDOF 7
ENDMDL
MODEL 2
REMARK VINA RESULT:      -5.2      3.549      6.025
REMARK  7 active torsions:
REMARK  status: ('A' for Active; 'I' for Inactive)
REMARK    1  A    between atoms: C_2  and  C_3 
REMARK    2  A    between atoms: C_3  and  O_6 
REMARK    3  A    between atoms: C_3  and  C_4 
REMARK    4  A    between atoms: C_7  and  O_6 
REMARK    5  A    between atoms: C_9  and  C_10 
REMARK    6  A    between atoms: N_15  and  C_14 
REMARK    7  A    between atoms: N_20  and  C_19 
REMARK       I    between atoms: C_22  and  N_20 
ROOT
ATOM      1  C   LIG d   1      -6.389  74.999 116.705  0.00  0.00     0.161 C 
ATOM      2  C   LIG d   1      -6.925  73.705 116.599  0.00  0.00     0.016 C 
ATOM      3  C   LIG d   1      -8.081  73.283 117.294  0.00  0.00     0.038 C 
ATOM      4  C   LIG d   1      -8.872  74.177 118.031  0.00  0.00     0.028 C 
ATOM      5  C   LIG d   1      -8.091  75.369 118.574  0.00  0.00    -0.047 C 
ATOM      6  C   LIG d   1      -7.300  76.021 117.417  0.00  0.00     0.091 C 
ENDROOT
BRANCH   1   7
ATOM      7  O   LIG d   1      -6.018  75.484 115.399  0.00  0.00    -0.368 OA
BRANCH   7   8
ATOM      8  C   LIG d   1      -4.621  75.343 115.040  0.00  0.00     0.119 C 
BRANCH   8   9
ATOM      9  C   LIG d   1      -3.828  75.125 116.343  0.00  0.00     0.028 C 
ATOM     10  C   LIG d   1      -2.584  74.246 116.132  0.00  0.00     0.006 C 
ENDBRANCH   8   9
BRANCH   8  11
ATOM     11  C   LIG d   1      -4.067  76.638 114.440  0.00  0.00     0.028 C 
ATOM     12  C   LIG d   1      -3.821  77.727 115.496  0.00  0.00     0.006 C 
ENDBRANCH   8  11
ENDBRANCH   7   8
ENDBRANCH   1   7
BRANCH   6  13
ATOM     13  N   LIG d   1      -6.443  77.144 117.878  0.00  0.00    -0.311 N 
ATOM     14  C   LIG d   1      -6.848  78.412 117.905  0.00  0.00     0.210 C 
ATOM     15  C   LIG d   1      -5.800  79.415 118.397  0.00  0.00     0.109 C 
ATOM     16  O   LIG d   1      -7.986  78.798 117.599  0.00  0.00    -0.276 OA
ATOM     17  H   LIG d   1      -5.514  76.917 118.174  0.00  0.00     0.149 HD
ENDBRANCH   6  13
BRANCH   5  18
ATOM     18  N   LIG d   1      -9.060  76.288 119.202  0.00  0.00     0.381 N 
ATOM     19  H   LIG d   1      -8.590  77.113 119.516  0.00  0.00    -0.090 HD
ATOM     20  H   LIG d   1      -9.468  75.834 120.000  0.00  0.00    -0.090 HD
ATOM     21  H   LIG d   1      -9.772  76.530 118.548  0.00  0.00    -0.090 HD
ENDBRANCH   5  18
BRANCH   3  22
ATOM     22  C   LIG d   1      -8.435  71.942 117.288  0.00  0.00     0.382 C 
ATOM     23  O   LIG d   1      -8.608  71.344 116.198  0.00  0.00    -0.241 OA
ATOM     24  O   LIG d   1      -8.627  71.334 118.358  0.00  0.00    -0.241 OA
ENDBRANCH   3  22
TORSDOF 7
ENDMDL
MODEL 3
REMARK VINA RESULT:      -5.1      3.975      6.208
REMARK  7 active torsions:
REMARK  status: ('A' for Active; 'I' for Inactive)
REMARK    1  A    between atoms: C_2  and  C_3 
REMARK    2  A    between atoms: C_3  and  O_6 
REMARK    3  A    between atoms: C_3  and  C_4 
REMARK    4  A    between atoms: C_7  and  O_6 
REMARK    5  A    between atoms: C_9  and  C_10 
REMARK    6  A    between atoms: N_15  and  C_14 
REMARK    7  A    between atoms: N_20  and  C_19 
REMARK       I    between atoms: C_22  and  N_20 
ROOT
ATOM      1  C   LIG d   1      -7.402  76.793 117.705  0.00  0.00     0.161 C 
ATOM      2  C   LIG d   1      -8.666  77.213 118.151  0.00  0.00     0.016 C 
ATOM      3  C   LIG d   1      -8.991  78.565 118.408  0.00  0.00     0.038 C 
ATOM      4  C   LIG d   1      -8.112  79.612 118.090  0.00  0.00     0.028 C 
ATOM      5  C   LIG d   1      -6.645  79.199 118.112  0.00  0.00    -0.047 C 
ATOM      6  C   LIG d   1      -6.467  77.931 117.246  0.00  0.00     0.091 C 
ENDROOT
BRANCH   1   7
ATOM      7  O   LIG d   1      -7.555  75.816 116.656  0.00  0.00    -0.368 OA
BRANCH   7   8
ATOM      8  C   LIG d   1      -6.878  74.551 116.860  0.00  0.00     0.119 C 
BRANCH   8   9
ATOM      9  C   LIG d   1      -5.983  74.302 115.631  0.00  0.00     0.028 C 
ATOM     10  C   LIG d   1      -6.316  75.243 114.462  0.00  0.00     0.006 C 
ENDBRANCH   8   9
BRANCH   8  11
ATOM     11  C   LIG d   1      -7.871  73.385 116.882  0.00  0.00     0.028 C 
ATOM     12  C   LIG d   1      -8.899  73.500 118.018  0.00  0.00     0.006 C 
ENDBRANCH   8  11
ENDBRANCH   7   8
ENDBRANCH   1   7
BRANCH   6  13
ATOM     13  N   LIG d   1      -5.075  77.411 117.281  0.00  0.00    -0.311 N 
ATOM     14  C   LIG d   1      -4.150  77.732 116.379  0.00  0.00     0.210 C 
ATOM     15  C   LIG d   1      -2.784  77.069 116.588  0.00  0.00     0.109 C 
ATOM     16  O   LIG d   1      -4.320  78.528 115.443  0.00  0.00    -0.276 OA
ATOM     17  H   LIG d   1      -4.841  76.783 118.025  0.00  0.00     0.149 HD
ENDBRANCH   6  13
BRANCH   5  18
ATOM     18  N   LIG d   1      -5.852  80.345 117.628  0.00  0.00     0.381 N 
ATOM     19  H   LIG d   1      -6.358  81.195 117.778  0.00  0.00    -0.090 HD
ATOM     20  H   LIG d   1      -5.697  80.240 116.641  0.00  0.00    -0.090 HD
ATOM     21  H   LIG d   1      -4.979  80.382 118.107  0.00  0.00    -0.090 HD
ENDBRANCH   5  18
BRANCH   3  22
ATOM     22  C   LIG d   1     -10.191  78.878 119.028  0.00  0.00     0.382 C 
ATOM     23  O   LIG d   1     -10.422  80.058 119.387  0.00  0.00    -0.241 OA
ATOM     24  O   LIG d   1     -11.026  77.988 119.273  0.00  0.00    -0.241 OA
ENDBRANCH   3  22
TORSDOF 7
ENDMDL
MODEL 4
REMARK VINA RESULT:      -4.9     11.513     14.164
REMARK  7 active torsions:
REMARK  status: ('A' for Active; 'I' for Inactive)
REMARK    1  A    between atoms: C_2  and  C_3 
REMARK    2  A    between atoms: C_3  and  O_6 
REMARK    3  A    between atoms: C_3  and  C_4 
REMARK    4  A    between atoms: C_7  and  O_6 
REMARK    5  A    between atoms: C_9  and  C_10 
REMARK    6  A    between atoms: N_15  and  C_14 
REMARK    7  A    between atoms: N_20  and  C_19 
REMARK       I    between atoms: C_22  and  N_20 
ROOT
ATOM      1  C   LIG d   1       2.605  87.156 114.981  0.00  0.00     0.161 C 
ATOM      2  C   LIG d   1       3.314  88.231 114.422  0.00  0.00     0.016 C 
ATOM      3  C   LIG d   1       3.974  88.163 113.173  0.00  0.00     0.038 C 
ATOM      4  C   LIG d   1       3.841  87.054 112.324  0.00  0.00     0.028 C 
ATOM      5  C   LIG d   1       3.552  85.754 113.066  0.00  0.00    -0.047 C 
ATOM      6  C   LIG d   1       2.355  85.975 114.019  0.00  0.00     0.091 C 
ENDROOT
BRANCH   1   7
ATOM      7  O   LIG d   1       1.358  87.626 115.531  0.00  0.00    -0.368 OA
BRANCH   7   8
ATOM      8  C   LIG d   1       1.250  87.603 116.976  0.00  0.00     0.119 C 
BRANCH   8   9
ATOM      9  C   LIG d   1       0.000  86.776 117.334  0.00  0.00     0.028 C 
ATOM     10  C   LIG d   1       0.342  85.526 118.163  0.00  0.00     0.006 C 
ENDBRANCH   8   9
BRANCH   8  11
ATOM     11  C   LIG d   1       0.983  89.003 117.536  0.00  0.00     0.028 C 
ATOM     12  C   LIG d   1       0.699  90.041 116.438  0.00  0.00     0.006 C 
ENDBRANCH   8  11
ENDBRANCH   7   8
ENDBRANCH   1   7
BRANCH   6  13
ATOM     13  N   LIG d   1       2.059  84.776 114.846  0.00  0.00    -0.311 N 
ATOM     14  C   LIG d   1       2.954  84.199 115.647  0.00  0.00     0.210 C 
ATOM     15  C   LIG d   1       2.448  82.961 116.395  0.00  0.00     0.109 C 
ATOM     16  O   LIG d   1       4.108  84.613 115.833  0.00  0.00    -0.276 OA
ATOM     17  H   LIG d   1       1.137  84.392 114.780  0.00  0.00     0.149 HD
ENDBRANCH   6  13
BRANCH   5  18
ATOM     18  N   LIG d   1       3.301  84.710 112.055  0.00  0.00     0.381 N 
ATOM     19  H   LIG d   1       2.538  84.983 111.468  0.00  0.00    -0.090 HD
ATOM     20  H   LIG d   1       3.048  83.857 112.524  0.00  0.00    -0.090 HD
ATOM     21  H   LIG d   1       4.118  84.565 111.504  0.00  0.00    -0.090 HD
ENDBRANCH   5  18
BRANCH   3  22
ATOM     22  C   LIG d   1       4.810  89.197 112.781  0.00  0.00     0.382 C 
ATOM     23  O   LIG d   1       6.004  88.956 112.476  0.00  0.00    -0.241 OA
ATOM     24  O   LIG d   1       4.399  90.372 112.770  0.00  0.00    -0.241 OA
ENDBRANCH   3  22
TORSDOF 7
ENDMDL
MODEL 5
REMARK VINA RESULT:      -4.8     21.235     23.561
REMARK  7 active torsions:
REMARK  status: ('A' for Active; 'I' for Inactive)
REMARK    1  A    between atoms: C_2  and  C_3 
REMARK    2  A    between atoms: C_3  and  O_6 
REMARK    3  A    between atoms: C_3  and  C_4 
REMARK    4  A    between atoms: C_7  and  O_6 
REMARK    5  A    between atoms: C_9  and  C_10 
REMARK    6  A    between atoms: N_15  and  C_14 
REMARK    7  A    between atoms: N_20  and  C_19 
REMARK       I    between atoms: C_22  and  N_20 
ROOT
ATOM      1  C   LIG d   1     -23.792  83.502 113.380  0.00  0.00     0.161 C 
ATOM      2  C   LIG d   1     -22.885  84.533 113.677  0.00  0.00     0.016 C 
ATOM      3  C   LIG d   1     -23.236  85.902 113.676  0.00  0.00     0.038 C 
ATOM      4  C   LIG d   1     -24.564  86.327 113.523  0.00  0.00     0.028 C 
ATOM      5  C   LIG d   1     -25.422  85.356 112.720  0.00  0.00    -0.047 C 
ATOM      6  C   LIG d   1     -25.271  83.939 113.319  0.00  0.00     0.091 C 
ENDROOT
BRANCH   1   7
ATOM      7  O   LIG d   1     -23.627  82.420 114.317  0.00  0.00    -0.368 OA
BRANCH   7   8
ATOM      8  C   LIG d   1     -24.413  82.503 115.532  0.00  0.00     0.119 C 
BRANCH   8   9
ATOM      9  C   LIG d   1     -23.500  83.070 116.636  0.00  0.00     0.028 C 
ATOM     10  C   LIG d   1     -22.130  82.371 116.680  0.00  0.00     0.006 C 
ENDBRANCH   8   9
BRANCH   8  11
ATOM     11  C   LIG d   1     -24.829  81.114 116.022  0.00  0.00     0.028 C 
ATOM     12  C   LIG d   1     -24.771  80.049 114.916  0.00  0.00     0.006 C 
ENDBRANCH   8  11
ENDBRANCH   7   8
ENDBRANCH   1   7
BRANCH   6  13
ATOM     13  N   LIG d   1     -26.012  82.912 112.541  0.00  0.00    -0.311 N 
ATOM     14  C   LIG d   1     -27.069  82.255 113.015  0.00  0.00     0.210 C 
ATOM     15  C   LIG d   1     -27.672  81.224 112.056  0.00  0.00     0.109 C 
ATOM     16  O   LIG d   1     -27.583  82.450 114.127  0.00  0.00    -0.276 OA
ATOM     17  H   LIG d   1     -25.681  82.713 111.618  0.00  0.00     0.149 HD
ENDBRANCH   6  13
BRANCH   5  18
ATOM     18  N   LIG d   1     -26.811  85.853 112.756  0.00  0.00     0.381 N 
ATOM     19  H   LIG d   1     -26.827  86.828 112.531  0.00  0.00    -0.090 HD
ATOM     20  H   LIG d   1     -27.173  85.738 113.686  0.00  0.00    -0.090 HD
ATOM     21  H   LIG d   1     -27.371  85.345 112.108  0.00  0.00    -0.090 HD
ENDBRANCH   5  18
BRANCH   3  22
ATOM     22  C   LIG d   1     -22.245  86.866 113.789  0.00  0.00     0.382 C 
ATOM     23  O   LIG d   1     -22.407  87.844 114.558  0.00  0.00    -0.241 OA
ATOM     24  O   LIG d   1     -21.211  86.792 113.099  0.00  0.00    -0.241 OA
ENDBRANCH   3  22
TORSDOF 7
ENDMDL
MODEL 6
REMARK VINA RESULT:      -4.7     12.126     14.967
REMARK  7 active torsions:
REMARK  status: ('A' for Active; 'I' for Inactive)
REMARK    1  A    between atoms: C_2  and  C_3 
REMARK    2  A    between atoms: C_3  and  O_6 
REMARK    3  A    between atoms: C_3  and  C_4 
REMARK    4  A    between atoms: C_7  and  O_6 
REMARK    5  A    between atoms: C_9  and  C_10 
REMARK    6  A    between atoms: N_15  and  C_14 
REMARK    7  A    between atoms: N_20  and  C_19 
REMARK       I    between atoms: C_22  and  N_20 
ROOT
ATOM      1  C   LIG d   1      10.201  79.505 114.916  0.00  0.00     0.161 C 
ATOM      2  C   LIG d   1       8.857  79.633 115.302  0.00  0.00     0.016 C 
ATOM      3  C   LIG d   1       8.073  78.552 115.766  0.00  0.00     0.038 C 
ATOM      4  C   LIG d   1       8.629  77.289 116.020  0.00  0.00     0.028 C 
ATOM      5  C   LIG d   1       9.857  76.985 115.168  0.00  0.00    -0.047 C 
ATOM      6  C   LIG d   1      10.856  78.159 115.291  0.00  0.00     0.091 C 
ENDROOT
BRANCH   1   7
ATOM      7  O   LIG d   1      10.970  80.601 115.449  0.00  0.00    -0.368 OA
BRANCH   7   8
ATOM      8  C   LIG d   1      11.294  81.664 114.518  0.00  0.00     0.119 C 
BRANCH   8   9
ATOM      9  C   LIG d   1      10.185  82.729 114.628  0.00  0.00     0.028 C 
ATOM     10  C   LIG d   1      10.181  83.433 115.995  0.00  0.00     0.006 C 
ENDBRANCH   8   9
BRANCH   8  11
ATOM     11  C   LIG d   1      11.241  81.171 113.069  0.00  0.00     0.028 C 
ATOM     12  C   LIG d   1      10.607  82.195 112.114  0.00  0.00     0.006 C 
ENDBRANCH   8  11
ENDBRANCH   7   8
ENDBRANCH   1   7
BRANCH   6  13
ATOM     13  N   LIG d   1      12.049  77.981 114.423  0.00  0.00    -0.311 N 
ATOM     14  C   LIG d   1      13.176  77.405 114.835  0.00  0.00     0.210 C 
ATOM     15  C   LIG d   1      14.291  77.341 113.786  0.00  0.00     0.109 C 
ATOM     16  O   LIG d   1      13.349  76.912 115.960  0.00  0.00    -0.276 OA
ATOM     17  H   LIG d   1      11.985  78.324 113.484  0.00  0.00     0.149 HD
ENDBRANCH   6  13
BRANCH   5  18
ATOM     18  N   LIG d   1      10.414  75.701 115.632  0.00  0.00     0.381 N 
ATOM     19  H   LIG d   1      10.347  75.642 116.628  0.00  0.00    -0.090 HD
ATOM     20  H   LIG d   1      11.386  75.657 115.378  0.00  0.00    -0.090 HD
ATOM     21  H   LIG d   1       9.920  74.943 115.214  0.00  0.00    -0.090 HD
ENDBRANCH   5  18
BRANCH   3  22
ATOM     22  C   LIG d   1       6.708  78.718 115.943  0.00  0.00     0.382 C 
ATOM     23  O   LIG d   1       5.902  77.954 115.359  0.00  0.00    -0.241 OA
ATOM     24  O   LIG d   1       6.271  79.650 116.644  0.00  0.00    -0.241 OA
ENDBRANCH   3  22
TORSDOF 7
ENDMDL
MODEL 7
REMARK VINA RESULT:      -4.7      3.537      5.853
REMARK  7 active torsions:
REMARK  status: ('A' for Active; 'I' for Inactive)
REMARK    1  A    between atoms: C_2  and  C_3 
REMARK    2  A    between atoms: C_3  and  O_6 
REMARK    3  A    between atoms: C_3  and  C_4 
REMARK    4  A    between atoms: C_7  and  O_6 
REMARK    5  A    between atoms: C_9  and  C_10 
REMARK    6  A    between atoms: N_15  and  C_14 
REMARK    7  A    between atoms: N_20  and  C_19 
REMARK       I    between atoms: C_22  and  N_20 
ROOT
ATOM      1  C   LIG d   1      -4.763  77.081 115.966  0.00  0.00     0.161 C 
ATOM      2  C   LIG d   1      -5.065  75.825 115.413  0.00  0.00     0.016 C 
ATOM      3  C   LIG d   1      -6.255  75.116 115.695  0.00  0.00     0.038 C 
ATOM      4  C   LIG d   1      -7.300  75.688 116.436  0.00  0.00     0.028 C 
ATOM      5  C   LIG d   1      -6.831  76.746 117.429  0.00  0.00    -0.047 C 
ATOM      6  C   LIG d   1      -5.940  77.769 116.688  0.00  0.00     0.091 C 
ENDROOT
BRANCH   1   7
ATOM      7  O   LIG d   1      -4.225  77.947 114.947  0.00  0.00    -0.368 OA
BRANCH   7   8
ATOM      8  C   LIG d   1      -2.791  78.148 114.974  0.00  0.00     0.119 C 
BRANCH   8   9
ATOM      9  C   LIG d   1      -2.505  79.525 114.345  0.00  0.00     0.028 C 
ATOM     10  C   LIG d   1      -2.516  79.482 112.807  0.00  0.00     0.006 C 
ENDBRANCH   8   9
BRANCH   8  11
ATOM     11  C   LIG d   1      -2.069  77.136 114.079  0.00  0.00     0.028 C 
ATOM     12  C   LIG d   1      -1.245  76.115 114.879  0.00  0.00     0.006 C 
ENDBRANCH   8  11
ENDBRANCH   7   8
ENDBRANCH   1   7
BRANCH   6  13
ATOM     13  N   LIG d   1      -5.370  78.792 117.604  0.00  0.00    -0.311 N 
ATOM     14  C   LIG d   1      -5.921  79.988 117.801  0.00  0.00     0.210 C 
ATOM     15  C   LIG d   1      -5.161  80.898 118.771  0.00  0.00     0.109 C 
ATOM     16  O   LIG d   1      -6.985  80.369 117.291  0.00  0.00    -0.276 OA
ATOM     17  H   LIG d   1      -4.524  78.554 118.083  0.00  0.00     0.149 HD
ENDBRANCH   6  13
BRANCH   5  18
ATOM     18  N   LIG d   1      -8.031  77.354 118.033  0.00  0.00     0.381 N 
ATOM     19  H   LIG d   1      -8.214  78.240 117.605  0.00  0.00    -0.090 HD
ATOM     20  H   LIG d   1      -7.862  77.506 119.012  0.00  0.00    -0.090 HD
ATOM     21  H   LIG d   1      -8.816  76.752 117.914  0.00  0.00    -0.090 HD
ENDBRANCH   5  18
BRANCH   3  22
ATOM     22  C   LIG d   1      -6.392  73.805 115.267  0.00  0.00     0.382 C 
ATOM     23  O   LIG d   1      -5.908  73.452 114.164  0.00  0.00    -0.241 OA
ATOM     24  O   LIG d   1      -7.032  72.981 115.948  0.00  0.00    -0.241 OA
ENDBRANCH   3  22
TORSDOF 7
ENDMDL
MODEL 8
REMARK VINA RESULT:      -4.6     20.259     22.581
REMARK  7 active torsions:
REMARK  status: ('A' for Active; 'I' for Inactive)
REMARK    1  A    between atoms: C_2  and  C_3 
REMARK    2  A    between atoms: C_3  and  O_6 
REMARK    3  A    between atoms: C_3  and  C_4 
REMARK    4  A    between atoms: C_7  and  O_6 
REMARK    5  A    between atoms: C_9  and  C_10 
REMARK    6  A    between atoms: N_15  and  C_14 
REMARK    7  A    between atoms: N_20  and  C_19 
REMARK       I    between atoms: C_22  and  N_20 
ROOT
ATOM      1  C   LIG d   1     -23.313  83.415 115.655  0.00  0.00     0.161 C 
ATOM      2  C   LIG d   1     -22.895  84.725 115.368  0.00  0.00     0.016 C 
ATOM      3  C   LIG d   1     -23.103  85.352 114.118  0.00  0.00     0.038 C 
ATOM      4  C   LIG d   1     -23.882  84.761 113.112  0.00  0.00     0.028 C 
ATOM      5  C   LIG d   1     -23.894  83.237 113.173  0.00  0.00    -0.047 C 
ATOM      6  C   LIG d   1     -24.262  82.795 114.608  0.00  0.00     0.091 C 
ENDROOT
BRANCH   1   7
ATOM      7  O   LIG d   1     -23.914  83.370 116.964  0.00  0.00    -0.368 OA
BRANCH   7   8
ATOM      8  C   LIG d   1     -23.237  82.549 117.948  0.00  0.00     0.119 C 
BRANCH   8   9
ATOM      9  C   LIG d   1     -23.246  83.323 119.281  0.00  0.00     0.028 C 
ATOM     10  C   LIG d   1     -23.075  84.838 119.082  0.00  0.00     0.006 C 
ENDBRANCH   8   9
BRANCH   8  11
ATOM     11  C   LIG d   1     -21.757  82.365 117.596  0.00  0.00     0.028 C 
ATOM     12  C   LIG d   1     -20.942  81.757 118.749  0.00  0.00     0.006 C 
ENDBRANCH   8  11
ENDBRANCH   7   8
ENDBRANCH   1   7
BRANCH   6  13
ATOM     13  N   LIG d   1     -24.215  81.320 114.776  0.00  0.00    -0.311 N 
ATOM     14  C   LIG d   1     -25.283  80.533 114.656  0.00  0.00     0.210 C 
ATOM     15  C   LIG d   1     -25.019  79.043 114.888  0.00  0.00     0.109 C 
ATOM     16  O   LIG d   1     -26.419  80.925 114.346  0.00  0.00    -0.276 OA
ATOM     17  H   LIG d   1     -23.327  80.914 114.998  0.00  0.00     0.149 HD
ENDBRANCH   6  13
BRANCH   5  18
ATOM     18  N   LIG d   1     -24.851  82.758 112.158  0.00  0.00     0.381 N 
ATOM     19  H   LIG d   1     -24.919  83.425 111.415  0.00  0.00    -0.090 HD
ATOM     20  H   LIG d   1     -25.757  82.666 112.582  0.00  0.00    -0.090 HD
ATOM     21  H   LIG d   1     -24.554  81.878 111.797  0.00  0.00    -0.090 HD
ENDBRANCH   5  18
BRANCH   3  22
ATOM     22  C   LIG d   1     -22.493  86.569 113.849  0.00  0.00     0.382 C 
ATOM     23  O   LIG d   1     -22.997  87.632 114.286  0.00  0.00    -0.241 OA
ATOM     24  O   LIG d   1     -21.472  86.620 113.139  0.00  0.00    -0.241 OA
ENDBRANCH   3  22
TORSDOF 7
ENDMDL
MODEL 9
REMARK VINA RESULT:      -4.6     22.283     24.850
REMARK  7 active torsions:
REMARK  status: ('A' for Active; 'I' for Inactive)
REMARK    1  A    between atoms: C_2  and  C_3 
REMARK    2  A    between atoms: C_3  and  O_6 
REMARK    3  A    between atoms: C_3  and  C_4 
REMARK    4  A    between atoms: C_7  and  O_6 
REMARK    5  A    between atoms: C_9  and  C_10 
REMARK    6  A    between atoms: N_15  and  C_14 
REMARK    7  A    between atoms: N_20  and  C_19 
REMARK       I    between atoms: C_22  and  N_20 
ROOT
ATOM      1  C   LIG d   1     -25.515  85.480 114.419  0.00  0.00     0.161 C 
ATOM      2  C   LIG d   1     -24.444  86.379 114.288  0.00  0.00     0.016 C 
ATOM      3  C   LIG d   1     -23.191  86.023 113.738  0.00  0.00     0.038 C 
ATOM      4  C   LIG d   1     -22.973  84.773 113.138  0.00  0.00     0.028 C 
ATOM      5  C   LIG d   1     -23.862  83.669 113.700  0.00  0.00    -0.047 C 
ATOM      6  C   LIG d   1     -25.333  84.144 113.669  0.00  0.00     0.091 C 
ENDROOT
BRANCH   1   7
ATOM      7  O   LIG d   1     -26.742  86.119 114.013  0.00  0.00    -0.368 OA
BRANCH   7   8
ATOM      8  C   LIG d   1     -27.019  86.121 112.591  0.00  0.00     0.119 C 
BRANCH   8   9
ATOM      9  C   LIG d   1     -26.681  87.526 112.055  0.00  0.00     0.028 C 
ATOM     10  C   LIG d   1     -27.542  88.624 112.702  0.00  0.00     0.006 C 
ENDBRANCH   8   9
BRANCH   8  11
ATOM     11  C   LIG d   1     -28.514  85.931 112.314  0.00  0.00     0.028 C 
ATOM     12  C   LIG d   1     -29.284  85.408 113.537  0.00  0.00     0.006 C 
ENDBRANCH   8  11
ENDBRANCH   7   8
ENDBRANCH   1   7
BRANCH   6  13
ATOM     13  N   LIG d   1     -26.261  83.156 114.279  0.00  0.00    -0.311 N 
ATOM     14  C   LIG d   1     -27.146  82.451 113.577  0.00  0.00     0.210 C 
ATOM     15  C   LIG d   1     -28.020  81.503 114.404  0.00  0.00     0.109 C 
ATOM     16  O   LIG d   1     -27.269  82.498 112.344  0.00  0.00    -0.276 OA
ATOM     17  H   LIG d   1     -26.207  83.032 115.271  0.00  0.00     0.149 HD
ENDBRANCH   6  13
BRANCH   5  18
ATOM     18  N   LIG d   1     -23.629  82.456 112.894  0.00  0.00     0.381 N 
ATOM     19  H   LIG d   1     -23.364  82.713 111.964  0.00  0.00    -0.090 HD
ATOM     20  H   LIG d   1     -24.484  81.930 112.844  0.00  0.00    -0.090 HD
ATOM     21  H   LIG d   1     -22.914  81.901 113.311  0.00  0.00    -0.090 HD
ENDBRANCH   5  18
BRANCH   3  22
ATOM     22  C   LIG d   1     -22.127  86.908 113.820  0.00  0.00     0.382 C 
ATOM     23  O   LIG d   1     -22.186  87.889 114.600  0.00  0.00    -0.241 OA
ATOM     24  O   LIG d   1     -21.128  86.764 113.091  0.00  0.00    -0.241 OA
ENDBRANCH   3  22
TORSDOF 7
ENDMDL
