MODEL 1
REMARK VINA RESULT:      -5.4      0.000      0.000
REMARK  7 active torsions:
REMARK  status: ('A' for Active; 'I' for Inactive)
REMARK    1  A    between atoms: C_2  and  C_3 
REMARK    2  A    between atoms: C_3  and  O_6 
REMARK    3  A    between atoms: C_3  and  C_4 
REMARK    4  A    between atoms: C_7  and  O_6 
REMARK    5  A    between atoms: C_9  and  C_10 
REMARK    6  A    between atoms: N_15  and  C_14 
REMARK    7  A    between atoms: N_20  and  C_19 
REMARK       I    between atoms: C_22  and  N_20 
ROOT
ATOM      1  C   LIG d   1      -1.510  77.282 115.010  0.00  0.00     0.161 C 
ATOM      2  C   LIG d   1      -2.830  77.012 114.611  0.00  0.00     0.016 C 
ATOM      3  C   LIG d   1      -3.536  75.849 114.995  0.00  0.00     0.038 C 
ATOM      4  C   LIG d   1      -3.019  74.943 115.933  0.00  0.00     0.028 C 
ATOM      5  C   LIG d   1      -1.494  74.914 115.971  0.00  0.00    -0.047 C 
ATOM      6  C   LIG d   1      -0.969  76.360 116.123  0.00  0.00     0.091 C 
ENDROOT
BRANCH   1   7
ATOM      7  O   LIG d   1      -1.391  78.664 115.402  0.00  0.00    -0.368 OA
BRANCH   7   8
ATOM      8  C   LIG d   1      -2.360  79.575 114.828  0.00  0.00     0.119 C 
BRANCH   8   9
ATOM      9  C   LIG d   1      -1.595  80.548 113.911  0.00  0.00     0.028 C 
ATOM     10  C   LIG d   1      -2.510  81.217 112.871  0.00  0.00     0.006 C 
ENDBRANCH   8   9
BRANCH   8  11
ATOM     11  C   LIG d   1      -3.004  80.453 115.904  0.00  0.00     0.028 C 
ATOM     12  C   LIG d   1      -4.189  79.767 116.603  0.00  0.00     0.006 C 
ENDBRANCH   8  11
ENDBRANCH   7   8
ENDBRANCH   1   7
BRANCH   6  13
ATOM     13  N   LIG d   1       0.515  76.431 116.084  0.00  0.00    -0.311 N 
ATOM     14  C   LIG d   1       1.255  76.863 117.103  0.00  0.00     0.210 C 
ATOM     15  C   LIG d   1       2.766  76.874 116.847  0.00  0.00     0.109 C 
ATOM     16  O   LIG d   1       0.807  77.207 118.207  0.00  0.00    -0.276 OA
ATOM     17  H   LIG d   1       0.964  76.141 115.237  0.00  0.00     0.149 HD
ENDBRANCH   6  13
BRANCH   5  18
ATOM     18  N   LIG d   1      -1.093  74.033 117.084  0.00  0.00     0.381 N 
ATOM     19  H   LIG d   1      -1.186  73.076 116.809  0.00  0.00    -0.090 HD
ATOM     20  H   LIG d   1      -1.703  74.198 117.865  0.00  0.00    -0.090 HD
ATOM     21  H   LIG d   1      -0.149  74.221 117.344  0.00  0.00    -0.090 HD
ENDBRANCH   5  18
BRANCH   3  22
ATOM     22  C   LIG d   1      -4.758  75.562 114.407  0.00  0.00     0.382 C 
ATOM     23  O   LIG d   1      -4.914  75.723 113.173  0.00  0.00    -0.241 OA
ATOM     24  O   LIG d   1      -5.721  75.185 115.102  0.00  0.00    -0.241 OA
ENDBRANCH   3  22
TORSDOF 7
ENDMDL
MODEL 2
REMARK VINA RESULT:      -5.3      2.117      4.830
REMARK  7 active torsions:
REMARK  status: ('A' for Active; 'I' for Inactive)
REMARK    1  A    between atoms: C_2  and  C_3 
REMARK    2  A    between atoms: C_3  and  O_6 
REMARK    3  A    between atoms: C_3  and  C_4 
REMARK    4  A    between atoms: C_7  and  O_6 
REMARK    5  A    between atoms: C_9  and  C_10 
REMARK    6  A    between atoms: N_15  and  C_14 
REMARK    7  A    between atoms: N_20  and  C_19 
REMARK       I    between atoms: C_22  and  N_20 
ROOT
ATOM      1  C   LIG d   1      -2.258  78.608 115.255  0.00  0.00     0.161 C 
ATOM      2  C   LIG d   1      -2.603  79.437 114.174  0.00  0.00     0.016 C 
ATOM      3  C   LIG d   1      -1.755  80.447 113.666  0.00  0.00     0.038 C 
ATOM      4  C   LIG d   1      -0.433  80.599 114.111  0.00  0.00     0.028 C 
ATOM      5  C   LIG d   1      -0.217  80.119 115.542  0.00  0.00    -0.047 C 
ATOM      6  C   LIG d   1      -0.777  78.684 115.680  0.00  0.00     0.091 C 
ENDROOT
BRANCH   1   7
ATOM      7  O   LIG d   1      -2.626  77.246 114.963  0.00  0.00    -0.368 OA
BRANCH   7   8
ATOM      8  C   LIG d   1      -3.618  76.652 115.836  0.00  0.00     0.119 C 
BRANCH   8   9
ATOM      9  C   LIG d   1      -3.238  75.172 116.032  0.00  0.00     0.028 C 
ATOM     10  C   LIG d   1      -1.766  74.894 115.683  0.00  0.00     0.006 C 
ENDBRANCH   8   9
BRANCH   8  11
ATOM     11  C   LIG d   1      -5.000  76.632 115.177  0.00  0.00     0.028 C 
ATOM     12  C   LIG d   1      -5.081  75.656 113.992  0.00  0.00     0.006 C 
ENDBRANCH   8  11
ENDBRANCH   7   8
ENDBRANCH   1   7
BRANCH   6  13
ATOM     13  N   LIG d   1      -0.681  78.170 117.072  0.00  0.00    -0.311 N 
ATOM     14  C   LIG d   1       0.315  77.398 117.501  0.00  0.00     0.210 C 
ATOM     15  C   LIG d   1       0.210  76.962 118.966  0.00  0.00     0.109 C 
ATOM     16  O   LIG d   1       1.293  77.059 116.817  0.00  0.00    -0.276 OA
ATOM     17  H   LIG d   1      -1.417  78.423 117.702  0.00  0.00     0.149 HD
ENDBRANCH   6  13
BRANCH   5  18
ATOM     18  N   LIG d   1       1.228  80.206 115.828  0.00  0.00     0.381 N 
ATOM     19  H   LIG d   1       1.747  79.817 115.066  0.00  0.00    -0.090 HD
ATOM     20  H   LIG d   1       1.429  79.670 116.653  0.00  0.00    -0.090 HD
ATOM     21  H   LIG d   1       1.491  81.156 115.968  0.00  0.00    -0.090 HD
ENDBRANCH   5  18
BRANCH   3  22
ATOM     22  C   LIG d   1      -2.242  81.346 112.730  0.00  0.00     0.382 C 
ATOM     23  O   LIG d   1      -1.462  82.156 112.172  0.00  0.00    -0.241 OA
ATOM     24  O   LIG d   1      -3.459  81.388 112.467  0.00  0.00    -0.241 OA
ENDBRANCH   3  22
TORSDOF 7
ENDMDL
MODEL 3
REMARK VINA RESULT:      -5.3      2.217      4.929
REMARK  7 active torsions:
REMARK  status: ('A' for Active; 'I' for Inactive)
REMARK    1  A    between atoms: C_2  and  C_3 
REMARK    2  A    between atoms: C_3  and  O_6 
REMARK    3  A    between atoms: C_3  and  C_4 
REMARK    4  A    between atoms: C_7  and  O_6 
REMARK    5  A    between atoms: C_9  and  C_10 
REMARK    6  A    between atoms: N_15  and  C_14 
REMARK    7  A    between atoms: N_20  and  C_19 
REMARK       I    between atoms: C_22  and  N_20 
ROOT
ATOM      1  C   LIG d   1      -1.822  75.997 114.719  0.00  0.00     0.161 C 
ATOM      2  C   LIG d   1      -1.630  75.018 115.709  0.00  0.00     0.016 C 
ATOM      3  C   LIG d   1      -0.822  75.216 116.852  0.00  0.00     0.038 C 
ATOM      4  C   LIG d   1      -0.268  76.467 117.161  0.00  0.00     0.028 C 
ATOM      5  C   LIG d   1      -0.020  77.339 115.936  0.00  0.00    -0.047 C 
ATOM      6  C   LIG d   1      -1.316  77.405 115.096  0.00  0.00     0.091 C 
ENDROOT
BRANCH   1   7
ATOM      7  O   LIG d   1      -3.213  76.048 114.346  0.00  0.00    -0.368 OA
BRANCH   7   8
ATOM      8  C   LIG d   1      -4.168  75.802 115.408  0.00  0.00     0.119 C 
BRANCH   8   9
ATOM      9  C   LIG d   1      -5.318  74.968 114.812  0.00  0.00     0.028 C 
ATOM     10  C   LIG d   1      -5.509  73.626 115.540  0.00  0.00     0.006 C 
ENDBRANCH   8   9
BRANCH   8  11
ATOM     11  C   LIG d   1      -4.817  77.104 115.886  0.00  0.00     0.028 C 
ATOM     12  C   LIG d   1      -4.480  77.435 117.349  0.00  0.00     0.006 C 
ENDBRANCH   8  11
ENDBRANCH   7   8
ENDBRANCH   1   7
BRANCH   6  13
ATOM     13  N   LIG d   1      -1.136  78.170 113.834  0.00  0.00    -0.311 N 
ATOM     14  C   LIG d   1      -2.015  79.065 113.387  0.00  0.00     0.210 C 
ATOM     15  C   LIG d   1      -1.646  79.726 112.056  0.00  0.00     0.109 C 
ATOM     16  O   LIG d   1      -3.051  79.397 113.983  0.00  0.00    -0.276 OA
ATOM     17  H   LIG d   1      -0.307  77.986 113.303  0.00  0.00     0.149 HD
ENDBRANCH   6  13
BRANCH   5  18
ATOM     18  N   LIG d   1       0.428  78.661 116.413  0.00  0.00     0.381 N 
ATOM     19  H   LIG d   1       1.293  78.568 116.906  0.00  0.00    -0.090 HD
ATOM     20  H   LIG d   1      -0.259  79.027 117.048  0.00  0.00    -0.090 HD
ATOM     21  H   LIG d   1       0.541  79.282 115.641  0.00  0.00    -0.090 HD
ENDBRANCH   5  18
BRANCH   3  22
ATOM     22  C   LIG d   1      -0.528  74.143 117.679  0.00  0.00     0.382 C 
ATOM     23  O   LIG d   1      -0.011  74.342 118.805  0.00  0.00    -0.241 OA
ATOM     24  O   LIG d   1      -0.733  72.975 117.297  0.00  0.00    -0.241 OA
ENDBRANCH   3  22
TORSDOF 7
ENDMDL
MODEL 4
REMARK VINA RESULT:      -5.0     12.204     14.181
REMARK  7 active torsions:
REMARK  status: ('A' for Active; 'I' for Inactive)
REMARK    1  A    between atoms: C_2  and  C_3 
REMARK    2  A    between atoms: C_3  and  O_6 
REMARK    3  A    between atoms: C_3  and  C_4 
REMARK    4  A    between atoms: C_7  and  O_6 
REMARK    5  A    between atoms: C_9  and  C_10 
REMARK    6  A    between atoms: N_15  and  C_14 
REMARK    7  A    between atoms: N_20  and  C_19 
REMARK       I    between atoms: C_22  and  N_20 
ROOT
ATOM      1  C   LIG d   1       2.866  89.586 116.622  0.00  0.00     0.161 C 
ATOM      2  C   LIG d   1       2.777  89.043 115.329  0.00  0.00     0.016 C 
ATOM      3  C   LIG d   1       3.906  88.748 114.530  0.00  0.00     0.038 C 
ATOM      4  C   LIG d   1       5.213  88.836 115.032  0.00  0.00     0.028 C 
ATOM      5  C   LIG d   1       5.364  89.856 116.155  0.00  0.00    -0.047 C 
ATOM      6  C   LIG d   1       4.285  89.584 117.228  0.00  0.00     0.091 C 
ENDROOT
BRANCH   1   7
ATOM      7  O   LIG d   1       1.945  88.909 117.500  0.00  0.00    -0.368 OA
BRANCH   7   8
ATOM      8  C   LIG d   1       0.939  89.739 118.131  0.00  0.00     0.119 C 
BRANCH   8   9
ATOM      9  C   LIG d   1      -0.291  88.852 118.400  0.00  0.00     0.028 C 
ATOM     10  C   LIG d   1       0.093  87.465 118.945  0.00  0.00     0.006 C 
ENDBRANCH   8   9
BRANCH   8  11
ATOM     11  C   LIG d   1       0.447  90.837 117.182  0.00  0.00     0.028 C 
ATOM     12  C   LIG d   1       0.241  92.186 117.888  0.00  0.00     0.006 C 
ENDBRANCH   8  11
ENDBRANCH   7   8
ENDBRANCH   1   7
BRANCH   6  13
ATOM     13  N   LIG d   1       4.308  90.590 118.322  0.00  0.00    -0.311 N 
ATOM     14  C   LIG d   1       4.032  91.880 118.138  0.00  0.00     0.210 C 
ATOM     15  C   LIG d   1       4.133  92.748 119.396  0.00  0.00     0.109 C 
ATOM     16  O   LIG d   1       3.683  92.381 117.059  0.00  0.00    -0.276 OA
ATOM     17  H   LIG d   1       4.551  90.263 119.237  0.00  0.00     0.149 HD
ENDBRANCH   6  13
BRANCH   5  18
ATOM     18  N   LIG d   1       6.739  89.745 116.677  0.00  0.00     0.381 N 
ATOM     19  H   LIG d   1       7.260  89.096 116.122  0.00  0.00    -0.090 HD
ATOM     20  H   LIG d   1       6.702  89.396 117.618  0.00  0.00    -0.090 HD
ATOM     21  H   LIG d   1       7.182  90.637 116.662  0.00  0.00    -0.090 HD
ENDBRANCH   5  18
BRANCH   3  22
ATOM     22  C   LIG d   1       3.733  88.398 113.199  0.00  0.00     0.382 C 
ATOM     23  O   LIG d   1       4.677  87.872 112.562  0.00  0.00    -0.241 OA
ATOM     24  O   LIG d   1       2.661  88.643 112.616  0.00  0.00    -0.241 OA
ENDBRANCH   3  22
TORSDOF 7
ENDMDL
MODEL 5
REMARK VINA RESULT:      -4.9     10.737     12.711
REMARK  7 active torsions:
REMARK  status: ('A' for Active; 'I' for Inactive)
REMARK    1  A    between atoms: C_2  and  C_3 
REMARK    2  A    between atoms: C_3  and  O_6 
REMARK    3  A    between atoms: C_3  and  C_4 
REMARK    4  A    between atoms: C_7  and  O_6 
REMARK    5  A    between atoms: C_9  and  C_10 
REMARK    6  A    between atoms: N_15  and  C_14 
REMARK    7  A    between atoms: N_20  and  C_19 
REMARK       I    between atoms: C_22  and  N_20 
ROOT
ATOM      1  C   LIG d   1       3.776  88.060 115.825  0.00  0.00     0.161 C 
ATOM      2  C   LIG d   1       2.900  87.487 114.888  0.00  0.00     0.016 C 
ATOM      3  C   LIG d   1       3.132  87.504 113.493  0.00  0.00     0.038 C 
ATOM      4  C   LIG d   1       4.340  87.966 112.949  0.00  0.00     0.028 C 
ATOM      5  C   LIG d   1       5.034  89.011 113.815  0.00  0.00    -0.047 C 
ATOM      6  C   LIG d   1       5.151  88.470 115.258  0.00  0.00     0.091 C 
ENDROOT
BRANCH   1   7
ATOM      7  O   LIG d   1       3.941  87.170 116.947  0.00  0.00    -0.368 OA
BRANCH   7   8
ATOM      8  C   LIG d   1       3.514  85.801 116.743  0.00  0.00     0.119 C 
BRANCH   8   9
ATOM      9  C   LIG d   1       2.779  85.350 118.020  0.00  0.00     0.028 C 
ATOM     10  C   LIG d   1       1.344  85.897 118.094  0.00  0.00     0.006 C 
ENDBRANCH   8   9
BRANCH   8  11
ATOM     11  C   LIG d   1       4.713  84.857 116.610  0.00  0.00     0.028 C 
ATOM     12  C   LIG d   1       5.408  84.585 117.954  0.00  0.00     0.006 C 
ENDBRANCH   8  11
ENDBRANCH   7   8
ENDBRANCH   1   7
BRANCH   6  13
ATOM     13  N   LIG d   1       5.744  89.464 116.190  0.00  0.00    -0.311 N 
ATOM     14  C   LIG d   1       6.664  89.156 117.102  0.00  0.00     0.210 C 
ATOM     15  C   LIG d   1       7.127  90.327 117.975  0.00  0.00     0.109 C 
ATOM     16  O   LIG d   1       7.165  88.031 117.250  0.00  0.00    -0.276 OA
ATOM     17  H   LIG d   1       5.418  90.408 116.118  0.00  0.00     0.149 HD
ENDBRANCH   6  13
BRANCH   5  18
ATOM     18  N   LIG d   1       6.343  89.302 113.199  0.00  0.00     0.381 N 
ATOM     19  H   LIG d   1       6.239  90.015 112.504  0.00  0.00    -0.090 HD
ATOM     20  H   LIG d   1       6.682  88.471 112.748  0.00  0.00    -0.090 HD
ATOM     21  H   LIG d   1       6.990  89.599 113.896  0.00  0.00    -0.090 HD
ENDBRANCH   5  18
BRANCH   3  22
ATOM     22  C   LIG d   1       2.133  87.092 112.625  0.00  0.00     0.382 C 
ATOM     23  O   LIG d   1       1.986  85.871 112.373  0.00  0.00    -0.241 OA
ATOM     24  O   LIG d   1       1.405  87.928 112.056  0.00  0.00    -0.241 OA
ENDBRANCH   3  22
TORSDOF 7
ENDMDL
MODEL 6
REMARK VINA RESULT:      -4.9      1.809      5.003
REMARK  7 active torsions:
REMARK  status: ('A' for Active; 'I' for Inactive)
REMARK    1  A    between atoms: C_2  and  C_3 
REMARK    2  A    between atoms: C_3  and  O_6 
REMARK    3  A    between atoms: C_3  and  C_4 
REMARK    4  A    between atoms: C_7  and  O_6 
REMARK    5  A    between atoms: C_9  and  C_10 
REMARK    6  A    between atoms: N_15  and  C_14 
REMARK    7  A    between atoms: N_20  and  C_19 
REMARK       I    between atoms: C_22  and  N_20 
ROOT
ATOM      1  C   LIG d   1      -2.538  76.992 117.329  0.00  0.00     0.161 C 
ATOM      2  C   LIG d   1      -1.396  77.620 117.855  0.00  0.00     0.016 C 
ATOM      3  C   LIG d   1      -0.144  76.977 117.985  0.00  0.00     0.038 C 
ATOM      4  C   LIG d   1       0.092  75.700 117.454  0.00  0.00     0.028 C 
ATOM      5  C   LIG d   1      -1.164  74.838 117.368  0.00  0.00    -0.047 C 
ATOM      6  C   LIG d   1      -2.271  75.636 116.643  0.00  0.00     0.091 C 
ENDROOT
BRANCH   1   7
ATOM      7  O   LIG d   1      -3.215  77.887 116.424  0.00  0.00    -0.368 OA
BRANCH   7   8
ATOM      8  C   LIG d   1      -2.365  78.729 115.606  0.00  0.00     0.119 C 
BRANCH   8   9
ATOM      9  C   LIG d   1      -2.883  80.174 115.736  0.00  0.00     0.028 C 
ATOM     10  C   LIG d   1      -4.075  80.286 116.701  0.00  0.00     0.006 C 
ENDBRANCH   8   9
BRANCH   8  11
ATOM     11  C   LIG d   1      -2.502  78.381 114.121  0.00  0.00     0.028 C 
ATOM     12  C   LIG d   1      -1.374  77.466 113.617  0.00  0.00     0.006 C 
ENDBRANCH   8  11
ENDBRANCH   7   8
ENDBRANCH   1   7
BRANCH   6  13
ATOM     13  N   LIG d   1      -3.560  74.898 116.590  0.00  0.00    -0.311 N 
ATOM     14  C   LIG d   1      -4.233  74.677 115.462  0.00  0.00     0.210 C 
ATOM     15  C   LIG d   1      -5.550  73.913 115.634  0.00  0.00     0.109 C 
ATOM     16  O   LIG d   1      -3.849  75.014 114.332  0.00  0.00    -0.276 OA
ATOM     17  H   LIG d   1      -3.929  74.562 117.458  0.00  0.00     0.149 HD
ENDBRANCH   6  13
BRANCH   5  18
ATOM     18  N   LIG d   1      -0.801  73.589 116.672  0.00  0.00     0.381 N 
ATOM     19  H   LIG d   1      -1.213  72.808 117.141  0.00  0.00    -0.090 HD
ATOM     20  H   LIG d   1       0.198  73.481 116.698  0.00  0.00    -0.090 HD
ATOM     21  H   LIG d   1      -1.114  73.622 115.727  0.00  0.00    -0.090 HD
ENDBRANCH   5  18
BRANCH   3  22
ATOM     22  C   LIG d   1       0.878  77.597 118.688  0.00  0.00     0.382 C 
ATOM     23  O   LIG d   1       0.999  78.845 118.646  0.00  0.00    -0.241 OA
ATOM     24  O   LIG d   1       1.706  76.920 119.327  0.00  0.00    -0.241 OA
ENDBRANCH   3  22
TORSDOF 7
ENDMDL
MODEL 7
REMARK VINA RESULT:      -4.9     12.391     14.534
REMARK  7 active torsions:
REMARK  status: ('A' for Active; 'I' for Inactive)
REMARK    1  A    between atoms: C_2  and  C_3 
REMARK    2  A    between atoms: C_3  and  O_6 
REMARK    3  A    between atoms: C_3  and  C_4 
REMARK    4  A    between atoms: C_7  and  O_6 
REMARK    5  A    between atoms: C_9  and  C_10 
REMARK    6  A    between atoms: N_15  and  C_14 
REMARK    7  A    between atoms: N_20  and  C_19 
REMARK       I    between atoms: C_22  and  N_20 
ROOT
ATOM      1  C   LIG d   1       3.860  88.975 116.896  0.00  0.00     0.161 C 
ATOM      2  C   LIG d   1       2.582  89.541 116.752  0.00  0.00     0.016 C 
ATOM      3  C   LIG d   1       2.254  90.843 117.196  0.00  0.00     0.038 C 
ATOM      4  C   LIG d   1       3.227  91.728 117.682  0.00  0.00     0.028 C 
ATOM      5  C   LIG d   1       4.425  91.025 118.312  0.00  0.00    -0.047 C 
ATOM      6  C   LIG d   1       4.962  89.966 117.323  0.00  0.00     0.091 C 
ENDROOT
BRANCH   1   7
ATOM      7  O   LIG d   1       4.236  88.301 115.678  0.00  0.00    -0.368 OA
BRANCH   7   8
ATOM      8  C   LIG d   1       3.450  88.621 114.504  0.00  0.00     0.119 C 
BRANCH   8   9
ATOM      9  C   LIG d   1       3.005  87.289 113.869  0.00  0.00     0.028 C 
ATOM     10  C   LIG d   1       2.690  87.430 112.370  0.00  0.00     0.006 C 
ENDBRANCH   8   9
BRANCH   8  11
ATOM     11  C   LIG d   1       4.299  89.315 113.436  0.00  0.00     0.028 C 
ATOM     12  C   LIG d   1       5.807  89.093 113.637  0.00  0.00     0.006 C 
ENDBRANCH   8  11
ENDBRANCH   7   8
ENDBRANCH   1   7
BRANCH   6  13
ATOM     13  N   LIG d   1       6.083  89.174 117.894  0.00  0.00    -0.311 N 
ATOM     14  C   LIG d   1       7.360  89.540 117.805  0.00  0.00     0.210 C 
ATOM     15  C   LIG d   1       8.358  88.570 118.445  0.00  0.00     0.109 C 
ATOM     16  O   LIG d   1       7.759  90.593 117.284  0.00  0.00    -0.276 OA
ATOM     17  H   LIG d   1       5.846  88.321 118.362  0.00  0.00     0.149 HD
ENDBRANCH   6  13
BRANCH   5  18
ATOM     18  N   LIG d   1       5.421  92.059 118.651  0.00  0.00     0.381 N 
ATOM     19  H   LIG d   1       5.088  92.613 119.415  0.00  0.00    -0.090 HD
ATOM     20  H   LIG d   1       5.547  92.661 117.856  0.00  0.00    -0.090 HD
ATOM     21  H   LIG d   1       6.287  91.631 118.893  0.00  0.00    -0.090 HD
ENDBRANCH   5  18
BRANCH   3  22
ATOM     22  C   LIG d   1       0.930  91.256 117.193  0.00  0.00     0.382 C 
ATOM     23  O   LIG d   1       0.011  90.415 117.046  0.00  0.00    -0.241 OA
ATOM     24  O   LIG d   1       0.645  92.464 117.291  0.00  0.00    -0.241 OA
ENDBRANCH   3  22
TORSDOF 7
ENDMDL
MODEL 8
REMARK VINA RESULT:      -4.8     10.225     12.660
REMARK  7 active torsions:
REMARK  status: ('A' for Active; 'I' for Inactive)
REMARK    1  A    between atoms: C_2  and  C_3 
REMARK    2  A    between atoms: C_3  and  O_6 
REMARK    3  A    between atoms: C_3  and  C_4 
REMARK    4  A    between atoms: C_7  and  O_6 
REMARK    5  A    between atoms: C_9  and  C_10 
REMARK    6  A    between atoms: N_15  and  C_14 
REMARK    7  A    between atoms: N_20  and  C_19 
REMARK       I    between atoms: C_22  and  N_20 
ROOT
ATOM      1  C   LIG d   1       3.756  88.507 117.079  0.00  0.00     0.161 C 
ATOM      2  C   LIG d   1       4.091  89.156 115.879  0.00  0.00     0.016 C 
ATOM      3  C   LIG d   1       4.128  88.504 114.625  0.00  0.00     0.038 C 
ATOM      4  C   LIG d   1       3.682  87.183 114.463  0.00  0.00     0.028 C 
ATOM      5  C   LIG d   1       3.814  86.340 115.727  0.00  0.00    -0.047 C 
ATOM      6  C   LIG d   1       3.159  87.095 116.905  0.00  0.00     0.091 C 
ENDROOT
BRANCH   1   7
ATOM      7  O   LIG d   1       2.864  89.337 117.850  0.00  0.00    -0.368 OA
BRANCH   7   8
ATOM      8  C   LIG d   1       1.789  89.972 117.116  0.00  0.00     0.119 C 
BRANCH   8   9
ATOM      9  C   LIG d   1       1.764  91.458 117.525  0.00  0.00     0.028 C 
ATOM     10  C   LIG d   1       3.108  91.929 118.106  0.00  0.00     0.006 C 
ENDBRANCH   8   9
BRANCH   8  11
ATOM     11  C   LIG d   1       0.425  89.414 117.531  0.00  0.00     0.028 C 
ATOM     12  C   LIG d   1       0.453  88.735 118.909  0.00  0.00     0.006 C 
ENDBRANCH   8  11
ENDBRANCH   7   8
ENDBRANCH   1   7
BRANCH   6  13
ATOM     13  N   LIG d   1       3.318  86.377 118.197  0.00  0.00    -0.311 N 
ATOM     14  C   LIG d   1       2.402  85.547 118.692  0.00  0.00     0.210 C 
ATOM     15  C   LIG d   1       2.756  84.927 120.047  0.00  0.00     0.109 C 
ATOM     16  O   LIG d   1       1.344  85.239 118.122  0.00  0.00    -0.276 OA
ATOM     17  H   LIG d   1       4.161  86.545 118.711  0.00  0.00     0.149 HD
ENDBRANCH   6  13
BRANCH   5  18
ATOM     18  N   LIG d   1       3.187  85.032 115.457  0.00  0.00     0.381 N 
ATOM     19  H   LIG d   1       3.157  84.868 114.471  0.00  0.00    -0.090 HD
ATOM     20  H   LIG d   1       2.244  85.046 115.803  0.00  0.00    -0.090 HD
ATOM     21  H   LIG d   1       3.703  84.308 115.907  0.00  0.00    -0.090 HD
ENDBRANCH   5  18
BRANCH   3  22
ATOM     22  C   LIG d   1       4.653  89.161 113.523  0.00  0.00     0.382 C 
ATOM     23  O   LIG d   1       5.844  88.962 113.183  0.00  0.00    -0.241 OA
ATOM     24  O   LIG d   1       3.964  89.985 112.892  0.00  0.00    -0.241 OA
ENDBRANCH   3  22
TORSDOF 7
ENDMDL
MODEL 9
REMARK VINA RESULT:      -4.7     10.112     12.772
REMARK  7 active torsions:
REMARK  status: ('A' for Active; 'I' for Inactive)
REMARK    1  A    between atoms: C_2  and  C_3 
REMARK    2  A    between atoms: C_3  and  O_6 
REMARK    3  A    between atoms: C_3  and  C_4 
REMARK    4  A    between atoms: C_7  and  O_6 
REMARK    5  A    between atoms: C_9  and  C_10 
REMARK    6  A    between atoms: N_15  and  C_14 
REMARK    7  A    between atoms: N_20  and  C_19 
REMARK       I    between atoms: C_22  and  N_20 
ROOT
ATOM      1  C   LIG d   1      10.408  80.049 115.424  0.00  0.00     0.161 C 
ATOM      2  C   LIG d   1       9.091  79.627 115.670  0.00  0.00     0.016 C 
ATOM      3  C   LIG d   1       8.636  78.312 115.420  0.00  0.00     0.038 C 
ATOM      4  C   LIG d   1       9.512  77.283 115.045  0.00  0.00     0.028 C 
ATOM      5  C   LIG d   1      10.747  77.779 114.300  0.00  0.00    -0.047 C 
ATOM      6  C   LIG d   1      11.406  78.912 115.120  0.00  0.00     0.091 C 
ENDROOT
BRANCH   1   7
ATOM      7  O   LIG d   1      10.880  80.847 116.528  0.00  0.00    -0.368 OA
BRANCH   7   8
ATOM      8  C   LIG d   1       9.861  81.383 117.408  0.00  0.00     0.119 C 
BRANCH   8   9
ATOM      9  C   LIG d   1       9.932  82.919 117.317  0.00  0.00     0.028 C 
ATOM     10  C   LIG d   1       8.985  83.488 116.247  0.00  0.00     0.006 C 
ENDBRANCH   8   9
BRANCH   8  11
ATOM     11  C   LIG d   1      10.159  81.049 118.873  0.00  0.00     0.028 C 
ATOM     12  C   LIG d   1      10.177  79.537 119.148  0.00  0.00     0.006 C 
ENDBRANCH   8  11
ENDBRANCH   7   8
ENDBRANCH   1   7
BRANCH   6  13
ATOM     13  N   LIG d   1      12.573  79.512 114.423  0.00  0.00    -0.311 N 
ATOM     14  C   LIG d   1      13.824  79.086 114.587  0.00  0.00     0.210 C 
ATOM     15  C   LIG d   1      14.880  79.856 113.789  0.00  0.00     0.109 C 
ATOM     16  O   LIG d   1      14.156  78.122 115.294  0.00  0.00    -0.276 OA
ATOM     17  H   LIG d   1      12.391  80.279 113.806  0.00  0.00     0.149 HD
ENDBRANCH   6  13
BRANCH   5  18
ATOM     18  N   LIG d   1      11.637  76.622 114.092  0.00  0.00     0.381 N 
ATOM     19  H   LIG d   1      12.458  76.721 114.656  0.00  0.00    -0.090 HD
ATOM     20  H   LIG d   1      11.919  76.598 113.128  0.00  0.00    -0.090 HD
ATOM     21  H   LIG d   1      11.162  75.779 114.328  0.00  0.00    -0.090 HD
ENDBRANCH   5  18
BRANCH   3  22
ATOM     22  C   LIG d   1       7.282  78.026 115.505  0.00  0.00     0.382 C 
ATOM     23  O   LIG d   1       6.524  78.285 114.540  0.00  0.00    -0.241 OA
ATOM     24  O   LIG d   1       6.801  77.553 116.553  0.00  0.00    -0.241 OA
ENDBRANCH   3  22
TORSDOF 7
ENDMDL
