MODEL 1
REMARK VINA RESULT:      -5.5      0.000      0.000
REMARK  7 active torsions:
REMARK  status: ('A' for Active; 'I' for Inactive)
REMARK    1  A    between atoms: C_2  and  C_3 
REMARK    2  A    between atoms: C_3  and  O_6 
REMARK    3  A    between atoms: C_3  and  C_4 
REMARK    4  A    between atoms: C_7  and  O_6 
REMARK    5  A    between atoms: C_9  and  C_10 
REMARK    6  A    between atoms: N_15  and  C_14 
REMARK    7  A    between atoms: N_20  and  C_19 
REMARK       I    between atoms: C_22  and  N_20 
ROOT
ATOM      1  C   LIG d   1      -7.332  74.921 117.861  0.00  0.00     0.161 C 
ATOM      2  C   LIG d   1      -7.471  73.616 117.358  0.00  0.00     0.016 C 
ATOM      3  C   LIG d   1      -8.716  72.956 117.241  0.00  0.00     0.038 C 
ATOM      4  C   LIG d   1      -9.931  73.615 117.481  0.00  0.00     0.028 C 
ATOM      5  C   LIG d   1      -9.809  74.768 118.471  0.00  0.00    -0.047 C 
ATOM      6  C   LIG d   1      -8.657  75.696 118.023  0.00  0.00     0.091 C 
ENDROOT
BRANCH   1   7
ATOM      7  O   LIG d   1      -6.413  75.666 117.038  0.00  0.00    -0.368 OA
BRANCH   7   8
ATOM      8  C   LIG d   1      -5.720  74.913 116.013  0.00  0.00     0.119 C 
BRANCH   8   9
ATOM      9  C   LIG d   1      -4.208  75.100 116.242  0.00  0.00     0.028 C 
ATOM     10  C   LIG d   1      -3.739  74.506 117.581  0.00  0.00     0.006 C 
ENDBRANCH   8   9
BRANCH   8  11
ATOM     11  C   LIG d   1      -5.994  75.486 114.619  0.00  0.00     0.028 C 
ATOM     12  C   LIG d   1      -4.914  75.102 113.595  0.00  0.00     0.006 C 
ENDBRANCH   8  11
ENDBRANCH   7   8
ENDBRANCH   1   7
BRANCH   6  13
ATOM     13  N   LIG d   1      -8.414  76.804 118.982  0.00  0.00    -0.311 N 
ATOM     14  C   LIG d   1      -9.042  77.978 118.921  0.00  0.00     0.210 C 
ATOM     15  C   LIG d   1      -8.629  78.989 119.996  0.00  0.00     0.109 C 
ATOM     16  O   LIG d   1      -9.924  78.266 118.098  0.00  0.00    -0.276 OA
ATOM     17  H   LIG d   1      -7.737  76.645 119.702  0.00  0.00     0.149 HD
ENDBRANCH   6  13
BRANCH   5  18
ATOM     18  N   LIG d   1     -11.115  75.452 118.523  0.00  0.00     0.381 N 
ATOM     19  H   LIG d   1     -11.778  74.879 119.005  0.00  0.00    -0.090 HD
ATOM     20  H   LIG d   1     -11.445  75.594 117.584  0.00  0.00    -0.090 HD
ATOM     21  H   LIG d   1     -11.023  76.329 118.986  0.00  0.00    -0.090 HD
ENDBRANCH   5  18
BRANCH   3  22
ATOM     22  C   LIG d   1      -8.751  71.608 116.920  0.00  0.00     0.382 C 
ATOM     23  O   LIG d   1      -9.457  70.820 117.595  0.00  0.00    -0.241 OA
ATOM     24  O   LIG d   1      -8.051  71.161 115.991  0.00  0.00    -0.241 OA
ENDBRANCH   3  22
TORSDOF 7
ENDMDL
MODEL 2
REMARK VINA RESULT:      -5.4      2.143      4.896
REMARK  7 active torsions:
REMARK  status: ('A' for Active; 'I' for Inactive)
REMARK    1  A    between atoms: C_2  and  C_3 
REMARK    2  A    between atoms: C_3  and  O_6 
REMARK    3  A    between atoms: C_3  and  C_4 
REMARK    4  A    between atoms: C_7  and  O_6 
REMARK    5  A    between atoms: C_9  and  C_10 
REMARK    6  A    between atoms: N_15  and  C_14 
REMARK    7  A    between atoms: N_20  and  C_19 
REMARK       I    between atoms: C_22  and  N_20 
ROOT
ATOM      1  C   LIG d   1      -6.753  75.273 116.803  0.00  0.00     0.161 C 
ATOM      2  C   LIG d   1      -5.607  74.744 116.188  0.00  0.00     0.016 C 
ATOM      3  C   LIG d   1      -4.435  75.497 115.947  0.00  0.00     0.038 C 
ATOM      4  C   LIG d   1      -4.274  76.798 116.446  0.00  0.00     0.028 C 
ATOM      5  C   LIG d   1      -5.592  77.543 116.631  0.00  0.00    -0.047 C 
ATOM      6  C   LIG d   1      -6.557  76.658 117.454  0.00  0.00     0.091 C 
ENDROOT
BRANCH   1   7
ATOM      7  O   LIG d   1      -7.267  74.334 117.769  0.00  0.00    -0.368 OA
BRANCH   7   8
ATOM      8  C   LIG d   1      -8.498  73.660 117.410  0.00  0.00     0.119 C 
BRANCH   8   9
ATOM      9  C   LIG d   1      -9.599  74.171 118.360  0.00  0.00     0.028 C 
ATOM     10  C   LIG d   1     -10.840  74.673 117.603  0.00  0.00     0.006 C 
ENDBRANCH   8   9
BRANCH   8  11
ATOM     11  C   LIG d   1      -8.405  72.154 117.671  0.00  0.00     0.028 C 
ATOM     12  C   LIG d   1      -8.006  71.356 116.419  0.00  0.00     0.006 C 
ENDBRANCH   8  11
ENDBRANCH   7   8
ENDBRANCH   1   7
BRANCH   6  13
ATOM     13  N   LIG d   1      -7.900  77.276 117.609  0.00  0.00    -0.311 N 
ATOM     14  C   LIG d   1      -8.416  77.621 118.788  0.00  0.00     0.210 C 
ATOM     15  C   LIG d   1      -9.822  78.225 118.726  0.00  0.00     0.109 C 
ATOM     16  O   LIG d   1      -7.829  77.514 119.875  0.00  0.00    -0.276 OA
ATOM     17  H   LIG d   1      -8.431  77.428 116.775  0.00  0.00     0.149 HD
ENDBRANCH   6  13
BRANCH   5  18
ATOM     18  N   LIG d   1      -5.289  78.830 117.284  0.00  0.00     0.381 N 
ATOM     19  H   LIG d   1      -5.401  78.742 118.275  0.00  0.00    -0.090 HD
ATOM     20  H   LIG d   1      -5.938  79.523 116.954  0.00  0.00    -0.090 HD
ATOM     21  H   LIG d   1      -4.357  79.109 117.071  0.00  0.00    -0.090 HD
ENDBRANCH   5  18
BRANCH   3  22
ATOM     22  C   LIG d   1      -3.422  74.962 115.165  0.00  0.00     0.382 C 
ATOM     23  O   LIG d   1      -2.446  74.391 115.708  0.00  0.00    -0.241 OA
ATOM     24  O   LIG d   1      -3.451  75.082 113.926  0.00  0.00    -0.241 OA
ENDBRANCH   3  22
TORSDOF 7
ENDMDL
MODEL 3
REMARK VINA RESULT:      -5.2     10.851     14.119
REMARK  7 active torsions:
REMARK  status: ('A' for Active; 'I' for Inactive)
REMARK    1  A    between atoms: C_2  and  C_3 
REMARK    2  A    between atoms: C_3  and  O_6 
REMARK    3  A    between atoms: C_3  and  C_4 
REMARK    4  A    between atoms: C_7  and  O_6 
REMARK    5  A    between atoms: C_9  and  C_10 
REMARK    6  A    between atoms: N_15  and  C_14 
REMARK    7  A    between atoms: N_20  and  C_19 
REMARK       I    between atoms: C_22  and  N_20 
ROOT
ATOM      1  C   LIG d   1     -16.602  65.294 114.628  0.00  0.00     0.161 C 
ATOM      2  C   LIG d   1     -15.890  66.169 113.791  0.00  0.00     0.016 C 
ATOM      3  C   LIG d   1     -15.584  67.504 114.142  0.00  0.00     0.038 C 
ATOM      4  C   LIG d   1     -15.839  68.011 115.424  0.00  0.00     0.028 C 
ATOM      5  C   LIG d   1     -17.006  67.324 116.126  0.00  0.00    -0.047 C 
ATOM      6  C   LIG d   1     -16.791  65.794 116.076  0.00  0.00     0.091 C 
ENDROOT
BRANCH   1   7
ATOM      7  O   LIG d   1     -15.974  63.996 114.625  0.00  0.00    -0.368 OA
BRANCH   7   8
ATOM      8  C   LIG d   1     -16.723  62.928 113.994  0.00  0.00     0.119 C 
BRANCH   8   9
ATOM      9  C   LIG d   1     -17.970  63.558 113.344  0.00  0.00     0.028 C 
ATOM     10  C   LIG d   1     -19.276  62.903 113.825  0.00  0.00     0.006 C 
ENDBRANCH   8   9
BRANCH   8  11
ATOM     11  C   LIG d   1     -17.262  61.937 115.030  0.00  0.00     0.028 C 
ATOM     12  C   LIG d   1     -16.233  61.595 116.119  0.00  0.00     0.006 C 
ENDBRANCH   8  11
ENDBRANCH   7   8
ENDBRANCH   1   7
BRANCH   6  13
ATOM     13  N   LIG d   1     -17.929  65.042 116.666  0.00  0.00    -0.311 N 
ATOM     14  C   LIG d   1     -17.840  64.348 117.799  0.00  0.00     0.210 C 
ATOM     15  C   LIG d   1     -19.126  63.630 118.221  0.00  0.00     0.109 C 
ATOM     16  O   LIG d   1     -16.827  64.284 118.512  0.00  0.00    -0.276 OA
ATOM     17  H   LIG d   1     -18.798  65.066 116.170  0.00  0.00     0.149 HD
ENDBRANCH   6  13
BRANCH   5  18
ATOM     18  N   LIG d   1     -17.073  67.853 117.502  0.00  0.00     0.381 N 
ATOM     19  H   LIG d   1     -17.983  67.690 117.883  0.00  0.00    -0.090 HD
ATOM     20  H   LIG d   1     -16.915  68.846 117.476  0.00  0.00    -0.090 HD
ATOM     21  H   LIG d   1     -16.382  67.414 118.070  0.00  0.00    -0.090 HD
ENDBRANCH   5  18
BRANCH   3  22
ATOM     22  C   LIG d   1     -15.051  68.359 113.189  0.00  0.00     0.382 C 
ATOM     23  O   LIG d   1     -14.076  69.092 113.481  0.00  0.00    -0.241 OA
ATOM     24  O   LIG d   1     -15.562  68.440 112.056  0.00  0.00    -0.241 OA
ENDBRANCH   3  22
TORSDOF 7
ENDMDL
MODEL 4
REMARK VINA RESULT:      -5.2      1.408      2.149
REMARK  7 active torsions:
REMARK  status: ('A' for Active; 'I' for Inactive)
REMARK    1  A    between atoms: C_2  and  C_3 
REMARK    2  A    between atoms: C_3  and  O_6 
REMARK    3  A    between atoms: C_3  and  C_4 
REMARK    4  A    between atoms: C_7  and  O_6 
REMARK    5  A    between atoms: C_9  and  C_10 
REMARK    6  A    between atoms: N_15  and  C_14 
REMARK    7  A    between atoms: N_20  and  C_19 
REMARK       I    between atoms: C_22  and  N_20 
ROOT
ATOM      1  C   LIG d   1      -6.518  74.727 117.231  0.00  0.00     0.161 C 
ATOM      2  C   LIG d   1      -6.975  73.476 116.785  0.00  0.00     0.016 C 
ATOM      3  C   LIG d   1      -8.167  72.873 117.247  0.00  0.00     0.038 C 
ATOM      4  C   LIG d   1      -9.068  73.554 118.080  0.00  0.00     0.028 C 
ATOM      5  C   LIG d   1      -8.403  74.613 118.952  0.00  0.00    -0.047 C 
ATOM      6  C   LIG d   1      -7.542  75.533 118.056  0.00  0.00     0.091 C 
ENDROOT
BRANCH   1   7
ATOM      7  O   LIG d   1      -6.053  75.505 116.111  0.00  0.00    -0.368 OA
BRANCH   7   8
ATOM      8  C   LIG d   1      -4.655  75.887 116.136  0.00  0.00     0.119 C 
BRANCH   8   9
ATOM      9  C   LIG d   1      -4.058  75.549 114.756  0.00  0.00     0.028 C 
ATOM     10  C   LIG d   1      -5.130  75.114 113.743  0.00  0.00     0.006 C 
ENDBRANCH   8   9
BRANCH   8  11
ATOM     11  C   LIG d   1      -3.865  75.042 117.139  0.00  0.00     0.028 C 
ATOM     12  C   LIG d   1      -3.225  75.884 118.254  0.00  0.00     0.006 C 
ENDBRANCH   8  11
ENDBRANCH   7   8
ENDBRANCH   1   7
BRANCH   6  13
ATOM     13  N   LIG d   1      -6.790  76.547 118.841  0.00  0.00    -0.311 N 
ATOM     14  C   LIG d   1      -6.754  77.840 118.524  0.00  0.00     0.210 C 
ATOM     15  C   LIG d   1      -5.903  78.710 119.455  0.00  0.00     0.109 C 
ATOM     16  O   LIG d   1      -7.371  78.354 117.579  0.00  0.00    -0.276 OA
ATOM     17  H   LIG d   1      -6.286  76.221 119.642  0.00  0.00     0.149 HD
ENDBRANCH   6  13
BRANCH   5  18
ATOM     18  N   LIG d   1      -9.472  75.337 119.666  0.00  0.00     0.381 N 
ATOM     19  H   LIG d   1     -10.270  75.435 119.072  0.00  0.00    -0.090 HD
ATOM     20  H   LIG d   1      -9.140  76.256 119.902  0.00  0.00    -0.090 HD
ATOM     21  H   LIG d   1      -9.723  74.844 120.495  0.00  0.00    -0.090 HD
ENDBRANCH   5  18
BRANCH   3  22
ATOM     22  C   LIG d   1      -8.450  71.559 116.906  0.00  0.00     0.382 C 
ATOM     23  O   LIG d   1      -9.243  70.886 117.608  0.00  0.00    -0.241 OA
ATOM     24  O   LIG d   1      -7.888  71.024 115.931  0.00  0.00    -0.241 OA
ENDBRANCH   3  22
TORSDOF 7
ENDMDL
MODEL 5
REMARK VINA RESULT:      -5.1      2.319      4.629
REMARK  7 active torsions:
REMARK  status: ('A' for Active; 'I' for Inactive)
REMARK    1  A    between atoms: C_2  and  C_3 
REMARK    2  A    between atoms: C_3  and  O_6 
REMARK    3  A    between atoms: C_3  and  C_4 
REMARK    4  A    between atoms: C_7  and  O_6 
REMARK    5  A    between atoms: C_9  and  C_10 
REMARK    6  A    between atoms: N_15  and  C_14 
REMARK    7  A    between atoms: N_20  and  C_19 
REMARK       I    between atoms: C_22  and  N_20 
ROOT
ATOM      1  C   LIG d   1      -8.560  74.945 119.548  0.00  0.00     0.161 C 
ATOM      2  C   LIG d   1      -9.945  75.161 119.458  0.00  0.00     0.016 C 
ATOM      3  C   LIG d   1     -10.517  76.386 119.045  0.00  0.00     0.038 C 
ATOM      4  C   LIG d   1      -9.734  77.438 118.546  0.00  0.00     0.028 C 
ATOM      5  C   LIG d   1      -8.311  77.447 119.094  0.00  0.00    -0.047 C 
ATOM      6  C   LIG d   1      -7.691  76.045 118.902  0.00  0.00     0.091 C 
ENDROOT
BRANCH   1   7
ATOM      7  O   LIG d   1      -8.229  73.656 118.996  0.00  0.00    -0.368 OA
BRANCH   7   8
ATOM      8  C   LIG d   1      -8.416  73.508 117.566  0.00  0.00     0.119 C 
BRANCH   8   9
ATOM      9  C   LIG d   1      -9.439  72.377 117.348  0.00  0.00     0.028 C 
ATOM     10  C   LIG d   1      -8.853  71.201 116.548  0.00  0.00     0.006 C 
ENDBRANCH   8   9
BRANCH   8  11
ATOM     11  C   LIG d   1      -7.131  73.030 116.883  0.00  0.00     0.028 C 
ATOM     12  C   LIG d   1      -6.476  74.118 116.017  0.00  0.00     0.006 C 
ENDBRANCH   8  11
ENDBRANCH   7   8
ENDBRANCH   1   7
BRANCH   6  13
ATOM     13  N   LIG d   1      -6.329  75.943 119.487  0.00  0.00    -0.311 N 
ATOM     14  C   LIG d   1      -5.219  76.260 118.822  0.00  0.00     0.210 C 
ATOM     15  C   LIG d   1      -3.917  76.063 119.604  0.00  0.00     0.109 C 
ATOM     16  O   LIG d   1      -5.192  76.718 117.670  0.00  0.00    -0.276 OA
ATOM     17  H   LIG d   1      -6.260  75.610 120.429  0.00  0.00     0.149 HD
ENDBRANCH   6  13
BRANCH   5  18
ATOM     18  N   LIG d   1      -7.569  78.509 118.389  0.00  0.00     0.381 N 
ATOM     19  H   LIG d   1      -7.884  79.406 118.699  0.00  0.00    -0.090 HD
ATOM     20  H   LIG d   1      -7.752  78.434 117.404  0.00  0.00    -0.090 HD
ATOM     21  H   LIG d   1      -6.592  78.414 118.561  0.00  0.00    -0.090 HD
ENDBRANCH   5  18
BRANCH   3  22
ATOM     22  C   LIG d   1     -11.884  76.582 119.166  0.00  0.00     0.382 C 
ATOM     23  O   LIG d   1     -12.353  77.096 120.210  0.00  0.00    -0.241 OA
ATOM     24  O   LIG d   1     -12.658  76.211 118.264  0.00  0.00    -0.241 OA
ENDBRANCH   3  22
TORSDOF 7
ENDMDL
MODEL 6
REMARK VINA RESULT:      -5.1      3.523      6.570
REMARK  7 active torsions:
REMARK  status: ('A' for Active; 'I' for Inactive)
REMARK    1  A    between atoms: C_2  and  C_3 
REMARK    2  A    between atoms: C_3  and  O_6 
REMARK    3  A    between atoms: C_3  and  C_4 
REMARK    4  A    between atoms: C_7  and  O_6 
REMARK    5  A    between atoms: C_9  and  C_10 
REMARK    6  A    between atoms: N_15  and  C_14 
REMARK    7  A    between atoms: N_20  and  C_19 
REMARK       I    between atoms: C_22  and  N_20 
ROOT
ATOM      1  C   LIG d   1      -4.317  74.704 116.974  0.00  0.00     0.161 C 
ATOM      2  C   LIG d   1      -3.440  74.307 117.998  0.00  0.00     0.016 C 
ATOM      3  C   LIG d   1      -2.037  74.237 117.836  0.00  0.00     0.038 C 
ATOM      4  C   LIG d   1      -1.399  74.707 116.679  0.00  0.00     0.028 C 
ATOM      5  C   LIG d   1      -2.279  74.642 115.434  0.00  0.00    -0.047 C 
ATOM      6  C   LIG d   1      -3.631  75.325 115.739  0.00  0.00     0.091 C 
ENDROOT
BRANCH   1   7
ATOM      7  O   LIG d   1      -5.310  75.605 117.503  0.00  0.00    -0.368 OA
BRANCH   7   8
ATOM      8  C   LIG d   1      -6.623  75.040 117.737  0.00  0.00     0.119 C 
BRANCH   8   9
ATOM      9  C   LIG d   1      -6.755  73.790 116.846  0.00  0.00     0.028 C 
ATOM     10  C   LIG d   1      -7.884  72.854 117.311  0.00  0.00     0.006 C 
ENDBRANCH   8   9
BRANCH   8  11
ATOM     11  C   LIG d   1      -7.730  75.990 117.270  0.00  0.00     0.028 C 
ATOM     12  C   LIG d   1      -7.520  77.433 117.754  0.00  0.00     0.006 C 
ENDBRANCH   8  11
ENDBRANCH   7   8
ENDBRANCH   1   7
BRANCH   6  13
ATOM     13  N   LIG d   1      -4.583  75.232 114.602  0.00  0.00    -0.311 N 
ATOM     14  C   LIG d   1      -4.613  76.107 113.598  0.00  0.00     0.210 C 
ATOM     15  C   LIG d   1      -5.685  75.838 112.537  0.00  0.00     0.109 C 
ATOM     16  O   LIG d   1      -3.832  77.062 113.468  0.00  0.00    -0.276 OA
ATOM     17  H   LIG d   1      -5.232  74.470 114.611  0.00  0.00     0.149 HD
ENDBRANCH   6  13
BRANCH   5  18
ATOM     18  N   LIG d   1      -1.540  75.288 114.333  0.00  0.00     0.381 N 
ATOM     19  H   LIG d   1      -1.924  76.194 114.153  0.00  0.00    -0.090 HD
ATOM     20  H   LIG d   1      -1.643  74.731 113.502  0.00  0.00    -0.090 HD
ATOM     21  H   LIG d   1      -0.576  75.369 114.570  0.00  0.00    -0.090 HD
ENDBRANCH   5  18
BRANCH   3  22
ATOM     22  C   LIG d   1      -1.260  73.655 118.826  0.00  0.00     0.382 C 
ATOM     23  O   LIG d   1      -1.435  72.452 119.134  0.00  0.00    -0.241 OA
ATOM     24  O   LIG d   1      -0.417  74.331 119.446  0.00  0.00    -0.241 OA
ENDBRANCH   3  22
TORSDOF 7
ENDMDL
MODEL 7
REMARK VINA RESULT:      -5.0      4.401      6.743
REMARK  7 active torsions:
REMARK  status: ('A' for Active; 'I' for Inactive)
REMARK    1  A    between atoms: C_2  and  C_3 
REMARK    2  A    between atoms: C_3  and  O_6 
REMARK    3  A    between atoms: C_3  and  C_4 
REMARK    4  A    between atoms: C_7  and  O_6 
REMARK    5  A    between atoms: C_9  and  C_10 
REMARK    6  A    between atoms: N_15  and  C_14 
REMARK    7  A    between atoms: N_20  and  C_19 
REMARK       I    between atoms: C_22  and  N_20 
ROOT
ATOM      1  C   LIG d   1      -3.408  75.585 116.419  0.00  0.00     0.161 C 
ATOM      2  C   LIG d   1      -3.301  74.737 117.534  0.00  0.00     0.016 C 
ATOM      3  C   LIG d   1      -2.073  74.428 118.162  0.00  0.00     0.038 C 
ATOM      4  C   LIG d   1      -0.877  75.070 117.809  0.00  0.00     0.028 C 
ATOM      5  C   LIG d   1      -0.853  75.552 116.363  0.00  0.00    -0.047 C 
ATOM      6  C   LIG d   1      -2.128  76.382 116.089  0.00  0.00     0.091 C 
ENDROOT
BRANCH   1   7
ATOM      7  O   LIG d   1      -4.525  76.479 116.590  0.00  0.00    -0.368 OA
BRANCH   7   8
ATOM      8  C   LIG d   1      -5.655  76.262 115.710  0.00  0.00     0.119 C 
BRANCH   8   9
ATOM      9  C   LIG d   1      -6.835  75.787 116.581  0.00  0.00     0.028 C 
ATOM     10  C   LIG d   1      -6.903  76.524 117.929  0.00  0.00     0.006 C 
ENDBRANCH   8   9
BRANCH   8  11
ATOM     11  C   LIG d   1      -5.387  75.116 114.731  0.00  0.00     0.028 C 
ATOM     12  C   LIG d   1      -5.318  75.585 113.269  0.00  0.00     0.006 C 
ENDBRANCH   8  11
ENDBRANCH   7   8
ENDBRANCH   1   7
BRANCH   6  13
ATOM     13  N   LIG d   1      -2.225  76.822 114.672  0.00  0.00    -0.311 N 
ATOM     14  C   LIG d   1      -2.601  78.047 114.309  0.00  0.00     0.210 C 
ATOM     15  C   LIG d   1      -2.653  78.285 112.797  0.00  0.00     0.109 C 
ATOM     16  O   LIG d   1      -2.865  78.968 115.096  0.00  0.00    -0.276 OA
ATOM     17  H   LIG d   1      -1.999  76.146 113.969  0.00  0.00     0.149 HD
ENDBRANCH   6  13
BRANCH   5  18
ATOM     18  N   LIG d   1       0.390  76.322 116.170  0.00  0.00     0.381 N 
ATOM     19  H   LIG d   1       0.862  76.003 115.348  0.00  0.00    -0.090 HD
ATOM     20  H   LIG d   1       0.993  76.169 116.959  0.00  0.00    -0.090 HD
ATOM     21  H   LIG d   1       0.181  77.293 116.086  0.00  0.00    -0.090 HD
ENDBRANCH   5  18
BRANCH   3  22
ATOM     22  C   LIG d   1      -2.027  73.436 119.131  0.00  0.00     0.382 C 
ATOM     23  O   LIG d   1      -1.677  72.272 118.820  0.00  0.00    -0.241 OA
ATOM     24  O   LIG d   1      -2.374  73.680 120.302  0.00  0.00    -0.241 OA
ENDBRANCH   3  22
TORSDOF 7
ENDMDL
MODEL 8
REMARK VINA RESULT:      -4.9      2.809      3.809
REMARK  7 active torsions:
REMARK  status: ('A' for Active; 'I' for Inactive)
REMARK    1  A    between atoms: C_2  and  C_3 
REMARK    2  A    between atoms: C_3  and  O_6 
REMARK    3  A    between atoms: C_3  and  C_4 
REMARK    4  A    between atoms: C_7  and  O_6 
REMARK    5  A    between atoms: C_9  and  C_10 
REMARK    6  A    between atoms: N_15  and  C_14 
REMARK    7  A    between atoms: N_20  and  C_19 
REMARK       I    between atoms: C_22  and  N_20 
ROOT
ATOM      1  C   LIG d   1      -7.005  77.368 117.544  0.00  0.00     0.161 C 
ATOM      2  C   LIG d   1      -8.134  76.532 117.566  0.00  0.00     0.016 C 
ATOM      3  C   LIG d   1      -9.397  76.943 118.050  0.00  0.00     0.038 C 
ATOM      4  C   LIG d   1      -9.657  78.275 118.406  0.00  0.00     0.028 C 
ATOM      5  C   LIG d   1      -8.418  79.029 118.875  0.00  0.00    -0.047 C 
ATOM      6  C   LIG d   1      -7.297  78.857 117.825  0.00  0.00     0.091 C 
ENDROOT
BRANCH   1   7
ATOM      7  O   LIG d   1      -6.313  77.221 116.288  0.00  0.00    -0.368 OA
BRANCH   7   8
ATOM      8  C   LIG d   1      -6.095  75.862 115.836  0.00  0.00     0.119 C 
BRANCH   8   9
ATOM      9  C   LIG d   1      -4.633  75.496 116.157  0.00  0.00     0.028 C 
ATOM     10  C   LIG d   1      -4.524  74.423 117.254  0.00  0.00     0.006 C 
ENDBRANCH   8   9
BRANCH   8  11
ATOM     11  C   LIG d   1      -6.213  75.756 114.312  0.00  0.00     0.028 C 
ATOM     12  C   LIG d   1      -4.886  75.376 113.636  0.00  0.00     0.006 C 
ENDBRANCH   8  11
ENDBRANCH   7   8
ENDBRANCH   1   7
BRANCH   6  13
ATOM     13  N   LIG d   1      -6.022  79.494 118.246  0.00  0.00    -0.311 N 
ATOM     14  C   LIG d   1      -5.648  80.712 117.859  0.00  0.00     0.210 C 
ATOM     15  C   LIG d   1      -4.288  81.171 118.392  0.00  0.00     0.109 C 
ATOM     16  O   LIG d   1      -6.329  81.469 117.150  0.00  0.00    -0.276 OA
ATOM     17  H   LIG d   1      -5.423  78.962 118.847  0.00  0.00     0.149 HD
ENDBRANCH   6  13
BRANCH   5  18
ATOM     18  N   LIG d   1      -8.805  80.438 119.082  0.00  0.00     0.381 N 
ATOM     19  H   LIG d   1      -9.618  80.484 119.663  0.00  0.00    -0.090 HD
ATOM     20  H   LIG d   1      -9.030  80.847 118.192  0.00  0.00    -0.090 HD
ATOM     21  H   LIG d   1      -8.056  80.939 119.506  0.00  0.00    -0.090 HD
ENDBRANCH   5  18
BRANCH   3  22
ATOM     22  C   LIG d   1     -10.406  76.007 118.218  0.00  0.00     0.382 C 
ATOM     23  O   LIG d   1     -11.608  76.361 118.147  0.00  0.00    -0.241 OA
ATOM     24  O   LIG d   1     -10.131  74.822 118.484  0.00  0.00    -0.241 OA
ENDBRANCH   3  22
TORSDOF 7
ENDMDL
MODEL 9
REMARK VINA RESULT:      -4.8     11.096     14.531
REMARK  7 active torsions:
REMARK  status: ('A' for Active; 'I' for Inactive)
REMARK    1  A    between atoms: C_2  and  C_3 
REMARK    2  A    between atoms: C_3  and  O_6 
REMARK    3  A    between atoms: C_3  and  C_4 
REMARK    4  A    between atoms: C_7  and  O_6 
REMARK    5  A    between atoms: C_9  and  C_10 
REMARK    6  A    between atoms: N_15  and  C_14 
REMARK    7  A    between atoms: N_20  and  C_19 
REMARK       I    between atoms: C_22  and  N_20 
ROOT
ATOM      1  C   LIG d   1     -16.716  64.653 115.346  0.00  0.00     0.161 C 
ATOM      2  C   LIG d   1     -16.337  65.586 114.366  0.00  0.00     0.016 C 
ATOM      3  C   LIG d   1     -15.455  66.661 114.617  0.00  0.00     0.038 C 
ATOM      4  C   LIG d   1     -14.768  66.790 115.834  0.00  0.00     0.028 C 
ATOM      5  C   LIG d   1     -15.504  66.163 117.013  0.00  0.00    -0.047 C 
ATOM      6  C   LIG d   1     -15.892  64.711 116.649  0.00  0.00     0.091 C 
ENDROOT
BRANCH   1   7
ATOM      7  O   LIG d   1     -16.684  63.322 114.792  0.00  0.00    -0.368 OA
BRANCH   7   8
ATOM      8  C   LIG d   1     -17.954  62.628 114.726  0.00  0.00     0.119 C 
BRANCH   8   9
ATOM      9  C   LIG d   1     -17.762  61.249 115.386  0.00  0.00     0.028 C 
ATOM     10  C   LIG d   1     -17.099  60.233 114.441  0.00  0.00     0.006 C 
ENDBRANCH   8   9
BRANCH   8  11
ATOM     11  C   LIG d   1     -18.353  62.332 113.278  0.00  0.00     0.028 C 
ATOM     12  C   LIG d   1     -18.979  63.546 112.572  0.00  0.00     0.006 C 
ENDBRANCH   8  11
ENDBRANCH   7   8
ENDBRANCH   1   7
BRANCH   6  13
ATOM     13  N   LIG d   1     -16.689  64.052 117.716  0.00  0.00    -0.311 N 
ATOM     14  C   LIG d   1     -16.261  62.995 118.404  0.00  0.00     0.210 C 
ATOM     15  C   LIG d   1     -17.248  62.459 119.445  0.00  0.00     0.109 C 
ATOM     16  O   LIG d   1     -15.145  62.471 118.273  0.00  0.00    -0.276 OA
ATOM     17  H   LIG d   1     -17.595  64.432 117.909  0.00  0.00     0.149 HD
ENDBRANCH   6  13
BRANCH   5  18
ATOM     18  N   LIG d   1     -14.616  66.246 118.188  0.00  0.00     0.381 N 
ATOM     19  H   LIG d   1     -15.020  65.746 118.954  0.00  0.00    -0.090 HD
ATOM     20  H   LIG d   1     -14.521  67.210 118.455  0.00  0.00    -0.090 HD
ATOM     21  H   LIG d   1     -13.722  65.865 117.968  0.00  0.00    -0.090 HD
ENDBRANCH   5  18
BRANCH   3  22
ATOM     22  C   LIG d   1     -15.282  67.646 113.656  0.00  0.00     0.382 C 
ATOM     23  O   LIG d   1     -14.943  68.805 114.000  0.00  0.00    -0.241 OA
ATOM     24  O   LIG d   1     -15.503  67.403 112.455  0.00  0.00    -0.241 OA
ENDBRANCH   3  22
TORSDOF 7
ENDMDL
