MODEL 1
REMARK VINA RESULT:      -6.2      0.000      0.000
REMARK  7 active torsions:
REMARK  status: ('A' for Active; 'I' for Inactive)
REMARK    1  A    between atoms: C_2  and  C_3 
REMARK    2  A    between atoms: C_3  and  O_6 
REMARK    3  A    between atoms: C_3  and  C_4 
REMARK    4  A    between atoms: C_7  and  O_6 
REMARK    5  A    between atoms: C_9  and  C_10 
REMARK    6  A    between atoms: N_15  and  C_14 
REMARK    7  A    between atoms: N_20  and  C_19 
REMARK       I    between atoms: C_22  and  N_20 
ROOT
ATOM      1  C   LIG d   1      -7.253  77.463 117.294  0.00  0.00     0.161 C 
ATOM      2  C   LIG d   1      -8.485  78.112 117.484  0.00  0.00     0.016 C 
ATOM      3  C   LIG d   1      -8.603  79.497 117.744  0.00  0.00     0.038 C 
ATOM      4  C   LIG d   1      -7.499  80.360 117.681  0.00  0.00     0.028 C 
ATOM      5  C   LIG d   1      -6.174  79.672 117.993  0.00  0.00    -0.047 C 
ATOM      6  C   LIG d   1      -6.046  78.407 117.112  0.00  0.00     0.091 C 
ENDROOT
BRANCH   1   7
ATOM      7  O   LIG d   1      -7.348  76.551 116.182  0.00  0.00    -0.368 OA
BRANCH   7   8
ATOM      8  C   LIG d   1      -7.613  75.166 116.515  0.00  0.00     0.119 C 
BRANCH   8   9
ATOM      9  C   LIG d   1      -6.503  74.314 115.870  0.00  0.00     0.028 C 
ATOM     10  C   LIG d   1      -5.902  74.981 114.621  0.00  0.00     0.006 C 
ENDBRANCH   8   9
BRANCH   8  11
ATOM     11  C   LIG d   1      -8.919  74.680 115.879  0.00  0.00     0.028 C 
ATOM     12  C   LIG d   1      -9.052  73.149 115.886  0.00  0.00     0.006 C 
ENDBRANCH   8  11
ENDBRANCH   7   8
ENDBRANCH   1   7
BRANCH   6  13
ATOM     13  N   LIG d   1      -4.817  77.628 117.414  0.00  0.00    -0.311 N 
ATOM     14  C   LIG d   1      -3.863  77.387 116.516  0.00  0.00     0.210 C 
ATOM     15  C   LIG d   1      -2.689  76.547 117.029  0.00  0.00     0.109 C 
ATOM     16  O   LIG d   1      -3.862  77.817 115.353  0.00  0.00    -0.276 OA
ATOM     17  H   LIG d   1      -4.721  77.269 118.344  0.00  0.00     0.149 HD
ENDBRANCH   6  13
BRANCH   5  18
ATOM     18  N   LIG d   1      -5.097  80.651 117.757  0.00  0.00     0.381 N 
ATOM     19  H   LIG d   1      -4.467  80.657 118.535  0.00  0.00    -0.090 HD
ATOM     20  H   LIG d   1      -5.502  81.567 117.673  0.00  0.00    -0.090 HD
ATOM     21  H   LIG d   1      -4.603  80.421 116.923  0.00  0.00    -0.090 HD
ENDBRANCH   5  18
BRANCH   3  22
ATOM     22  C   LIG d   1      -9.832  80.025 118.109  0.00  0.00     0.382 C 
ATOM     23  O   LIG d   1     -10.311  79.772 119.241  0.00  0.00    -0.241 OA
ATOM     24  O   LIG d   1     -10.487  80.715 117.306  0.00  0.00    -0.241 OA
ENDBRANCH   3  22
TORSDOF 7
ENDMDL
MODEL 2
REMARK VINA RESULT:      -6.0      1.293      1.929
REMARK  7 active torsions:
REMARK  status: ('A' for Active; 'I' for Inactive)
REMARK    1  A    between atoms: C_2  and  C_3 
REMARK    2  A    between atoms: C_3  and  O_6 
REMARK    3  A    between atoms: C_3  and  C_4 
REMARK    4  A    between atoms: C_7  and  O_6 
REMARK    5  A    between atoms: C_9  and  C_10 
REMARK    6  A    between atoms: N_15  and  C_14 
REMARK    7  A    between atoms: N_20  and  C_19 
REMARK       I    between atoms: C_22  and  N_20 
ROOT
ATOM      1  C   LIG d   1      -6.988  76.803 116.626  0.00  0.00     0.161 C 
ATOM      2  C   LIG d   1      -8.054  77.568 117.126  0.00  0.00     0.016 C 
ATOM      3  C   LIG d   1      -7.906  78.890 117.606  0.00  0.00     0.038 C 
ATOM      4  C   LIG d   1      -6.699  79.594 117.477  0.00  0.00     0.028 C 
ATOM      5  C   LIG d   1      -5.471  78.690 117.442  0.00  0.00    -0.047 C 
ATOM      6  C   LIG d   1      -5.686  77.593 116.375  0.00  0.00     0.091 C 
ENDROOT
BRANCH   1   7
ATOM      7  O   LIG d   1      -7.398  76.118 115.426  0.00  0.00    -0.368 OA
BRANCH   7   8
ATOM      8  C   LIG d   1      -7.621  74.692 115.550  0.00  0.00     0.119 C 
BRANCH   8   9
ATOM      9  C   LIG d   1      -9.115  74.484 115.868  0.00  0.00     0.028 C 
ATOM     10  C   LIG d   1      -9.511  72.998 115.876  0.00  0.00     0.006 C 
ENDBRANCH   8   9
BRANCH   8  11
ATOM     11  C   LIG d   1      -6.866  74.112 116.749  0.00  0.00     0.028 C 
ATOM     12  C   LIG d   1      -5.867  73.014 116.350  0.00  0.00     0.006 C 
ENDBRANCH   8  11
ENDBRANCH   7   8
ENDBRANCH   1   7
BRANCH   6  13
ATOM     13  N   LIG d   1      -4.567  76.615 116.334  0.00  0.00    -0.311 N 
ATOM     14  C   LIG d   1      -4.033  76.160 115.202  0.00  0.00     0.210 C 
ATOM     15  C   LIG d   1      -2.903  75.142 115.384  0.00  0.00     0.109 C 
ATOM     16  O   LIG d   1      -4.367  76.525 114.065  0.00  0.00    -0.276 OA
ATOM     17  H   LIG d   1      -4.214  76.289 117.212  0.00  0.00     0.149 HD
ENDBRANCH   6  13
BRANCH   5  18
ATOM     18  N   LIG d   1      -4.299  79.542 117.167  0.00  0.00     0.381 N 
ATOM     19  H   LIG d   1      -3.965  79.371 116.240  0.00  0.00    -0.090 HD
ATOM     20  H   LIG d   1      -3.567  79.307 117.814  0.00  0.00    -0.090 HD
ATOM     21  H   LIG d   1      -4.544  80.503 117.267  0.00  0.00    -0.090 HD
ENDBRANCH   5  18
BRANCH   3  22
ATOM     22  C   LIG d   1      -8.962  79.507 118.259  0.00  0.00     0.382 C 
ATOM     23  O   LIG d   1     -10.132  79.082 118.098  0.00  0.00    -0.241 OA
ATOM     24  O   LIG d   1      -8.766  80.509 118.971  0.00  0.00    -0.241 OA
ENDBRANCH   3  22
TORSDOF 7
ENDMDL
MODEL 3
REMARK VINA RESULT:      -5.9      2.481      5.472
REMARK  7 active torsions:
REMARK  status: ('A' for Active; 'I' for Inactive)
REMARK    1  A    between atoms: C_2  and  C_3 
REMARK    2  A    between atoms: C_3  and  O_6 
REMARK    3  A    between atoms: C_3  and  C_4 
REMARK    4  A    between atoms: C_7  and  O_6 
REMARK    5  A    between atoms: C_9  and  C_10 
REMARK    6  A    between atoms: N_15  and  C_14 
REMARK    7  A    between atoms: N_20  and  C_19 
REMARK       I    between atoms: C_22  and  N_20 
ROOT
ATOM      1  C   LIG d   1      -6.379  76.051 115.142  0.00  0.00     0.161 C 
ATOM      2  C   LIG d   1      -7.360  75.084 115.420  0.00  0.00     0.016 C 
ATOM      3  C   LIG d   1      -7.058  73.764 115.825  0.00  0.00     0.038 C 
ATOM      4  C   LIG d   1      -5.749  73.361 116.127  0.00  0.00     0.028 C 
ATOM      5  C   LIG d   1      -4.683  74.153 115.376  0.00  0.00    -0.047 C 
ATOM      6  C   LIG d   1      -4.949  75.663 115.573  0.00  0.00     0.091 C 
ENDROOT
BRANCH   1   7
ATOM      7  O   LIG d   1      -6.755  77.312 115.729  0.00  0.00    -0.368 OA
BRANCH   7   8
ATOM      8  C   LIG d   1      -6.390  77.502 117.119  0.00  0.00     0.119 C 
BRANCH   8   9
ATOM      9  C   LIG d   1      -7.680  77.829 117.895  0.00  0.00     0.028 C 
ATOM     10  C   LIG d   1      -8.213  79.237 117.580  0.00  0.00     0.006 C 
ENDBRANCH   8   9
BRANCH   8  11
ATOM     11  C   LIG d   1      -5.488  78.727 117.296  0.00  0.00     0.028 C 
ATOM     12  C   LIG d   1      -4.569  78.617 118.522  0.00  0.00     0.006 C 
ENDBRANCH   8  11
ENDBRANCH   7   8
ENDBRANCH   1   7
BRANCH   6  13
ATOM     13  N   LIG d   1      -4.001  76.510 114.802  0.00  0.00    -0.311 N 
ATOM     14  C   LIG d   1      -2.859  76.975 115.304  0.00  0.00     0.210 C 
ATOM     15  C   LIG d   1      -2.039  77.846 114.346  0.00  0.00     0.109 C 
ATOM     16  O   LIG d   1      -2.431  76.723 116.440  0.00  0.00    -0.276 OA
ATOM     17  H   LIG d   1      -4.255  76.737 113.861  0.00  0.00     0.149 HD
ENDBRANCH   6  13
BRANCH   5  18
ATOM     18  N   LIG d   1      -3.367  73.725 115.887  0.00  0.00     0.381 N 
ATOM     19  H   LIG d   1      -2.911  74.496 116.334  0.00  0.00    -0.090 HD
ATOM     20  H   LIG d   1      -2.799  73.428 115.114  0.00  0.00    -0.090 HD
ATOM     21  H   LIG d   1      -3.480  72.976 116.534  0.00  0.00    -0.090 HD
ENDBRANCH   5  18
BRANCH   3  22
ATOM     22  C   LIG d   1      -8.070  72.818 115.893  0.00  0.00     0.382 C 
ATOM     23  O   LIG d   1      -9.270  73.183 115.894  0.00  0.00    -0.241 OA
ATOM     24  O   LIG d   1      -7.797  71.607 115.999  0.00  0.00    -0.241 OA
ENDBRANCH   3  22
TORSDOF 7
ENDMDL
MODEL 4
REMARK VINA RESULT:      -5.9      2.128      5.351
REMARK  7 active torsions:
REMARK  status: ('A' for Active; 'I' for Inactive)
REMARK    1  A    between atoms: C_2  and  C_3 
REMARK    2  A    between atoms: C_3  and  O_6 
REMARK    3  A    between atoms: C_3  and  C_4 
REMARK    4  A    between atoms: C_7  and  O_6 
REMARK    5  A    between atoms: C_9  and  C_10 
REMARK    6  A    between atoms: N_15  and  C_14 
REMARK    7  A    between atoms: N_20  and  C_19 
REMARK       I    between atoms: C_22  and  N_20 
ROOT
ATOM      1  C   LIG d   1      -6.719  76.192 116.479  0.00  0.00     0.161 C 
ATOM      2  C   LIG d   1      -7.615  75.111 116.434  0.00  0.00     0.016 C 
ATOM      3  C   LIG d   1      -7.211  73.775 116.209  0.00  0.00     0.038 C 
ATOM      4  C   LIG d   1      -5.858  73.407 116.164  0.00  0.00     0.028 C 
ATOM      5  C   LIG d   1      -4.939  74.532 115.700  0.00  0.00    -0.047 C 
ATOM      6  C   LIG d   1      -5.229  75.796 116.542  0.00  0.00     0.091 C 
ENDROOT
BRANCH   1   7
ATOM      7  O   LIG d   1      -7.054  77.059 117.581  0.00  0.00    -0.368 OA
BRANCH   7   8
ATOM      8  C   LIG d   1      -7.411  78.420 117.236  0.00  0.00     0.119 C 
BRANCH   8   9
ATOM      9  C   LIG d   1      -6.486  79.358 118.034  0.00  0.00     0.028 C 
ATOM     10  C   LIG d   1      -6.044  78.745 119.374  0.00  0.00     0.006 C 
ENDBRANCH   8   9
BRANCH   8  11
ATOM     11  C   LIG d   1      -8.831  78.759 117.700  0.00  0.00     0.028 C 
ATOM     12  C   LIG d   1      -9.134  80.264 117.640  0.00  0.00     0.006 C 
ENDBRANCH   8  11
ENDBRANCH   7   8
ENDBRANCH   1   7
BRANCH   6  13
ATOM     13  N   LIG d   1      -4.432  76.969 116.098  0.00  0.00    -0.311 N 
ATOM     14  C   LIG d   1      -3.501  77.550 116.852  0.00  0.00     0.210 C 
ATOM     15  C   LIG d   1      -2.811  78.758 116.210  0.00  0.00     0.109 C 
ATOM     16  O   LIG d   1      -3.159  77.161 117.978  0.00  0.00    -0.276 OA
ATOM     17  H   LIG d   1      -4.624  77.330 115.184  0.00  0.00     0.149 HD
ENDBRANCH   6  13
BRANCH   5  18
ATOM     18  N   LIG d   1      -3.550  74.056 115.832  0.00  0.00     0.381 N 
ATOM     19  H   LIG d   1      -3.482  73.416 116.598  0.00  0.00    -0.090 HD
ATOM     20  H   LIG d   1      -2.953  74.842 116.023  0.00  0.00    -0.090 HD
ATOM     21  H   LIG d   1      -3.261  73.608 114.990  0.00  0.00    -0.090 HD
ENDBRANCH   5  18
BRANCH   3  22
ATOM     22  C   LIG d   1      -8.168  72.796 115.986  0.00  0.00     0.382 C 
ATOM     23  O   LIG d   1      -9.371  73.118 115.837  0.00  0.00    -0.241 OA
ATOM     24  O   LIG d   1      -7.849  71.592 115.978  0.00  0.00    -0.241 OA
ENDBRANCH   3  22
TORSDOF 7
ENDMDL
MODEL 5
REMARK VINA RESULT:      -5.5      2.957      5.464
REMARK  7 active torsions:
REMARK  status: ('A' for Active; 'I' for Inactive)
REMARK    1  A    between atoms: C_2  and  C_3 
REMARK    2  A    between atoms: C_3  and  O_6 
REMARK    3  A    between atoms: C_3  and  C_4 
REMARK    4  A    between atoms: C_7  and  O_6 
REMARK    5  A    between atoms: C_9  and  C_10 
REMARK    6  A    between atoms: N_15  and  C_14 
REMARK    7  A    between atoms: N_20  and  C_19 
REMARK       I    between atoms: C_22  and  N_20 
ROOT
ATOM      1  C   LIG d   1      -4.945  74.813 116.492  0.00  0.00     0.161 C 
ATOM      2  C   LIG d   1      -5.800  73.763 116.119  0.00  0.00     0.016 C 
ATOM      3  C   LIG d   1      -7.209  73.882 116.083  0.00  0.00     0.038 C 
ATOM      4  C   LIG d   1      -7.854  75.114 116.273  0.00  0.00     0.028 C 
ATOM      5  C   LIG d   1      -7.064  76.083 117.146  0.00  0.00    -0.047 C 
ATOM      6  C   LIG d   1      -5.624  76.195 116.595  0.00  0.00     0.091 C 
ENDROOT
BRANCH   1   7
ATOM      7  O   LIG d   1      -3.822  74.873 115.589  0.00  0.00    -0.368 OA
BRANCH   7   8
ATOM      8  C   LIG d   1      -2.561  75.289 116.168  0.00  0.00     0.119 C 
BRANCH   8   9
ATOM      9  C   LIG d   1      -1.921  76.305 115.202  0.00  0.00     0.028 C 
ATOM     10  C   LIG d   1      -1.030  77.325 115.930  0.00  0.00     0.006 C 
ENDBRANCH   8   9
BRANCH   8  11
ATOM     11  C   LIG d   1      -1.571  74.122 116.243  0.00  0.00     0.028 C 
ATOM     12  C   LIG d   1      -0.930  73.974 117.632  0.00  0.00     0.006 C 
ENDBRANCH   8  11
ENDBRANCH   7   8
ENDBRANCH   1   7
BRANCH   6  13
ATOM     13  N   LIG d   1      -4.759  77.059 117.440  0.00  0.00    -0.311 N 
ATOM     14  C   LIG d   1      -4.580  78.360 117.216  0.00  0.00     0.210 C 
ATOM     15  C   LIG d   1      -3.632  79.060 118.196  0.00  0.00     0.109 C 
ATOM     16  O   LIG d   1      -5.140  79.007 116.319  0.00  0.00    -0.276 OA
ATOM     17  H   LIG d   1      -4.291  76.622 118.210  0.00  0.00     0.149 HD
ENDBRANCH   6  13
BRANCH   5  18
ATOM     18  N   LIG d   1      -7.784  77.370 117.148  0.00  0.00     0.381 N 
ATOM     19  H   LIG d   1      -8.702  77.243 117.525  0.00  0.00    -0.090 HD
ATOM     20  H   LIG d   1      -7.874  77.693 116.201  0.00  0.00    -0.090 HD
ATOM     21  H   LIG d   1      -7.284  78.040 117.690  0.00  0.00    -0.090 HD
ENDBRANCH   5  18
BRANCH   3  22
ATOM     22  C   LIG d   1      -7.989  72.752 115.893  0.00  0.00     0.382 C 
ATOM     23  O   LIG d   1      -9.239  72.854 115.843  0.00  0.00    -0.241 OA
ATOM     24  O   LIG d   1      -7.462  71.626 115.816  0.00  0.00    -0.241 OA
ENDBRANCH   3  22
TORSDOF 7
ENDMDL
MODEL 6
REMARK VINA RESULT:      -5.2     12.380     14.211
REMARK  7 active torsions:
REMARK  status: ('A' for Active; 'I' for Inactive)
REMARK    1  A    between atoms: C_2  and  C_3 
REMARK    2  A    between atoms: C_3  and  O_6 
REMARK    3  A    between atoms: C_3  and  C_4 
REMARK    4  A    between atoms: C_7  and  O_6 
REMARK    5  A    between atoms: C_9  and  C_10 
REMARK    6  A    between atoms: N_15  and  C_14 
REMARK    7  A    between atoms: N_20  and  C_19 
REMARK       I    between atoms: C_22  and  N_20 
ROOT
ATOM      1  C   LIG d   1      -4.069  90.529 117.471  0.00  0.00     0.161 C 
ATOM      2  C   LIG d   1      -4.954  89.816 116.645  0.00  0.00     0.016 C 
ATOM      3  C   LIG d   1      -6.232  90.296 116.276  0.00  0.00     0.038 C 
ATOM      4  C   LIG d   1      -6.653  91.598 116.587  0.00  0.00     0.028 C 
ATOM      5  C   LIG d   1      -5.999  92.162 117.844  0.00  0.00    -0.047 C 
ATOM      6  C   LIG d   1      -4.467  91.998 117.729  0.00  0.00     0.091 C 
ENDROOT
BRANCH   1   7
ATOM      7  O   LIG d   1      -2.734  90.459 116.933  0.00  0.00    -0.368 OA
BRANCH   7   8
ATOM      8  C   LIG d   1      -1.912  89.365 117.409  0.00  0.00     0.119 C 
BRANCH   8   9
ATOM      9  C   LIG d   1      -2.186  89.203 118.917  0.00  0.00     0.028 C 
ATOM     10  C   LIG d   1      -1.152  89.940 119.785  0.00  0.00     0.006 C 
ENDBRANCH   8   9
BRANCH   8  11
ATOM     11  C   LIG d   1      -0.421  89.702 117.303  0.00  0.00     0.028 C 
ATOM     12  C   LIG d   1       0.437  88.488 116.914  0.00  0.00     0.006 C 
ENDBRANCH   8  11
ENDBRANCH   7   8
ENDBRANCH   1   7
BRANCH   6  13
ATOM     13  N   LIG d   1      -3.755  92.447 118.954  0.00  0.00    -0.311 N 
ATOM     14  C   LIG d   1      -2.668  93.217 118.929  0.00  0.00     0.210 C 
ATOM     15  C   LIG d   1      -2.079  93.549 120.304  0.00  0.00     0.109 C 
ATOM     16  O   LIG d   1      -2.155  93.684 117.901  0.00  0.00    -0.276 OA
ATOM     17  H   LIG d   1      -4.122  92.141 119.833  0.00  0.00     0.149 HD
ENDBRANCH   6  13
BRANCH   5  18
ATOM     18  N   LIG d   1      -6.422  93.569 117.973  0.00  0.00     0.381 N 
ATOM     19  H   LIG d   1      -7.181  93.754 117.347  0.00  0.00    -0.090 HD
ATOM     20  H   LIG d   1      -5.653  94.164 117.721  0.00  0.00    -0.090 HD
ATOM     21  H   LIG d   1      -6.703  93.756 118.911  0.00  0.00    -0.090 HD
ENDBRANCH   5  18
BRANCH   3  22
ATOM     22  C   LIG d   1      -7.119  89.456 115.621  0.00  0.00     0.382 C 
ATOM     23  O   LIG d   1      -7.044  89.312 114.376  0.00  0.00    -0.241 OA
ATOM     24  O   LIG d   1      -8.021  88.874 116.252  0.00  0.00    -0.241 OA
ENDBRANCH   3  22
TORSDOF 7
ENDMDL
MODEL 7
REMARK VINA RESULT:      -5.1      1.581      4.973
REMARK  7 active torsions:
REMARK  status: ('A' for Active; 'I' for Inactive)
REMARK    1  A    between atoms: C_2  and  C_3 
REMARK    2  A    between atoms: C_3  and  O_6 
REMARK    3  A    between atoms: C_3  and  C_4 
REMARK    4  A    between atoms: C_7  and  O_6 
REMARK    5  A    between atoms: C_9  and  C_10 
REMARK    6  A    between atoms: N_15  and  C_14 
REMARK    7  A    between atoms: N_20  and  C_19 
REMARK       I    between atoms: C_22  and  N_20 
ROOT
ATOM      1  C   LIG d   1      -6.167  77.257 116.983  0.00  0.00     0.161 C 
ATOM      2  C   LIG d   1      -4.819  76.866 116.916  0.00  0.00     0.016 C 
ATOM      3  C   LIG d   1      -3.768  77.585 117.529  0.00  0.00     0.038 C 
ATOM      4  C   LIG d   1      -4.013  78.671 118.384  0.00  0.00     0.028 C 
ATOM      5  C   LIG d   1      -5.313  79.404 118.075  0.00  0.00    -0.047 C 
ATOM      6  C   LIG d   1      -6.465  78.376 118.004  0.00  0.00     0.091 C 
ENDROOT
BRANCH   1   7
ATOM      7  O   LIG d   1      -6.997  76.108 117.242  0.00  0.00    -0.368 OA
BRANCH   7   8
ATOM      8  C   LIG d   1      -7.352  75.305 116.090  0.00  0.00     0.119 C 
BRANCH   8   9
ATOM      9  C   LIG d   1      -8.880  75.110 116.114  0.00  0.00     0.028 C 
ATOM     10  C   LIG d   1      -9.290  73.653 115.845  0.00  0.00     0.006 C 
ENDBRANCH   8   9
BRANCH   8  11
ATOM     11  C   LIG d   1      -6.762  73.895 116.191  0.00  0.00     0.028 C 
ATOM     12  C   LIG d   1      -5.494  73.717 115.341  0.00  0.00     0.006 C 
ENDBRANCH   8  11
ENDBRANCH   7   8
ENDBRANCH   1   7
BRANCH   6  13
ATOM     13  N   LIG d   1      -7.759  78.999 117.622  0.00  0.00    -0.311 N 
ATOM     14  C   LIG d   1      -8.651  79.437 118.509  0.00  0.00     0.210 C 
ATOM     15  C   LIG d   1      -9.928  80.028 117.903  0.00  0.00     0.109 C 
ATOM     16  O   LIG d   1      -8.492  79.422 119.739  0.00  0.00    -0.276 OA
ATOM     17  H   LIG d   1      -7.956  79.080 116.644  0.00  0.00     0.149 HD
ENDBRANCH   6  13
BRANCH   5  18
ATOM     18  N   LIG d   1      -5.511  80.422 119.124  0.00  0.00     0.381 N 
ATOM     19  H   LIG d   1      -5.146  81.301 118.815  0.00  0.00    -0.090 HD
ATOM     20  H   LIG d   1      -5.007  80.143 119.947  0.00  0.00    -0.090 HD
ATOM     21  H   LIG d   1      -6.481  80.512 119.334  0.00  0.00    -0.090 HD
ENDBRANCH   5  18
BRANCH   3  22
ATOM     22  C   LIG d   1      -2.452  77.245 117.256  0.00  0.00     0.382 C 
ATOM     23  O   LIG d   1      -1.734  78.015 116.574  0.00  0.00    -0.241 OA
ATOM     24  O   LIG d   1      -1.987  76.157 117.646  0.00  0.00    -0.241 OA
ENDBRANCH   3  22
TORSDOF 7
ENDMDL
MODEL 8
REMARK VINA RESULT:      -4.8      3.862      6.338
REMARK  7 active torsions:
REMARK  status: ('A' for Active; 'I' for Inactive)
REMARK    1  A    between atoms: C_2  and  C_3 
REMARK    2  A    between atoms: C_3  and  O_6 
REMARK    3  A    between atoms: C_3  and  C_4 
REMARK    4  A    between atoms: C_7  and  O_6 
REMARK    5  A    between atoms: C_9  and  C_10 
REMARK    6  A    between atoms: N_15  and  C_14 
REMARK    7  A    between atoms: N_20  and  C_19 
REMARK       I    between atoms: C_22  and  N_20 
ROOT
ATOM      1  C   LIG d   1      -2.513  77.048 116.072  0.00  0.00     0.161 C 
ATOM      2  C   LIG d   1      -3.770  76.890 115.465  0.00  0.00     0.016 C 
ATOM      3  C   LIG d   1      -4.328  75.630 115.147  0.00  0.00     0.038 C 
ATOM      4  C   LIG d   1      -3.728  74.429 115.555  0.00  0.00     0.028 C 
ATOM      5  C   LIG d   1      -2.216  74.534 115.723  0.00  0.00    -0.047 C 
ATOM      6  C   LIG d   1      -1.894  75.747 116.625  0.00  0.00     0.091 C 
ENDROOT
BRANCH   1   7
ATOM      7  O   LIG d   1      -2.594  78.045 117.110  0.00  0.00    -0.368 OA
BRANCH   7   8
ATOM      8  C   LIG d   1      -3.879  78.696 117.270  0.00  0.00     0.119 C 
BRANCH   8   9
ATOM      9  C   LIG d   1      -3.636  80.217 117.225  0.00  0.00     0.028 C 
ATOM     10  C   LIG d   1      -3.201  80.782 118.588  0.00  0.00     0.006 C 
ENDBRANCH   8   9
BRANCH   8  11
ATOM     11  C   LIG d   1      -4.474  78.421 118.653  0.00  0.00     0.028 C 
ATOM     12  C   LIG d   1      -5.977  78.104 118.603  0.00  0.00     0.006 C 
ENDBRANCH   8  11
ENDBRANCH   7   8
ENDBRANCH   1   7
BRANCH   6  13
ATOM     13  N   LIG d   1      -0.433  75.972 116.773  0.00  0.00    -0.311 N 
ATOM     14  C   LIG d   1       0.302  75.413 117.733  0.00  0.00     0.210 C 
ATOM     15  C   LIG d   1       1.786  75.793 117.716  0.00  0.00     0.109 C 
ATOM     16  O   LIG d   1      -0.128  74.612 118.577  0.00  0.00    -0.276 OA
ATOM     17  H   LIG d   1       0.004  76.584 116.111  0.00  0.00     0.149 HD
ENDBRANCH   6  13
BRANCH   5  18
ATOM     18  N   LIG d   1      -1.740  73.255 116.283  0.00  0.00     0.381 N 
ATOM     19  H   LIG d   1      -1.141  73.429 117.065  0.00  0.00    -0.090 HD
ATOM     20  H   LIG d   1      -1.209  72.770 115.581  0.00  0.00    -0.090 HD
ATOM     21  H   LIG d   1      -2.515  72.697 116.567  0.00  0.00    -0.090 HD
ENDBRANCH   5  18
BRANCH   3  22
ATOM     22  C   LIG d   1      -5.479  75.562 114.377  0.00  0.00     0.382 C 
ATOM     23  O   LIG d   1      -5.554  76.207 113.304  0.00  0.00    -0.241 OA
ATOM     24  O   LIG d   1      -6.461  74.901 114.766  0.00  0.00    -0.241 OA
ENDBRANCH   3  22
TORSDOF 7
ENDMDL
MODEL 9
REMARK VINA RESULT:      -4.7     11.507     14.277
REMARK  7 active torsions:
REMARK  status: ('A' for Active; 'I' for Inactive)
REMARK    1  A    between atoms: C_2  and  C_3 
REMARK    2  A    between atoms: C_3  and  O_6 
REMARK    3  A    between atoms: C_3  and  C_4 
REMARK    4  A    between atoms: C_7  and  O_6 
REMARK    5  A    between atoms: C_9  and  C_10 
REMARK    6  A    between atoms: N_15  and  C_14 
REMARK    7  A    between atoms: N_20  and  C_19 
REMARK       I    between atoms: C_22  and  N_20 
ROOT
ATOM      1  C   LIG d   1       2.478  86.875 114.950  0.00  0.00     0.161 C 
ATOM      2  C   LIG d   1       3.232  87.994 114.562  0.00  0.00     0.016 C 
ATOM      3  C   LIG d   1       4.082  88.006 113.431  0.00  0.00     0.038 C 
ATOM      4  C   LIG d   1       4.118  86.940 112.520  0.00  0.00     0.028 C 
ATOM      5  C   LIG d   1       3.757  85.597 113.145  0.00  0.00    -0.047 C 
ATOM      6  C   LIG d   1       2.419  85.740 113.906  0.00  0.00     0.091 C 
ENDROOT
BRANCH   1   7
ATOM      7  O   LIG d   1       1.147  87.287 115.318  0.00  0.00    -0.368 OA
BRANCH   7   8
ATOM      8  C   LIG d   1       0.929  87.561 116.724  0.00  0.00     0.119 C 
BRANCH   8   9
ATOM      9  C   LIG d   1       0.066  86.418 117.291  0.00  0.00     0.028 C 
ATOM     10  C   LIG d   1       0.913  85.307 117.934  0.00  0.00     0.006 C 
ENDBRANCH   8   9
BRANCH   8  11
ATOM     11  C   LIG d   1       0.099  88.833 116.921  0.00  0.00     0.028 C 
ATOM     12  C   LIG d   1       0.954  90.049 117.310  0.00  0.00     0.006 C 
ENDBRANCH   8  11
ENDBRANCH   7   8
ENDBRANCH   1   7
BRANCH   6  13
ATOM     13  N   LIG d   1       2.035  84.493 114.618  0.00  0.00    -0.311 N 
ATOM     14  C   LIG d   1       0.864  83.882 114.446  0.00  0.00     0.210 C 
ATOM     15  C   LIG d   1       0.663  82.621 115.293  0.00  0.00     0.109 C 
ATOM     16  O   LIG d   1      -0.014  84.247 113.650  0.00  0.00    -0.276 OA
ATOM     17  H   LIG d   1       2.702  84.111 115.260  0.00  0.00     0.149 HD
ENDBRANCH   6  13
BRANCH   5  18
ATOM     18  N   LIG d   1       3.700  84.601 112.058  0.00  0.00     0.381 N 
ATOM     19  H   LIG d   1       4.616  84.457 111.682  0.00  0.00    -0.090 HD
ATOM     20  H   LIG d   1       3.110  84.953 111.325  0.00  0.00    -0.090 HD
ATOM     21  H   LIG d   1       3.336  83.740 112.404  0.00  0.00    -0.090 HD
ENDBRANCH   5  18
BRANCH   3  22
ATOM     22  C   LIG d   1       4.937  89.078 113.225  0.00  0.00     0.382 C 
ATOM     23  O   LIG d   1       6.176  88.924 113.346  0.00  0.00    -0.241 OA
ATOM     24  O   LIG d   1       4.482  90.208 112.963  0.00  0.00    -0.241 OA
ENDBRANCH   3  22
TORSDOF 7
ENDMDL
