MODEL 1
REMARK VINA RESULT:      -6.2      0.000      0.000
REMARK  7 active torsions:
REMARK  status: ('A' for Active; 'I' for Inactive)
REMARK    1  A    between atoms: C_2  and  C_3 
REMARK    2  A    between atoms: C_3  and  O_6 
REMARK    3  A    between atoms: C_3  and  C_4 
REMARK    4  A    between atoms: C_7  and  O_6 
REMARK    5  A    between atoms: C_9  and  C_10 
REMARK    6  A    between atoms: N_15  and  C_14 
REMARK    7  A    between atoms: N_20  and  C_19 
REMARK       I    between atoms: C_22  and  N_20 
ROOT
ATOM      1  C   LIG d   1      -6.854  75.545 117.037  0.00  0.00     0.161 C 
ATOM      2  C   LIG d   1      -5.953  76.282 116.251  0.00  0.00     0.016 C 
ATOM      3  C   LIG d   1      -5.072  75.691 115.316  0.00  0.00     0.038 C 
ATOM      4  C   LIG d   1      -5.140  74.327 114.993  0.00  0.00     0.028 C 
ATOM      5  C   LIG d   1      -5.687  73.464 116.125  0.00  0.00    -0.047 C 
ATOM      6  C   LIG d   1      -7.020  74.069 116.619  0.00  0.00     0.091 C 
ENDROOT
BRANCH   1   7
ATOM      7  O   LIG d   1      -8.135  76.206 117.062  0.00  0.00    -0.368 OA
BRANCH   7   8
ATOM      8  C   LIG d   1      -8.288  77.263 118.041  0.00  0.00     0.119 C 
BRANCH   8   9
ATOM      9  C   LIG d   1      -7.813  76.709 119.398  0.00  0.00     0.028 C 
ATOM     10  C   LIG d   1      -8.860  75.795 120.057  0.00  0.00     0.006 C 
ENDBRANCH   8   9
BRANCH   8  11
ATOM     11  C   LIG d   1      -9.762  77.625 118.244  0.00  0.00     0.028 C 
ATOM     12  C   LIG d   1      -9.955  79.043 118.806  0.00  0.00     0.006 C 
ENDBRANCH   8  11
ENDBRANCH   7   8
ENDBRANCH   1   7
BRANCH   6  13
ATOM     13  N   LIG d   1      -7.580  73.333 117.782  0.00  0.00    -0.311 N 
ATOM     14  C   LIG d   1      -8.339  72.244 117.664  0.00  0.00     0.210 C 
ATOM     15  C   LIG d   1      -8.829  71.651 118.989  0.00  0.00     0.109 C 
ATOM     16  O   LIG d   1      -8.625  71.695 116.590  0.00  0.00    -0.276 OA
ATOM     17  H   LIG d   1      -7.371  73.692 118.693  0.00  0.00     0.149 HD
ENDBRANCH   6  13
BRANCH   5  18
ATOM     18  N   LIG d   1      -5.832  72.090 115.606  0.00  0.00     0.381 N 
ATOM     19  H   LIG d   1      -5.333  71.999 114.744  0.00  0.00    -0.090 HD
ATOM     20  H   LIG d   1      -6.805  71.912 115.427  0.00  0.00    -0.090 HD
ATOM     21  H   LIG d   1      -5.484  71.436 116.272  0.00  0.00    -0.090 HD
ENDBRANCH   5  18
BRANCH   3  22
ATOM     22  C   LIG d   1      -4.083  76.460 114.722  0.00  0.00     0.382 C 
ATOM     23  O   LIG d   1      -4.240  76.889 113.553  0.00  0.00    -0.241 OA
ATOM     24  O   LIG d   1      -3.018  76.693 115.323  0.00  0.00    -0.241 OA
ENDBRANCH   3  22
TORSDOF 7
ENDMDL
MODEL 2
REMARK VINA RESULT:      -6.1      2.366      5.934
REMARK  7 active torsions:
REMARK  status: ('A' for Active; 'I' for Inactive)
REMARK    1  A    between atoms: C_2  and  C_3 
REMARK    2  A    between atoms: C_3  and  O_6 
REMARK    3  A    between atoms: C_3  and  C_4 
REMARK    4  A    between atoms: C_7  and  O_6 
REMARK    5  A    between atoms: C_9  and  C_10 
REMARK    6  A    between atoms: N_15  and  C_14 
REMARK    7  A    between atoms: N_20  and  C_19 
REMARK       I    between atoms: C_22  and  N_20 
ROOT
ATOM      1  C   LIG d   1      -7.495  75.534 117.932  0.00  0.00     0.161 C 
ATOM      2  C   LIG d   1      -8.698  76.038 118.455  0.00  0.00     0.016 C 
ATOM      3  C   LIG d   1      -8.993  77.419 118.536  0.00  0.00     0.038 C 
ATOM      4  C   LIG d   1      -8.163  78.390 117.956  0.00  0.00     0.028 C 
ATOM      5  C   LIG d   1      -6.702  77.962 117.867  0.00  0.00    -0.047 C 
ATOM      6  C   LIG d   1      -6.625  76.573 117.194  0.00  0.00     0.091 C 
ENDROOT
BRANCH   1   7
ATOM      7  O   LIG d   1      -7.769  74.409 117.074  0.00  0.00    -0.368 OA
BRANCH   7   8
ATOM      8  C   LIG d   1      -7.487  73.101 117.629  0.00  0.00     0.119 C 
BRANCH   8   9
ATOM      9  C   LIG d   1      -6.973  72.212 116.480  0.00  0.00     0.028 C 
ATOM     10  C   LIG d   1      -5.753  72.820 115.768  0.00  0.00     0.006 C 
ENDBRANCH   8   9
BRANCH   8  11
ATOM     11  C   LIG d   1      -8.766  72.420 118.127  0.00  0.00     0.028 C 
ATOM     12  C   LIG d   1      -8.875  70.955 117.677  0.00  0.00     0.006 C 
ENDBRANCH   8  11
ENDBRANCH   7   8
ENDBRANCH   1   7
BRANCH   6  13
ATOM     13  N   LIG d   1      -5.238  76.043 117.143  0.00  0.00    -0.311 N 
ATOM     14  C   LIG d   1      -4.419  76.231 116.110  0.00  0.00     0.210 C 
ATOM     15  C   LIG d   1      -3.038  75.583 116.253  0.00  0.00     0.109 C 
ATOM     16  O   LIG d   1      -4.693  76.899 115.102  0.00  0.00    -0.276 OA
ATOM     17  H   LIG d   1      -4.922  75.515 117.933  0.00  0.00     0.149 HD
ENDBRANCH   6  13
BRANCH   5  18
ATOM     18  N   LIG d   1      -5.976  79.008 117.120  0.00  0.00     0.381 N 
ATOM     19  H   LIG d   1      -4.992  78.835 117.165  0.00  0.00    -0.090 HD
ATOM     20  H   LIG d   1      -6.160  79.899 117.547  0.00  0.00    -0.090 HD
ATOM     21  H   LIG d   1      -6.276  79.018 116.170  0.00  0.00    -0.090 HD
ENDBRANCH   5  18
BRANCH   3  22
ATOM     22  C   LIG d   1     -10.111  77.842 119.238  0.00  0.00     0.382 C 
ATOM     23  O   LIG d   1     -10.601  78.975 119.012  0.00  0.00    -0.241 OA
ATOM     24  O   LIG d   1     -10.610  77.124 120.124  0.00  0.00    -0.241 OA
ENDBRANCH   3  22
TORSDOF 7
ENDMDL
MODEL 3
REMARK VINA RESULT:      -5.5      3.237      6.510
REMARK  7 active torsions:
REMARK  status: ('A' for Active; 'I' for Inactive)
REMARK    1  A    between atoms: C_2  and  C_3 
REMARK    2  A    between atoms: C_3  and  O_6 
REMARK    3  A    between atoms: C_3  and  C_4 
REMARK    4  A    between atoms: C_7  and  O_6 
REMARK    5  A    between atoms: C_9  and  C_10 
REMARK    6  A    between atoms: N_15  and  C_14 
REMARK    7  A    between atoms: N_20  and  C_19 
REMARK       I    between atoms: C_22  and  N_20 
ROOT
ATOM      1  C   LIG d   1      -6.443  77.360 118.208  0.00  0.00     0.161 C 
ATOM      2  C   LIG d   1      -7.836  77.388 118.391  0.00  0.00     0.016 C 
ATOM      3  C   LIG d   1      -8.617  78.557 118.241  0.00  0.00     0.038 C 
ATOM      4  C   LIG d   1      -8.075  79.753 117.747  0.00  0.00     0.028 C 
ATOM      5  C   LIG d   1      -6.585  79.905 118.032  0.00  0.00    -0.047 C 
ATOM      6  C   LIG d   1      -5.850  78.629 117.561  0.00  0.00     0.091 C 
ENDROOT
BRANCH   1   7
ATOM      7  O   LIG d   1      -6.073  76.192 117.449  0.00  0.00    -0.368 OA
BRANCH   7   8
ATOM      8  C   LIG d   1      -7.056  75.712 116.498  0.00  0.00     0.119 C 
BRANCH   8   9
ATOM      9  C   LIG d   1      -7.124  74.179 116.637  0.00  0.00     0.028 C 
ATOM     10  C   LIG d   1      -8.312  73.721 117.501  0.00  0.00     0.006 C 
ENDBRANCH   8   9
BRANCH   8  11
ATOM     11  C   LIG d   1      -6.607  75.969 115.056  0.00  0.00     0.028 C 
ATOM     12  C   LIG d   1      -5.078  75.967 114.899  0.00  0.00     0.006 C 
ENDBRANCH   8  11
ENDBRANCH   7   8
ENDBRANCH   1   7
BRANCH   6  13
ATOM     13  N   LIG d   1      -4.399  78.660 117.879  0.00  0.00    -0.311 N 
ATOM     14  C   LIG d   1      -3.468  79.062 117.015  0.00  0.00     0.210 C 
ATOM     15  C   LIG d   1      -2.029  78.996 117.539  0.00  0.00     0.109 C 
ATOM     16  O   LIG d   1      -3.699  79.496 115.877  0.00  0.00    -0.276 OA
ATOM     17  H   LIG d   1      -4.126  78.354 118.792  0.00  0.00     0.149 HD
ENDBRANCH   6  13
BRANCH   5  18
ATOM     18  N   LIG d   1      -6.122  81.126 117.345  0.00  0.00     0.381 N 
ATOM     19  H   LIG d   1      -5.599  81.695 117.980  0.00  0.00    -0.090 HD
ATOM     20  H   LIG d   1      -6.923  81.650 117.038  0.00  0.00    -0.090 HD
ATOM     21  H   LIG d   1      -5.556  80.883 116.562  0.00  0.00    -0.090 HD
ENDBRANCH   5  18
BRANCH   3  22
ATOM     22  C   LIG d   1      -9.949  78.547 118.625  0.00  0.00     0.382 C 
ATOM     23  O   LIG d   1     -10.453  79.560 119.169  0.00  0.00    -0.241 OA
ATOM     24  O   LIG d   1     -10.642  77.523 118.476  0.00  0.00    -0.241 OA
ENDBRANCH   3  22
TORSDOF 7
ENDMDL
MODEL 4
REMARK VINA RESULT:      -5.3      3.610      5.449
REMARK  7 active torsions:
REMARK  status: ('A' for Active; 'I' for Inactive)
REMARK    1  A    between atoms: C_2  and  C_3 
REMARK    2  A    between atoms: C_3  and  O_6 
REMARK    3  A    between atoms: C_3  and  C_4 
REMARK    4  A    between atoms: C_7  and  O_6 
REMARK    5  A    between atoms: C_9  and  C_10 
REMARK    6  A    between atoms: N_15  and  C_14 
REMARK    7  A    between atoms: N_20  and  C_19 
REMARK       I    between atoms: C_22  and  N_20 
ROOT
ATOM      1  C   LIG d   1      -5.749  77.301 118.225  0.00  0.00     0.161 C 
ATOM      2  C   LIG d   1      -6.569  78.433 118.080  0.00  0.00     0.016 C 
ATOM      3  C   LIG d   1      -6.087  79.693 117.658  0.00  0.00     0.038 C 
ATOM      4  C   LIG d   1      -4.771  79.871 117.205  0.00  0.00     0.028 C 
ATOM      5  C   LIG d   1      -3.783  78.880 117.812  0.00  0.00    -0.047 C 
ATOM      6  C   LIG d   1      -4.333  77.447 117.629  0.00  0.00     0.091 C 
ENDROOT
BRANCH   1   7
ATOM      7  O   LIG d   1      -6.409  76.145 117.672  0.00  0.00    -0.368 OA
BRANCH   7   8
ATOM      8  C   LIG d   1      -7.372  76.404 116.620  0.00  0.00     0.119 C 
BRANCH   8   9
ATOM      9  C   LIG d   1      -8.590  75.495 116.874  0.00  0.00     0.028 C 
ATOM     10  C   LIG d   1      -8.315  74.434 117.953  0.00  0.00     0.006 C 
ENDBRANCH   8   9
BRANCH   8  11
ATOM     11  C   LIG d   1      -6.829  75.982 115.252  0.00  0.00     0.028 C 
ATOM     12  C   LIG d   1      -5.717  74.926 115.351  0.00  0.00     0.006 C 
ENDBRANCH   8  11
ENDBRANCH   7   8
ENDBRANCH   1   7
BRANCH   6  13
ATOM     13  N   LIG d   1      -3.468  76.422 118.269  0.00  0.00    -0.311 N 
ATOM     14  C   LIG d   1      -2.564  75.706 117.603  0.00  0.00     0.210 C 
ATOM     15  C   LIG d   1      -1.792  74.689 118.449  0.00  0.00     0.109 C 
ATOM     16  O   LIG d   1      -2.306  75.839 116.397  0.00  0.00    -0.276 OA
ATOM     17  H   LIG d   1      -3.589  76.272 119.252  0.00  0.00     0.149 HD
ENDBRANCH   6  13
BRANCH   5  18
ATOM     18  N   LIG d   1      -2.481  79.089 117.151  0.00  0.00     0.381 N 
ATOM     19  H   LIG d   1      -2.041  79.908 117.519  0.00  0.00    -0.090 HD
ATOM     20  H   LIG d   1      -2.634  79.227 116.167  0.00  0.00    -0.090 HD
ATOM     21  H   LIG d   1      -1.895  78.296 117.294  0.00  0.00    -0.090 HD
ENDBRANCH   5  18
BRANCH   3  22
ATOM     22  C   LIG d   1      -6.916  80.803 117.725  0.00  0.00     0.382 C 
ATOM     23  O   LIG d   1      -7.997  80.818 117.088  0.00  0.00    -0.241 OA
ATOM     24  O   LIG d   1      -6.576  81.807 118.379  0.00  0.00    -0.241 OA
ENDBRANCH   3  22
TORSDOF 7
ENDMDL
MODEL 5
REMARK VINA RESULT:      -5.2      3.300      5.718
REMARK  7 active torsions:
REMARK  status: ('A' for Active; 'I' for Inactive)
REMARK    1  A    between atoms: C_2  and  C_3 
REMARK    2  A    between atoms: C_3  and  O_6 
REMARK    3  A    between atoms: C_3  and  C_4 
REMARK    4  A    between atoms: C_7  and  O_6 
REMARK    5  A    between atoms: C_9  and  C_10 
REMARK    6  A    between atoms: N_15  and  C_14 
REMARK    7  A    between atoms: N_20  and  C_19 
REMARK       I    between atoms: C_22  and  N_20 
ROOT
ATOM      1  C   LIG d   1      -7.664  78.028 117.834  0.00  0.00     0.161 C 
ATOM      2  C   LIG d   1      -8.479  79.140 118.105  0.00  0.00     0.016 C 
ATOM      3  C   LIG d   1      -8.035  80.477 117.990  0.00  0.00     0.038 C 
ATOM      4  C   LIG d   1      -6.782  80.798 117.446  0.00  0.00     0.028 C 
ATOM      5  C   LIG d   1      -5.741  79.699 117.634  0.00  0.00    -0.047 C 
ATOM      6  C   LIG d   1      -6.330  78.360 117.134  0.00  0.00     0.091 C 
ENDROOT
BRANCH   1   7
ATOM      7  O   LIG d   1      -8.403  77.056 117.069  0.00  0.00    -0.368 OA
BRANCH   7   8
ATOM      8  C   LIG d   1      -8.753  75.832 117.762  0.00  0.00     0.119 C 
BRANCH   8   9
ATOM      9  C   LIG d   1      -8.223  75.949 119.204  0.00  0.00     0.028 C 
ATOM     10  C   LIG d   1      -9.351  76.155 120.230  0.00  0.00     0.006 C 
ENDBRANCH   8   9
BRANCH   8  11
ATOM     11  C   LIG d   1      -8.029  74.624 117.161  0.00  0.00     0.028 C 
ATOM     12  C   LIG d   1      -8.405  73.301 117.846  0.00  0.00     0.006 C 
ENDBRANCH   8  11
ENDBRANCH   7   8
ENDBRANCH   1   7
BRANCH   6  13
ATOM     13  N   LIG d   1      -5.408  77.216 117.358  0.00  0.00    -0.311 N 
ATOM     14  C   LIG d   1      -4.856  76.515 116.370  0.00  0.00     0.210 C 
ATOM     15  C   LIG d   1      -3.951  75.364 116.821  0.00  0.00     0.109 C 
ATOM     16  O   LIG d   1      -5.003  76.757 115.162  0.00  0.00    -0.276 OA
ATOM     17  H   LIG d   1      -5.208  76.971 118.308  0.00  0.00     0.149 HD
ENDBRANCH   6  13
BRANCH   5  18
ATOM     18  N   LIG d   1      -4.527  80.106 116.902  0.00  0.00     0.381 N 
ATOM     19  H   LIG d   1      -4.771  80.399 115.977  0.00  0.00    -0.090 HD
ATOM     20  H   LIG d   1      -3.911  79.315 116.830  0.00  0.00    -0.090 HD
ATOM     21  H   LIG d   1      -4.071  80.849 117.384  0.00  0.00    -0.090 HD
ENDBRANCH   5  18
BRANCH   3  22
ATOM     22  C   LIG d   1      -8.833  81.510 118.458  0.00  0.00     0.382 C 
ATOM     23  O   LIG d   1      -8.351  82.376 119.227  0.00  0.00    -0.241 OA
ATOM     24  O   LIG d   1     -10.041  81.561 118.157  0.00  0.00    -0.241 OA
ENDBRANCH   3  22
TORSDOF 7
ENDMDL
MODEL 6
REMARK VINA RESULT:      -5.1     12.669     15.341
REMARK  7 active torsions:
REMARK  status: ('A' for Active; 'I' for Inactive)
REMARK    1  A    between atoms: C_2  and  C_3 
REMARK    2  A    between atoms: C_3  and  O_6 
REMARK    3  A    between atoms: C_3  and  C_4 
REMARK    4  A    between atoms: C_7  and  O_6 
REMARK    5  A    between atoms: C_9  and  C_10 
REMARK    6  A    between atoms: N_15  and  C_14 
REMARK    7  A    between atoms: N_20  and  C_19 
REMARK       I    between atoms: C_22  and  N_20 
ROOT
ATOM      1  C   LIG d   1       1.905  86.817 114.961  0.00  0.00     0.161 C 
ATOM      2  C   LIG d   1       2.640  87.570 114.031  0.00  0.00     0.016 C 
ATOM      3  C   LIG d   1       4.015  87.866 114.181  0.00  0.00     0.038 C 
ATOM      4  C   LIG d   1       4.788  87.297 115.205  0.00  0.00     0.028 C 
ATOM      5  C   LIG d   1       3.980  86.942 116.448  0.00  0.00    -0.047 C 
ATOM      6  C   LIG d   1       2.757  86.096 116.027  0.00  0.00     0.091 C 
ENDROOT
BRANCH   1   7
ATOM      7  O   LIG d   1       1.062  85.874 114.270  0.00  0.00    -0.368 OA
BRANCH   7   8
ATOM      8  C   LIG d   1       1.503  85.474 112.949  0.00  0.00     0.119 C 
BRANCH   8   9
ATOM      9  C   LIG d   1       0.245  85.262 112.086  0.00  0.00     0.028 C 
ATOM     10  C   LIG d   1      -0.664  86.502 112.057  0.00  0.00     0.006 C 
ENDBRANCH   8   9
BRANCH   8  11
ATOM     11  C   LIG d   1       2.206  84.114 112.984  0.00  0.00     0.028 C 
ATOM     12  C   LIG d   1       3.716  84.216 112.721  0.00  0.00     0.006 C 
ENDBRANCH   8  11
ENDBRANCH   7   8
ENDBRANCH   1   7
BRANCH   6  13
ATOM     13  N   LIG d   1       1.866  85.776 117.173  0.00  0.00    -0.311 N 
ATOM     14  C   LIG d   1       1.467  84.540 117.469  0.00  0.00     0.210 C 
ATOM     15  C   LIG d   1       0.535  84.434 118.680  0.00  0.00     0.109 C 
ATOM     16  O   LIG d   1       1.822  83.518 116.863  0.00  0.00    -0.276 OA
ATOM     17  H   LIG d   1       1.556  86.543 117.737  0.00  0.00     0.149 HD
ENDBRANCH   6  13
BRANCH   5  18
ATOM     18  N   LIG d   1       4.880  86.234 117.378  0.00  0.00     0.381 N 
ATOM     19  H   LIG d   1       5.764  86.701 117.414  0.00  0.00    -0.090 HD
ATOM     20  H   LIG d   1       5.029  85.300 117.038  0.00  0.00    -0.090 HD
ATOM     21  H   LIG d   1       4.475  86.203 118.287  0.00  0.00    -0.090 HD
ENDBRANCH   5  18
BRANCH   3  22
ATOM     22  C   LIG d   1       4.621  88.772 113.324  0.00  0.00     0.382 C 
ATOM     23  O   LIG d   1       5.568  88.402 112.589  0.00  0.00    -0.241 OA
ATOM     24  O   LIG d   1       4.262  89.964 113.309  0.00  0.00    -0.241 OA
ENDBRANCH   3  22
TORSDOF 7
ENDMDL
MODEL 7
REMARK VINA RESULT:      -5.0      3.540      6.193
REMARK  7 active torsions:
REMARK  status: ('A' for Active; 'I' for Inactive)
REMARK    1  A    between atoms: C_2  and  C_3 
REMARK    2  A    between atoms: C_3  and  O_6 
REMARK    3  A    between atoms: C_3  and  C_4 
REMARK    4  A    between atoms: C_7  and  O_6 
REMARK    5  A    between atoms: C_9  and  C_10 
REMARK    6  A    between atoms: N_15  and  C_14 
REMARK    7  A    between atoms: N_20  and  C_19 
REMARK       I    between atoms: C_22  and  N_20 
ROOT
ATOM      1  C   LIG d   1      -6.982  77.853 117.835  0.00  0.00     0.161 C 
ATOM      2  C   LIG d   1      -8.036  78.754 117.612  0.00  0.00     0.016 C 
ATOM      3  C   LIG d   1      -7.910  80.154 117.767  0.00  0.00     0.038 C 
ATOM      4  C   LIG d   1      -6.671  80.764 118.013  0.00  0.00     0.028 C 
ATOM      5  C   LIG d   1      -5.684  79.858 118.742  0.00  0.00    -0.047 C 
ATOM      6  C   LIG d   1      -5.594  78.508 117.995  0.00  0.00     0.091 C 
ENDROOT
BRANCH   1   7
ATOM      7  O   LIG d   1      -6.952  76.866 116.785  0.00  0.00    -0.368 OA
BRANCH   7   8
ATOM      8  C   LIG d   1      -6.947  75.481 117.212  0.00  0.00     0.119 C 
BRANCH   8   9
ATOM      9  C   LIG d   1      -6.264  74.658 116.103  0.00  0.00     0.028 C 
ATOM     10  C   LIG d   1      -4.736  74.829 116.100  0.00  0.00     0.006 C 
ENDBRANCH   8   9
BRANCH   8  11
ATOM     11  C   LIG d   1      -8.370  74.924 117.314  0.00  0.00     0.028 C 
ATOM     12  C   LIG d   1      -8.413  73.504 117.898  0.00  0.00     0.006 C 
ENDBRANCH   8  11
ENDBRANCH   7   8
ENDBRANCH   1   7
BRANCH   6  13
ATOM     13  N   LIG d   1      -4.713  77.533 118.689  0.00  0.00    -0.311 N 
ATOM     14  C   LIG d   1      -3.418  77.390 118.414  0.00  0.00     0.210 C 
ATOM     15  C   LIG d   1      -2.699  76.313 119.233  0.00  0.00     0.109 C 
ATOM     16  O   LIG d   1      -2.790  78.073 117.592  0.00  0.00    -0.276 OA
ATOM     17  H   LIG d   1      -5.134  76.959 119.393  0.00  0.00     0.149 HD
ENDBRANCH   6  13
BRANCH   5  18
ATOM     18  N   LIG d   1      -4.393  80.569 118.810  0.00  0.00     0.381 N 
ATOM     19  H   LIG d   1      -4.445  81.417 118.281  0.00  0.00    -0.090 HD
ATOM     20  H   LIG d   1      -3.680  79.988 118.405  0.00  0.00    -0.090 HD
ATOM     21  H   LIG d   1      -4.166  80.774 119.758  0.00  0.00    -0.090 HD
ENDBRANCH   5  18
BRANCH   3  22
ATOM     22  C   LIG d   1      -9.040  80.955 117.717  0.00  0.00     0.382 C 
ATOM     23  O   LIG d   1     -10.160  80.481 118.026  0.00  0.00    -0.241 OA
ATOM     24  O   LIG d   1      -8.961  82.135 117.325  0.00  0.00    -0.241 OA
ENDBRANCH   3  22
TORSDOF 7
ENDMDL
MODEL 8
REMARK VINA RESULT:      -4.9     19.124     21.070
REMARK  7 active torsions:
REMARK  status: ('A' for Active; 'I' for Inactive)
REMARK    1  A    between atoms: C_2  and  C_3 
REMARK    2  A    between atoms: C_3  and  O_6 
REMARK    3  A    between atoms: C_3  and  C_4 
REMARK    4  A    between atoms: C_7  and  O_6 
REMARK    5  A    between atoms: C_9  and  C_10 
REMARK    6  A    between atoms: N_15  and  C_14 
REMARK    7  A    between atoms: N_20  and  C_19 
REMARK       I    between atoms: C_22  and  N_20 
ROOT
ATOM      1  C   LIG d   1     -25.434  84.762 114.627  0.00  0.00     0.161 C 
ATOM      2  C   LIG d   1     -24.552  85.848 114.505  0.00  0.00     0.016 C 
ATOM      3  C   LIG d   1     -23.355  85.798 113.755  0.00  0.00     0.038 C 
ATOM      4  C   LIG d   1     -23.032  84.698 112.946  0.00  0.00     0.028 C 
ATOM      5  C   LIG d   1     -23.639  83.388 113.435  0.00  0.00    -0.047 C 
ATOM      6  C   LIG d   1     -25.155  83.591 113.662  0.00  0.00     0.091 C 
ENDROOT
BRANCH   1   7
ATOM      7  O   LIG d   1     -26.794  85.217 114.482  0.00  0.00    -0.368 OA
BRANCH   7   8
ATOM      8  C   LIG d   1     -27.252  85.432 113.124  0.00  0.00     0.119 C 
BRANCH   8   9
ATOM      9  C   LIG d   1     -27.597  86.927 112.983  0.00  0.00     0.028 C 
ATOM     10  C   LIG d   1     -26.622  87.670 112.055  0.00  0.00     0.006 C 
ENDBRANCH   8   9
BRANCH   8  11
ATOM     11  C   LIG d   1     -28.562  84.686 112.853  0.00  0.00     0.028 C 
ATOM     12  C   LIG d   1     -29.099  83.956 114.095  0.00  0.00     0.006 C 
ENDBRANCH   8  11
ENDBRANCH   7   8
ENDBRANCH   1   7
BRANCH   6  13
ATOM     13  N   LIG d   1     -25.811  82.380 114.222  0.00  0.00    -0.311 N 
ATOM     14  C   LIG d   1     -26.380  81.440 113.469  0.00  0.00     0.210 C 
ATOM     15  C   LIG d   1     -27.017  80.286 114.248  0.00  0.00     0.109 C 
ATOM     16  O   LIG d   1     -26.389  81.437 112.228  0.00  0.00    -0.276 OA
ATOM     17  H   LIG d   1     -25.822  82.287 115.218  0.00  0.00     0.149 HD
ENDBRANCH   6  13
BRANCH   5  18
ATOM     18  N   LIG d   1     -23.339  82.354 112.428  0.00  0.00     0.381 N 
ATOM     19  H   LIG d   1     -24.009  82.398 111.686  0.00  0.00    -0.090 HD
ATOM     20  H   LIG d   1     -23.406  81.449 112.860  0.00  0.00    -0.090 HD
ATOM     21  H   LIG d   1     -22.421  82.489 112.064  0.00  0.00    -0.090 HD
ENDBRANCH   5  18
BRANCH   3  22
ATOM     22  C   LIG d   1     -22.446  86.842 113.840  0.00  0.00     0.382 C 
ATOM     23  O   LIG d   1     -22.689  87.826 114.581  0.00  0.00    -0.241 OA
ATOM     24  O   LIG d   1     -21.407  86.833 113.153  0.00  0.00    -0.241 OA
ENDBRANCH   3  22
TORSDOF 7
ENDMDL
MODEL 9
REMARK VINA RESULT:      -4.8     16.754     19.167
REMARK  7 active torsions:
REMARK  status: ('A' for Active; 'I' for Inactive)
REMARK    1  A    between atoms: C_2  and  C_3 
REMARK    2  A    between atoms: C_3  and  O_6 
REMARK    3  A    between atoms: C_3  and  C_4 
REMARK    4  A    between atoms: C_7  and  O_6 
REMARK    5  A    between atoms: C_9  and  C_10 
REMARK    6  A    between atoms: N_15  and  C_14 
REMARK    7  A    between atoms: N_20  and  C_19 
REMARK       I    between atoms: C_22  and  N_20 
ROOT
ATOM      1  C   LIG d   1     -24.618  83.060 115.629  0.00  0.00     0.161 C 
ATOM      2  C   LIG d   1     -24.946  81.700 115.494  0.00  0.00     0.016 C 
ATOM      3  C   LIG d   1     -24.650  80.940 114.339  0.00  0.00     0.038 C 
ATOM      4  C   LIG d   1     -23.867  81.453 113.294  0.00  0.00     0.028 C 
ATOM      5  C   LIG d   1     -23.947  82.970 113.166  0.00  0.00    -0.047 C 
ATOM      6  C   LIG d   1     -23.665  83.606 114.546  0.00  0.00     0.091 C 
ENDROOT
BRANCH   1   7
ATOM      7  O   LIG d   1     -24.076  83.303 116.943  0.00  0.00    -0.368 OA
BRANCH   7   8
ATOM      8  C   LIG d   1     -23.245  82.251 117.494  0.00  0.00     0.119 C 
BRANCH   8   9
ATOM      9  C   LIG d   1     -23.664  82.053 118.963  0.00  0.00     0.028 C 
ATOM     10  C   LIG d   1     -24.809  82.991 119.379  0.00  0.00     0.006 C 
ENDBRANCH   8   9
BRANCH   8  11
ATOM     11  C   LIG d   1     -21.773  82.673 117.545  0.00  0.00     0.028 C 
ATOM     12  C   LIG d   1     -20.994  81.980 118.674  0.00  0.00     0.006 C 
ENDBRANCH   8  11
ENDBRANCH   7   8
ENDBRANCH   1   7
BRANCH   6  13
ATOM     13  N   LIG d   1     -23.806  85.086 114.528  0.00  0.00    -0.311 N 
ATOM     14  C   LIG d   1     -22.835  85.910 114.139  0.00  0.00     0.210 C 
ATOM     15  C   LIG d   1     -23.182  87.400 114.216  0.00  0.00     0.109 C 
ATOM     16  O   LIG d   1     -21.730  85.548 113.707  0.00  0.00    -0.276 OA
ATOM     17  H   LIG d   1     -24.681  85.464 114.833  0.00  0.00     0.149 HD
ENDBRANCH   6  13
BRANCH   5  18
ATOM     18  N   LIG d   1     -22.979  83.381 112.131  0.00  0.00     0.381 N 
ATOM     19  H   LIG d   1     -22.093  82.951 112.306  0.00  0.00    -0.090 HD
ATOM     20  H   LIG d   1     -22.859  84.378 112.176  0.00  0.00    -0.090 HD
ATOM     21  H   LIG d   1     -23.312  83.119 111.229  0.00  0.00    -0.090 HD
ENDBRANCH   5  18
BRANCH   3  22
ATOM     22  C   LIG d   1     -25.175  79.664 114.203  0.00  0.00     0.382 C 
ATOM     23  O   LIG d   1     -26.155  79.466 113.446  0.00  0.00    -0.241 OA
ATOM     24  O   LIG d   1     -24.708  78.716 114.863  0.00  0.00    -0.241 OA
ENDBRANCH   3  22
TORSDOF 7
ENDMDL
