MODEL 1
REMARK VINA RESULT:      -5.7      0.000      0.000
REMARK  7 active torsions:
REMARK  status: ('A' for Active; 'I' for Inactive)
REMARK    1  A    between atoms: C_2  and  C_3 
REMARK    2  A    between atoms: C_3  and  O_6 
REMARK    3  A    between atoms: C_3  and  C_4 
REMARK    4  A    between atoms: C_7  and  O_6 
REMARK    5  A    between atoms: C_9  and  C_10 
REMARK    6  A    between atoms: N_15  and  C_14 
REMARK    7  A    between atoms: N_20  and  C_19 
REMARK       I    between atoms: C_22  and  N_20 
ROOT
ATOM      1  C   LIG d   1      -7.868  76.707 117.559  0.00  0.00     0.161 C 
ATOM      2  C   LIG d   1      -8.982  77.349 118.126  0.00  0.00     0.016 C 
ATOM      3  C   LIG d   1      -9.083  78.752 118.265  0.00  0.00     0.038 C 
ATOM      4  C   LIG d   1      -8.137  79.623 117.704  0.00  0.00     0.028 C 
ATOM      5  C   LIG d   1      -6.750  79.004 117.568  0.00  0.00    -0.047 C 
ATOM      6  C   LIG d   1      -6.876  77.646 116.841  0.00  0.00     0.091 C 
ENDROOT
BRANCH   1   7
ATOM      7  O   LIG d   1      -8.308  75.665 116.665  0.00  0.00    -0.368 OA
BRANCH   7   8
ATOM      8  C   LIG d   1      -8.390  74.333 117.229  0.00  0.00     0.119 C 
BRANCH   8   9
ATOM      9  C   LIG d   1      -7.232  73.507 116.637  0.00  0.00     0.028 C 
ATOM     10  C   LIG d   1      -6.034  73.405 117.596  0.00  0.00     0.006 C 
ENDBRANCH   8   9
BRANCH   8  11
ATOM     11  C   LIG d   1      -9.668  73.617 116.783  0.00  0.00     0.028 C 
ATOM     12  C   LIG d   1      -9.689  72.132 117.181  0.00  0.00     0.006 C 
ENDBRANCH   8  11
ENDBRANCH   7   8
ENDBRANCH   1   7
BRANCH   6  13
ATOM     13  N   LIG d   1      -5.575  76.934 116.741  0.00  0.00    -0.311 N 
ATOM     14  C   LIG d   1      -5.060  76.507 115.589  0.00  0.00     0.210 C 
ATOM     15  C   LIG d   1      -3.718  75.779 115.712  0.00  0.00     0.109 C 
ATOM     16  O   LIG d   1      -5.571  76.692 114.474  0.00  0.00    -0.276 OA
ATOM     17  H   LIG d   1      -5.078  76.769 117.594  0.00  0.00     0.149 HD
ENDBRANCH   6  13
BRANCH   5  18
ATOM     18  N   LIG d   1      -5.900  79.969 116.846  0.00  0.00     0.381 N 
ATOM     19  H   LIG d   1      -6.377  80.845 116.762  0.00  0.00    -0.090 HD
ATOM     20  H   LIG d   1      -5.722  79.618 115.922  0.00  0.00    -0.090 HD
ATOM     21  H   LIG d   1      -5.040  80.097 117.332  0.00  0.00    -0.090 HD
ENDBRANCH   5  18
BRANCH   3  22
ATOM     22  C   LIG d   1     -10.121  79.296 119.006  0.00  0.00     0.382 C 
ATOM     23  O   LIG d   1     -10.168  80.534 119.205  0.00  0.00    -0.241 OA
ATOM     24  O   LIG d   1     -10.987  78.560 119.515  0.00  0.00    -0.241 OA
ENDBRANCH   3  22
TORSDOF 7
ENDMDL
MODEL 2
REMARK VINA RESULT:      -5.6      2.199      5.253
REMARK  7 active torsions:
REMARK  status: ('A' for Active; 'I' for Inactive)
REMARK    1  A    between atoms: C_2  and  C_3 
REMARK    2  A    between atoms: C_3  and  O_6 
REMARK    3  A    between atoms: C_3  and  C_4 
REMARK    4  A    between atoms: C_7  and  O_6 
REMARK    5  A    between atoms: C_9  and  C_10 
REMARK    6  A    between atoms: N_15  and  C_14 
REMARK    7  A    between atoms: N_20  and  C_19 
REMARK       I    between atoms: C_22  and  N_20 
ROOT
ATOM      1  C   LIG d   1      -7.219  75.605 116.778  0.00  0.00     0.161 C 
ATOM      2  C   LIG d   1      -8.072  74.508 116.983  0.00  0.00     0.016 C 
ATOM      3  C   LIG d   1      -7.648  73.163 116.887  0.00  0.00     0.038 C 
ATOM      4  C   LIG d   1      -6.296  72.822 116.726  0.00  0.00     0.028 C 
ATOM      5  C   LIG d   1      -5.481  73.895 116.013  0.00  0.00    -0.047 C 
ATOM      6  C   LIG d   1      -5.718  75.253 116.713  0.00  0.00     0.091 C 
ENDROOT
BRANCH   1   7
ATOM      7  O   LIG d   1      -7.455  76.604 117.791  0.00  0.00    -0.368 OA
BRANCH   7   8
ATOM      8  C   LIG d   1      -8.262  77.738 117.390  0.00  0.00     0.119 C 
BRANCH   8   9
ATOM      9  C   LIG d   1      -7.342  78.974 117.363  0.00  0.00     0.028 C 
ATOM     10  C   LIG d   1      -8.096  80.274 117.693  0.00  0.00     0.006 C 
ENDBRANCH   8   9
BRANCH   8  11
ATOM     11  C   LIG d   1      -9.336  78.055 118.435  0.00  0.00     0.028 C 
ATOM     12  C   LIG d   1     -10.393  76.946 118.559  0.00  0.00     0.006 C 
ENDBRANCH   8  11
ENDBRANCH   7   8
ENDBRANCH   1   7
BRANCH   6  13
ATOM     13  N   LIG d   1      -5.023  76.373 116.026  0.00  0.00    -0.311 N 
ATOM     14  C   LIG d   1      -4.148  77.174 116.631  0.00  0.00     0.210 C 
ATOM     15  C   LIG d   1      -3.562  78.279 115.746  0.00  0.00     0.109 C 
ATOM     16  O   LIG d   1      -3.776  77.054 117.809  0.00  0.00    -0.276 OA
ATOM     17  H   LIG d   1      -5.242  76.523 115.061  0.00  0.00     0.149 HD
ENDBRANCH   6  13
BRANCH   5  18
ATOM     18  N   LIG d   1      -4.068  73.471 116.037  0.00  0.00     0.381 N 
ATOM     19  H   LIG d   1      -4.003  72.531 116.372  0.00  0.00    -0.090 HD
ATOM     20  H   LIG d   1      -3.561  74.067 116.667  0.00  0.00    -0.090 HD
ATOM     21  H   LIG d   1      -3.678  73.534 115.122  0.00  0.00    -0.090 HD
ENDBRANCH   5  18
BRANCH   3  22
ATOM     22  C   LIG d   1      -8.586  72.143 116.911  0.00  0.00     0.382 C 
ATOM     23  O   LIG d   1      -9.790  72.404 117.147  0.00  0.00    -0.241 OA
ATOM     24  O   LIG d   1      -8.237  70.959 116.743  0.00  0.00    -0.241 OA
ENDBRANCH   3  22
TORSDOF 7
ENDMDL
MODEL 3
REMARK VINA RESULT:      -5.6      3.926      6.648
REMARK  7 active torsions:
REMARK  status: ('A' for Active; 'I' for Inactive)
REMARK    1  A    between atoms: C_2  and  C_3 
REMARK    2  A    between atoms: C_3  and  O_6 
REMARK    3  A    between atoms: C_3  and  C_4 
REMARK    4  A    between atoms: C_7  and  O_6 
REMARK    5  A    between atoms: C_9  and  C_10 
REMARK    6  A    between atoms: N_15  and  C_14 
REMARK    7  A    between atoms: N_20  and  C_19 
REMARK       I    between atoms: C_22  and  N_20 
ROOT
ATOM      1  C   LIG d   1      -3.511  74.567 115.822  0.00  0.00     0.161 C 
ATOM      2  C   LIG d   1      -4.150  73.346 115.552  0.00  0.00     0.016 C 
ATOM      3  C   LIG d   1      -5.533  73.130 115.753  0.00  0.00     0.038 C 
ATOM      4  C   LIG d   1      -6.404  74.175 116.097  0.00  0.00     0.028 C 
ATOM      5  C   LIG d   1      -5.724  75.302 116.867  0.00  0.00    -0.047 C 
ATOM      6  C   LIG d   1      -4.464  75.750 116.092  0.00  0.00     0.091 C 
ENDROOT
BRANCH   1   7
ATOM      7  O   LIG d   1      -2.602  74.890 114.751  0.00  0.00    -0.368 OA
BRANCH   7   8
ATOM      8  C   LIG d   1      -1.190  74.819 115.069  0.00  0.00     0.119 C 
BRANCH   8   9
ATOM      9  C   LIG d   1      -1.069  74.355 116.533  0.00  0.00     0.028 C 
ATOM     10  C   LIG d   1      -0.280  75.350 117.400  0.00  0.00     0.006 C 
ENDBRANCH   8   9
BRANCH   8  11
ATOM     11  C   LIG d   1      -0.539  76.204 115.027  0.00  0.00     0.028 C 
ATOM     12  C   LIG d   1      -1.270  77.178 114.088  0.00  0.00     0.006 C 
ENDBRANCH   8  11
ENDBRANCH   7   8
ENDBRANCH   1   7
BRANCH   6  13
ATOM     13  N   LIG d   1      -3.692  76.792 116.818  0.00  0.00    -0.311 N 
ATOM     14  C   LIG d   1      -3.807  78.096 116.570  0.00  0.00     0.210 C 
ATOM     15  C   LIG d   1      -2.905  78.998 117.419  0.00  0.00     0.109 C 
ATOM     16  O   LIG d   1      -4.593  78.593 115.749  0.00  0.00    -0.276 OA
ATOM     17  H   LIG d   1      -3.054  76.479 117.523  0.00  0.00     0.149 HD
ENDBRANCH   6  13
BRANCH   5  18
ATOM     18  N   LIG d   1      -6.712  76.383 117.040  0.00  0.00     0.381 N 
ATOM     19  H   LIG d   1      -7.188  76.271 117.912  0.00  0.00    -0.090 HD
ATOM     20  H   LIG d   1      -7.390  76.326 116.300  0.00  0.00    -0.090 HD
ATOM     21  H   LIG d   1      -6.256  77.269 117.014  0.00  0.00    -0.090 HD
ENDBRANCH   5  18
BRANCH   3  22
ATOM     22  C   LIG d   1      -6.051  71.849 115.648  0.00  0.00     0.382 C 
ATOM     23  O   LIG d   1      -5.412  70.962 115.032  0.00  0.00    -0.241 OA
ATOM     24  O   LIG d   1      -7.170  71.579 116.125  0.00  0.00    -0.241 OA
ENDBRANCH   3  22
TORSDOF 7
ENDMDL
MODEL 4
REMARK VINA RESULT:      -5.6      2.136      2.591
REMARK  7 active torsions:
REMARK  status: ('A' for Active; 'I' for Inactive)
REMARK    1  A    between atoms: C_2  and  C_3 
REMARK    2  A    between atoms: C_3  and  O_6 
REMARK    3  A    between atoms: C_3  and  C_4 
REMARK    4  A    between atoms: C_7  and  O_6 
REMARK    5  A    between atoms: C_9  and  C_10 
REMARK    6  A    between atoms: N_15  and  C_14 
REMARK    7  A    between atoms: N_20  and  C_19 
REMARK       I    between atoms: C_22  and  N_20 
ROOT
ATOM      1  C   LIG d   1      -6.185  77.105 117.007  0.00  0.00     0.161 C 
ATOM      2  C   LIG d   1      -6.897  78.268 117.345  0.00  0.00     0.016 C 
ATOM      3  C   LIG d   1      -6.378  79.573 117.185  0.00  0.00     0.038 C 
ATOM      4  C   LIG d   1      -5.161  79.811 116.530  0.00  0.00     0.028 C 
ATOM      5  C   LIG d   1      -4.182  78.646 116.627  0.00  0.00    -0.047 C 
ATOM      6  C   LIG d   1      -4.900  77.349 116.188  0.00  0.00     0.091 C 
ENDROOT
BRANCH   1   7
ATOM      7  O   LIG d   1      -7.052  76.184 116.316  0.00  0.00    -0.368 OA
BRANCH   7   8
ATOM      8  C   LIG d   1      -7.765  75.235 117.146  0.00  0.00     0.119 C 
BRANCH   8   9
ATOM      9  C   LIG d   1      -7.285  73.824 116.752  0.00  0.00     0.028 C 
ATOM     10  C   LIG d   1      -6.069  73.367 117.576  0.00  0.00     0.006 C 
ENDBRANCH   8   9
BRANCH   8  11
ATOM     11  C   LIG d   1      -9.267  75.250 116.847  0.00  0.00     0.028 C 
ATOM     12  C   LIG d   1     -10.042  76.232 117.739  0.00  0.00     0.006 C 
ENDBRANCH   8  11
ENDBRANCH   7   8
ENDBRANCH   1   7
BRANCH   6  13
ATOM     13  N   LIG d   1      -4.039  76.147 116.333  0.00  0.00    -0.311 N 
ATOM     14  C   LIG d   1      -3.751  75.325 115.326  0.00  0.00     0.210 C 
ATOM     15  C   LIG d   1      -2.862  74.134 115.697  0.00  0.00     0.109 C 
ATOM     16  O   LIG d   1      -4.123  75.486 114.154  0.00  0.00    -0.276 OA
ATOM     17  H   LIG d   1      -3.670  75.958 117.245  0.00  0.00     0.149 HD
ENDBRANCH   6  13
BRANCH   5  18
ATOM     18  N   LIG d   1      -3.014  78.973 115.787  0.00  0.00     0.381 N 
ATOM     19  H   LIG d   1      -2.453  78.155 115.654  0.00  0.00    -0.090 HD
ATOM     20  H   LIG d   1      -2.458  79.664 116.259  0.00  0.00    -0.090 HD
ATOM     21  H   LIG d   1      -3.316  79.325 114.906  0.00  0.00    -0.090 HD
ENDBRANCH   5  18
BRANCH   3  22
ATOM     22  C   LIG d   1      -7.061  80.655 117.719  0.00  0.00     0.382 C 
ATOM     23  O   LIG d   1      -7.735  81.403 116.970  0.00  0.00    -0.241 OA
ATOM     24  O   LIG d   1      -6.977  80.918 118.933  0.00  0.00    -0.241 OA
ENDBRANCH   3  22
TORSDOF 7
ENDMDL
MODEL 5
REMARK VINA RESULT:      -5.4      1.585      2.226
REMARK  7 active torsions:
REMARK  status: ('A' for Active; 'I' for Inactive)
REMARK    1  A    between atoms: C_2  and  C_3 
REMARK    2  A    between atoms: C_3  and  O_6 
REMARK    3  A    between atoms: C_3  and  C_4 
REMARK    4  A    between atoms: C_7  and  O_6 
REMARK    5  A    between atoms: C_9  and  C_10 
REMARK    6  A    between atoms: N_15  and  C_14 
REMARK    7  A    between atoms: N_20  and  C_19 
REMARK       I    between atoms: C_22  and  N_20 
ROOT
ATOM      1  C   LIG d   1      -6.874  76.844 117.286  0.00  0.00     0.161 C 
ATOM      2  C   LIG d   1      -8.216  76.935 117.690  0.00  0.00     0.016 C 
ATOM      3  C   LIG d   1      -8.867  78.161 117.958  0.00  0.00     0.038 C 
ATOM      4  C   LIG d   1      -8.258  79.397 117.694  0.00  0.00     0.028 C 
ATOM      5  C   LIG d   1      -6.735  79.350 117.766  0.00  0.00    -0.047 C 
ATOM      6  C   LIG d   1      -6.227  78.186 116.885  0.00  0.00     0.091 C 
ENDROOT
BRANCH   1   7
ATOM      7  O   LIG d   1      -6.750  75.888 116.214  0.00  0.00    -0.368 OA
BRANCH   7   8
ATOM      8  C   LIG d   1      -5.941  74.719 116.494  0.00  0.00     0.119 C 
BRANCH   8   9
ATOM      9  C   LIG d   1      -5.167  74.373 115.207  0.00  0.00     0.028 C 
ATOM     10  C   LIG d   1      -5.092  75.559 114.230  0.00  0.00     0.006 C 
ENDBRANCH   8   9
BRANCH   8  11
ATOM     11  C   LIG d   1      -6.813  73.494 116.785  0.00  0.00     0.028 C 
ATOM     12  C   LIG d   1      -6.266  72.207 116.146  0.00  0.00     0.006 C 
ENDBRANCH   8  11
ENDBRANCH   7   8
ENDBRANCH   1   7
BRANCH   6  13
ATOM     13  N   LIG d   1      -4.753  78.016 116.965  0.00  0.00    -0.311 N 
ATOM     14  C   LIG d   1      -3.901  78.598 116.123  0.00  0.00     0.210 C 
ATOM     15  C   LIG d   1      -2.424  78.274 116.370  0.00  0.00     0.109 C 
ATOM     16  O   LIG d   1      -4.225  79.376 115.214  0.00  0.00    -0.276 OA
ATOM     17  H   LIG d   1      -4.400  77.425 117.693  0.00  0.00     0.149 HD
ENDBRANCH   6  13
BRANCH   5  18
ATOM     18  N   LIG d   1      -6.227  80.666 117.335  0.00  0.00     0.381 N 
ATOM     19  H   LIG d   1      -6.914  81.370 117.518  0.00  0.00    -0.090 HD
ATOM     20  H   LIG d   1      -6.057  80.640 116.345  0.00  0.00    -0.090 HD
ATOM     21  H   LIG d   1      -5.384  80.881 117.819  0.00  0.00    -0.090 HD
ENDBRANCH   5  18
BRANCH   3  22
ATOM     22  C   LIG d   1     -10.127  78.158 118.536  0.00  0.00     0.382 C 
ATOM     23  O   LIG d   1     -10.859  77.144 118.438  0.00  0.00    -0.241 OA
ATOM     24  O   LIG d   1     -10.559  79.173 119.115  0.00  0.00    -0.241 OA
ENDBRANCH   3  22
TORSDOF 7
ENDMDL
MODEL 6
REMARK VINA RESULT:      -5.4      2.326      4.850
REMARK  7 active torsions:
REMARK  status: ('A' for Active; 'I' for Inactive)
REMARK    1  A    between atoms: C_2  and  C_3 
REMARK    2  A    between atoms: C_3  and  O_6 
REMARK    3  A    between atoms: C_3  and  C_4 
REMARK    4  A    between atoms: C_7  and  O_6 
REMARK    5  A    between atoms: C_9  and  C_10 
REMARK    6  A    between atoms: N_15  and  C_14 
REMARK    7  A    between atoms: N_20  and  C_19 
REMARK       I    between atoms: C_22  and  N_20 
ROOT
ATOM      1  C   LIG d   1      -6.476  76.964 115.822  0.00  0.00     0.161 C 
ATOM      2  C   LIG d   1      -7.743  76.558 116.271  0.00  0.00     0.016 C 
ATOM      3  C   LIG d   1      -8.014  75.262 116.768  0.00  0.00     0.038 C 
ATOM      4  C   LIG d   1      -6.994  74.326 116.992  0.00  0.00     0.028 C 
ATOM      5  C   LIG d   1      -5.785  74.518 116.083  0.00  0.00    -0.047 C 
ATOM      6  C   LIG d   1      -5.327  75.992 116.162  0.00  0.00     0.091 C 
ENDROOT
BRANCH   1   7
ATOM      7  O   LIG d   1      -6.180  78.284 116.321  0.00  0.00    -0.368 OA
BRANCH   7   8
ATOM      8  C   LIG d   1      -6.819  78.651 117.568  0.00  0.00     0.119 C 
BRANCH   8   9
ATOM      9  C   LIG d   1      -7.265  80.121 117.445  0.00  0.00     0.028 C 
ATOM     10  C   LIG d   1      -8.697  80.345 117.959  0.00  0.00     0.006 C 
ENDBRANCH   8   9
BRANCH   8  11
ATOM     11  C   LIG d   1      -5.824  78.626 118.733  0.00  0.00     0.028 C 
ATOM     12  C   LIG d   1      -5.866  77.308 119.523  0.00  0.00     0.006 C 
ENDBRANCH   8  11
ENDBRANCH   7   8
ENDBRANCH   1   7
BRANCH   6  13
ATOM     13  N   LIG d   1      -4.200  76.286 115.238  0.00  0.00    -0.311 N 
ATOM     14  C   LIG d   1      -2.923  76.280 115.615  0.00  0.00     0.210 C 
ATOM     15  C   LIG d   1      -1.921  76.630 114.510  0.00  0.00     0.109 C 
ATOM     16  O   LIG d   1      -2.522  75.988 116.752  0.00  0.00    -0.276 OA
ATOM     17  H   LIG d   1      -4.433  76.503 114.289  0.00  0.00     0.149 HD
ENDBRANCH   6  13
BRANCH   5  18
ATOM     18  N   LIG d   1      -4.746  73.565 116.516  0.00  0.00     0.381 N 
ATOM     19  H   LIG d   1      -4.977  73.198 117.418  0.00  0.00    -0.090 HD
ATOM     20  H   LIG d   1      -3.869  74.051 116.589  0.00  0.00    -0.090 HD
ATOM     21  H   LIG d   1      -4.669  72.822 115.857  0.00  0.00    -0.090 HD
ENDBRANCH   5  18
BRANCH   3  22
ATOM     22  C   LIG d   1      -9.325  74.879 117.009  0.00  0.00     0.382 C 
ATOM     23  O   LIG d   1      -9.610  73.664 117.135  0.00  0.00    -0.241 OA
ATOM     24  O   LIG d   1     -10.233  75.730 117.057  0.00  0.00    -0.241 OA
ENDBRANCH   3  22
TORSDOF 7
ENDMDL
MODEL 7
REMARK VINA RESULT:      -5.3      2.545      5.140
REMARK  7 active torsions:
REMARK  status: ('A' for Active; 'I' for Inactive)
REMARK    1  A    between atoms: C_2  and  C_3 
REMARK    2  A    between atoms: C_3  and  O_6 
REMARK    3  A    between atoms: C_3  and  C_4 
REMARK    4  A    between atoms: C_7  and  O_6 
REMARK    5  A    between atoms: C_9  and  C_10 
REMARK    6  A    between atoms: N_15  and  C_14 
REMARK    7  A    between atoms: N_20  and  C_19 
REMARK       I    between atoms: C_22  and  N_20 
ROOT
ATOM      1  C   LIG d   1      -6.581  74.954 117.345  0.00  0.00     0.161 C 
ATOM      2  C   LIG d   1      -7.045  73.651 117.097  0.00  0.00     0.016 C 
ATOM      3  C   LIG d   1      -8.416  73.318 117.004  0.00  0.00     0.038 C 
ATOM      4  C   LIG d   1      -9.419  74.299 117.002  0.00  0.00     0.028 C 
ATOM      5  C   LIG d   1      -9.028  75.566 117.755  0.00  0.00    -0.047 C 
ATOM      6  C   LIG d   1      -7.657  76.055 117.236  0.00  0.00     0.091 C 
ENDROOT
BRANCH   1   7
ATOM      7  O   LIG d   1      -5.470  75.251 116.476  0.00  0.00    -0.368 OA
BRANCH   7   8
ATOM      8  C   LIG d   1      -5.549  74.711 115.134  0.00  0.00     0.119 C 
BRANCH   8   9
ATOM      9  C   LIG d   1      -4.230  73.964 114.858  0.00  0.00     0.028 C 
ATOM     10  C   LIG d   1      -3.238  74.071 116.028  0.00  0.00     0.006 C 
ENDBRANCH   8   9
BRANCH   8  11
ATOM     11  C   LIG d   1      -5.609  75.827 114.087  0.00  0.00     0.028 C 
ATOM     12  C   LIG d   1      -4.322  76.665 114.034  0.00  0.00     0.006 C 
ENDBRANCH   8  11
ENDBRANCH   7   8
ENDBRANCH   1   7
BRANCH   6  13
ATOM     13  N   LIG d   1      -7.161  77.244 117.977  0.00  0.00    -0.311 N 
ATOM     14  C   LIG d   1      -6.624  78.307 117.383  0.00  0.00     0.210 C 
ATOM     15  C   LIG d   1      -6.158  79.414 118.334  0.00  0.00     0.109 C 
ATOM     16  O   LIG d   1      -6.518  78.454 116.156  0.00  0.00    -0.276 OA
ATOM     17  H   LIG d   1      -7.237  77.223 118.976  0.00  0.00     0.149 HD
ENDBRANCH   6  13
BRANCH   5  18
ATOM     18  N   LIG d   1     -10.107  76.553 117.557  0.00  0.00     0.381 N 
ATOM     19  H   LIG d   1     -10.957  76.082 117.319  0.00  0.00    -0.090 HD
ATOM     20  H   LIG d   1      -9.857  77.158 116.795  0.00  0.00    -0.090 HD
ATOM     21  H   LIG d   1     -10.236  77.088 118.387  0.00  0.00    -0.090 HD
ENDBRANCH   5  18
BRANCH   3  22
ATOM     22  C   LIG d   1      -8.797  71.986 116.951  0.00  0.00     0.382 C 
ATOM     23  O   LIG d   1      -9.927  71.640 117.372  0.00  0.00    -0.241 OA
ATOM     24  O   LIG d   1      -8.008  71.120 116.528  0.00  0.00    -0.241 OA
ENDBRANCH   3  22
TORSDOF 7
ENDMDL
MODEL 8
REMARK VINA RESULT:      -5.3      2.283      4.321
REMARK  7 active torsions:
REMARK  status: ('A' for Active; 'I' for Inactive)
REMARK    1  A    between atoms: C_2  and  C_3 
REMARK    2  A    between atoms: C_3  and  O_6 
REMARK    3  A    between atoms: C_3  and  C_4 
REMARK    4  A    between atoms: C_7  and  O_6 
REMARK    5  A    between atoms: C_9  and  C_10 
REMARK    6  A    between atoms: N_15  and  C_14 
REMARK    7  A    between atoms: N_20  and  C_19 
REMARK       I    between atoms: C_22  and  N_20 
ROOT
ATOM      1  C   LIG d   1      -6.521  76.658 117.106  0.00  0.00     0.161 C 
ATOM      2  C   LIG d   1      -7.152  77.847 117.507  0.00  0.00     0.016 C 
ATOM      3  C   LIG d   1      -8.543  77.950 117.736  0.00  0.00     0.038 C 
ATOM      4  C   LIG d   1      -9.382  76.826 117.724  0.00  0.00     0.028 C 
ATOM      5  C   LIG d   1      -8.873  75.700 116.830  0.00  0.00    -0.047 C 
ATOM      6  C   LIG d   1      -7.403  75.395 117.196  0.00  0.00     0.091 C 
ENDROOT
BRANCH   1   7
ATOM      7  O   LIG d   1      -5.304  76.473 117.856  0.00  0.00    -0.368 OA
BRANCH   7   8
ATOM      8  C   LIG d   1      -4.087  76.940 117.222  0.00  0.00     0.119 C 
BRANCH   8   9
ATOM      9  C   LIG d   1      -3.353  75.706 116.664  0.00  0.00     0.028 C 
ATOM     10  C   LIG d   1      -3.565  75.530 115.151  0.00  0.00     0.006 C 
ENDBRANCH   8   9
BRANCH   8  11
ATOM     11  C   LIG d   1      -3.127  77.556 118.244  0.00  0.00     0.028 C 
ATOM     12  C   LIG d   1      -1.826  76.754 118.398  0.00  0.00     0.006 C 
ENDBRANCH   8  11
ENDBRANCH   7   8
ENDBRANCH   1   7
BRANCH   6  13
ATOM     13  N   LIG d   1      -6.802  74.362 116.312  0.00  0.00    -0.311 N 
ATOM     14  C   LIG d   1      -6.190  73.271 116.770  0.00  0.00     0.210 C 
ATOM     15  C   LIG d   1      -5.623  72.346 115.688  0.00  0.00     0.109 C 
ATOM     16  O   LIG d   1      -6.091  72.966 117.968  0.00  0.00    -0.276 OA
ATOM     17  H   LIG d   1      -6.864  74.515 115.324  0.00  0.00     0.149 HD
ENDBRANCH   6  13
BRANCH   5  18
ATOM     18  N   LIG d   1      -9.768  74.542 117.019  0.00  0.00     0.381 N 
ATOM     19  H   LIG d   1     -10.282  74.647 117.871  0.00  0.00    -0.090 HD
ATOM     20  H   LIG d   1      -9.211  73.709 117.088  0.00  0.00    -0.090 HD
ATOM     21  H   LIG d   1     -10.397  74.468 116.250  0.00  0.00    -0.090 HD
ENDBRANCH   5  18
BRANCH   3  22
ATOM     22  C   LIG d   1      -9.115  79.197 117.940  0.00  0.00     0.382 C 
ATOM     23  O   LIG d   1      -8.451  80.236 117.714  0.00  0.00    -0.241 OA
ATOM     24  O   LIG d   1     -10.272  79.295 118.391  0.00  0.00    -0.241 OA
ENDBRANCH   3  22
TORSDOF 7
ENDMDL
MODEL 9
REMARK VINA RESULT:      -5.3      2.087      5.110
REMARK  7 active torsions:
REMARK  status: ('A' for Active; 'I' for Inactive)
REMARK    1  A    between atoms: C_2  and  C_3 
REMARK    2  A    between atoms: C_3  and  O_6 
REMARK    3  A    between atoms: C_3  and  C_4 
REMARK    4  A    between atoms: C_7  and  O_6 
REMARK    5  A    between atoms: C_9  and  C_10 
REMARK    6  A    between atoms: N_15  and  C_14 
REMARK    7  A    between atoms: N_20  and  C_19 
REMARK       I    between atoms: C_22  and  N_20 
ROOT
ATOM      1  C   LIG d   1      -6.707  77.208 116.941  0.00  0.00     0.161 C 
ATOM      2  C   LIG d   1      -7.166  75.899 116.718  0.00  0.00     0.016 C 
ATOM      3  C   LIG d   1      -8.466  75.461 117.064  0.00  0.00     0.038 C 
ATOM      4  C   LIG d   1      -9.450  76.350 117.521  0.00  0.00     0.028 C 
ATOM      5  C   LIG d   1      -8.880  77.571 118.235  0.00  0.00    -0.047 C 
ATOM      6  C   LIG d   1      -7.803  78.220 117.336  0.00  0.00     0.091 C 
ENDROOT
BRANCH   1   7
ATOM      7  O   LIG d   1      -5.986  77.676 115.784  0.00  0.00    -0.368 OA
BRANCH   7   8
ATOM      8  C   LIG d   1      -4.560  77.420 115.774  0.00  0.00     0.119 C 
BRANCH   8   9
ATOM      9  C   LIG d   1      -3.845  78.784 115.721  0.00  0.00     0.028 C 
ATOM     10  C   LIG d   1      -3.486  79.314 117.120  0.00  0.00     0.006 C 
ENDBRANCH   8   9
BRANCH   8  11
ATOM     11  C   LIG d   1      -4.134  76.689 114.498  0.00  0.00     0.028 C 
ATOM     12  C   LIG d   1      -4.564  75.214 114.484  0.00  0.00     0.006 C 
ENDBRANCH   8  11
ENDBRANCH   7   8
ENDBRANCH   1   7
BRANCH   6  13
ATOM     13  N   LIG d   1      -7.134  79.372 117.995  0.00  0.00    -0.311 N 
ATOM     14  C   LIG d   1      -7.487  80.640 117.789  0.00  0.00     0.210 C 
ATOM     15  C   LIG d   1      -6.655  81.675 118.553  0.00  0.00     0.109 C 
ATOM     16  O   LIG d   1      -8.432  81.004 117.073  0.00  0.00    -0.276 OA
ATOM     17  H   LIG d   1      -6.377  79.166 118.617  0.00  0.00     0.149 HD
ENDBRANCH   6  13
BRANCH   5  18
ATOM     18  N   LIG d   1     -10.005  78.477 118.535  0.00  0.00     0.381 N 
ATOM     19  H   LIG d   1      -9.749  79.101 119.275  0.00  0.00    -0.090 HD
ATOM     20  H   LIG d   1     -10.790  77.930 118.841  0.00  0.00    -0.090 HD
ATOM     21  H   LIG d   1     -10.250  78.998 117.722  0.00  0.00    -0.090 HD
ENDBRANCH   5  18
BRANCH   3  22
ATOM     22  C   LIG d   1      -8.778  74.113 116.991  0.00  0.00     0.382 C 
ATOM     23  O   LIG d   1      -9.979  73.748 116.968  0.00  0.00    -0.241 OA
ATOM     24  O   LIG d   1      -7.876  73.254 116.992  0.00  0.00    -0.241 OA
ENDBRANCH   3  22
TORSDOF 7
ENDMDL
