MODEL 1
REMARK VINA RESULT:      -5.7      0.000      0.000
REMARK  7 active torsions:
REMARK  status: ('A' for Active; 'I' for Inactive)
REMARK    1  A    between atoms: C_2  and  C_3 
REMARK    2  A    between atoms: C_3  and  O_6 
REMARK    3  A    between atoms: C_3  and  C_4 
REMARK    4  A    between atoms: C_7  and  O_6 
REMARK    5  A    between atoms: C_9  and  C_10 
REMARK    6  A    between atoms: N_15  and  C_14 
REMARK    7  A    between atoms: N_20  and  C_19 
REMARK       I    between atoms: C_22  and  N_20 
ROOT
ATOM      1  C   LIG d   1      -3.137  76.144 116.556  0.00  0.00     0.161 C 
ATOM      2  C   LIG d   1      -3.482  76.908 115.428  0.00  0.00     0.016 C 
ATOM      3  C   LIG d   1      -2.534  77.389 114.495  0.00  0.00     0.038 C 
ATOM      4  C   LIG d   1      -1.185  77.009 114.545  0.00  0.00     0.028 C 
ATOM      5  C   LIG d   1      -0.708  76.654 115.949  0.00  0.00    -0.047 C 
ATOM      6  C   LIG d   1      -1.684  75.626 116.566  0.00  0.00     0.091 C 
ENDROOT
BRANCH   1   7
ATOM      7  O   LIG d   1      -4.061  75.048 116.704  0.00  0.00    -0.368 OA
BRANCH   7   8
ATOM      8  C   LIG d   1      -5.384  75.250 116.150  0.00  0.00     0.119 C 
BRANCH   8   9
ATOM      9  C   LIG d   1      -6.357  75.436 117.330  0.00  0.00     0.028 C 
ATOM     10  C   LIG d   1      -7.250  76.677 117.165  0.00  0.00     0.006 C 
ENDBRANCH   8   9
BRANCH   8  11
ATOM     11  C   LIG d   1      -5.876  74.001 115.412  0.00  0.00     0.028 C 
ATOM     12  C   LIG d   1      -6.741  73.089 116.295  0.00  0.00     0.006 C 
ENDBRANCH   8  11
ENDBRANCH   7   8
ENDBRANCH   1   7
BRANCH   6  13
ATOM     13  N   LIG d   1      -1.337  75.288 117.972  0.00  0.00    -0.311 N 
ATOM     14  C   LIG d   1      -0.939  74.077 118.357  0.00  0.00     0.210 C 
ATOM     15  C   LIG d   1      -0.651  73.938 119.855  0.00  0.00     0.109 C 
ATOM     16  O   LIG d   1      -0.765  73.113 117.596  0.00  0.00    -0.276 OA
ATOM     17  H   LIG d   1      -1.420  76.019 118.650  0.00  0.00     0.149 HD
ENDBRANCH   6  13
BRANCH   5  18
ATOM     18  N   LIG d   1       0.672  76.144 115.836  0.00  0.00     0.381 N 
ATOM     19  H   LIG d   1       1.143  76.244 116.712  0.00  0.00    -0.090 HD
ATOM     20  H   LIG d   1       1.164  76.689 115.149  0.00  0.00    -0.090 HD
ATOM     21  H   LIG d   1       0.661  75.186 115.564  0.00  0.00    -0.090 HD
ENDBRANCH   5  18
BRANCH   3  22
ATOM     22  C   LIG d   1      -2.928  78.293 113.520  0.00  0.00     0.382 C 
ATOM     23  O   LIG d   1      -2.841  79.526 113.737  0.00  0.00    -0.241 OA
ATOM     24  O   LIG d   1      -3.411  77.892 112.444  0.00  0.00    -0.241 OA
ENDBRANCH   3  22
TORSDOF 7
ENDMDL
MODEL 2
REMARK VINA RESULT:      -5.6      3.569      5.807
REMARK  7 active torsions:
REMARK  status: ('A' for Active; 'I' for Inactive)
REMARK    1  A    between atoms: C_2  and  C_3 
REMARK    2  A    between atoms: C_3  and  O_6 
REMARK    3  A    between atoms: C_3  and  C_4 
REMARK    4  A    between atoms: C_7  and  O_6 
REMARK    5  A    between atoms: C_9  and  C_10 
REMARK    6  A    between atoms: N_15  and  C_14 
REMARK    7  A    between atoms: N_20  and  C_19 
REMARK       I    between atoms: C_22  and  N_20 
ROOT
ATOM      1  C   LIG d   1      -7.167  76.771 117.292  0.00  0.00     0.161 C 
ATOM      2  C   LIG d   1      -8.473  77.210 117.565  0.00  0.00     0.016 C 
ATOM      3  C   LIG d   1      -8.797  78.554 117.860  0.00  0.00     0.038 C 
ATOM      4  C   LIG d   1      -7.851  79.585 117.751  0.00  0.00     0.028 C 
ATOM      5  C   LIG d   1      -6.417  79.117 117.971  0.00  0.00    -0.047 C 
ATOM      6  C   LIG d   1      -6.141  77.899 117.060  0.00  0.00     0.091 C 
ENDROOT
BRANCH   1   7
ATOM      7  O   LIG d   1      -7.181  75.867 116.169  0.00  0.00    -0.368 OA
BRANCH   7   8
ATOM      8  C   LIG d   1      -6.450  74.628 116.339  0.00  0.00     0.119 C 
BRANCH   8   9
ATOM      9  C   LIG d   1      -5.585  74.424 115.080  0.00  0.00     0.028 C 
ATOM     10  C   LIG d   1      -5.645  75.628 114.125  0.00  0.00     0.006 C 
ENDBRANCH   8   9
BRANCH   8  11
ATOM     11  C   LIG d   1      -7.396  73.424 116.380  0.00  0.00     0.028 C 
ATOM     12  C   LIG d   1      -6.731  72.127 115.894  0.00  0.00     0.006 C 
ENDBRANCH   8  11
ENDBRANCH   7   8
ENDBRANCH   1   7
BRANCH   6  13
ATOM     13  N   LIG d   1      -4.786  77.326 117.273  0.00  0.00    -0.311 N 
ATOM     14  C   LIG d   1      -3.727  77.655 116.537  0.00  0.00     0.210 C 
ATOM     15  C   LIG d   1      -2.429  76.932 116.912  0.00  0.00     0.109 C 
ATOM     16  O   LIG d   1      -3.731  78.500 115.629  0.00  0.00    -0.276 OA
ATOM     17  H   LIG d   1      -4.686  76.655 118.010  0.00  0.00     0.149 HD
ENDBRANCH   6  13
BRANCH   5  18
ATOM     18  N   LIG d   1      -5.527  80.260 117.694  0.00  0.00     0.381 N 
ATOM     19  H   LIG d   1      -5.881  80.785 116.919  0.00  0.00    -0.090 HD
ATOM     20  H   LIG d   1      -4.617  79.912 117.448  0.00  0.00    -0.090 HD
ATOM     21  H   LIG d   1      -5.461  80.844 118.498  0.00  0.00    -0.090 HD
ENDBRANCH   5  18
BRANCH   3  22
ATOM     22  C   LIG d   1     -10.070  78.873 118.307  0.00  0.00     0.382 C 
ATOM     23  O   LIG d   1     -10.464  80.064 118.279  0.00  0.00    -0.241 OA
ATOM     24  O   LIG d   1     -10.813  77.992 118.778  0.00  0.00    -0.241 OA
ENDBRANCH   3  22
TORSDOF 7
ENDMDL
MODEL 3
REMARK VINA RESULT:      -5.4      3.642      5.918
REMARK  7 active torsions:
REMARK  status: ('A' for Active; 'I' for Inactive)
REMARK    1  A    between atoms: C_2  and  C_3 
REMARK    2  A    between atoms: C_3  and  O_6 
REMARK    3  A    between atoms: C_3  and  C_4 
REMARK    4  A    between atoms: C_7  and  O_6 
REMARK    5  A    between atoms: C_9  and  C_10 
REMARK    6  A    between atoms: N_15  and  C_14 
REMARK    7  A    between atoms: N_20  and  C_19 
REMARK       I    between atoms: C_22  and  N_20 
ROOT
ATOM      1  C   LIG d   1      -6.692  77.443 116.995  0.00  0.00     0.161 C 
ATOM      2  C   LIG d   1      -8.053  77.635 117.286  0.00  0.00     0.016 C 
ATOM      3  C   LIG d   1      -8.538  78.714 118.060  0.00  0.00     0.038 C 
ATOM      4  C   LIG d   1      -7.705  79.764 118.473  0.00  0.00     0.028 C 
ATOM      5  C   LIG d   1      -6.245  79.352 118.633  0.00  0.00    -0.047 C 
ATOM      6  C   LIG d   1      -5.781  78.639 117.343  0.00  0.00     0.091 C 
ENDROOT
BRANCH   1   7
ATOM      7  O   LIG d   1      -6.535  77.080 115.609  0.00  0.00    -0.368 OA
BRANCH   7   8
ATOM      8  C   LIG d   1      -6.539  75.661 115.317  0.00  0.00     0.119 C 
BRANCH   8   9
ATOM      9  C   LIG d   1      -6.200  74.919 116.624  0.00  0.00     0.028 C 
ATOM     10  C   LIG d   1      -6.693  73.462 116.617  0.00  0.00     0.006 C 
ENDBRANCH   8   9
BRANCH   8  11
ATOM     11  C   LIG d   1      -5.420  75.290 114.339  0.00  0.00     0.028 C 
ATOM     12  C   LIG d   1      -4.031  75.280 114.998  0.00  0.00     0.006 C 
ENDBRANCH   8  11
ENDBRANCH   7   8
ENDBRANCH   1   7
BRANCH   6  13
ATOM     13  N   LIG d   1      -4.389  78.128 117.447  0.00  0.00    -0.311 N 
ATOM     14  C   LIG d   1      -3.416  78.474 116.605  0.00  0.00     0.210 C 
ATOM     15  C   LIG d   1      -2.060  77.817 116.880  0.00  0.00     0.109 C 
ATOM     16  O   LIG d   1      -3.540  79.288 115.677  0.00  0.00    -0.276 OA
ATOM     17  H   LIG d   1      -4.193  77.487 118.190  0.00  0.00     0.149 HD
ENDBRANCH   6  13
BRANCH   5  18
ATOM     18  N   LIG d   1      -5.468  80.570 118.931  0.00  0.00     0.381 N 
ATOM     19  H   LIG d   1      -5.782  81.323 118.351  0.00  0.00    -0.090 HD
ATOM     20  H   LIG d   1      -4.500  80.396 118.727  0.00  0.00    -0.090 HD
ATOM     21  H   LIG d   1      -5.574  80.816 119.891  0.00  0.00    -0.090 HD
ENDBRANCH   5  18
BRANCH   3  22
ATOM     22  C   LIG d   1      -9.865  78.729 118.464  0.00  0.00     0.382 C 
ATOM     23  O   LIG d   1     -10.309  79.700 119.121  0.00  0.00    -0.241 OA
ATOM     24  O   LIG d   1     -10.611  77.762 118.217  0.00  0.00    -0.241 OA
ENDBRANCH   3  22
TORSDOF 7
ENDMDL
MODEL 4
REMARK VINA RESULT:      -5.3      1.432      4.791
REMARK  7 active torsions:
REMARK  status: ('A' for Active; 'I' for Inactive)
REMARK    1  A    between atoms: C_2  and  C_3 
REMARK    2  A    between atoms: C_3  and  O_6 
REMARK    3  A    between atoms: C_3  and  C_4 
REMARK    4  A    between atoms: C_7  and  O_6 
REMARK    5  A    between atoms: C_9  and  C_10 
REMARK    6  A    between atoms: N_15  and  C_14 
REMARK    7  A    between atoms: N_20  and  C_19 
REMARK       I    between atoms: C_22  and  N_20 
ROOT
ATOM      1  C   LIG d   1      -3.020  75.617 115.739  0.00  0.00     0.161 C 
ATOM      2  C   LIG d   1      -2.667  74.758 116.793  0.00  0.00     0.016 C 
ATOM      3  C   LIG d   1      -1.464  74.878 117.525  0.00  0.00     0.038 C 
ATOM      4  C   LIG d   1      -0.595  75.965 117.350  0.00  0.00     0.028 C 
ATOM      5  C   LIG d   1      -0.661  76.574 115.954  0.00  0.00    -0.047 C 
ATOM      6  C   LIG d   1      -2.137  76.875 115.607  0.00  0.00     0.091 C 
ENDROOT
BRANCH   1   7
ATOM      7  O   LIG d   1      -4.408  75.988 115.854  0.00  0.00    -0.368 OA
BRANCH   7   8
ATOM      8  C   LIG d   1      -5.260  75.058 116.566  0.00  0.00     0.119 C 
BRANCH   8   9
ATOM      9  C   LIG d   1      -6.150  74.355 115.523  0.00  0.00     0.028 C 
ATOM     10  C   LIG d   1      -6.519  72.920 115.937  0.00  0.00     0.006 C 
ENDBRANCH   8   9
BRANCH   8  11
ATOM     11  C   LIG d   1      -6.228  75.790 117.499  0.00  0.00     0.028 C 
ATOM     12  C   LIG d   1      -7.375  76.482 116.744  0.00  0.00     0.006 C 
ENDBRANCH   8  11
ENDBRANCH   7   8
ENDBRANCH   1   7
BRANCH   6  13
ATOM     13  N   LIG d   1      -2.299  77.396 114.224  0.00  0.00    -0.311 N 
ATOM     14  C   LIG d   1      -2.322  78.694 113.928  0.00  0.00     0.210 C 
ATOM     15  C   LIG d   1      -2.520  79.015 112.443  0.00  0.00     0.109 C 
ATOM     16  O   LIG d   1      -2.165  79.610 114.749  0.00  0.00    -0.276 OA
ATOM     17  H   LIG d   1      -2.401  76.721 113.492  0.00  0.00     0.149 HD
ENDBRANCH   6  13
BRANCH   5  18
ATOM     18  N   LIG d   1       0.191  77.779 115.953  0.00  0.00     0.381 N 
ATOM     19  H   LIG d   1       0.817  77.752 116.733  0.00  0.00    -0.090 HD
ATOM     20  H   LIG d   1      -0.395  78.591 116.046  0.00  0.00    -0.090 HD
ATOM     21  H   LIG d   1       0.708  77.830 115.103  0.00  0.00    -0.090 HD
ENDBRANCH   5  18
BRANCH   3  22
ATOM     22  C   LIG d   1      -1.100  73.881 118.418  0.00  0.00     0.382 C 
ATOM     23  O   LIG d   1      -1.046  74.128 119.647  0.00  0.00    -0.241 OA
ATOM     24  O   LIG d   1      -0.782  72.749 118.005  0.00  0.00    -0.241 OA
ENDBRANCH   3  22
TORSDOF 7
ENDMDL
MODEL 5
REMARK VINA RESULT:      -5.0      3.452      6.410
REMARK  7 active torsions:
REMARK  status: ('A' for Active; 'I' for Inactive)
REMARK    1  A    between atoms: C_2  and  C_3 
REMARK    2  A    between atoms: C_3  and  O_6 
REMARK    3  A    between atoms: C_3  and  C_4 
REMARK    4  A    between atoms: C_7  and  O_6 
REMARK    5  A    between atoms: C_9  and  C_10 
REMARK    6  A    between atoms: N_15  and  C_14 
REMARK    7  A    between atoms: N_20  and  C_19 
REMARK       I    between atoms: C_22  and  N_20 
ROOT
ATOM      1  C   LIG d   1      -4.652  77.960 116.698  0.00  0.00     0.161 C 
ATOM      2  C   LIG d   1      -4.592  76.801 115.907  0.00  0.00     0.016 C 
ATOM      3  C   LIG d   1      -5.716  75.990 115.629  0.00  0.00     0.038 C 
ATOM      4  C   LIG d   1      -7.015  76.370 116.000  0.00  0.00     0.028 C 
ATOM      5  C   LIG d   1      -7.054  77.270 117.230  0.00  0.00    -0.047 C 
ATOM      6  C   LIG d   1      -6.080  78.451 117.019  0.00  0.00     0.091 C 
ENDROOT
BRANCH   1   7
ATOM      7  O   LIG d   1      -3.888  79.014 116.079  0.00  0.00    -0.368 OA
BRANCH   7   8
ATOM      8  C   LIG d   1      -2.729  78.597 115.316  0.00  0.00     0.119 C 
BRANCH   8   9
ATOM      9  C   LIG d   1      -1.478  78.952 116.143  0.00  0.00     0.028 C 
ATOM     10  C   LIG d   1      -0.409  77.847 116.095  0.00  0.00     0.006 C 
ENDBRANCH   8   9
BRANCH   8  11
ATOM     11  C   LIG d   1      -2.598  79.399 114.018  0.00  0.00     0.028 C 
ATOM     12  C   LIG d   1      -2.534  78.505 112.769  0.00  0.00     0.006 C 
ENDBRANCH   8  11
ENDBRANCH   7   8
ENDBRANCH   1   7
BRANCH   6  13
ATOM     13  N   LIG d   1      -5.994  79.335 118.211  0.00  0.00    -0.311 N 
ATOM     14  C   LIG d   1      -6.418  80.598 118.219  0.00  0.00     0.210 C 
ATOM     15  C   LIG d   1      -6.218  81.338 119.545  0.00  0.00     0.109 C 
ATOM     16  O   LIG d   1      -6.970  81.164 117.264  0.00  0.00    -0.276 OA
ATOM     17  H   LIG d   1      -5.588  78.946 119.039  0.00  0.00     0.149 HD
ENDBRANCH   6  13
BRANCH   5  18
ATOM     18  N   LIG d   1      -8.452  77.701 117.422  0.00  0.00     0.381 N 
ATOM     19  H   LIG d   1      -8.667  78.446 116.790  0.00  0.00    -0.090 HD
ATOM     20  H   LIG d   1      -8.560  78.042 118.361  0.00  0.00    -0.090 HD
ATOM     21  H   LIG d   1      -9.069  76.935 117.266  0.00  0.00    -0.090 HD
ENDBRANCH   5  18
BRANCH   3  22
ATOM     22  C   LIG d   1      -5.542  74.764 115.005  0.00  0.00     0.382 C 
ATOM     23  O   LIG d   1      -6.123  73.745 115.451  0.00  0.00    -0.241 OA
ATOM     24  O   LIG d   1      -4.775  74.654 114.030  0.00  0.00    -0.241 OA
ENDBRANCH   3  22
TORSDOF 7
ENDMDL
MODEL 6
REMARK VINA RESULT:      -5.0      2.733      4.083
REMARK  7 active torsions:
REMARK  status: ('A' for Active; 'I' for Inactive)
REMARK    1  A    between atoms: C_2  and  C_3 
REMARK    2  A    between atoms: C_3  and  O_6 
REMARK    3  A    between atoms: C_3  and  C_4 
REMARK    4  A    between atoms: C_7  and  O_6 
REMARK    5  A    between atoms: C_9  and  C_10 
REMARK    6  A    between atoms: N_15  and  C_14 
REMARK    7  A    between atoms: N_20  and  C_19 
REMARK       I    between atoms: C_22  and  N_20 
ROOT
ATOM      1  C   LIG d   1      -5.458  76.107 118.046  0.00  0.00     0.161 C 
ATOM      2  C   LIG d   1      -6.632  76.855 117.857  0.00  0.00     0.016 C 
ATOM      3  C   LIG d   1      -6.633  78.237 117.557  0.00  0.00     0.038 C 
ATOM      4  C   LIG d   1      -5.450  78.936 117.275  0.00  0.00     0.028 C 
ATOM      5  C   LIG d   1      -4.219  78.339 117.949  0.00  0.00    -0.047 C 
ATOM      6  C   LIG d   1      -4.158  76.827 117.634  0.00  0.00     0.091 C 
ENDROOT
BRANCH   1   7
ATOM      7  O   LIG d   1      -5.569  74.843 117.363  0.00  0.00    -0.368 OA
BRANCH   7   8
ATOM      8  C   LIG d   1      -6.478  74.805 116.235  0.00  0.00     0.119 C 
BRANCH   8   9
ATOM      9  C   LIG d   1      -7.369  73.559 116.399  0.00  0.00     0.028 C 
ATOM     10  C   LIG d   1      -6.667  72.271 115.937  0.00  0.00     0.006 C 
ENDBRANCH   8   9
BRANCH   8  11
ATOM     11  C   LIG d   1      -5.724  74.594 114.919  0.00  0.00     0.028 C 
ATOM     12  C   LIG d   1      -5.299  75.915 114.257  0.00  0.00     0.006 C 
ENDBRANCH   8  11
ENDBRANCH   7   8
ENDBRANCH   1   7
BRANCH   6  13
ATOM     13  N   LIG d   1      -3.030  76.150 118.325  0.00  0.00    -0.311 N 
ATOM     14  C   LIG d   1      -2.218  75.281 117.724  0.00  0.00     0.210 C 
ATOM     15  C   LIG d   1      -1.132  74.683 118.624  0.00  0.00     0.109 C 
ATOM     16  O   LIG d   1      -2.274  74.973 116.524  0.00  0.00    -0.276 OA
ATOM     17  H   LIG d   1      -2.892  76.365 119.293  0.00  0.00     0.149 HD
ENDBRANCH   6  13
BRANCH   5  18
ATOM     18  N   LIG d   1      -3.041  79.080 117.461  0.00  0.00     0.381 N 
ATOM     19  H   LIG d   1      -3.275  80.045 117.338  0.00  0.00    -0.090 HD
ATOM     20  H   LIG d   1      -2.767  78.705 116.570  0.00  0.00    -0.090 HD
ATOM     21  H   LIG d   1      -2.290  78.993 118.111  0.00  0.00    -0.090 HD
ENDBRANCH   5  18
BRANCH   3  22
ATOM     22  C   LIG d   1      -7.827  78.943 117.575  0.00  0.00     0.382 C 
ATOM     23  O   LIG d   1      -7.823  80.186 117.405  0.00  0.00    -0.241 OA
ATOM     24  O   LIG d   1      -8.903  78.358 117.803  0.00  0.00    -0.241 OA
ENDBRANCH   3  22
TORSDOF 7
ENDMDL
MODEL 7
REMARK VINA RESULT:      -4.8     20.019     22.415
REMARK  7 active torsions:
REMARK  status: ('A' for Active; 'I' for Inactive)
REMARK    1  A    between atoms: C_2  and  C_3 
REMARK    2  A    between atoms: C_3  and  O_6 
REMARK    3  A    between atoms: C_3  and  C_4 
REMARK    4  A    between atoms: C_7  and  O_6 
REMARK    5  A    between atoms: C_9  and  C_10 
REMARK    6  A    between atoms: N_15  and  C_14 
REMARK    7  A    between atoms: N_20  and  C_19 
REMARK       I    between atoms: C_22  and  N_20 
ROOT
ATOM      1  C   LIG d   1     -23.326  83.315 115.137  0.00  0.00     0.161 C 
ATOM      2  C   LIG d   1     -22.544  84.472 114.985  0.00  0.00     0.016 C 
ATOM      3  C   LIG d   1     -22.946  85.587 114.214  0.00  0.00     0.038 C 
ATOM      4  C   LIG d   1     -24.232  85.682 113.661  0.00  0.00     0.028 C 
ATOM      5  C   LIG d   1     -24.866  84.326 113.366  0.00  0.00    -0.047 C 
ATOM      6  C   LIG d   1     -24.779  83.445 114.633  0.00  0.00     0.091 C 
ENDROOT
BRANCH   1   7
ATOM      7  O   LIG d   1     -23.309  82.891 116.514  0.00  0.00    -0.368 OA
BRANCH   7   8
ATOM      8  C   LIG d   1     -22.344  81.865 116.854  0.00  0.00     0.119 C 
BRANCH   8   9
ATOM      9  C   LIG d   1     -23.121  80.553 117.072  0.00  0.00     0.028 C 
ATOM     10  C   LIG d   1     -22.937  79.561 115.911  0.00  0.00     0.006 C 
ENDBRANCH   8   9
BRANCH   8  11
ATOM     11  C   LIG d   1     -21.664  82.162 118.194  0.00  0.00     0.028 C 
ATOM     12  C   LIG d   1     -20.942  80.938 118.780  0.00  0.00     0.006 C 
ENDBRANCH   8  11
ENDBRANCH   7   8
ENDBRANCH   1   7
BRANCH   6  13
ATOM     13  N   LIG d   1     -25.300  82.072 114.405  0.00  0.00    -0.311 N 
ATOM     14  C   LIG d   1     -26.238  81.508 115.165  0.00  0.00     0.210 C 
ATOM     15  C   LIG d   1     -26.618  80.078 114.769  0.00  0.00     0.109 C 
ATOM     16  O   LIG d   1     -26.813  82.069 116.110  0.00  0.00    -0.276 OA
ATOM     17  H   LIG d   1     -24.911  81.557 113.640  0.00  0.00     0.149 HD
ENDBRANCH   6  13
BRANCH   5  18
ATOM     18  N   LIG d   1     -26.252  84.569 112.925  0.00  0.00     0.381 N 
ATOM     19  H   LIG d   1     -26.527  83.867 112.267  0.00  0.00    -0.090 HD
ATOM     20  H   LIG d   1     -26.296  85.463 112.468  0.00  0.00    -0.090 HD
ATOM     21  H   LIG d   1     -26.867  84.558 113.709  0.00  0.00    -0.090 HD
ENDBRANCH   5  18
BRANCH   3  22
ATOM     22  C   LIG d   1     -22.042  86.606 113.955  0.00  0.00     0.382 C 
ATOM     23  O   LIG d   1     -21.076  86.405 113.180  0.00  0.00    -0.241 OA
ATOM     24  O   LIG d   1     -22.154  87.709 114.522  0.00  0.00    -0.241 OA
ENDBRANCH   3  22
TORSDOF 7
ENDMDL
MODEL 8
REMARK VINA RESULT:      -4.8     11.879     14.662
REMARK  7 active torsions:
REMARK  status: ('A' for Active; 'I' for Inactive)
REMARK    1  A    between atoms: C_2  and  C_3 
REMARK    2  A    between atoms: C_3  and  O_6 
REMARK    3  A    between atoms: C_3  and  C_4 
REMARK    4  A    between atoms: C_7  and  O_6 
REMARK    5  A    between atoms: C_9  and  C_10 
REMARK    6  A    between atoms: N_15  and  C_14 
REMARK    7  A    between atoms: N_20  and  C_19 
REMARK       I    between atoms: C_22  and  N_20 
ROOT
ATOM      1  C   LIG d   1      10.226  78.829 114.939  0.00  0.00     0.161 C 
ATOM      2  C   LIG d   1       8.907  79.057 115.368  0.00  0.00     0.016 C 
ATOM      3  C   LIG d   1       8.004  78.018 115.692  0.00  0.00     0.038 C 
ATOM      4  C   LIG d   1       8.410  76.676 115.756  0.00  0.00     0.028 C 
ATOM      5  C   LIG d   1       9.590  76.356 114.845  0.00  0.00    -0.047 C 
ATOM      6  C   LIG d   1      10.720  77.378 115.110  0.00  0.00     0.091 C 
ENDROOT
BRANCH   1   7
ATOM      7  O   LIG d   1      11.119  79.744 115.604  0.00  0.00    -0.368 OA
BRANCH   7   8
ATOM      8  C   LIG d   1      11.789  80.710 114.756  0.00  0.00     0.119 C 
BRANCH   8   9
ATOM      9  C   LIG d   1      11.180  80.589 113.346  0.00  0.00     0.028 C 
ATOM     10  C   LIG d   1      12.250  80.389 112.260  0.00  0.00     0.006 C 
ENDBRANCH   8   9
BRANCH   8  11
ATOM     11  C   LIG d   1      13.273  80.370 114.588  0.00  0.00     0.028 C 
ATOM     12  C   LIG d   1      13.907  79.817 115.875  0.00  0.00     0.006 C 
ENDBRANCH   8  11
ENDBRANCH   7   8
ENDBRANCH   1   7
BRANCH   6  13
ATOM     13  N   LIG d   1      11.880  77.188 114.200  0.00  0.00    -0.311 N 
ATOM     14  C   LIG d   1      12.951  76.464 114.520  0.00  0.00     0.210 C 
ATOM     15  C   LIG d   1      14.042  76.415 113.446  0.00  0.00     0.109 C 
ATOM     16  O   LIG d   1      13.088  75.832 115.578  0.00  0.00    -0.276 OA
ATOM     17  H   LIG d   1      11.839  77.641 113.308  0.00  0.00     0.149 HD
ENDBRANCH   6  13
BRANCH   5  18
ATOM     18  N   LIG d   1       9.995  74.964 115.113  0.00  0.00     0.381 N 
ATOM     19  H   LIG d   1      10.530  74.923 115.958  0.00  0.00    -0.090 HD
ATOM     20  H   LIG d   1      10.575  74.642 114.357  0.00  0.00    -0.090 HD
ATOM     21  H   LIG d   1       9.190  74.383 115.193  0.00  0.00    -0.090 HD
ENDBRANCH   5  18
BRANCH   3  22
ATOM     22  C   LIG d   1       6.669  78.314 115.919  0.00  0.00     0.382 C 
ATOM     23  O   LIG d   1       5.910  77.446 116.414  0.00  0.00    -0.241 OA
ATOM     24  O   LIG d   1       6.203  79.422 115.594  0.00  0.00    -0.241 OA
ENDBRANCH   3  22
TORSDOF 7
ENDMDL
MODEL 9
REMARK VINA RESULT:      -4.8      3.108      4.738
REMARK  7 active torsions:
REMARK  status: ('A' for Active; 'I' for Inactive)
REMARK    1  A    between atoms: C_2  and  C_3 
REMARK    2  A    between atoms: C_3  and  O_6 
REMARK    3  A    between atoms: C_3  and  C_4 
REMARK    4  A    between atoms: C_7  and  O_6 
REMARK    5  A    between atoms: C_9  and  C_10 
REMARK    6  A    between atoms: N_15  and  C_14 
REMARK    7  A    between atoms: N_20  and  C_19 
REMARK       I    between atoms: C_22  and  N_20 
ROOT
ATOM      1  C   LIG d   1      -3.279  78.435 116.949  0.00  0.00     0.161 C 
ATOM      2  C   LIG d   1      -2.407  79.391 117.497  0.00  0.00     0.016 C 
ATOM      3  C   LIG d   1      -1.040  79.489 117.146  0.00  0.00     0.038 C 
ATOM      4  C   LIG d   1      -0.486  78.729 116.104  0.00  0.00     0.028 C 
ATOM      5  C   LIG d   1      -1.204  77.404 115.873  0.00  0.00    -0.047 C 
ATOM      6  C   LIG d   1      -2.719  77.672 115.731  0.00  0.00     0.091 C 
ENDROOT
BRANCH   1   7
ATOM      7  O   LIG d   1      -4.537  79.056 116.617  0.00  0.00    -0.368 OA
BRANCH   7   8
ATOM      8  C   LIG d   1      -5.608  78.877 117.576  0.00  0.00     0.119 C 
BRANCH   8   9
ATOM      9  C   LIG d   1      -6.617  77.885 116.964  0.00  0.00     0.028 C 
ATOM     10  C   LIG d   1      -6.536  76.492 117.610  0.00  0.00     0.006 C 
ENDBRANCH   8   9
BRANCH   8  11
ATOM     11  C   LIG d   1      -6.392  80.176 117.784  0.00  0.00     0.028 C 
ATOM     12  C   LIG d   1      -6.020  80.894 119.091  0.00  0.00     0.006 C 
ENDBRANCH   8  11
ENDBRANCH   7   8
ENDBRANCH   1   7
BRANCH   6  13
ATOM     13  N   LIG d   1      -3.505  76.418 115.586  0.00  0.00    -0.311 N 
ATOM     14  C   LIG d   1      -4.271  76.151 114.529  0.00  0.00     0.210 C 
ATOM     15  C   LIG d   1      -5.012  74.812 114.589  0.00  0.00     0.109 C 
ATOM     16  O   LIG d   1      -4.382  76.882 113.533  0.00  0.00    -0.276 OA
ATOM     17  H   LIG d   1      -3.449  75.755 116.334  0.00  0.00     0.149 HD
ENDBRANCH   6  13
BRANCH   5  18
ATOM     18  N   LIG d   1      -0.612  76.780 114.675  0.00  0.00     0.381 N 
ATOM     19  H   LIG d   1       0.373  76.659 114.807  0.00  0.00    -0.090 HD
ATOM     20  H   LIG d   1      -0.751  77.390 113.888  0.00  0.00    -0.090 HD
ATOM     21  H   LIG d   1      -1.042  75.898 114.501  0.00  0.00    -0.090 HD
ENDBRANCH   5  18
BRANCH   3  22
ATOM     22  C   LIG d   1      -0.204  80.326 117.868  0.00  0.00     0.382 C 
ATOM     23  O   LIG d   1       0.485  81.189 117.272  0.00  0.00    -0.241 OA
ATOM     24  O   LIG d   1      -0.096  80.200 119.102  0.00  0.00    -0.241 OA
ENDBRANCH   3  22
TORSDOF 7
ENDMDL
