MODEL 1
REMARK VINA RESULT:      -5.7      0.000      0.000
REMARK  7 active torsions:
REMARK  status: ('A' for Active; 'I' for Inactive)
REMARK    1  A    between atoms: C_2  and  C_3 
REMARK    2  A    between atoms: C_3  and  O_6 
REMARK    3  A    between atoms: C_3  and  C_4 
REMARK    4  A    between atoms: C_7  and  O_6 
REMARK    5  A    between atoms: C_9  and  C_10 
REMARK    6  A    between atoms: N_15  and  C_14 
REMARK    7  A    between atoms: N_20  and  C_19 
REMARK       I    between atoms: C_22  and  N_20 
ROOT
ATOM      1  C   LIG d   1      -6.087  92.495 118.084  0.00  0.00     0.161 C 
ATOM      2  C   LIG d   1      -7.084  91.689 117.509  0.00  0.00     0.016 C 
ATOM      3  C   LIG d   1      -6.806  90.524 116.758  0.00  0.00     0.038 C 
ATOM      4  C   LIG d   1      -5.509  89.998 116.658  0.00  0.00     0.028 C 
ATOM      5  C   LIG d   1      -4.416  91.053 116.797  0.00  0.00    -0.047 C 
ATOM      6  C   LIG d   1      -4.674  91.877 118.079  0.00  0.00     0.091 C 
ENDROOT
BRANCH   1   7
ATOM      7  O   LIG d   1      -6.469  92.863 119.424  0.00  0.00    -0.368 OA
BRANCH   7   8
ATOM      8  C   LIG d   1      -6.814  94.255 119.629  0.00  0.00     0.119 C 
BRANCH   8   9
ATOM      9  C   LIG d   1      -8.350  94.364 119.575  0.00  0.00     0.028 C 
ATOM     10  C   LIG d   1      -8.840  95.158 118.352  0.00  0.00     0.006 C 
ENDBRANCH   8   9
BRANCH   8  11
ATOM     11  C   LIG d   1      -6.305  95.130 118.480  0.00  0.00     0.028 C 
ATOM     12  C   LIG d   1      -5.293  96.191 118.943  0.00  0.00     0.006 C 
ENDBRANCH   8  11
ENDBRANCH   7   8
ENDBRANCH   1   7
BRANCH   6  13
ATOM     13  N   LIG d   1      -3.698  92.985 118.246  0.00  0.00    -0.311 N 
ATOM     14  C   LIG d   1      -2.584  92.878 118.970  0.00  0.00     0.210 C 
ATOM     15  C   LIG d   1      -1.727  94.147 119.027  0.00  0.00     0.109 C 
ATOM     16  O   LIG d   1      -2.210  91.845 119.543  0.00  0.00    -0.276 OA
ATOM     17  H   LIG d   1      -3.908  93.851 117.789  0.00  0.00     0.149 HD
ENDBRANCH   6  13
BRANCH   5  18
ATOM     18  N   LIG d   1      -3.119  90.350 116.811  0.00  0.00     0.381 N 
ATOM     19  H   LIG d   1      -3.049  89.786 117.634  0.00  0.00    -0.090 HD
ATOM     20  H   LIG d   1      -2.381  91.032 116.833  0.00  0.00    -0.090 HD
ATOM     21  H   LIG d   1      -3.031  89.780 115.999  0.00  0.00    -0.090 HD
ENDBRANCH   5  18
BRANCH   3  22
ATOM     22  C   LIG d   1      -7.828  89.893 116.064  0.00  0.00     0.382 C 
ATOM     23  O   LIG d   1      -8.342  88.845 116.522  0.00  0.00    -0.241 OA
ATOM     24  O   LIG d   1      -8.211  90.335 114.964  0.00  0.00    -0.241 OA
ENDBRANCH   3  22
TORSDOF 7
ENDMDL
MODEL 2
REMARK VINA RESULT:      -5.4      1.825      4.448
REMARK  7 active torsions:
REMARK  status: ('A' for Active; 'I' for Inactive)
REMARK    1  A    between atoms: C_2  and  C_3 
REMARK    2  A    between atoms: C_3  and  O_6 
REMARK    3  A    between atoms: C_3  and  C_4 
REMARK    4  A    between atoms: C_7  and  O_6 
REMARK    5  A    between atoms: C_9  and  C_10 
REMARK    6  A    between atoms: N_15  and  C_14 
REMARK    7  A    between atoms: N_20  and  C_19 
REMARK       I    between atoms: C_22  and  N_20 
ROOT
ATOM      1  C   LIG d   1      -6.340  92.141 119.031  0.00  0.00     0.161 C 
ATOM      2  C   LIG d   1      -7.576  92.797 118.902  0.00  0.00     0.016 C 
ATOM      3  C   LIG d   1      -7.702  94.196 118.746  0.00  0.00     0.038 C 
ATOM      4  C   LIG d   1      -6.586  95.024 118.555  0.00  0.00     0.028 C 
ATOM      5  C   LIG d   1      -5.309  94.474 119.182  0.00  0.00    -0.047 C 
ATOM      6  C   LIG d   1      -5.109  93.015 118.713  0.00  0.00     0.091 C 
ENDROOT
BRANCH   1   7
ATOM      7  O   LIG d   1      -6.332  90.950 118.219  0.00  0.00    -0.368 OA
BRANCH   7   8
ATOM      8  C   LIG d   1      -6.630  91.135 116.813  0.00  0.00     0.119 C 
BRANCH   8   9
ATOM      9  C   LIG d   1      -7.606  90.018 116.396  0.00  0.00     0.028 C 
ATOM     10  C   LIG d   1      -7.822  89.966 114.874  0.00  0.00     0.006 C 
ENDBRANCH   8   9
BRANCH   8  11
ATOM     11  C   LIG d   1      -5.383  90.928 115.948  0.00  0.00     0.028 C 
ATOM     12  C   LIG d   1      -4.430  89.867 116.520  0.00  0.00     0.006 C 
ENDBRANCH   8  11
ENDBRANCH   7   8
ENDBRANCH   1   7
BRANCH   6  13
ATOM     13  N   LIG d   1      -3.927  92.373 119.347  0.00  0.00    -0.311 N 
ATOM     14  C   LIG d   1      -2.734  92.295 118.761  0.00  0.00     0.210 C 
ATOM     15  C   LIG d   1      -1.657  91.575 119.579  0.00  0.00     0.109 C 
ATOM     16  O   LIG d   1      -2.456  92.782 117.654  0.00  0.00    -0.276 OA
ATOM     17  H   LIG d   1      -4.056  91.980 120.258  0.00  0.00     0.149 HD
ENDBRANCH   6  13
BRANCH   5  18
ATOM     18  N   LIG d   1      -4.201  95.365 118.790  0.00  0.00     0.381 N 
ATOM     19  H   LIG d   1      -3.327  94.893 118.915  0.00  0.00    -0.090 HD
ATOM     20  H   LIG d   1      -4.210  96.175 119.384  0.00  0.00    -0.090 HD
ATOM     21  H   LIG d   1      -4.305  95.640 117.838  0.00  0.00    -0.090 HD
ENDBRANCH   5  18
BRANCH   3  22
ATOM     22  C   LIG d   1      -8.955  94.786 118.821  0.00  0.00     0.382 C 
ATOM     23  O   LIG d   1      -9.948  94.106 119.177  0.00  0.00    -0.241 OA
ATOM     24  O   LIG d   1      -9.113  95.977 118.493  0.00  0.00    -0.241 OA
ENDBRANCH   3  22
TORSDOF 7
ENDMDL
MODEL 3
REMARK VINA RESULT:      -4.8      9.175     11.657
REMARK  7 active torsions:
REMARK  status: ('A' for Active; 'I' for Inactive)
REMARK    1  A    between atoms: C_2  and  C_3 
REMARK    2  A    between atoms: C_3  and  O_6 
REMARK    3  A    between atoms: C_3  and  C_4 
REMARK    4  A    between atoms: C_7  and  O_6 
REMARK    5  A    between atoms: C_9  and  C_10 
REMARK    6  A    between atoms: N_15  and  C_14 
REMARK    7  A    between atoms: N_20  and  C_19 
REMARK       I    between atoms: C_22  and  N_20 
ROOT
ATOM      1  C   LIG d   1       2.795  86.612 114.842  0.00  0.00     0.161 C 
ATOM      2  C   LIG d   1       3.338  87.780 114.281  0.00  0.00     0.016 C 
ATOM      3  C   LIG d   1       4.075  87.794 113.075  0.00  0.00     0.038 C 
ATOM      4  C   LIG d   1       4.190  86.655 112.263  0.00  0.00     0.028 C 
ATOM      5  C   LIG d   1       4.088  85.346 113.038  0.00  0.00    -0.047 C 
ATOM      6  C   LIG d   1       2.815  85.379 113.914  0.00  0.00     0.091 C 
ENDROOT
BRANCH   1   7
ATOM      7  O   LIG d   1       1.454  86.870 115.303  0.00  0.00    -0.368 OA
BRANCH   7   8
ATOM      8  C   LIG d   1       1.322  87.265 116.691  0.00  0.00     0.119 C 
BRANCH   8   9
ATOM      9  C   LIG d   1       0.347  86.279 117.362  0.00  0.00     0.028 C 
ATOM     10  C   LIG d   1       1.067  85.062 117.968  0.00  0.00     0.006 C 
ENDBRANCH   8   9
BRANCH   8  11
ATOM     11  C   LIG d   1       0.660  88.640 116.819  0.00  0.00     0.028 C 
ATOM     12  C   LIG d   1       0.190  88.945 118.250  0.00  0.00     0.006 C 
ENDBRANCH   8  11
ENDBRANCH   7   8
ENDBRANCH   1   7
BRANCH   6  13
ATOM     13  N   LIG d   1       2.683  84.171 114.769  0.00  0.00    -0.311 N 
ATOM     14  C   LIG d   1       1.658  83.324 114.689  0.00  0.00     0.210 C 
ATOM     15  C   LIG d   1       1.708  82.154 115.676  0.00  0.00     0.109 C 
ATOM     16  O   LIG d   1       0.729  83.414 113.872  0.00  0.00    -0.276 OA
ATOM     17  H   LIG d   1       3.409  84.004 115.438  0.00  0.00     0.149 HD
ENDBRANCH   6  13
BRANCH   5  18
ATOM     18  N   LIG d   1       4.085  84.246 112.056  0.00  0.00     0.381 N 
ATOM     19  H   LIG d   1       3.574  83.467 112.421  0.00  0.00    -0.090 HD
ATOM     20  H   LIG d   1       5.033  83.953 111.893  0.00  0.00    -0.090 HD
ATOM     21  H   LIG d   1       3.674  84.552 111.202  0.00  0.00    -0.090 HD
ENDBRANCH   5  18
BRANCH   3  22
ATOM     22  C   LIG d   1       4.740  88.948 112.689  0.00  0.00     0.382 C 
ATOM     23  O   LIG d   1       5.949  88.893 112.357  0.00  0.00    -0.241 OA
ATOM     24  O   LIG d   1       4.159  90.049 112.711  0.00  0.00    -0.241 OA
ENDBRANCH   3  22
TORSDOF 7
ENDMDL
MODEL 4
REMARK VINA RESULT:      -4.7      1.391      1.512
REMARK  7 active torsions:
REMARK  status: ('A' for Active; 'I' for Inactive)
REMARK    1  A    between atoms: C_2  and  C_3 
REMARK    2  A    between atoms: C_3  and  O_6 
REMARK    3  A    between atoms: C_3  and  C_4 
REMARK    4  A    between atoms: C_7  and  O_6 
REMARK    5  A    between atoms: C_9  and  C_10 
REMARK    6  A    between atoms: N_15  and  C_14 
REMARK    7  A    between atoms: N_20  and  C_19 
REMARK       I    between atoms: C_22  and  N_20 
ROOT
ATOM      1  C   LIG d   1      -5.613  91.925 118.143  0.00  0.00     0.161 C 
ATOM      2  C   LIG d   1      -6.339  91.857 116.942  0.00  0.00     0.016 C 
ATOM      3  C   LIG d   1      -6.044  90.942 115.905  0.00  0.00     0.038 C 
ATOM      4  C   LIG d   1      -5.090  89.926 116.063  0.00  0.00     0.028 C 
ATOM      5  C   LIG d   1      -3.990  90.276 117.059  0.00  0.00    -0.047 C 
ATOM      6  C   LIG d   1      -4.640  90.751 118.378  0.00  0.00     0.091 C 
ENDROOT
BRANCH   1   7
ATOM      7  O   LIG d   1      -6.520  92.056 119.256  0.00  0.00    -0.368 OA
BRANCH   7   8
ATOM      8  C   LIG d   1      -6.739  93.402 119.745  0.00  0.00     0.119 C 
BRANCH   8   9
ATOM      9  C   LIG d   1      -8.157  93.826 119.313  0.00  0.00     0.028 C 
ATOM     10  C   LIG d   1      -8.145  95.050 118.382  0.00  0.00     0.006 C 
ENDBRANCH   8   9
BRANCH   8  11
ATOM     11  C   LIG d   1      -5.794  94.401 119.071  0.00  0.00     0.028 C 
ATOM     12  C   LIG d   1      -4.818  95.058 120.059  0.00  0.00     0.006 C 
ENDBRANCH   8  11
ENDBRANCH   7   8
ENDBRANCH   1   7
BRANCH   6  13
ATOM     13  N   LIG d   1      -3.635  91.194 119.379  0.00  0.00    -0.311 N 
ATOM     14  C   LIG d   1      -2.741  92.153 119.145  0.00  0.00     0.210 C 
ATOM     15  C   LIG d   1      -1.782  92.441 120.305  0.00  0.00     0.109 C 
ATOM     16  O   LIG d   1      -2.671  92.815 118.098  0.00  0.00    -0.276 OA
ATOM     17  H   LIG d   1      -3.641  90.732 120.267  0.00  0.00     0.149 HD
ENDBRANCH   6  13
BRANCH   5  18
ATOM     18  N   LIG d   1      -3.144  89.080 117.229  0.00  0.00     0.381 N 
ATOM     19  H   LIG d   1      -2.261  89.223 116.782  0.00  0.00    -0.090 HD
ATOM     20  H   LIG d   1      -3.596  88.297 116.790  0.00  0.00    -0.090 HD
ATOM     21  H   LIG d   1      -3.008  88.893 118.198  0.00  0.00    -0.090 HD
ENDBRANCH   5  18
BRANCH   3  22
ATOM     22  C   LIG d   1      -6.679  91.065 114.679  0.00  0.00     0.382 C 
ATOM     23  O   LIG d   1      -7.514  90.202 114.317  0.00  0.00    -0.241 OA
ATOM     24  O   LIG d   1      -6.395  92.004 113.911  0.00  0.00    -0.241 OA
ENDBRANCH   3  22
TORSDOF 7
ENDMDL
MODEL 5
REMARK VINA RESULT:      -4.7      2.857      6.320
REMARK  7 active torsions:
REMARK  status: ('A' for Active; 'I' for Inactive)
REMARK    1  A    between atoms: C_2  and  C_3 
REMARK    2  A    between atoms: C_3  and  O_6 
REMARK    3  A    between atoms: C_3  and  C_4 
REMARK    4  A    between atoms: C_7  and  O_6 
REMARK    5  A    between atoms: C_9  and  C_10 
REMARK    6  A    between atoms: N_15  and  C_14 
REMARK    7  A    between atoms: N_20  and  C_19 
REMARK       I    between atoms: C_22  and  N_20 
ROOT
ATOM      1  C   LIG d   1      -4.683  90.974 117.672  0.00  0.00     0.161 C 
ATOM      2  C   LIG d   1      -3.833  91.867 118.345  0.00  0.00     0.016 C 
ATOM      3  C   LIG d   1      -4.228  93.163 118.749  0.00  0.00     0.038 C 
ATOM      4  C   LIG d   1      -5.556  93.600 118.641  0.00  0.00     0.028 C 
ATOM      5  C   LIG d   1      -6.327  92.924 117.512  0.00  0.00    -0.047 C 
ATOM      6  C   LIG d   1      -6.168  91.392 117.644  0.00  0.00     0.091 C 
ENDROOT
BRANCH   1   7
ATOM      7  O   LIG d   1      -4.545  89.652 118.230  0.00  0.00    -0.368 OA
BRANCH   7   8
ATOM      8  C   LIG d   1      -3.292  89.372 118.901  0.00  0.00     0.119 C 
BRANCH   8   9
ATOM      9  C   LIG d   1      -2.552  88.304 118.072  0.00  0.00     0.028 C 
ATOM     10  C   LIG d   1      -1.115  88.723 117.723  0.00  0.00     0.006 C 
ENDBRANCH   8   9
BRANCH   8  11
ATOM     11  C   LIG d   1      -3.525  88.731 120.272  0.00  0.00     0.028 C 
ATOM     12  C   LIG d   1      -3.153  87.240 120.305  0.00  0.00     0.006 C 
ENDBRANCH   8  11
ENDBRANCH   7   8
ENDBRANCH   1   7
BRANCH   6  13
ATOM     13  N   LIG d   1      -6.822  90.656 116.530  0.00  0.00    -0.311 N 
ATOM     14  C   LIG d   1      -6.595  90.920 115.245  0.00  0.00     0.210 C 
ATOM     15  C   LIG d   1      -7.387  90.057 114.258  0.00  0.00     0.109 C 
ATOM     16  O   LIG d   1      -5.788  91.765 114.828  0.00  0.00    -0.276 OA
ATOM     17  H   LIG d   1      -7.468  89.933 116.778  0.00  0.00     0.149 HD
ENDBRANCH   6  13
BRANCH   5  18
ATOM     18  N   LIG d   1      -7.730  93.370 117.601  0.00  0.00     0.381 N 
ATOM     19  H   LIG d   1      -8.124  93.435 116.683  0.00  0.00    -0.090 HD
ATOM     20  H   LIG d   1      -7.755  94.283 118.020  0.00  0.00    -0.090 HD
ATOM     21  H   LIG d   1      -8.257  92.729 118.152  0.00  0.00    -0.090 HD
ENDBRANCH   5  18
BRANCH   3  22
ATOM     22  C   LIG d   1      -3.279  94.051 119.232  0.00  0.00     0.382 C 
ATOM     23  O   LIG d   1      -2.129  93.643 119.522  0.00  0.00    -0.241 OA
ATOM     24  O   LIG d   1      -3.572  95.246 119.424  0.00  0.00    -0.241 OA
ENDBRANCH   3  22
TORSDOF 7
ENDMDL
MODEL 6
REMARK VINA RESULT:      -4.6     18.846     21.681
REMARK  7 active torsions:
REMARK  status: ('A' for Active; 'I' for Inactive)
REMARK    1  A    between atoms: C_2  and  C_3 
REMARK    2  A    between atoms: C_3  and  O_6 
REMARK    3  A    between atoms: C_3  and  C_4 
REMARK    4  A    between atoms: C_7  and  O_6 
REMARK    5  A    between atoms: C_9  and  C_10 
REMARK    6  A    between atoms: N_15  and  C_14 
REMARK    7  A    between atoms: N_20  and  C_19 
REMARK       I    between atoms: C_22  and  N_20 
ROOT
ATOM      1  C   LIG d   1     -25.344  84.975 115.124  0.00  0.00     0.161 C 
ATOM      2  C   LIG d   1     -24.477  86.067 114.953  0.00  0.00     0.016 C 
ATOM      3  C   LIG d   1     -23.386  86.061 114.053  0.00  0.00     0.038 C 
ATOM      4  C   LIG d   1     -23.178  85.011 113.147  0.00  0.00     0.028 C 
ATOM      5  C   LIG d   1     -23.727  83.674 113.633  0.00  0.00    -0.047 C 
ATOM      6  C   LIG d   1     -25.199  83.863 114.064  0.00  0.00     0.091 C 
ENDROOT
BRANCH   1   7
ATOM      7  O   LIG d   1     -26.708  85.438 115.181  0.00  0.00    -0.368 OA
BRANCH   7   8
ATOM      8  C   LIG d   1     -26.963  86.742 114.603  0.00  0.00     0.119 C 
BRANCH   8   9
ATOM      9  C   LIG d   1     -27.922  87.489 115.550  0.00  0.00     0.028 C 
ATOM     10  C   LIG d   1     -27.766  87.042 117.014  0.00  0.00     0.006 C 
ENDBRANCH   8   9
BRANCH   8  11
ATOM     11  C   LIG d   1     -27.715  86.625 113.274  0.00  0.00     0.028 C 
ATOM     12  C   LIG d   1     -26.778  86.641 112.056  0.00  0.00     0.006 C 
ENDBRANCH   8  11
ENDBRANCH   7   8
ENDBRANCH   1   7
BRANCH   6  13
ATOM     13  N   LIG d   1     -25.787  82.621 114.632  0.00  0.00    -0.311 N 
ATOM     14  C   LIG d   1     -26.455  81.727 113.904  0.00  0.00     0.210 C 
ATOM     15  C   LIG d   1     -26.995  80.528 114.690  0.00  0.00     0.109 C 
ATOM     16  O   LIG d   1     -26.622  81.797 112.678  0.00  0.00    -0.276 OA
ATOM     17  H   LIG d   1     -25.671  82.470 115.615  0.00  0.00     0.149 HD
ENDBRANCH   6  13
BRANCH   5  18
ATOM     18  N   LIG d   1     -23.565  82.701 112.536  0.00  0.00     0.381 N 
ATOM     19  H   LIG d   1     -24.442  82.260 112.343  0.00  0.00    -0.090 HD
ATOM     20  H   LIG d   1     -22.913  81.993 112.823  0.00  0.00    -0.090 HD
ATOM     21  H   LIG d   1     -23.229  83.161 111.719  0.00  0.00    -0.090 HD
ENDBRANCH   5  18
BRANCH   3  22
ATOM     22  C   LIG d   1     -22.466  87.098 114.082  0.00  0.00     0.382 C 
ATOM     23  O   LIG d   1     -21.406  87.014 113.418  0.00  0.00    -0.241 OA
ATOM     24  O   LIG d   1     -22.663  88.098 114.800  0.00  0.00    -0.241 OA
ENDBRANCH   3  22
TORSDOF 7
ENDMDL
MODEL 7
REMARK VINA RESULT:      -4.6      2.216      5.084
REMARK  7 active torsions:
REMARK  status: ('A' for Active; 'I' for Inactive)
REMARK    1  A    between atoms: C_2  and  C_3 
REMARK    2  A    between atoms: C_3  and  O_6 
REMARK    3  A    between atoms: C_3  and  C_4 
REMARK    4  A    between atoms: C_7  and  O_6 
REMARK    5  A    between atoms: C_9  and  C_10 
REMARK    6  A    between atoms: N_15  and  C_14 
REMARK    7  A    between atoms: N_20  and  C_19 
REMARK       I    between atoms: C_22  and  N_20 
ROOT
ATOM      1  C   LIG d   1      -4.299  90.952 117.508  0.00  0.00     0.161 C 
ATOM      2  C   LIG d   1      -3.353  89.918 117.405  0.00  0.00     0.016 C 
ATOM      3  C   LIG d   1      -2.073  89.971 118.004  0.00  0.00     0.038 C 
ATOM      4  C   LIG d   1      -1.707  91.004 118.879  0.00  0.00     0.028 C 
ATOM      5  C   LIG d   1      -2.439  92.314 118.610  0.00  0.00    -0.047 C 
ATOM      6  C   LIG d   1      -3.958  92.037 118.551  0.00  0.00     0.091 C 
ENDROOT
BRANCH   1   7
ATOM      7  O   LIG d   1      -5.603  90.396 117.770  0.00  0.00    -0.368 OA
BRANCH   7   8
ATOM      8  C   LIG d   1      -6.471  90.240 116.621  0.00  0.00     0.119 C 
BRANCH   8   9
ATOM      9  C   LIG d   1      -6.547  91.605 115.909  0.00  0.00     0.028 C 
ATOM     10  C   LIG d   1      -6.240  91.500 114.406  0.00  0.00     0.006 C 
ENDBRANCH   8   9
BRANCH   8  11
ATOM     11  C   LIG d   1      -7.908  89.925 117.048  0.00  0.00     0.028 C 
ATOM     12  C   LIG d   1      -8.697  89.167 115.968  0.00  0.00     0.006 C 
ENDBRANCH   8  11
ENDBRANCH   7   8
ENDBRANCH   1   7
BRANCH   6  13
ATOM     13  N   LIG d   1      -4.743  93.252 118.208  0.00  0.00    -0.311 N 
ATOM     14  C   LIG d   1      -5.759  93.700 118.943  0.00  0.00     0.210 C 
ATOM     15  C   LIG d   1      -6.445  94.958 118.400  0.00  0.00     0.109 C 
ATOM     16  O   LIG d   1      -6.136  93.195 120.011  0.00  0.00    -0.276 OA
ATOM     17  H   LIG d   1      -4.484  93.741 117.374  0.00  0.00     0.149 HD
ENDBRANCH   6  13
BRANCH   5  18
ATOM     18  N   LIG d   1      -2.065  93.261 119.678  0.00  0.00     0.381 N 
ATOM     19  H   LIG d   1      -2.673  94.055 119.654  0.00  0.00    -0.090 HD
ATOM     20  H   LIG d   1      -1.125  93.579 119.516  0.00  0.00    -0.090 HD
ATOM     21  H   LIG d   1      -2.124  92.814 120.566  0.00  0.00    -0.090 HD
ENDBRANCH   5  18
BRANCH   3  22
ATOM     22  C   LIG d   1      -1.130  89.002 117.697  0.00  0.00     0.382 C 
ATOM     23  O   LIG d   1      -1.315  87.813 118.052  0.00  0.00    -0.241 OA
ATOM     24  O   LIG d   1      -0.076  89.310 117.108  0.00  0.00    -0.241 OA
ENDBRANCH   3  22
TORSDOF 7
ENDMDL
MODEL 8
REMARK VINA RESULT:      -4.5      2.678      6.041
REMARK  7 active torsions:
REMARK  status: ('A' for Active; 'I' for Inactive)
REMARK    1  A    between atoms: C_2  and  C_3 
REMARK    2  A    between atoms: C_3  and  O_6 
REMARK    3  A    between atoms: C_3  and  C_4 
REMARK    4  A    between atoms: C_7  and  O_6 
REMARK    5  A    between atoms: C_9  and  C_10 
REMARK    6  A    between atoms: N_15  and  C_14 
REMARK    7  A    between atoms: N_20  and  C_19 
REMARK       I    between atoms: C_22  and  N_20 
ROOT
ATOM      1  C   LIG d   1      -5.292  91.875 118.441  0.00  0.00     0.161 C 
ATOM      2  C   LIG d   1      -4.538  92.900 119.038  0.00  0.00     0.016 C 
ATOM      3  C   LIG d   1      -5.007  94.226 119.185  0.00  0.00     0.038 C 
ATOM      4  C   LIG d   1      -6.328  94.583 118.880  0.00  0.00     0.028 C 
ATOM      5  C   LIG d   1      -6.962  93.703 117.808  0.00  0.00    -0.047 C 
ATOM      6  C   LIG d   1      -6.777  92.220 118.204  0.00  0.00     0.091 C 
ENDROOT
BRANCH   1   7
ATOM      7  O   LIG d   1      -5.176  90.667 119.219  0.00  0.00    -0.368 OA
BRANCH   7   8
ATOM      8  C   LIG d   1      -4.343  89.625 118.657  0.00  0.00     0.119 C 
BRANCH   8   9
ATOM      9  C   LIG d   1      -3.283  89.258 119.714  0.00  0.00     0.028 C 
ATOM     10  C   LIG d   1      -3.290  87.758 120.055  0.00  0.00     0.006 C 
ENDBRANCH   8   9
BRANCH   8  11
ATOM     11  C   LIG d   1      -3.551  90.135 117.449  0.00  0.00     0.028 C 
ATOM     12  C   LIG d   1      -2.043  90.241 117.727  0.00  0.00     0.006 C 
ENDBRANCH   8  11
ENDBRANCH   7   8
ENDBRANCH   1   7
BRANCH   6  13
ATOM     13  N   LIG d   1      -7.295  91.288 117.167  0.00  0.00    -0.311 N 
ATOM     14  C   LIG d   1      -6.855  91.272 115.910  0.00  0.00     0.210 C 
ATOM     15  C   LIG d   1      -7.537  90.247 115.000  0.00  0.00     0.109 C 
ATOM     16  O   LIG d   1      -5.942  91.988 115.472  0.00  0.00    -0.276 OA
ATOM     17  H   LIG d   1      -8.016  90.652 117.446  0.00  0.00     0.149 HD
ENDBRANCH   6  13
BRANCH   5  18
ATOM     18  N   LIG d   1      -8.379  94.097 117.688  0.00  0.00     0.381 N 
ATOM     19  H   LIG d   1      -8.815  93.574 116.955  0.00  0.00    -0.090 HD
ATOM     20  H   LIG d   1      -8.426  95.072 117.451  0.00  0.00    -0.090 HD
ATOM     21  H   LIG d   1      -8.852  93.933 118.549  0.00  0.00    -0.090 HD
ENDBRANCH   5  18
BRANCH   3  22
ATOM     22  C   LIG d   1      -4.136  95.219 119.606  0.00  0.00     0.382 C 
ATOM     23  O   LIG d   1      -4.584  96.335 119.964  0.00  0.00    -0.241 OA
ATOM     24  O   LIG d   1      -2.905  95.029 119.589  0.00  0.00    -0.241 OA
ENDBRANCH   3  22
TORSDOF 7
ENDMDL
MODEL 9
REMARK VINA RESULT:      -4.5      8.371     11.179
REMARK  7 active torsions:
REMARK  status: ('A' for Active; 'I' for Inactive)
REMARK    1  A    between atoms: C_2  and  C_3 
REMARK    2  A    between atoms: C_3  and  O_6 
REMARK    3  A    between atoms: C_3  and  C_4 
REMARK    4  A    between atoms: C_7  and  O_6 
REMARK    5  A    between atoms: C_9  and  C_10 
REMARK    6  A    between atoms: N_15  and  C_14 
REMARK    7  A    between atoms: N_20  and  C_19 
REMARK       I    between atoms: C_22  and  N_20 
ROOT
ATOM      1  C   LIG d   1       2.538  87.209 115.410  0.00  0.00     0.161 C 
ATOM      2  C   LIG d   1       1.466  87.041 116.302  0.00  0.00     0.016 C 
ATOM      3  C   LIG d   1       0.994  88.067 117.153  0.00  0.00     0.038 C 
ATOM      4  C   LIG d   1       1.468  89.384 117.061  0.00  0.00     0.028 C 
ATOM      5  C   LIG d   1       2.894  89.479 116.528  0.00  0.00    -0.047 C 
ATOM      6  C   LIG d   1       2.994  88.670 115.215  0.00  0.00     0.091 C 
ENDROOT
BRANCH   1   7
ATOM      7  O   LIG d   1       2.213  86.612 114.139  0.00  0.00    -0.368 OA
BRANCH   7   8
ATOM      8  C   LIG d   1       2.579  85.219 113.977  0.00  0.00     0.119 C 
BRANCH   8   9
ATOM      9  C   LIG d   1       4.025  85.179 113.446  0.00  0.00     0.028 C 
ATOM     10  C   LIG d   1       4.158  85.822 112.055  0.00  0.00     0.006 C 
ENDBRANCH   8   9
BRANCH   8  11
ATOM     11  C   LIG d   1       1.732  84.543 112.895  0.00  0.00     0.028 C 
ATOM     12  C   LIG d   1       1.561  83.034 113.130  0.00  0.00     0.006 C 
ENDBRANCH   8  11
ENDBRANCH   7   8
ENDBRANCH   1   7
BRANCH   6  13
ATOM     13  N   LIG d   1       4.377  88.641 114.671  0.00  0.00    -0.311 N 
ATOM     14  C   LIG d   1       4.724  89.211 113.518  0.00  0.00     0.210 C 
ATOM     15  C   LIG d   1       6.197  89.046 113.133  0.00  0.00     0.109 C 
ATOM     16  O   LIG d   1       3.959  89.865 112.794  0.00  0.00    -0.276 OA
ATOM     17  H   LIG d   1       5.069  88.158 115.210  0.00  0.00     0.149 HD
ENDBRANCH   6  13
BRANCH   5  18
ATOM     18  N   LIG d   1       3.210  90.909 116.353  0.00  0.00     0.381 N 
ATOM     19  H   LIG d   1       2.635  91.460 116.959  0.00  0.00    -0.090 HD
ATOM     20  H   LIG d   1       3.010  91.172 115.404  0.00  0.00    -0.090 HD
ATOM     21  H   LIG d   1       4.171  91.073 116.555  0.00  0.00    -0.090 HD
ENDBRANCH   5  18
BRANCH   3  22
ATOM     22  C   LIG d   1       0.065  87.769 118.139  0.00  0.00     0.382 C 
ATOM     23  O   LIG d   1      -0.457  86.629 118.184  0.00  0.00    -0.241 OA
ATOM     24  O   LIG d   1      -0.291  88.639 118.955  0.00  0.00    -0.241 OA
ENDBRANCH   3  22
TORSDOF 7
ENDMDL
