MODEL 1
REMARK VINA RESULT:      -5.9      0.000      0.000
REMARK  7 active torsions:
REMARK  status: ('A' for Active; 'I' for Inactive)
REMARK    1  A    between atoms: C_2  and  C_3 
REMARK    2  A    between atoms: C_3  and  O_6 
REMARK    3  A    between atoms: C_3  and  C_4 
REMARK    4  A    between atoms: C_7  and  O_6 
REMARK    5  A    between atoms: C_9  and  C_10 
REMARK    6  A    between atoms: N_15  and  C_14 
REMARK    7  A    between atoms: N_20  and  C_19 
REMARK       I    between atoms: C_22  and  N_20 
ROOT
ATOM      1  C   LIG d   1      -2.878  77.032 114.726  0.00  0.00     0.161 C 
ATOM      2  C   LIG d   1      -3.016  78.185 113.934  0.00  0.00     0.016 C 
ATOM      3  C   LIG d   1      -1.945  79.061 113.643  0.00  0.00     0.038 C 
ATOM      4  C   LIG d   1      -0.622  78.760 114.001  0.00  0.00     0.028 C 
ATOM      5  C   LIG d   1      -0.517  77.866 115.232  0.00  0.00    -0.047 C 
ATOM      6  C   LIG d   1      -1.421  76.629 115.033  0.00  0.00     0.091 C 
ENDROOT
BRANCH   1   7
ATOM      7  O   LIG d   1      -3.585  75.934 114.116  0.00  0.00    -0.368 OA
BRANCH   7   8
ATOM      8  C   LIG d   1      -4.779  75.484 114.803  0.00  0.00     0.119 C 
BRANCH   8   9
ATOM      9  C   LIG d   1      -5.197  74.141 114.174  0.00  0.00     0.028 C 
ATOM     10  C   LIG d   1      -5.863  73.199 115.191  0.00  0.00     0.006 C 
ENDBRANCH   8   9
BRANCH   8  11
ATOM     11  C   LIG d   1      -5.955  76.433 114.553  0.00  0.00     0.028 C 
ATOM     12  C   LIG d   1      -6.393  76.464 113.079  0.00  0.00     0.006 C 
ENDBRANCH   8  11
ENDBRANCH   7   8
ENDBRANCH   1   7
BRANCH   6  13
ATOM     13  N   LIG d   1      -1.442  75.743 116.227  0.00  0.00    -0.311 N 
ATOM     14  C   LIG d   1      -1.301  74.421 116.161  0.00  0.00     0.210 C 
ATOM     15  C   LIG d   1      -1.373  73.695 117.508  0.00  0.00     0.109 C 
ATOM     16  O   LIG d   1      -1.091  73.783 115.119  0.00  0.00    -0.276 OA
ATOM     17  H   LIG d   1      -1.576  76.181 117.117  0.00  0.00     0.149 HD
ENDBRANCH   6  13
BRANCH   5  18
ATOM     18  N   LIG d   1       0.906  77.520 115.411  0.00  0.00     0.381 N 
ATOM     19  H   LIG d   1       1.352  78.207 115.985  0.00  0.00    -0.090 HD
ATOM     20  H   LIG d   1       1.356  77.519 114.513  0.00  0.00    -0.090 HD
ATOM     21  H   LIG d   1       0.988  76.621 115.833  0.00  0.00    -0.090 HD
ENDBRANCH   5  18
BRANCH   3  22
ATOM     22  C   LIG d   1      -2.199  80.273 113.019  0.00  0.00     0.382 C 
ATOM     23  O   LIG d   1      -1.466  80.659 112.077  0.00  0.00    -0.241 OA
ATOM     24  O   LIG d   1      -3.125  81.006 113.417  0.00  0.00    -0.241 OA
ENDBRANCH   3  22
TORSDOF 7
ENDMDL
MODEL 2
REMARK VINA RESULT:      -5.4      3.749      5.928
REMARK  7 active torsions:
REMARK  status: ('A' for Active; 'I' for Inactive)
REMARK    1  A    between atoms: C_2  and  C_3 
REMARK    2  A    between atoms: C_3  and  O_6 
REMARK    3  A    between atoms: C_3  and  C_4 
REMARK    4  A    between atoms: C_7  and  O_6 
REMARK    5  A    between atoms: C_9  and  C_10 
REMARK    6  A    between atoms: N_15  and  C_14 
REMARK    7  A    between atoms: N_20  and  C_19 
REMARK       I    between atoms: C_22  and  N_20 
ROOT
ATOM      1  C   LIG d   1      -5.535  77.275 116.334  0.00  0.00     0.161 C 
ATOM      2  C   LIG d   1      -6.844  76.885 116.662  0.00  0.00     0.016 C 
ATOM      3  C   LIG d   1      -7.682  77.625 117.527  0.00  0.00     0.038 C 
ATOM      4  C   LIG d   1      -7.319  78.892 118.007  0.00  0.00     0.028 C 
ATOM      5  C   LIG d   1      -5.811  79.092 118.110  0.00  0.00    -0.047 C 
ATOM      6  C   LIG d   1      -5.162  78.710 116.760  0.00  0.00     0.091 C 
ENDROOT
BRANCH   1   7
ATOM      7  O   LIG d   1      -5.311  77.097 114.921  0.00  0.00    -0.368 OA
BRANCH   7   8
ATOM      8  C   LIG d   1      -4.484  75.969 114.544  0.00  0.00     0.119 C 
BRANCH   8   9
ATOM      9  C   LIG d   1      -5.421  74.860 114.028  0.00  0.00     0.028 C 
ATOM     10  C   LIG d   1      -5.608  73.727 115.050  0.00  0.00     0.006 C 
ENDBRANCH   8   9
BRANCH   8  11
ATOM     11  C   LIG d   1      -3.774  75.367 115.760  0.00  0.00     0.028 C 
ATOM     12  C   LIG d   1      -2.248  75.539 115.706  0.00  0.00     0.006 C 
ENDBRANCH   8  11
ENDBRANCH   7   8
ENDBRANCH   1   7
BRANCH   6  13
ATOM     13  N   LIG d   1      -3.678  78.797 116.800  0.00  0.00    -0.311 N 
ATOM     14  C   LIG d   1      -2.956  79.428 115.877  0.00  0.00     0.210 C 
ATOM     15  C   LIG d   1      -1.440  79.380 116.097  0.00  0.00     0.109 C 
ATOM     16  O   LIG d   1      -3.427  80.051 114.914  0.00  0.00    -0.276 OA
ATOM     17  H   LIG d   1      -3.216  78.345 117.564  0.00  0.00     0.149 HD
ENDBRANCH   6  13
BRANCH   5  18
ATOM     18  N   LIG d   1      -5.572  80.497 118.490  0.00  0.00     0.381 N 
ATOM     19  H   LIG d   1      -4.881  80.898 117.888  0.00  0.00    -0.090 HD
ATOM     20  H   LIG d   1      -5.224  80.524 119.432  0.00  0.00    -0.090 HD
ATOM     21  H   LIG d   1      -6.420  81.016 118.426  0.00  0.00    -0.090 HD
ENDBRANCH   5  18
BRANCH   3  22
ATOM     22  C   LIG d   1      -8.884  77.079 117.953  0.00  0.00     0.382 C 
ATOM     23  O   LIG d   1      -9.815  77.830 118.330  0.00  0.00    -0.241 OA
ATOM     24  O   LIG d   1      -9.032  75.843 118.007  0.00  0.00    -0.241 OA
ENDBRANCH   3  22
TORSDOF 7
ENDMDL
MODEL 3
REMARK VINA RESULT:      -5.4     16.247     19.666
REMARK  7 active torsions:
REMARK  status: ('A' for Active; 'I' for Inactive)
REMARK    1  A    between atoms: C_2  and  C_3 
REMARK    2  A    between atoms: C_3  and  O_6 
REMARK    3  A    between atoms: C_3  and  C_4 
REMARK    4  A    between atoms: C_7  and  O_6 
REMARK    5  A    between atoms: C_9  and  C_10 
REMARK    6  A    between atoms: N_15  and  C_14 
REMARK    7  A    between atoms: N_20  and  C_19 
REMARK       I    between atoms: C_22  and  N_20 
ROOT
ATOM      1  C   LIG d   1     -16.448  63.528 115.810  0.00  0.00     0.161 C 
ATOM      2  C   LIG d   1     -16.814  62.258 115.336  0.00  0.00     0.016 C 
ATOM      3  C   LIG d   1     -17.209  62.009 114.001  0.00  0.00     0.038 C 
ATOM      4  C   LIG d   1     -17.118  62.994 113.006  0.00  0.00     0.028 C 
ATOM      5  C   LIG d   1     -17.235  64.415 113.547  0.00  0.00    -0.047 C 
ATOM      6  C   LIG d   1     -16.236  64.592 114.713  0.00  0.00     0.091 C 
ENDROOT
BRANCH   1   7
ATOM      7  O   LIG d   1     -15.272  63.420 116.638  0.00  0.00    -0.368 OA
BRANCH   7   8
ATOM      8  C   LIG d   1     -15.472  63.622 118.058  0.00  0.00     0.119 C 
BRANCH   8   9
ATOM      9  C   LIG d   1     -14.881  64.998 118.419  0.00  0.00     0.028 C 
ATOM     10  C   LIG d   1     -15.944  65.970 118.959  0.00  0.00     0.006 C 
ENDBRANCH   8   9
BRANCH   8  11
ATOM     11  C   LIG d   1     -14.672  62.609 118.883  0.00  0.00     0.028 C 
ATOM     12  C   LIG d   1     -14.913  61.157 118.440  0.00  0.00     0.006 C 
ENDBRANCH   8  11
ENDBRANCH   7   8
ENDBRANCH   1   7
BRANCH   6  13
ATOM     13  N   LIG d   1     -16.344  65.928 115.355  0.00  0.00    -0.311 N 
ATOM     14  C   LIG d   1     -15.570  66.962 115.030  0.00  0.00     0.210 C 
ATOM     15  C   LIG d   1     -15.835  68.243 115.828  0.00  0.00     0.109 C 
ATOM     16  O   LIG d   1     -14.712  66.950 114.135  0.00  0.00    -0.276 OA
ATOM     17  H   LIG d   1     -17.036  66.035 116.070  0.00  0.00     0.149 HD
ENDBRANCH   6  13
BRANCH   5  18
ATOM     18  N   LIG d   1     -16.985  65.340 112.426  0.00  0.00     0.381 N 
ATOM     19  H   LIG d   1     -17.365  66.241 112.639  0.00  0.00    -0.090 HD
ATOM     20  H   LIG d   1     -17.447  64.989 111.605  0.00  0.00    -0.090 HD
ATOM     21  H   LIG d   1     -16.006  65.417 112.258  0.00  0.00    -0.090 HD
ENDBRANCH   5  18
BRANCH   3  22
ATOM     22  C   LIG d   1     -17.738  60.774 113.659  0.00  0.00     0.382 C 
ATOM     23  O   LIG d   1     -16.998  59.762 113.626  0.00  0.00    -0.241 OA
ATOM     24  O   LIG d   1     -18.938  60.668 113.341  0.00  0.00    -0.241 OA
ENDBRANCH   3  22
TORSDOF 7
ENDMDL
MODEL 4
REMARK VINA RESULT:      -5.3      9.249     11.424
REMARK  7 active torsions:
REMARK  status: ('A' for Active; 'I' for Inactive)
REMARK    1  A    between atoms: C_2  and  C_3 
REMARK    2  A    between atoms: C_3  and  O_6 
REMARK    3  A    between atoms: C_3  and  C_4 
REMARK    4  A    between atoms: C_7  and  O_6 
REMARK    5  A    between atoms: C_9  and  C_10 
REMARK    6  A    between atoms: N_15  and  C_14 
REMARK    7  A    between atoms: N_20  and  C_19 
REMARK       I    between atoms: C_22  and  N_20 
ROOT
ATOM      1  C   LIG d   1       2.784  84.938 113.472  0.00  0.00     0.161 C 
ATOM      2  C   LIG d   1       1.457  84.613 113.143  0.00  0.00     0.016 C 
ATOM      3  C   LIG d   1       0.544  85.539 112.586  0.00  0.00     0.038 C 
ATOM      4  C   LIG d   1       0.944  86.820 112.178  0.00  0.00     0.028 C 
ATOM      5  C   LIG d   1       2.142  87.357 112.954  0.00  0.00    -0.047 C 
ATOM      6  C   LIG d   1       3.269  86.300 112.931  0.00  0.00     0.091 C 
ENDROOT
BRANCH   1   7
ATOM      7  O   LIG d   1       3.666  83.884 113.040  0.00  0.00    -0.368 OA
BRANCH   7   8
ATOM      8  C   LIG d   1       4.024  82.902 114.043  0.00  0.00     0.119 C 
BRANCH   8   9
ATOM      9  C   LIG d   1       4.616  83.663 115.246  0.00  0.00     0.028 C 
ATOM     10  C   LIG d   1       5.807  82.924 115.879  0.00  0.00     0.006 C 
ENDBRANCH   8   9
BRANCH   8  11
ATOM     11  C   LIG d   1       5.148  81.985 113.550  0.00  0.00     0.028 C 
ATOM     12  C   LIG d   1       5.547  82.264 112.092  0.00  0.00     0.006 C 
ENDBRANCH   8  11
ENDBRANCH   7   8
ENDBRANCH   1   7
BRANCH   6  13
ATOM     13  N   LIG d   1       4.448  86.710 113.738  0.00  0.00    -0.311 N 
ATOM     14  C   LIG d   1       5.492  87.363 113.232  0.00  0.00     0.210 C 
ATOM     15  C   LIG d   1       6.609  87.673 114.233  0.00  0.00     0.109 C 
ATOM     16  O   LIG d   1       5.585  87.744 112.055  0.00  0.00    -0.276 OA
ATOM     17  H   LIG d   1       4.441  86.468 114.710  0.00  0.00     0.149 HD
ENDBRANCH   6  13
BRANCH   5  18
ATOM     18  N   LIG d   1       2.537  88.636 112.335  0.00  0.00     0.381 N 
ATOM     19  H   LIG d   1       1.881  88.883 111.620  0.00  0.00    -0.090 HD
ATOM     20  H   LIG d   1       3.440  88.527 111.910  0.00  0.00    -0.090 HD
ATOM     21  H   LIG d   1       2.571  89.353 113.026  0.00  0.00    -0.090 HD
ENDBRANCH   5  18
BRANCH   3  22
ATOM     22  C   LIG d   1      -0.795  85.198 112.470  0.00  0.00     0.382 C 
ATOM     23  O   LIG d   1      -1.670  86.096 112.447  0.00  0.00    -0.241 OA
ATOM     24  O   LIG d   1      -1.141  84.002 112.432  0.00  0.00    -0.241 OA
ENDBRANCH   3  22
TORSDOF 7
ENDMDL
MODEL 5
REMARK VINA RESULT:      -5.2      9.105     11.370
REMARK  7 active torsions:
REMARK  status: ('A' for Active; 'I' for Inactive)
REMARK    1  A    between atoms: C_2  and  C_3 
REMARK    2  A    between atoms: C_3  and  O_6 
REMARK    3  A    between atoms: C_3  and  C_4 
REMARK    4  A    between atoms: C_7  and  O_6 
REMARK    5  A    between atoms: C_9  and  C_10 
REMARK    6  A    between atoms: N_15  and  C_14 
REMARK    7  A    between atoms: N_20  and  C_19 
REMARK       I    between atoms: C_22  and  N_20 
ROOT
ATOM      1  C   LIG d   1       2.774  85.028 113.505  0.00  0.00     0.161 C 
ATOM      2  C   LIG d   1       1.450  84.695 113.175  0.00  0.00     0.016 C 
ATOM      3  C   LIG d   1       0.536  85.610 112.605  0.00  0.00     0.038 C 
ATOM      4  C   LIG d   1       0.932  86.889 112.184  0.00  0.00     0.028 C 
ATOM      5  C   LIG d   1       2.126  87.438 112.959  0.00  0.00    -0.047 C 
ATOM      6  C   LIG d   1       3.257  86.385 112.952  0.00  0.00     0.091 C 
ENDROOT
BRANCH   1   7
ATOM      7  O   LIG d   1       3.663  83.972 113.088  0.00  0.00    -0.368 OA
BRANCH   7   8
ATOM      8  C   LIG d   1       4.721  83.626 114.016  0.00  0.00     0.119 C 
BRANCH   8   9
ATOM      9  C   LIG d   1       5.157  82.182 113.702  0.00  0.00     0.028 C 
ATOM     10  C   LIG d   1       5.324  81.933 112.194  0.00  0.00     0.006 C 
ENDBRANCH   8   9
BRANCH   8  11
ATOM     11  C   LIG d   1       4.208  83.591 115.458  0.00  0.00     0.028 C 
ATOM     12  C   LIG d   1       3.898  82.167 115.946  0.00  0.00     0.006 C 
ENDBRANCH   8  11
ENDBRANCH   7   8
ENDBRANCH   1   7
BRANCH   6  13
ATOM     13  N   LIG d   1       4.431  86.808 113.759  0.00  0.00    -0.311 N 
ATOM     14  C   LIG d   1       5.488  87.433 113.244  0.00  0.00     0.210 C 
ATOM     15  C   LIG d   1       6.597  87.763 114.248  0.00  0.00     0.109 C 
ATOM     16  O   LIG d   1       5.599  87.774 112.056  0.00  0.00    -0.276 OA
ATOM     17  H   LIG d   1       4.410  86.599 114.738  0.00  0.00     0.149 HD
ENDBRANCH   6  13
BRANCH   5  18
ATOM     18  N   LIG d   1       2.518  88.713 112.328  0.00  0.00     0.381 N 
ATOM     19  H   LIG d   1       3.065  88.531 111.510  0.00  0.00    -0.090 HD
ATOM     20  H   LIG d   1       3.082  89.236 112.975  0.00  0.00    -0.090 HD
ATOM     21  H   LIG d   1       1.706  89.237 112.084  0.00  0.00    -0.090 HD
ENDBRANCH   5  18
BRANCH   3  22
ATOM     22  C   LIG d   1      -0.801  85.263 112.487  0.00  0.00     0.382 C 
ATOM     23  O   LIG d   1      -1.685  86.153 112.523  0.00  0.00    -0.241 OA
ATOM     24  O   LIG d   1      -1.137  84.068 112.389  0.00  0.00    -0.241 OA
ENDBRANCH   3  22
TORSDOF 7
ENDMDL
MODEL 6
REMARK VINA RESULT:      -4.7      3.150      3.654
REMARK  7 active torsions:
REMARK  status: ('A' for Active; 'I' for Inactive)
REMARK    1  A    between atoms: C_2  and  C_3 
REMARK    2  A    between atoms: C_3  and  O_6 
REMARK    3  A    between atoms: C_3  and  C_4 
REMARK    4  A    between atoms: C_7  and  O_6 
REMARK    5  A    between atoms: C_9  and  C_10 
REMARK    6  A    between atoms: N_15  and  C_14 
REMARK    7  A    between atoms: N_20  and  C_19 
REMARK       I    between atoms: C_22  and  N_20 
ROOT
ATOM      1  C   LIG d   1      -4.607  77.565 116.409  0.00  0.00     0.161 C 
ATOM      2  C   LIG d   1      -5.348  78.688 116.814  0.00  0.00     0.016 C 
ATOM      3  C   LIG d   1      -4.822  79.712 117.635  0.00  0.00     0.038 C 
ATOM      4  C   LIG d   1      -3.464  79.759 117.984  0.00  0.00     0.028 C 
ATOM      5  C   LIG d   1      -2.800  78.387 118.018  0.00  0.00    -0.047 C 
ATOM      6  C   LIG d   1      -3.092  77.655 116.688  0.00  0.00     0.091 C 
ENDROOT
BRANCH   1   7
ATOM      7  O   LIG d   1      -4.844  77.302 115.012  0.00  0.00    -0.368 OA
BRANCH   7   8
ATOM      8  C   LIG d   1      -5.999  76.482 114.705  0.00  0.00     0.119 C 
BRANCH   8   9
ATOM      9  C   LIG d   1      -5.945  75.244 115.622  0.00  0.00     0.028 C 
ATOM     10  C   LIG d   1      -5.329  74.021 114.921  0.00  0.00     0.006 C 
ENDBRANCH   8   9
BRANCH   8  11
ATOM     11  C   LIG d   1      -5.929  75.932 113.277  0.00  0.00     0.028 C 
ATOM     12  C   LIG d   1      -6.766  76.750 112.282  0.00  0.00     0.006 C 
ENDBRANCH   8  11
ENDBRANCH   7   8
ENDBRANCH   1   7
BRANCH   6  13
ATOM     13  N   LIG d   1      -2.549  76.271 116.671  0.00  0.00    -0.311 N 
ATOM     14  C   LIG d   1      -1.948  75.732 115.612  0.00  0.00     0.210 C 
ATOM     15  C   LIG d   1      -1.480  74.286 115.800  0.00  0.00     0.109 C 
ATOM     16  O   LIG d   1      -1.730  76.325 114.544  0.00  0.00    -0.276 OA
ATOM     17  H   LIG d   1      -2.655  75.730 117.506  0.00  0.00     0.149 HD
ENDBRANCH   6  13
BRANCH   5  18
ATOM     18  N   LIG d   1      -1.359  78.595 118.259  0.00  0.00     0.381 N 
ATOM     19  H   LIG d   1      -0.836  78.296 117.460  0.00  0.00    -0.090 HD
ATOM     20  H   LIG d   1      -1.078  78.038 119.047  0.00  0.00    -0.090 HD
ATOM     21  H   LIG d   1      -1.180  79.557 118.441  0.00  0.00    -0.090 HD
ENDBRANCH   5  18
BRANCH   3  22
ATOM     22  C   LIG d   1      -5.667  80.684 118.148  0.00  0.00     0.382 C 
ATOM     23  O   LIG d   1      -6.632  81.101 117.463  0.00  0.00    -0.241 OA
ATOM     24  O   LIG d   1      -5.452  81.180 119.270  0.00  0.00    -0.241 OA
ENDBRANCH   3  22
TORSDOF 7
ENDMDL
MODEL 7
REMARK VINA RESULT:      -4.6     21.257     23.426
REMARK  7 active torsions:
REMARK  status: ('A' for Active; 'I' for Inactive)
REMARK    1  A    between atoms: C_2  and  C_3 
REMARK    2  A    between atoms: C_3  and  O_6 
REMARK    3  A    between atoms: C_3  and  C_4 
REMARK    4  A    between atoms: C_7  and  O_6 
REMARK    5  A    between atoms: C_9  and  C_10 
REMARK    6  A    between atoms: N_15  and  C_14 
REMARK    7  A    between atoms: N_20  and  C_19 
REMARK       I    between atoms: C_22  and  N_20 
ROOT
ATOM      1  C   LIG d   1     -23.879  83.431 113.537  0.00  0.00     0.161 C 
ATOM      2  C   LIG d   1     -23.022  84.504 113.833  0.00  0.00     0.016 C 
ATOM      3  C   LIG d   1     -23.431  85.857 113.805  0.00  0.00     0.038 C 
ATOM      4  C   LIG d   1     -24.773  86.222 113.624  0.00  0.00     0.028 C 
ATOM      5  C   LIG d   1     -25.575  85.203 112.822  0.00  0.00    -0.047 C 
ATOM      6  C   LIG d   1     -25.374  83.803 113.445  0.00  0.00     0.091 C 
ENDROOT
BRANCH   1   7
ATOM      7  O   LIG d   1     -23.684  82.371 114.494  0.00  0.00    -0.368 OA
BRANCH   7   8
ATOM      8  C   LIG d   1     -24.576  82.371 115.635  0.00  0.00     0.119 C 
BRANCH   8   9
ATOM      9  C   LIG d   1     -23.720  82.620 116.892  0.00  0.00     0.028 C 
ATOM     10  C   LIG d   1     -22.274  82.124 116.725  0.00  0.00     0.006 C 
ENDBRANCH   8   9
BRANCH   8  11
ATOM     11  C   LIG d   1     -25.213  80.994 115.845  0.00  0.00     0.028 C 
ATOM     12  C   LIG d   1     -24.725  79.950 114.827  0.00  0.00     0.006 C 
ENDBRANCH   8  11
ENDBRANCH   7   8
ENDBRANCH   1   7
BRANCH   6  13
ATOM     13  N   LIG d   1     -26.057  82.734 112.671  0.00  0.00    -0.311 N 
ATOM     14  C   LIG d   1     -27.271  82.275 112.969  0.00  0.00     0.210 C 
ATOM     15  C   LIG d   1     -27.782  81.157 112.055  0.00  0.00     0.109 C 
ATOM     16  O   LIG d   1     -27.987  82.710 113.884  0.00  0.00    -0.276 OA
ATOM     17  H   LIG d   1     -25.560  82.346 111.893  0.00  0.00     0.149 HD
ENDBRANCH   6  13
BRANCH   5  18
ATOM     18  N   LIG d   1     -26.984  85.640 112.827  0.00  0.00     0.381 N 
ATOM     19  H   LIG d   1     -27.523  85.056 112.219  0.00  0.00    -0.090 HD
ATOM     20  H   LIG d   1     -27.033  86.583 112.482  0.00  0.00    -0.090 HD
ATOM     21  H   LIG d   1     -27.351  85.598 113.752  0.00  0.00    -0.090 HD
ENDBRANCH   5  18
BRANCH   3  22
ATOM     22  C   LIG d   1     -22.484  86.863 113.920  0.00  0.00     0.382 C 
ATOM     23  O   LIG d   1     -22.698  87.842 114.675  0.00  0.00    -0.241 OA
ATOM     24  O   LIG d   1     -21.439  86.827 113.244  0.00  0.00    -0.241 OA
ENDBRANCH   3  22
TORSDOF 7
ENDMDL
MODEL 8
REMARK VINA RESULT:      -4.5     20.493     22.561
REMARK  7 active torsions:
REMARK  status: ('A' for Active; 'I' for Inactive)
REMARK    1  A    between atoms: C_2  and  C_3 
REMARK    2  A    between atoms: C_3  and  O_6 
REMARK    3  A    between atoms: C_3  and  C_4 
REMARK    4  A    between atoms: C_7  and  O_6 
REMARK    5  A    between atoms: C_9  and  C_10 
REMARK    6  A    between atoms: N_15  and  C_14 
REMARK    7  A    between atoms: N_20  and  C_19 
REMARK       I    between atoms: C_22  and  N_20 
ROOT
ATOM      1  C   LIG d   1     -23.899  82.663 116.297  0.00  0.00     0.161 C 
ATOM      2  C   LIG d   1     -24.107  81.286 116.478  0.00  0.00     0.016 C 
ATOM      3  C   LIG d   1     -24.266  80.375 115.408  0.00  0.00     0.038 C 
ATOM      4  C   LIG d   1     -24.074  80.761 114.072  0.00  0.00     0.028 C 
ATOM      5  C   LIG d   1     -24.362  82.237 113.821  0.00  0.00    -0.047 C 
ATOM      6  C   LIG d   1     -23.577  83.084 114.848  0.00  0.00     0.091 C 
ENDROOT
BRANCH   1   7
ATOM      7  O   LIG d   1     -22.868  83.123 117.193  0.00  0.00    -0.368 OA
BRANCH   7   8
ATOM      8  C   LIG d   1     -23.265  83.322 118.573  0.00  0.00     0.119 C 
BRANCH   8   9
ATOM      9  C   LIG d   1     -22.976  84.792 118.930  0.00  0.00     0.028 C 
ATOM     10  C   LIG d   1     -23.878  85.772 118.161  0.00  0.00     0.006 C 
ENDBRANCH   8   9
BRANCH   8  11
ATOM     11  C   LIG d   1     -22.397  82.494 119.526  0.00  0.00     0.028 C 
ATOM     12  C   LIG d   1     -21.160  81.897 118.839  0.00  0.00     0.006 C 
ENDBRANCH   8  11
ENDBRANCH   7   8
ENDBRANCH   1   7
BRANCH   6  13
ATOM     13  N   LIG d   1     -23.867  84.536 114.726  0.00  0.00    -0.311 N 
ATOM     14  C   LIG d   1     -23.164  85.362 113.953  0.00  0.00     0.210 C 
ATOM     15  C   LIG d   1     -23.618  86.824 113.988  0.00  0.00     0.109 C 
ATOM     16  O   LIG d   1     -22.227  85.016 113.218  0.00  0.00    -0.276 OA
ATOM     17  H   LIG d   1     -24.631  84.895 115.264  0.00  0.00     0.149 HD
ENDBRANCH   6  13
BRANCH   5  18
ATOM     18  N   LIG d   1     -23.991  82.531 112.424  0.00  0.00     0.381 N 
ATOM     19  H   LIG d   1     -23.697  81.691 111.967  0.00  0.00    -0.090 HD
ATOM     20  H   LIG d   1     -23.222  83.178 112.421  0.00  0.00    -0.090 HD
ATOM     21  H   LIG d   1     -24.767  82.926 111.940  0.00  0.00    -0.090 HD
ENDBRANCH   5  18
BRANCH   3  22
ATOM     22  C   LIG d   1     -24.659  79.071 115.667  0.00  0.00     0.382 C 
ATOM     23  O   LIG d   1     -24.794  78.258 114.722  0.00  0.00    -0.241 OA
ATOM     24  O   LIG d   1     -24.923  78.710 116.830  0.00  0.00    -0.241 OA
ENDBRANCH   3  22
TORSDOF 7
ENDMDL
MODEL 9
REMARK VINA RESULT:      -4.5      9.720     12.237
REMARK  7 active torsions:
REMARK  status: ('A' for Active; 'I' for Inactive)
REMARK    1  A    between atoms: C_2  and  C_3 
REMARK    2  A    between atoms: C_3  and  O_6 
REMARK    3  A    between atoms: C_3  and  C_4 
REMARK    4  A    between atoms: C_7  and  O_6 
REMARK    5  A    between atoms: C_9  and  C_10 
REMARK    6  A    between atoms: N_15  and  C_14 
REMARK    7  A    between atoms: N_20  and  C_19 
REMARK       I    between atoms: C_22  and  N_20 
ROOT
ATOM      1  C   LIG d   1       4.737  86.051 115.336  0.00  0.00     0.161 C 
ATOM      2  C   LIG d   1       4.193  86.994 114.448  0.00  0.00     0.016 C 
ATOM      3  C   LIG d   1       4.927  88.083 113.923  0.00  0.00     0.038 C 
ATOM      4  C   LIG d   1       6.307  88.217 114.134  0.00  0.00     0.028 C 
ATOM      5  C   LIG d   1       6.787  87.574 115.431  0.00  0.00    -0.047 C 
ATOM      6  C   LIG d   1       6.271  86.118 115.490  0.00  0.00     0.091 C 
ENDROOT
BRANCH   1   7
ATOM      7  O   LIG d   1       4.329  84.724 114.949  0.00  0.00    -0.368 OA
BRANCH   7   8
ATOM      8  C   LIG d   1       4.137  84.504 113.530  0.00  0.00     0.119 C 
BRANCH   8   9
ATOM      9  C   LIG d   1       2.876  83.635 113.363  0.00  0.00     0.028 C 
ATOM     10  C   LIG d   1       1.942  83.714 114.583  0.00  0.00     0.006 C 
ENDBRANCH   8   9
BRANCH   8  11
ATOM     11  C   LIG d   1       5.281  83.679 112.934  0.00  0.00     0.028 C 
ATOM     12  C   LIG d   1       5.183  82.186 113.285  0.00  0.00     0.006 C 
ENDBRANCH   8  11
ENDBRANCH   7   8
ENDBRANCH   1   7
BRANCH   6  13
ATOM     13  N   LIG d   1       6.624  85.442 116.765  0.00  0.00    -0.311 N 
ATOM     14  C   LIG d   1       7.125  84.210 116.828  0.00  0.00     0.210 C 
ATOM     15  C   LIG d   1       7.401  83.695 118.244  0.00  0.00     0.109 C 
ATOM     16  O   LIG d   1       7.398  83.506 115.843  0.00  0.00    -0.276 OA
ATOM     17  H   LIG d   1       6.465  85.953 117.611  0.00  0.00     0.149 HD
ENDBRANCH   6  13
BRANCH   5  18
ATOM     18  N   LIG d   1       8.259  87.666 115.456  0.00  0.00     0.381 N 
ATOM     19  H   LIG d   1       8.656  86.748 115.477  0.00  0.00    -0.090 HD
ATOM     20  H   LIG d   1       8.540  88.151 116.291  0.00  0.00    -0.090 HD
ATOM     21  H   LIG d   1       8.583  88.158 114.653  0.00  0.00    -0.090 HD
ENDBRANCH   5  18
BRANCH   3  22
ATOM     22  C   LIG d   1       4.270  89.074 113.210  0.00  0.00     0.382 C 
ATOM     23  O   LIG d   1       3.216  88.804 112.585  0.00  0.00    -0.241 OA
ATOM     24  O   LIG d   1       4.742  90.225 113.148  0.00  0.00    -0.241 OA
ENDBRANCH   3  22
TORSDOF 7
ENDMDL
