MODEL 1
REMARK VINA RESULT:      -5.7      0.000      0.000
REMARK  7 active torsions:
REMARK  status: ('A' for Active; 'I' for Inactive)
REMARK    1  A    between atoms: C_2  and  C_3 
REMARK    2  A    between atoms: C_3  and  O_6 
REMARK    3  A    between atoms: C_3  and  C_4 
REMARK    4  A    between atoms: C_7  and  O_6 
REMARK    5  A    between atoms: C_9  and  C_10 
REMARK    6  A    between atoms: N_15  and  C_14 
REMARK    7  A    between atoms: N_20  and  C_19 
REMARK       I    between atoms: C_22  and  N_20 
ROOT
ATOM      1  C   LIG d   1      -3.490  76.026 115.677  0.00  0.00     0.161 C 
ATOM      2  C   LIG d   1      -3.713  76.642 114.434  0.00  0.00     0.016 C 
ATOM      3  C   LIG d   1      -2.689  77.252 113.673  0.00  0.00     0.038 C 
ATOM      4  C   LIG d   1      -1.337  77.154 114.036  0.00  0.00     0.028 C 
ATOM      5  C   LIG d   1      -1.124  76.979 115.536  0.00  0.00    -0.047 C 
ATOM      6  C   LIG d   1      -2.005  75.812 116.036  0.00  0.00     0.091 C 
ENDROOT
BRANCH   1   7
ATOM      7  O   LIG d   1      -4.206  74.777 115.738  0.00  0.00    -0.368 OA
BRANCH   7   8
ATOM      8  C   LIG d   1      -5.555  74.788 115.211  0.00  0.00     0.119 C 
BRANCH   8   9
ATOM      9  C   LIG d   1      -6.493  75.234 116.349  0.00  0.00     0.028 C 
ATOM     10  C   LIG d   1      -6.957  76.692 116.191  0.00  0.00     0.006 C 
ENDBRANCH   8   9
BRANCH   8  11
ATOM     11  C   LIG d   1      -6.018  73.378 114.832  0.00  0.00     0.028 C 
ATOM     12  C   LIG d   1      -7.100  72.832 115.778  0.00  0.00     0.006 C 
ENDBRANCH   8  11
ENDBRANCH   7   8
ENDBRANCH   1   7
BRANCH   6  13
ATOM     13  N   LIG d   1      -1.920  75.628 117.508  0.00  0.00    -0.311 N 
ATOM     14  C   LIG d   1      -1.563  74.481 118.084  0.00  0.00     0.210 C 
ATOM     15  C   LIG d   1      -1.559  74.500 119.616  0.00  0.00     0.109 C 
ATOM     16  O   LIG d   1      -1.217  73.459 117.472  0.00  0.00    -0.276 OA
ATOM     17  H   LIG d   1      -2.153  76.415 118.081  0.00  0.00     0.149 HD
ENDBRANCH   6  13
BRANCH   5  18
ATOM     18  N   LIG d   1       0.317  76.752 115.757  0.00  0.00     0.381 N 
ATOM     19  H   LIG d   1       0.452  76.232 116.601  0.00  0.00    -0.090 HD
ATOM     20  H   LIG d   1       0.775  77.641 115.857  0.00  0.00    -0.090 HD
ATOM     21  H   LIG d   1       0.706  76.255 114.987  0.00  0.00    -0.090 HD
ENDBRANCH   5  18
BRANCH   3  22
ATOM     22  C   LIG d   1      -3.018  78.004 112.556  0.00  0.00     0.382 C 
ATOM     23  O   LIG d   1      -2.180  78.799 112.067  0.00  0.00    -0.241 OA
ATOM     24  O   LIG d   1      -4.157  77.930 112.058  0.00  0.00    -0.241 OA
ENDBRANCH   3  22
TORSDOF 7
ENDMDL
MODEL 2
REMARK VINA RESULT:      -5.7      4.213      6.074
REMARK  7 active torsions:
REMARK  status: ('A' for Active; 'I' for Inactive)
REMARK    1  A    between atoms: C_2  and  C_3 
REMARK    2  A    between atoms: C_3  and  O_6 
REMARK    3  A    between atoms: C_3  and  C_4 
REMARK    4  A    between atoms: C_7  and  O_6 
REMARK    5  A    between atoms: C_9  and  C_10 
REMARK    6  A    between atoms: N_15  and  C_14 
REMARK    7  A    between atoms: N_20  and  C_19 
REMARK       I    between atoms: C_22  and  N_20 
ROOT
ATOM      1  C   LIG d   1      -7.296  77.625 117.644  0.00  0.00     0.161 C 
ATOM      2  C   LIG d   1      -8.532  78.221 117.946  0.00  0.00     0.016 C 
ATOM      3  C   LIG d   1      -8.687  79.601 118.212  0.00  0.00     0.038 C 
ATOM      4  C   LIG d   1      -7.632  80.511 118.044  0.00  0.00     0.028 C 
ATOM      5  C   LIG d   1      -6.255  79.884 118.233  0.00  0.00    -0.047 C 
ATOM      6  C   LIG d   1      -6.154  78.620 117.348  0.00  0.00     0.091 C 
ENDROOT
BRANCH   1   7
ATOM      7  O   LIG d   1      -7.453  76.702 116.549  0.00  0.00    -0.368 OA
BRANCH   7   8
ATOM      8  C   LIG d   1      -7.163  75.313 116.839  0.00  0.00     0.119 C 
BRANCH   8   9
ATOM      9  C   LIG d   1      -6.374  74.744 115.644  0.00  0.00     0.028 C 
ATOM     10  C   LIG d   1      -5.868  75.846 114.698  0.00  0.00     0.006 C 
ENDBRANCH   8   9
BRANCH   8  11
ATOM     11  C   LIG d   1      -8.446  74.479 116.912  0.00  0.00     0.028 C 
ATOM     12  C   LIG d   1      -8.173  72.967 116.932  0.00  0.00     0.006 C 
ENDBRANCH   8  11
ENDBRANCH   7   8
ENDBRANCH   1   7
BRANCH   6  13
ATOM     13  N   LIG d   1      -4.869  77.898 117.536  0.00  0.00    -0.311 N 
ATOM     14  C   LIG d   1      -3.806  78.078 116.755  0.00  0.00     0.210 C 
ATOM     15  C   LIG d   1      -2.588  77.219 117.111  0.00  0.00     0.109 C 
ATOM     16  O   LIG d   1      -3.744  78.891 115.821  0.00  0.00    -0.276 OA
ATOM     17  H   LIG d   1      -4.821  77.241 118.291  0.00  0.00     0.149 HD
ENDBRANCH   6  13
BRANCH   5  18
ATOM     18  N   LIG d   1      -5.249  80.908 117.896  0.00  0.00     0.381 N 
ATOM     19  H   LIG d   1      -5.434  81.746 118.409  0.00  0.00    -0.090 HD
ATOM     20  H   LIG d   1      -5.315  81.117 116.915  0.00  0.00    -0.090 HD
ATOM     21  H   LIG d   1      -4.336  80.573 118.111  0.00  0.00    -0.090 HD
ENDBRANCH   5  18
BRANCH   3  22
ATOM     22  C   LIG d   1      -9.899  80.077 118.689  0.00  0.00     0.382 C 
ATOM     23  O   LIG d   1     -10.425  79.551 119.699  0.00  0.00    -0.241 OA
ATOM     24  O   LIG d   1     -10.494  80.997 118.095  0.00  0.00    -0.241 OA
ENDBRANCH   3  22
TORSDOF 7
ENDMDL
MODEL 3
REMARK VINA RESULT:      -5.6      1.825      4.907
REMARK  7 active torsions:
REMARK  status: ('A' for Active; 'I' for Inactive)
REMARK    1  A    between atoms: C_2  and  C_3 
REMARK    2  A    between atoms: C_3  and  O_6 
REMARK    3  A    between atoms: C_3  and  C_4 
REMARK    4  A    between atoms: C_7  and  O_6 
REMARK    5  A    between atoms: C_9  and  C_10 
REMARK    6  A    between atoms: N_15  and  C_14 
REMARK    7  A    between atoms: N_20  and  C_19 
REMARK       I    between atoms: C_22  and  N_20 
ROOT
ATOM      1  C   LIG d   1      -2.431  75.674 115.136  0.00  0.00     0.161 C 
ATOM      2  C   LIG d   1      -2.291  74.800 116.228  0.00  0.00     0.016 C 
ATOM      3  C   LIG d   1      -1.768  75.197 117.480  0.00  0.00     0.038 C 
ATOM      4  C   LIG d   1      -1.488  76.539 117.774  0.00  0.00     0.028 C 
ATOM      5  C   LIG d   1      -1.138  77.369 116.544  0.00  0.00    -0.047 C 
ATOM      6  C   LIG d   1      -2.235  77.166 115.473  0.00  0.00     0.091 C 
ENDROOT
BRANCH   1   7
ATOM      7  O   LIG d   1      -3.711  75.466 114.506  0.00  0.00    -0.368 OA
BRANCH   7   8
ATOM      8  C   LIG d   1      -4.829  75.232 115.396  0.00  0.00     0.119 C 
BRANCH   8   9
ATOM      9  C   LIG d   1      -5.589  73.998 114.871  0.00  0.00     0.028 C 
ATOM     10  C   LIG d   1      -6.760  73.597 115.783  0.00  0.00     0.006 C 
ENDBRANCH   8   9
BRANCH   8  11
ATOM     11  C   LIG d   1      -5.838  76.383 115.339  0.00  0.00     0.028 C 
ATOM     12  C   LIG d   1      -5.910  77.178 116.652  0.00  0.00     0.006 C 
ENDBRANCH   8  11
ENDBRANCH   7   8
ENDBRANCH   1   7
BRANCH   6  13
ATOM     13  N   LIG d   1      -1.927  77.877 114.205  0.00  0.00    -0.311 N 
ATOM     14  C   LIG d   1      -2.346  79.113 113.937  0.00  0.00     0.210 C 
ATOM     15  C   LIG d   1      -1.934  79.652 112.563  0.00  0.00     0.109 C 
ATOM     16  O   LIG d   1      -2.991  79.826 114.720  0.00  0.00    -0.276 OA
ATOM     17  H   LIG d   1      -1.382  77.383 113.526  0.00  0.00     0.149 HD
ENDBRANCH   6  13
BRANCH   5  18
ATOM     18  N   LIG d   1      -1.005  78.773 116.976  0.00  0.00     0.381 N 
ATOM     19  H   LIG d   1      -1.758  79.316 116.602  0.00  0.00    -0.090 HD
ATOM     20  H   LIG d   1      -0.142  79.143 116.618  0.00  0.00    -0.090 HD
ATOM     21  H   LIG d   1      -1.010  78.826 117.971  0.00  0.00    -0.090 HD
ENDBRANCH   5  18
BRANCH   3  22
ATOM     22  C   LIG d   1      -1.482  74.238 118.440  0.00  0.00     0.382 C 
ATOM     23  O   LIG d   1      -0.948  73.154 118.104  0.00  0.00    -0.241 OA
ATOM     24  O   LIG d   1      -1.792  74.426 119.632  0.00  0.00    -0.241 OA
ENDBRANCH   3  22
TORSDOF 7
ENDMDL
MODEL 4
REMARK VINA RESULT:      -5.2     13.388     16.232
REMARK  7 active torsions:
REMARK  status: ('A' for Active; 'I' for Inactive)
REMARK    1  A    between atoms: C_2  and  C_3 
REMARK    2  A    between atoms: C_3  and  O_6 
REMARK    3  A    between atoms: C_3  and  C_4 
REMARK    4  A    between atoms: C_7  and  O_6 
REMARK    5  A    between atoms: C_9  and  C_10 
REMARK    6  A    between atoms: N_15  and  C_14 
REMARK    7  A    between atoms: N_20  and  C_19 
REMARK       I    between atoms: C_22  and  N_20 
ROOT
ATOM      1  C   LIG d   1     -16.168  66.264 114.759  0.00  0.00     0.161 C 
ATOM      2  C   LIG d   1     -15.460  67.055 113.839  0.00  0.00     0.016 C 
ATOM      3  C   LIG d   1     -14.832  68.274 114.183  0.00  0.00     0.038 C 
ATOM      4  C   LIG d   1     -14.740  68.712 115.513  0.00  0.00     0.028 C 
ATOM      5  C   LIG d   1     -15.873  68.202 116.398  0.00  0.00    -0.047 C 
ATOM      6  C   LIG d   1     -15.984  66.669 116.237  0.00  0.00     0.091 C 
ENDROOT
BRANCH   1   7
ATOM      7  O   LIG d   1     -15.826  64.876 114.574  0.00  0.00    -0.368 OA
BRANCH   7   8
ATOM      8  C   LIG d   1     -16.662  64.131 113.655  0.00  0.00     0.119 C 
BRANCH   8   9
ATOM      9  C   LIG d   1     -18.005  64.878 113.541  0.00  0.00     0.028 C 
ATOM     10  C   LIG d   1     -18.872  64.354 112.384  0.00  0.00     0.006 C 
ENDBRANCH   8   9
BRANCH   8  11
ATOM     11  C   LIG d   1     -17.013  62.749 114.215  0.00  0.00     0.028 C 
ATOM     12  C   LIG d   1     -17.908  62.822 115.463  0.00  0.00     0.006 C 
ENDBRANCH   8  11
ENDBRANCH   7   8
ENDBRANCH   1   7
BRANCH   6  13
ATOM     13  N   LIG d   1     -17.122  66.100 117.004  0.00  0.00    -0.311 N 
ATOM     14  C   LIG d   1     -16.970  65.269 118.034  0.00  0.00     0.210 C 
ATOM     15  C   LIG d   1     -18.275  64.783 118.672  0.00  0.00     0.109 C 
ATOM     16  O   LIG d   1     -15.877  64.912 118.499  0.00  0.00    -0.276 OA
ATOM     17  H   LIG d   1     -18.044  66.361 116.714  0.00  0.00     0.149 HD
ENDBRANCH   6  13
BRANCH   5  18
ATOM     18  N   LIG d   1     -15.579  68.619 117.782  0.00  0.00     0.381 N 
ATOM     19  H   LIG d   1     -15.759  67.861 118.409  0.00  0.00    -0.090 HD
ATOM     20  H   LIG d   1     -16.184  69.382 118.027  0.00  0.00    -0.090 HD
ATOM     21  H   LIG d   1     -14.627  68.902 117.858  0.00  0.00    -0.090 HD
ENDBRANCH   5  18
BRANCH   3  22
ATOM     22  C   LIG d   1     -14.321  69.089 113.185  0.00  0.00     0.382 C 
ATOM     23  O   LIG d   1     -14.868  69.116 112.056  0.00  0.00    -0.241 OA
ATOM     24  O   LIG d   1     -13.293  69.764 113.384  0.00  0.00    -0.241 OA
ENDBRANCH   3  22
TORSDOF 7
ENDMDL
MODEL 5
REMARK VINA RESULT:      -5.0     14.940     17.737
REMARK  7 active torsions:
REMARK  status: ('A' for Active; 'I' for Inactive)
REMARK    1  A    between atoms: C_2  and  C_3 
REMARK    2  A    between atoms: C_3  and  O_6 
REMARK    3  A    between atoms: C_3  and  C_4 
REMARK    4  A    between atoms: C_7  and  O_6 
REMARK    5  A    between atoms: C_9  and  C_10 
REMARK    6  A    between atoms: N_15  and  C_14 
REMARK    7  A    between atoms: N_20  and  C_19 
REMARK       I    between atoms: C_22  and  N_20 
ROOT
ATOM      1  C   LIG d   1     -16.116  64.891 115.176  0.00  0.00     0.161 C 
ATOM      2  C   LIG d   1     -17.033  65.162 114.147  0.00  0.00     0.016 C 
ATOM      3  C   LIG d   1     -18.389  64.765 114.189  0.00  0.00     0.038 C 
ATOM      4  C   LIG d   1     -18.960  64.198 115.338  0.00  0.00     0.028 C 
ATOM      5  C   LIG d   1     -17.956  63.449 116.207  0.00  0.00    -0.047 C 
ATOM      6  C   LIG d   1     -16.747  64.372 116.485  0.00  0.00     0.091 C 
ENDROOT
BRANCH   1   7
ATOM      7  O   LIG d   1     -15.314  66.060 115.436  0.00  0.00    -0.368 OA
BRANCH   7   8
ATOM      8  C   LIG d   1     -15.968  67.338 115.243  0.00  0.00     0.119 C 
BRANCH   8   9
ATOM      9  C   LIG d   1     -14.917  68.317 114.685  0.00  0.00     0.028 C 
ATOM     10  C   LIG d   1     -14.786  68.229 113.155  0.00  0.00     0.006 C 
ENDBRANCH   8   9
BRANCH   8  11
ATOM     11  C   LIG d   1     -16.417  67.942 116.577  0.00  0.00     0.028 C 
ATOM     12  C   LIG d   1     -15.497  69.076 117.057  0.00  0.00     0.006 C 
ENDBRANCH   8  11
ENDBRANCH   7   8
ENDBRANCH   1   7
BRANCH   6  13
ATOM     13  N   LIG d   1     -15.679  63.688 117.259  0.00  0.00    -0.311 N 
ATOM     14  C   LIG d   1     -15.587  63.741 118.587  0.00  0.00     0.210 C 
ATOM     15  C   LIG d   1     -14.398  62.982 119.184  0.00  0.00     0.109 C 
ATOM     16  O   LIG d   1     -16.397  64.317 119.329  0.00  0.00    -0.276 OA
ATOM     17  H   LIG d   1     -14.997  63.171 116.738  0.00  0.00     0.149 HD
ENDBRANCH   6  13
BRANCH   5  18
ATOM     18  N   LIG d   1     -18.656  63.029 117.436  0.00  0.00     0.381 N 
ATOM     19  H   LIG d   1     -18.230  62.202 117.803  0.00  0.00    -0.090 HD
ATOM     20  H   LIG d   1     -19.612  62.817 117.209  0.00  0.00    -0.090 HD
ATOM     21  H   LIG d   1     -18.623  63.758 118.114  0.00  0.00    -0.090 HD
ENDBRANCH   5  18
BRANCH   3  22
ATOM     22  C   LIG d   1     -19.179  64.898 113.057  0.00  0.00     0.382 C 
ATOM     23  O   LIG d   1     -20.133  65.713 113.051  0.00  0.00    -0.241 OA
ATOM     24  O   LIG d   1     -18.978  64.182 112.058  0.00  0.00    -0.241 OA
ENDBRANCH   3  22
TORSDOF 7
ENDMDL
MODEL 6
REMARK VINA RESULT:      -5.0     14.983     17.877
REMARK  7 active torsions:
REMARK  status: ('A' for Active; 'I' for Inactive)
REMARK    1  A    between atoms: C_2  and  C_3 
REMARK    2  A    between atoms: C_3  and  O_6 
REMARK    3  A    between atoms: C_3  and  C_4 
REMARK    4  A    between atoms: C_7  and  O_6 
REMARK    5  A    between atoms: C_9  and  C_10 
REMARK    6  A    between atoms: N_15  and  C_14 
REMARK    7  A    between atoms: N_20  and  C_19 
REMARK       I    between atoms: C_22  and  N_20 
ROOT
ATOM      1  C   LIG d   1     -17.224  66.007 116.231  0.00  0.00     0.161 C 
ATOM      2  C   LIG d   1     -16.259  65.496 117.114  0.00  0.00     0.016 C 
ATOM      3  C   LIG d   1     -15.836  64.147 117.110  0.00  0.00     0.038 C 
ATOM      4  C   LIG d   1     -16.243  63.246 116.116  0.00  0.00     0.028 C 
ATOM      5  C   LIG d   1     -17.601  63.585 115.510  0.00  0.00    -0.047 C 
ATOM      6  C   LIG d   1     -17.597  65.065 115.066  0.00  0.00     0.091 C 
ENDROOT
BRANCH   1   7
ATOM      7  O   LIG d   1     -16.793  67.285 115.723  0.00  0.00    -0.368 OA
BRANCH   7   8
ATOM      8  C   LIG d   1     -15.418  67.362 115.273  0.00  0.00     0.119 C 
BRANCH   8   9
ATOM      9  C   LIG d   1     -14.818  68.664 115.839  0.00  0.00     0.028 C 
ATOM     10  C   LIG d   1     -15.584  69.176 117.070  0.00  0.00     0.006 C 
ENDBRANCH   8   9
BRANCH   8  11
ATOM     11  C   LIG d   1     -15.337  67.507 113.750  0.00  0.00     0.028 C 
ATOM     12  C   LIG d   1     -14.477  68.703 113.310  0.00  0.00     0.006 C 
ENDBRANCH   8  11
ENDBRANCH   7   8
ENDBRANCH   1   7
BRANCH   6  13
ATOM     13  N   LIG d   1     -18.916  65.503 114.540  0.00  0.00    -0.311 N 
ATOM     14  C   LIG d   1     -19.285  65.352 113.269  0.00  0.00     0.210 C 
ATOM     15  C   LIG d   1     -20.679  65.890 112.931  0.00  0.00     0.109 C 
ATOM     16  O   LIG d   1     -18.603  64.793 112.396  0.00  0.00    -0.276 OA
ATOM     17  H   LIG d   1     -19.544  65.938 115.187  0.00  0.00     0.149 HD
ENDBRANCH   6  13
BRANCH   5  18
ATOM     18  N   LIG d   1     -17.839  62.648 114.395  0.00  0.00     0.381 N 
ATOM     19  H   LIG d   1     -17.610  61.717 114.681  0.00  0.00    -0.090 HD
ATOM     20  H   LIG d   1     -17.241  62.898 113.627  0.00  0.00    -0.090 HD
ATOM     21  H   LIG d   1     -18.793  62.691 114.111  0.00  0.00    -0.090 HD
ENDBRANCH   5  18
BRANCH   3  22
ATOM     22  C   LIG d   1     -15.027  63.677 118.134  0.00  0.00     0.382 C 
ATOM     23  O   LIG d   1     -13.818  63.426 117.912  0.00  0.00    -0.241 OA
ATOM     24  O   LIG d   1     -15.502  63.459 119.265  0.00  0.00    -0.241 OA
ENDBRANCH   3  22
TORSDOF 7
ENDMDL
MODEL 7
REMARK VINA RESULT:      -4.9     13.815     16.447
REMARK  7 active torsions:
REMARK  status: ('A' for Active; 'I' for Inactive)
REMARK    1  A    between atoms: C_2  and  C_3 
REMARK    2  A    between atoms: C_3  and  O_6 
REMARK    3  A    between atoms: C_3  and  C_4 
REMARK    4  A    between atoms: C_7  and  O_6 
REMARK    5  A    between atoms: C_9  and  C_10 
REMARK    6  A    between atoms: N_15  and  C_14 
REMARK    7  A    between atoms: N_20  and  C_19 
REMARK       I    between atoms: C_22  and  N_20 
ROOT
ATOM      1  C   LIG d   1     -16.386  66.099 115.506  0.00  0.00     0.161 C 
ATOM      2  C   LIG d   1     -15.695  66.699 114.441  0.00  0.00     0.016 C 
ATOM      3  C   LIG d   1     -15.123  67.990 114.513  0.00  0.00     0.038 C 
ATOM      4  C   LIG d   1     -15.073  68.712 115.715  0.00  0.00     0.028 C 
ATOM      5  C   LIG d   1     -16.200  68.360 116.680  0.00  0.00    -0.047 C 
ATOM      6  C   LIG d   1     -16.246  66.826 116.860  0.00  0.00     0.091 C 
ENDROOT
BRANCH   1   7
ATOM      7  O   LIG d   1     -15.985  64.720 115.634  0.00  0.00    -0.368 OA
BRANCH   7   8
ATOM      8  C   LIG d   1     -17.003  63.731 115.345  0.00  0.00     0.119 C 
BRANCH   8   9
ATOM      9  C   LIG d   1     -16.891  63.374 113.850  0.00  0.00     0.028 C 
ATOM     10  C   LIG d   1     -17.999  64.026 113.006  0.00  0.00     0.006 C 
ENDBRANCH   8   9
BRANCH   8  11
ATOM     11  C   LIG d   1     -18.410  64.311 115.518  0.00  0.00     0.028 C 
ATOM     12  C   LIG d   1     -19.296  63.461 116.442  0.00  0.00     0.006 C 
ENDBRANCH   8  11
ENDBRANCH   7   8
ENDBRANCH   1   7
BRANCH   6  13
ATOM     13  N   LIG d   1     -17.374  66.389 117.724  0.00  0.00    -0.311 N 
ATOM     14  C   LIG d   1     -17.211  65.678 118.838  0.00  0.00     0.210 C 
ATOM     15  C   LIG d   1     -18.508  65.316 119.569  0.00  0.00     0.109 C 
ATOM     16  O   LIG d   1     -16.114  65.339 119.307  0.00  0.00    -0.276 OA
ATOM     17  H   LIG d   1     -18.296  66.648 117.434  0.00  0.00     0.149 HD
ENDBRANCH   6  13
BRANCH   5  18
ATOM     18  N   LIG d   1     -15.948  69.083 117.942  0.00  0.00     0.381 N 
ATOM     19  H   LIG d   1     -15.167  69.698 117.830  0.00  0.00    -0.090 HD
ATOM     20  H   LIG d   1     -15.724  68.416 118.659  0.00  0.00    -0.090 HD
ATOM     21  H   LIG d   1     -16.755  69.604 118.203  0.00  0.00    -0.090 HD
ENDBRANCH   5  18
BRANCH   3  22
ATOM     22  C   LIG d   1     -14.628  68.588 113.365  0.00  0.00     0.382 C 
ATOM     23  O   LIG d   1     -13.903  69.608 113.451  0.00  0.00    -0.241 OA
ATOM     24  O   LIG d   1     -14.933  68.146 112.241  0.00  0.00    -0.241 OA
ENDBRANCH   3  22
TORSDOF 7
ENDMDL
MODEL 8
REMARK VINA RESULT:      -4.8      2.192      5.447
REMARK  7 active torsions:
REMARK  status: ('A' for Active; 'I' for Inactive)
REMARK    1  A    between atoms: C_2  and  C_3 
REMARK    2  A    between atoms: C_3  and  O_6 
REMARK    3  A    between atoms: C_3  and  C_4 
REMARK    4  A    between atoms: C_7  and  O_6 
REMARK    5  A    between atoms: C_9  and  C_10 
REMARK    6  A    between atoms: N_15  and  C_14 
REMARK    7  A    between atoms: N_20  and  C_19 
REMARK       I    between atoms: C_22  and  N_20 
ROOT
ATOM      1  C   LIG d   1      -0.544  75.825 115.397  0.00  0.00     0.161 C 
ATOM      2  C   LIG d   1      -0.519  74.758 116.311  0.00  0.00     0.016 C 
ATOM      3  C   LIG d   1      -0.168  74.907 117.672  0.00  0.00     0.038 C 
ATOM      4  C   LIG d   1       0.035  76.169 118.251  0.00  0.00     0.028 C 
ATOM      5  C   LIG d   1       0.514  77.221 117.257  0.00  0.00    -0.047 C 
ATOM      6  C   LIG d   1      -0.433  77.225 116.035  0.00  0.00     0.091 C 
ENDROOT
BRANCH   1   7
ATOM      7  O   LIG d   1      -1.727  75.740 114.579  0.00  0.00    -0.368 OA
BRANCH   7   8
ATOM      8  C   LIG d   1      -2.970  76.128 115.214  0.00  0.00     0.119 C 
BRANCH   8   9
ATOM      9  C   LIG d   1      -3.903  74.902 115.194  0.00  0.00     0.028 C 
ATOM     10  C   LIG d   1      -5.389  75.296 115.147  0.00  0.00     0.006 C 
ENDBRANCH   8   9
BRANCH   8  11
ATOM     11  C   LIG d   1      -3.698  77.205 114.403  0.00  0.00     0.028 C 
ATOM     12  C   LIG d   1      -2.970  77.560 113.097  0.00  0.00     0.006 C 
ENDBRANCH   8  11
ENDBRANCH   7   8
ENDBRANCH   1   7
BRANCH   6  13
ATOM     13  N   LIG d   1       0.013  78.168 114.976  0.00  0.00    -0.311 N 
ATOM     14  C   LIG d   1      -0.435  79.418 114.872  0.00  0.00     0.210 C 
ATOM     15  C   LIG d   1       0.138  80.215 113.696  0.00  0.00     0.109 C 
ATOM     16  O   LIG d   1      -1.228  79.953 115.661  0.00  0.00    -0.276 OA
ATOM     17  H   LIG d   1       0.679  77.826 114.312  0.00  0.00     0.149 HD
ENDBRANCH   6  13
BRANCH   5  18
ATOM     18  N   LIG d   1       0.553  78.516 117.963  0.00  0.00     0.381 N 
ATOM     19  H   LIG d   1       1.503  78.807 118.084  0.00  0.00    -0.090 HD
ATOM     20  H   LIG d   1       0.139  78.403 118.872  0.00  0.00    -0.090 HD
ATOM     21  H   LIG d   1       0.051  79.202 117.444  0.00  0.00    -0.090 HD
ENDBRANCH   5  18
BRANCH   3  22
ATOM     22  C   LIG d   1       0.020  73.782 118.461  0.00  0.00     0.382 C 
ATOM     23  O   LIG d   1      -0.589  72.719 118.192  0.00  0.00    -0.241 OA
ATOM     24  O   LIG d   1       0.758  73.830 119.463  0.00  0.00    -0.241 OA
ENDBRANCH   3  22
TORSDOF 7
ENDMDL
MODEL 9
REMARK VINA RESULT:      -4.8      2.819      5.276
REMARK  7 active torsions:
REMARK  status: ('A' for Active; 'I' for Inactive)
REMARK    1  A    between atoms: C_2  and  C_3 
REMARK    2  A    between atoms: C_3  and  O_6 
REMARK    3  A    between atoms: C_3  and  C_4 
REMARK    4  A    between atoms: C_7  and  O_6 
REMARK    5  A    between atoms: C_9  and  C_10 
REMARK    6  A    between atoms: N_15  and  C_14 
REMARK    7  A    between atoms: N_20  and  C_19 
REMARK       I    between atoms: C_22  and  N_20 
ROOT
ATOM      1  C   LIG d   1      -2.682  76.488 117.801  0.00  0.00     0.161 C 
ATOM      2  C   LIG d   1      -1.624  76.934 118.612  0.00  0.00     0.016 C 
ATOM      3  C   LIG d   1      -0.320  76.392 118.557  0.00  0.00     0.038 C 
ATOM      4  C   LIG d   1       0.057  75.464 117.575  0.00  0.00     0.028 C 
ATOM      5  C   LIG d   1      -1.104  74.618 117.064  0.00  0.00    -0.047 C 
ATOM      6  C   LIG d   1      -2.262  75.554 116.647  0.00  0.00     0.091 C 
ENDROOT
BRANCH   1   7
ATOM      7  O   LIG d   1      -3.415  77.618 117.289  0.00  0.00    -0.368 OA
BRANCH   7   8
ATOM      8  C   LIG d   1      -4.702  77.875 117.904  0.00  0.00     0.119 C 
BRANCH   8   9
ATOM      9  C   LIG d   1      -5.749  77.941 116.775  0.00  0.00     0.028 C 
ATOM     10  C   LIG d   1      -6.917  76.967 116.999  0.00  0.00     0.006 C 
ENDBRANCH   8   9
BRANCH   8  11
ATOM     11  C   LIG d   1      -4.737  79.253 118.571  0.00  0.00     0.028 C 
ATOM     12  C   LIG d   1      -5.087  80.381 117.588  0.00  0.00     0.006 C 
ENDBRANCH   8  11
ENDBRANCH   7   8
ENDBRANCH   1   7
BRANCH   6  13
ATOM     13  N   LIG d   1      -3.470  74.803 116.214  0.00  0.00    -0.311 N 
ATOM     14  C   LIG d   1      -4.124  75.058 115.083  0.00  0.00     0.210 C 
ATOM     15  C   LIG d   1      -5.356  74.180 114.836  0.00  0.00     0.109 C 
ATOM     16  O   LIG d   1      -3.784  75.906 114.244  0.00  0.00    -0.276 OA
ATOM     17  H   LIG d   1      -3.797  74.077 116.821  0.00  0.00     0.149 HD
ENDBRANCH   6  13
BRANCH   5  18
ATOM     18  N   LIG d   1      -0.599  73.793 115.951  0.00  0.00     0.381 N 
ATOM     19  H   LIG d   1      -0.248  74.383 115.224  0.00  0.00    -0.090 HD
ATOM     20  H   LIG d   1      -1.358  73.250 115.578  0.00  0.00    -0.090 HD
ATOM     21  H   LIG d   1       0.124  73.188 116.275  0.00  0.00    -0.090 HD
ENDBRANCH   5  18
BRANCH   3  22
ATOM     22  C   LIG d   1       0.614  76.750 119.518  0.00  0.00     0.382 C 
ATOM     23  O   LIG d   1       0.779  77.958 119.812  0.00  0.00    -0.241 OA
ATOM     24  O   LIG d   1       1.324  75.883 120.062  0.00  0.00    -0.241 OA
ENDBRANCH   3  22
TORSDOF 7
ENDMDL
