MODEL 1
REMARK VINA RESULT:      -5.8      0.000      0.000
REMARK  7 active torsions:
REMARK  status: ('A' for Active; 'I' for Inactive)
REMARK    1  A    between atoms: C_2  and  C_3 
REMARK    2  A    between atoms: C_3  and  O_6 
REMARK    3  A    between atoms: C_3  and  C_4 
REMARK    4  A    between atoms: C_7  and  O_6 
REMARK    5  A    between atoms: C_9  and  C_10 
REMARK    6  A    between atoms: N_15  and  C_14 
REMARK    7  A    between atoms: N_20  and  C_19 
REMARK       I    between atoms: C_22  and  N_20 
ROOT
ATOM      1  C   LIG d   1      -7.289  76.274 117.550  0.00  0.00     0.161 C 
ATOM      2  C   LIG d   1      -8.416  77.022 117.927  0.00  0.00     0.016 C 
ATOM      3  C   LIG d   1      -8.437  78.436 117.960  0.00  0.00     0.038 C 
ATOM      4  C   LIG d   1      -7.371  79.204 117.468  0.00  0.00     0.028 C 
ATOM      5  C   LIG d   1      -6.024  78.493 117.550  0.00  0.00    -0.047 C 
ATOM      6  C   LIG d   1      -6.154  77.095 116.904  0.00  0.00     0.091 C 
ENDROOT
BRANCH   1   7
ATOM      7  O   LIG d   1      -7.687  75.197 116.677  0.00  0.00    -0.368 OA
BRANCH   7   8
ATOM      8  C   LIG d   1      -7.806  73.890 117.291  0.00  0.00     0.119 C 
BRANCH   8   9
ATOM      9  C   LIG d   1      -6.805  72.955 116.584  0.00  0.00     0.028 C 
ATOM     10  C   LIG d   1      -7.349  71.525 116.428  0.00  0.00     0.006 C 
ENDBRANCH   8   9
BRANCH   8  11
ATOM     11  C   LIG d   1      -9.185  73.277 117.034  0.00  0.00     0.028 C 
ATOM     12  C   LIG d   1     -10.232  74.320 116.614  0.00  0.00     0.006 C 
ENDBRANCH   8  11
ENDBRANCH   7   8
ENDBRANCH   1   7
BRANCH   6  13
ATOM     13  N   LIG d   1      -4.903  76.300 117.017  0.00  0.00    -0.311 N 
ATOM     14  C   LIG d   1      -3.973  76.258 116.065  0.00  0.00     0.210 C 
ATOM     15  C   LIG d   1      -2.771  75.360 116.375  0.00  0.00     0.109 C 
ATOM     16  O   LIG d   1      -4.014  76.903 115.007  0.00  0.00    -0.276 OA
ATOM     17  H   LIG d   1      -4.774  75.770 117.857  0.00  0.00     0.149 HD
ENDBRANCH   6  13
BRANCH   5  18
ATOM     18  N   LIG d   1      -5.027  79.349 116.880  0.00  0.00     0.381 N 
ATOM     19  H   LIG d   1      -4.731  80.075 117.502  0.00  0.00    -0.090 HD
ATOM     20  H   LIG d   1      -5.453  79.777 116.077  0.00  0.00    -0.090 HD
ATOM     21  H   LIG d   1      -4.243  78.803 116.598  0.00  0.00    -0.090 HD
ENDBRANCH   5  18
BRANCH   3  22
ATOM     22  C   LIG d   1      -9.517  79.095 118.526  0.00  0.00     0.382 C 
ATOM     23  O   LIG d   1     -10.097  78.605 119.525  0.00  0.00    -0.241 OA
ATOM     24  O   LIG d   1      -9.948  80.150 118.023  0.00  0.00    -0.241 OA
ENDBRANCH   3  22
TORSDOF 7
ENDMDL
MODEL 2
REMARK VINA RESULT:      -5.7      1.804      4.464
REMARK  7 active torsions:
REMARK  status: ('A' for Active; 'I' for Inactive)
REMARK    1  A    between atoms: C_2  and  C_3 
REMARK    2  A    between atoms: C_3  and  O_6 
REMARK    3  A    between atoms: C_3  and  C_4 
REMARK    4  A    between atoms: C_7  and  O_6 
REMARK    5  A    between atoms: C_9  and  C_10 
REMARK    6  A    between atoms: N_15  and  C_14 
REMARK    7  A    between atoms: N_20  and  C_19 
REMARK       I    between atoms: C_22  and  N_20 
ROOT
ATOM      1  C   LIG d   1      -7.527  76.563 116.791  0.00  0.00     0.161 C 
ATOM      2  C   LIG d   1      -7.168  76.123 115.506  0.00  0.00     0.016 C 
ATOM      3  C   LIG d   1      -5.934  76.438 114.892  0.00  0.00     0.038 C 
ATOM      4  C   LIG d   1      -4.906  77.094 115.587  0.00  0.00     0.028 C 
ATOM      5  C   LIG d   1      -5.412  77.995 116.708  0.00  0.00    -0.047 C 
ATOM      6  C   LIG d   1      -6.374  77.185 117.607  0.00  0.00     0.091 C 
ENDROOT
BRANCH   1   7
ATOM      7  O   LIG d   1      -8.134  75.481 117.526  0.00  0.00    -0.368 OA
BRANCH   7   8
ATOM      8  C   LIG d   1      -8.201  74.205 116.843  0.00  0.00     0.119 C 
BRANCH   8   9
ATOM      9  C   LIG d   1      -9.641  73.676 116.990  0.00  0.00     0.028 C 
ATOM     10  C   LIG d   1     -10.695  74.729 116.607  0.00  0.00     0.006 C 
ENDBRANCH   8   9
BRANCH   8  11
ATOM     11  C   LIG d   1      -7.313  73.160 117.525  0.00  0.00     0.028 C 
ATOM     12  C   LIG d   1      -7.805  71.722 117.300  0.00  0.00     0.006 C 
ENDBRANCH   8  11
ENDBRANCH   7   8
ENDBRANCH   1   7
BRANCH   6  13
ATOM     13  N   LIG d   1      -6.980  78.015 118.681  0.00  0.00    -0.311 N 
ATOM     14  C   LIG d   1      -7.567  79.189 118.456  0.00  0.00     0.210 C 
ATOM     15  C   LIG d   1      -8.109  79.890 119.706  0.00  0.00     0.109 C 
ATOM     16  O   LIG d   1      -7.720  79.701 117.337  0.00  0.00    -0.276 OA
ATOM     17  H   LIG d   1      -6.929  77.660 119.615  0.00  0.00     0.149 HD
ENDBRANCH   6  13
BRANCH   5  18
ATOM     18  N   LIG d   1      -4.234  78.506 117.435  0.00  0.00     0.381 N 
ATOM     19  H   LIG d   1      -4.500  79.281 118.008  0.00  0.00    -0.090 HD
ATOM     20  H   LIG d   1      -3.554  78.826 116.768  0.00  0.00    -0.090 HD
ATOM     21  H   LIG d   1      -3.843  77.785 117.999  0.00  0.00    -0.090 HD
ENDBRANCH   5  18
BRANCH   3  22
ATOM     22  C   LIG d   1      -5.733  76.131 113.555  0.00  0.00     0.382 C 
ATOM     23  O   LIG d   1      -4.773  75.398 113.217  0.00  0.00    -0.241 OA
ATOM     24  O   LIG d   1      -6.474  76.615 112.678  0.00  0.00    -0.241 OA
ENDBRANCH   3  22
TORSDOF 7
ENDMDL
MODEL 3
REMARK VINA RESULT:      -5.6      2.240      4.445
REMARK  7 active torsions:
REMARK  status: ('A' for Active; 'I' for Inactive)
REMARK    1  A    between atoms: C_2  and  C_3 
REMARK    2  A    between atoms: C_3  and  O_6 
REMARK    3  A    between atoms: C_3  and  C_4 
REMARK    4  A    between atoms: C_7  and  O_6 
REMARK    5  A    between atoms: C_9  and  C_10 
REMARK    6  A    between atoms: N_15  and  C_14 
REMARK    7  A    between atoms: N_20  and  C_19 
REMARK       I    between atoms: C_22  and  N_20 
ROOT
ATOM      1  C   LIG d   1      -6.330  75.886 117.391  0.00  0.00     0.161 C 
ATOM      2  C   LIG d   1      -7.306  74.937 117.045  0.00  0.00     0.016 C 
ATOM      3  C   LIG d   1      -8.687  75.231 116.974  0.00  0.00     0.038 C 
ATOM      4  C   LIG d   1      -9.173  76.542 117.098  0.00  0.00     0.028 C 
ATOM      5  C   LIG d   1      -8.280  77.441 117.946  0.00  0.00    -0.047 C 
ATOM      6  C   LIG d   1      -6.829  77.346 117.421  0.00  0.00     0.091 C 
ENDROOT
BRANCH   1   7
ATOM      7  O   LIG d   1      -5.195  75.762 116.511  0.00  0.00    -0.368 OA
BRANCH   7   8
ATOM      8  C   LIG d   1      -5.208  76.604 115.332  0.00  0.00     0.119 C 
BRANCH   8   9
ATOM      9  C   LIG d   1      -5.327  75.680 114.105  0.00  0.00     0.028 C 
ATOM     10  C   LIG d   1      -4.802  74.262 114.385  0.00  0.00     0.006 C 
ENDBRANCH   8   9
BRANCH   8  11
ATOM     11  C   LIG d   1      -3.876  77.340 115.158  0.00  0.00     0.028 C 
ATOM     12  C   LIG d   1      -2.923  77.136 116.347  0.00  0.00     0.006 C 
ENDBRANCH   8  11
ENDBRANCH   7   8
ENDBRANCH   1   7
BRANCH   6  13
ATOM     13  N   LIG d   1      -5.875  78.130 118.247  0.00  0.00    -0.311 N 
ATOM     14  C   LIG d   1      -5.509  79.378 117.958  0.00  0.00     0.210 C 
ATOM     15  C   LIG d   1      -4.499  79.997 118.929  0.00  0.00     0.109 C 
ATOM     16  O   LIG d   1      -5.949  80.042 117.007  0.00  0.00    -0.276 OA
ATOM     17  H   LIG d   1      -5.493  77.679 119.055  0.00  0.00     0.149 HD
ENDBRANCH   6  13
BRANCH   5  18
ATOM     18  N   LIG d   1      -8.831  78.808 117.877  0.00  0.00     0.381 N 
ATOM     19  H   LIG d   1      -8.117  79.446 117.587  0.00  0.00    -0.090 HD
ATOM     20  H   LIG d   1      -9.143  79.079 118.793  0.00  0.00    -0.090 HD
ATOM     21  H   LIG d   1      -9.593  78.837 117.236  0.00  0.00    -0.090 HD
ENDBRANCH   5  18
BRANCH   3  22
ATOM     22  C   LIG d   1      -9.603  74.202 116.816  0.00  0.00     0.382 C 
ATOM     23  O   LIG d   1     -10.832  74.439 116.891  0.00  0.00    -0.241 OA
ATOM     24  O   LIG d   1      -9.213  73.031 116.644  0.00  0.00    -0.241 OA
ENDBRANCH   3  22
TORSDOF 7
ENDMDL
MODEL 4
REMARK VINA RESULT:      -5.4      4.497      6.382
REMARK  7 active torsions:
REMARK  status: ('A' for Active; 'I' for Inactive)
REMARK    1  A    between atoms: C_2  and  C_3 
REMARK    2  A    between atoms: C_3  and  O_6 
REMARK    3  A    between atoms: C_3  and  C_4 
REMARK    4  A    between atoms: C_7  and  O_6 
REMARK    5  A    between atoms: C_9  and  C_10 
REMARK    6  A    between atoms: N_15  and  C_14 
REMARK    7  A    between atoms: N_20  and  C_19 
REMARK       I    between atoms: C_22  and  N_20 
ROOT
ATOM      1  C   LIG d   1      -1.609  75.821 114.940  0.00  0.00     0.161 C 
ATOM      2  C   LIG d   1      -1.581  75.019 116.093  0.00  0.00     0.016 C 
ATOM      3  C   LIG d   1      -1.227  75.508 117.372  0.00  0.00     0.038 C 
ATOM      4  C   LIG d   1      -1.021  76.874 117.612  0.00  0.00     0.028 C 
ATOM      5  C   LIG d   1      -0.545  77.641 116.383  0.00  0.00    -0.047 C 
ATOM      6  C   LIG d   1      -1.496  77.337 115.203  0.00  0.00     0.091 C 
ENDROOT
BRANCH   1   7
ATOM      7  O   LIG d   1      -2.795  75.533 114.173  0.00  0.00    -0.368 OA
BRANCH   7   8
ATOM      8  C   LIG d   1      -4.023  75.391 114.928  0.00  0.00     0.119 C 
BRANCH   8   9
ATOM      9  C   LIG d   1      -4.841  74.260 114.275  0.00  0.00     0.028 C 
ATOM     10  C   LIG d   1      -5.225  73.159 115.278  0.00  0.00     0.006 C 
ENDBRANCH   8   9
BRANCH   8  11
ATOM     11  C   LIG d   1      -4.898  76.643 114.810  0.00  0.00     0.028 C 
ATOM     12  C   LIG d   1      -6.389  76.353 115.044  0.00  0.00     0.006 C 
ENDBRANCH   8  11
ENDBRANCH   7   8
ENDBRANCH   1   7
BRANCH   6  13
ATOM     13  N   LIG d   1      -1.054  77.981 113.938  0.00  0.00    -0.311 N 
ATOM     14  C   LIG d   1      -1.702  78.994 113.366  0.00  0.00     0.210 C 
ATOM     15  C   LIG d   1      -1.088  79.497 112.056  0.00  0.00     0.109 C 
ATOM     16  O   LIG d   1      -2.710  79.544 113.835  0.00  0.00    -0.276 OA
ATOM     17  H   LIG d   1      -0.227  77.617 113.506  0.00  0.00     0.149 HD
ENDBRANCH   6  13
BRANCH   5  18
ATOM     18  N   LIG d   1      -0.504  79.072 116.739  0.00  0.00     0.381 N 
ATOM     19  H   LIG d   1      -1.426  79.394 116.957  0.00  0.00    -0.090 HD
ATOM     20  H   LIG d   1      -0.167  79.594 115.949  0.00  0.00    -0.090 HD
ATOM     21  H   LIG d   1       0.098  79.212 117.520  0.00  0.00    -0.090 HD
ENDBRANCH   5  18
BRANCH   3  22
ATOM     22  C   LIG d   1      -1.036  74.619 118.418  0.00  0.00     0.382 C 
ATOM     23  O   LIG d   1      -0.958  73.388 118.189  0.00  0.00    -0.241 OA
ATOM     24  O   LIG d   1      -0.985  75.028 119.594  0.00  0.00    -0.241 OA
ENDBRANCH   3  22
TORSDOF 7
ENDMDL
MODEL 5
REMARK VINA RESULT:      -5.4      2.002      4.939
REMARK  7 active torsions:
REMARK  status: ('A' for Active; 'I' for Inactive)
REMARK    1  A    between atoms: C_2  and  C_3 
REMARK    2  A    between atoms: C_3  and  O_6 
REMARK    3  A    between atoms: C_3  and  C_4 
REMARK    4  A    between atoms: C_7  and  O_6 
REMARK    5  A    between atoms: C_9  and  C_10 
REMARK    6  A    between atoms: N_15  and  C_14 
REMARK    7  A    between atoms: N_20  and  C_19 
REMARK       I    between atoms: C_22  and  N_20 
ROOT
ATOM      1  C   LIG d   1      -6.934  76.884 116.711  0.00  0.00     0.161 C 
ATOM      2  C   LIG d   1      -7.980  76.004 117.035  0.00  0.00     0.016 C 
ATOM      3  C   LIG d   1      -7.923  74.610 116.808  0.00  0.00     0.038 C 
ATOM      4  C   LIG d   1      -6.748  73.976 116.377  0.00  0.00     0.028 C 
ATOM      5  C   LIG d   1      -5.835  74.885 115.560  0.00  0.00    -0.047 C 
ATOM      6  C   LIG d   1      -5.602  76.197 116.343  0.00  0.00     0.091 C 
ENDROOT
BRANCH   1   7
ATOM      7  O   LIG d   1      -6.734  77.822 117.786  0.00  0.00    -0.368 OA
BRANCH   7   8
ATOM      8  C   LIG d   1      -7.474  79.065 117.694  0.00  0.00     0.119 C 
BRANCH   8   9
ATOM      9  C   LIG d   1      -6.446  80.211 117.628  0.00  0.00     0.028 C 
ATOM     10  C   LIG d   1      -7.106  81.597 117.724  0.00  0.00     0.006 C 
ENDBRANCH   8   9
BRANCH   8  11
ATOM     11  C   LIG d   1      -8.289  79.324 118.965  0.00  0.00     0.028 C 
ATOM     12  C   LIG d   1      -9.727  78.790 118.869  0.00  0.00     0.006 C 
ENDBRANCH   8  11
ENDBRANCH   7   8
ENDBRANCH   1   7
BRANCH   6  13
ATOM     13  N   LIG d   1      -4.788  77.177 115.578  0.00  0.00    -0.311 N 
ATOM     14  C   LIG d   1      -3.708  77.778 116.074  0.00  0.00     0.210 C 
ATOM     15  C   LIG d   1      -3.025  78.768 115.124  0.00  0.00     0.109 C 
ATOM     16  O   LIG d   1      -3.231  77.561 117.198  0.00  0.00    -0.276 OA
ATOM     17  H   LIG d   1      -5.085  77.388 114.645  0.00  0.00     0.149 HD
ENDBRANCH   6  13
BRANCH   5  18
ATOM     18  N   LIG d   1      -4.589  74.141 115.295  0.00  0.00     0.381 N 
ATOM     19  H   LIG d   1      -3.881  74.771 114.973  0.00  0.00    -0.090 HD
ATOM     20  H   LIG d   1      -4.761  73.465 114.572  0.00  0.00    -0.090 HD
ATOM     21  H   LIG d   1      -4.282  73.682 116.124  0.00  0.00    -0.090 HD
ENDBRANCH   5  18
BRANCH   3  22
ATOM     22  C   LIG d   1      -9.064  73.839 116.974  0.00  0.00     0.382 C 
ATOM     23  O   LIG d   1      -8.979  72.696 117.485  0.00  0.00    -0.241 OA
ATOM     24  O   LIG d   1     -10.170  74.254 116.580  0.00  0.00    -0.241 OA
ENDBRANCH   3  22
TORSDOF 7
ENDMDL
MODEL 6
REMARK VINA RESULT:      -5.0      2.341      6.029
REMARK  7 active torsions:
REMARK  status: ('A' for Active; 'I' for Inactive)
REMARK    1  A    between atoms: C_2  and  C_3 
REMARK    2  A    between atoms: C_3  and  O_6 
REMARK    3  A    between atoms: C_3  and  C_4 
REMARK    4  A    between atoms: C_7  and  O_6 
REMARK    5  A    between atoms: C_9  and  C_10 
REMARK    6  A    between atoms: N_15  and  C_14 
REMARK    7  A    between atoms: N_20  and  C_19 
REMARK       I    between atoms: C_22  and  N_20 
ROOT
ATOM      1  C   LIG d   1      -5.238  77.518 116.393  0.00  0.00     0.161 C 
ATOM      2  C   LIG d   1      -4.178  78.285 115.882  0.00  0.00     0.016 C 
ATOM      3  C   LIG d   1      -3.331  77.845 114.839  0.00  0.00     0.038 C 
ATOM      4  C   LIG d   1      -3.585  76.663 114.127  0.00  0.00     0.028 C 
ATOM      5  C   LIG d   1      -4.342  75.618 114.939  0.00  0.00    -0.047 C 
ATOM      6  C   LIG d   1      -5.599  76.274 115.554  0.00  0.00     0.091 C 
ENDROOT
BRANCH   1   7
ATOM      7  O   LIG d   1      -6.400  78.352 116.577  0.00  0.00    -0.368 OA
BRANCH   7   8
ATOM      8  C   LIG d   1      -6.535  78.979 117.876  0.00  0.00     0.119 C 
BRANCH   8   9
ATOM      9  C   LIG d   1      -7.599  78.188 118.662  0.00  0.00     0.028 C 
ATOM     10  C   LIG d   1      -9.013  78.377 118.090  0.00  0.00     0.006 C 
ENDBRANCH   8   9
BRANCH   8  11
ATOM     11  C   LIG d   1      -7.095  80.399 117.754  0.00  0.00     0.028 C 
ATOM     12  C   LIG d   1      -6.640  81.318 118.899  0.00  0.00     0.006 C 
ENDBRANCH   8  11
ENDBRANCH   7   8
ENDBRANCH   1   7
BRANCH   6  13
ATOM     13  N   LIG d   1      -6.352  75.342 116.434  0.00  0.00    -0.311 N 
ATOM     14  C   LIG d   1      -7.680  75.238 116.424  0.00  0.00     0.210 C 
ATOM     15  C   LIG d   1      -8.257  74.231 117.424  0.00  0.00     0.109 C 
ATOM     16  O   LIG d   1      -8.433  75.860 115.660  0.00  0.00    -0.276 OA
ATOM     17  H   LIG d   1      -5.818  74.777 117.063  0.00  0.00     0.149 HD
ENDBRANCH   6  13
BRANCH   5  18
ATOM     18  N   LIG d   1      -4.659  74.496 114.036  0.00  0.00     0.381 N 
ATOM     19  H   LIG d   1      -4.118  74.572 113.198  0.00  0.00    -0.090 HD
ATOM     20  H   LIG d   1      -5.632  74.542 113.789  0.00  0.00    -0.090 HD
ATOM     21  H   LIG d   1      -4.465  73.629 114.487  0.00  0.00    -0.090 HD
ENDBRANCH   5  18
BRANCH   3  22
ATOM     22  C   LIG d   1      -2.194  78.572 114.524  0.00  0.00     0.382 C 
ATOM     23  O   LIG d   1      -2.299  79.695 113.975  0.00  0.00    -0.241 OA
ATOM     24  O   LIG d   1      -1.062  78.100 114.741  0.00  0.00    -0.241 OA
ENDBRANCH   3  22
TORSDOF 7
ENDMDL
MODEL 7
REMARK VINA RESULT:      -4.8      2.061      2.908
REMARK  7 active torsions:
REMARK  status: ('A' for Active; 'I' for Inactive)
REMARK    1  A    between atoms: C_2  and  C_3 
REMARK    2  A    between atoms: C_3  and  O_6 
REMARK    3  A    between atoms: C_3  and  C_4 
REMARK    4  A    between atoms: C_7  and  O_6 
REMARK    5  A    between atoms: C_9  and  C_10 
REMARK    6  A    between atoms: N_15  and  C_14 
REMARK    7  A    between atoms: N_20  and  C_19 
REMARK       I    between atoms: C_22  and  N_20 
ROOT
ATOM      1  C   LIG d   1      -5.954  77.994 117.097  0.00  0.00     0.161 C 
ATOM      2  C   LIG d   1      -7.029  78.893 117.192  0.00  0.00     0.016 C 
ATOM      3  C   LIG d   1      -6.989  80.073 117.970  0.00  0.00     0.038 C 
ATOM      4  C   LIG d   1      -5.810  80.514 118.589  0.00  0.00     0.028 C 
ATOM      5  C   LIG d   1      -4.848  79.382 118.935  0.00  0.00    -0.047 C 
ATOM      6  C   LIG d   1      -4.622  78.514 117.676  0.00  0.00     0.091 C 
ENDROOT
BRANCH   1   7
ATOM      7  O   LIG d   1      -5.779  77.586 115.725  0.00  0.00    -0.368 OA
BRANCH   7   8
ATOM      8  C   LIG d   1      -6.564  76.447 115.294  0.00  0.00     0.119 C 
BRANCH   8   9
ATOM      9  C   LIG d   1      -6.349  75.320 116.322  0.00  0.00     0.028 C 
ATOM     10  C   LIG d   1      -7.673  74.710 116.811  0.00  0.00     0.006 C 
ENDBRANCH   8   9
BRANCH   8  11
ATOM     11  C   LIG d   1      -6.050  75.887 113.964  0.00  0.00     0.028 C 
ATOM     12  C   LIG d   1      -4.748  75.086 114.119  0.00  0.00     0.006 C 
ENDBRANCH   8  11
ENDBRANCH   7   8
ENDBRANCH   1   7
BRANCH   6  13
ATOM     13  N   LIG d   1      -3.758  77.335 117.948  0.00  0.00    -0.311 N 
ATOM     14  C   LIG d   1      -2.767  76.952 117.145  0.00  0.00     0.210 C 
ATOM     15  C   LIG d   1      -2.014  75.698 117.601  0.00  0.00     0.109 C 
ATOM     16  O   LIG d   1      -2.419  77.550 116.116  0.00  0.00    -0.276 OA
ATOM     17  H   LIG d   1      -3.951  76.811 118.778  0.00  0.00     0.149 HD
ENDBRANCH   6  13
BRANCH   5  18
ATOM     18  N   LIG d   1      -3.606  79.993 119.446  0.00  0.00     0.381 N 
ATOM     19  H   LIG d   1      -3.715  80.221 120.414  0.00  0.00    -0.090 HD
ATOM     20  H   LIG d   1      -3.430  80.843 118.940  0.00  0.00    -0.090 HD
ATOM     21  H   LIG d   1      -2.843  79.364 119.329  0.00  0.00    -0.090 HD
ENDBRANCH   5  18
BRANCH   3  22
ATOM     22  C   LIG d   1      -8.150  80.806 118.167  0.00  0.00     0.382 C 
ATOM     23  O   LIG d   1      -8.705  80.809 119.292  0.00  0.00    -0.241 OA
ATOM     24  O   LIG d   1      -8.673  81.427 117.223  0.00  0.00    -0.241 OA
ENDBRANCH   3  22
TORSDOF 7
ENDMDL
MODEL 8
REMARK VINA RESULT:      -4.8     13.954     16.497
REMARK  7 active torsions:
REMARK  status: ('A' for Active; 'I' for Inactive)
REMARK    1  A    between atoms: C_2  and  C_3 
REMARK    2  A    between atoms: C_3  and  O_6 
REMARK    3  A    between atoms: C_3  and  C_4 
REMARK    4  A    between atoms: C_7  and  O_6 
REMARK    5  A    between atoms: C_9  and  C_10 
REMARK    6  A    between atoms: N_15  and  C_14 
REMARK    7  A    between atoms: N_20  and  C_19 
REMARK       I    between atoms: C_22  and  N_20 
ROOT
ATOM      1  C   LIG d   1       2.750  88.536 115.948  0.00  0.00     0.161 C 
ATOM      2  C   LIG d   1       3.372  89.672 116.492  0.00  0.00     0.016 C 
ATOM      3  C   LIG d   1       4.581  90.211 115.995  0.00  0.00     0.038 C 
ATOM      4  C   LIG d   1       5.174  89.736 114.816  0.00  0.00     0.028 C 
ATOM      5  C   LIG d   1       4.855  88.274 114.524  0.00  0.00    -0.047 C 
ATOM      6  C   LIG d   1       3.324  88.071 114.594  0.00  0.00     0.091 C 
ENDROOT
BRANCH   1   7
ATOM      7  O   LIG d   1       1.331  88.761 115.840  0.00  0.00    -0.368 OA
BRANCH   7   8
ATOM      8  C   LIG d   1       0.624  88.984 117.085  0.00  0.00     0.119 C 
BRANCH   8   9
ATOM      9  C   LIG d   1      -0.353  87.809 117.280  0.00  0.00     0.028 C 
ATOM     10  C   LIG d   1      -1.627  88.224 118.035  0.00  0.00     0.006 C 
ENDBRANCH   8   9
BRANCH   8  11
ATOM     11  C   LIG d   1      -0.256  90.235 117.009  0.00  0.00     0.028 C 
ATOM     12  C   LIG d   1       0.433  91.484 117.582  0.00  0.00     0.006 C 
ENDBRANCH   8  11
ENDBRANCH   7   8
ENDBRANCH   1   7
BRANCH   6  13
ATOM     13  N   LIG d   1       2.932  86.650 114.403  0.00  0.00    -0.311 N 
ATOM     14  C   LIG d   1       2.222  86.220 113.361  0.00  0.00     0.210 C 
ATOM     15  C   LIG d   1       1.909  84.720 113.368  0.00  0.00     0.109 C 
ATOM     16  O   LIG d   1       1.851  86.931 112.416  0.00  0.00    -0.276 OA
ATOM     17  H   LIG d   1       3.219  85.999 115.107  0.00  0.00     0.149 HD
ENDBRANCH   6  13
BRANCH   5  18
ATOM     18  N   LIG d   1       5.421  87.950 113.201  0.00  0.00     0.381 N 
ATOM     19  H   LIG d   1       4.682  87.806 112.542  0.00  0.00    -0.090 HD
ATOM     20  H   LIG d   1       5.950  87.098 113.273  0.00  0.00    -0.090 HD
ATOM     21  H   LIG d   1       6.012  88.691 112.892  0.00  0.00    -0.090 HD
ENDBRANCH   5  18
BRANCH   3  22
ATOM     22  C   LIG d   1       5.229  91.212 116.702  0.00  0.00     0.382 C 
ATOM     23  O   LIG d   1       4.620  92.269 116.994  0.00  0.00    -0.241 OA
ATOM     24  O   LIG d   1       6.429  91.090 117.013  0.00  0.00    -0.241 OA
ENDBRANCH   3  22
TORSDOF 7
ENDMDL
MODEL 9
REMARK VINA RESULT:      -4.8     12.623     15.106
REMARK  7 active torsions:
REMARK  status: ('A' for Active; 'I' for Inactive)
REMARK    1  A    between atoms: C_2  and  C_3 
REMARK    2  A    between atoms: C_3  and  O_6 
REMARK    3  A    between atoms: C_3  and  C_4 
REMARK    4  A    between atoms: C_7  and  O_6 
REMARK    5  A    between atoms: C_9  and  C_10 
REMARK    6  A    between atoms: N_15  and  C_14 
REMARK    7  A    between atoms: N_20  and  C_19 
REMARK       I    between atoms: C_22  and  N_20 
ROOT
ATOM      1  C   LIG d   1       2.345  87.040 115.536  0.00  0.00     0.161 C 
ATOM      2  C   LIG d   1       2.932  88.280 115.231  0.00  0.00     0.016 C 
ATOM      3  C   LIG d   1       4.309  88.553 115.406  0.00  0.00     0.038 C 
ATOM      4  C   LIG d   1       5.225  87.550 115.757  0.00  0.00     0.028 C 
ATOM      5  C   LIG d   1       4.601  86.415 116.561  0.00  0.00    -0.047 C 
ATOM      6  C   LIG d   1       3.348  85.901 115.816  0.00  0.00     0.091 C 
ENDROOT
BRANCH   1   7
ATOM      7  O   LIG d   1       1.434  86.660 114.487  0.00  0.00    -0.368 OA
BRANCH   7   8
ATOM      8  C   LIG d   1       1.977  85.804 113.451  0.00  0.00     0.119 C 
BRANCH   8   9
ATOM      9  C   LIG d   1       2.413  86.709 112.283  0.00  0.00     0.028 C 
ATOM     10  C   LIG d   1       3.933  86.681 112.055  0.00  0.00     0.006 C 
ENDBRANCH   8   9
BRANCH   8  11
ATOM     11  C   LIG d   1       0.900  84.882 112.870  0.00  0.00     0.028 C 
ATOM     12  C   LIG d   1      -0.340  85.647 112.383  0.00  0.00     0.006 C 
ENDBRANCH   8  11
ENDBRANCH   7   8
ENDBRANCH   1   7
BRANCH   6  13
ATOM     13  N   LIG d   1       2.629  84.846 116.576  0.00  0.00    -0.311 N 
ATOM     14  C   LIG d   1       2.629  83.561 116.225  0.00  0.00     0.210 C 
ATOM     15  C   LIG d   1       1.808  82.642 117.135  0.00  0.00     0.109 C 
ATOM     16  O   LIG d   1       3.258  83.090 115.266  0.00  0.00    -0.276 OA
ATOM     17  H   LIG d   1       2.118  85.135 117.387  0.00  0.00     0.149 HD
ENDBRANCH   6  13
BRANCH   5  18
ATOM     18  N   LIG d   1       5.633  85.376 116.741  0.00  0.00     0.381 N 
ATOM     19  H   LIG d   1       6.220  85.339 115.932  0.00  0.00    -0.090 HD
ATOM     20  H   LIG d   1       5.182  84.485 116.846  0.00  0.00    -0.090 HD
ATOM     21  H   LIG d   1       6.181  85.576 117.548  0.00  0.00    -0.090 HD
ENDBRANCH   5  18
BRANCH   3  22
ATOM     22  C   LIG d   1       4.775  89.851 115.266  0.00  0.00     0.382 C 
ATOM     23  O   LIG d   1       5.574  90.135 114.342  0.00  0.00    -0.241 OA
ATOM     24  O   LIG d   1       4.440  90.733 116.079  0.00  0.00    -0.241 OA
ENDBRANCH   3  22
TORSDOF 7
ENDMDL
