MODEL 1
REMARK VINA RESULT:      -5.3      0.000      0.000
REMARK  7 active torsions:
REMARK  status: ('A' for Active; 'I' for Inactive)
REMARK    1  A    between atoms: C_2  and  C_3 
REMARK    2  A    between atoms: C_3  and  O_6 
REMARK    3  A    between atoms: C_3  and  C_4 
REMARK    4  A    between atoms: C_7  and  O_6 
REMARK    5  A    between atoms: C_9  and  C_10 
REMARK    6  A    between atoms: N_15  and  C_14 
REMARK    7  A    between atoms: N_20  and  C_19 
REMARK       I    between atoms: C_22  and  N_20 
ROOT
ATOM      1  C   LIG d   1      -2.971  76.978 116.942  0.00  0.00     0.161 C 
ATOM      2  C   LIG d   1      -3.120  77.715 115.756  0.00  0.00     0.016 C 
ATOM      3  C   LIG d   1      -2.212  77.641 114.675  0.00  0.00     0.038 C 
ATOM      4  C   LIG d   1      -1.167  76.706 114.646  0.00  0.00     0.028 C 
ATOM      5  C   LIG d   1      -0.681  76.298 116.033  0.00  0.00    -0.047 C 
ATOM      6  C   LIG d   1      -1.898  75.869 116.885  0.00  0.00     0.091 C 
ENDROOT
BRANCH   1   7
ATOM      7  O   LIG d   1      -4.242  76.425 117.337  0.00  0.00    -0.368 OA
BRANCH   7   8
ATOM      8  C   LIG d   1      -5.294  76.473 116.343  0.00  0.00     0.119 C 
BRANCH   8   9
ATOM      9  C   LIG d   1      -6.621  76.728 117.084  0.00  0.00     0.028 C 
ATOM     10  C   LIG d   1      -7.790  75.925 116.489  0.00  0.00     0.006 C 
ENDBRANCH   8   9
BRANCH   8  11
ATOM     11  C   LIG d   1      -5.471  75.117 115.652  0.00  0.00     0.028 C 
ATOM     12  C   LIG d   1      -5.181  75.175 114.144  0.00  0.00     0.006 C 
ENDBRANCH   8  11
ENDBRANCH   7   8
ENDBRANCH   1   7
BRANCH   6  13
ATOM     13  N   LIG d   1      -1.522  75.534 118.283  0.00  0.00    -0.311 N 
ATOM     14  C   LIG d   1      -1.251  74.297 118.693  0.00  0.00     0.210 C 
ATOM     15  C   LIG d   1      -0.905  74.169 120.179  0.00  0.00     0.109 C 
ATOM     16  O   LIG d   1      -1.233  73.297 117.959  0.00  0.00    -0.276 OA
ATOM     17  H   LIG d   1      -1.482  76.291 118.938  0.00  0.00     0.149 HD
ENDBRANCH   6  13
BRANCH   5  18
ATOM     18  N   LIG d   1       0.310  75.220 115.859  0.00  0.00     0.381 N 
ATOM     19  H   LIG d   1      -0.109  74.447 115.382  0.00  0.00    -0.090 HD
ATOM     20  H   LIG d   1       0.611  74.905 116.765  0.00  0.00    -0.090 HD
ATOM     21  H   LIG d   1       1.091  75.556 115.340  0.00  0.00    -0.090 HD
ENDBRANCH   5  18
BRANCH   3  22
ATOM     22  C   LIG d   1      -2.321  78.539 113.623  0.00  0.00     0.382 C 
ATOM     23  O   LIG d   1      -2.994  78.237 112.608  0.00  0.00    -0.241 OA
ATOM     24  O   LIG d   1      -1.719  79.629 113.658  0.00  0.00    -0.241 OA
ENDBRANCH   3  22
TORSDOF 7
ENDMDL
MODEL 2
REMARK VINA RESULT:      -5.3      3.704      6.421
REMARK  7 active torsions:
REMARK  status: ('A' for Active; 'I' for Inactive)
REMARK    1  A    between atoms: C_2  and  C_3 
REMARK    2  A    between atoms: C_3  and  O_6 
REMARK    3  A    between atoms: C_3  and  C_4 
REMARK    4  A    between atoms: C_7  and  O_6 
REMARK    5  A    between atoms: C_9  and  C_10 
REMARK    6  A    between atoms: N_15  and  C_14 
REMARK    7  A    between atoms: N_20  and  C_19 
REMARK       I    between atoms: C_22  and  N_20 
ROOT
ATOM      1  C   LIG d   1      -6.754  77.267 118.182  0.00  0.00     0.161 C 
ATOM      2  C   LIG d   1      -8.136  77.117 118.380  0.00  0.00     0.016 C 
ATOM      3  C   LIG d   1      -9.061  78.179 118.252  0.00  0.00     0.038 C 
ATOM      4  C   LIG d   1      -8.680  79.438 117.765  0.00  0.00     0.028 C 
ATOM      5  C   LIG d   1      -7.217  79.775 118.035  0.00  0.00    -0.047 C 
ATOM      6  C   LIG d   1      -6.334  78.607 117.542  0.00  0.00     0.091 C 
ENDROOT
BRANCH   1   7
ATOM      7  O   LIG d   1      -6.248  76.162 117.407  0.00  0.00    -0.368 OA
BRANCH   7   8
ATOM      8  C   LIG d   1      -7.123  75.659 116.367  0.00  0.00     0.119 C 
BRANCH   8   9
ATOM      9  C   LIG d   1      -7.093  74.120 116.441  0.00  0.00     0.028 C 
ATOM     10  C   LIG d   1      -8.264  73.548 117.257  0.00  0.00     0.006 C 
ENDBRANCH   8   9
BRANCH   8  11
ATOM     11  C   LIG d   1      -6.592  76.010 114.974  0.00  0.00     0.028 C 
ATOM     12  C   LIG d   1      -5.265  75.307 114.649  0.00  0.00     0.006 C 
ENDBRANCH   8  11
ENDBRANCH   7   8
ENDBRANCH   1   7
BRANCH   6  13
ATOM     13  N   LIG d   1      -4.894  78.818 117.845  0.00  0.00    -0.311 N 
ATOM     14  C   LIG d   1      -3.937  78.780 116.919  0.00  0.00     0.210 C 
ATOM     15  C   LIG d   1      -2.517  79.004 117.448  0.00  0.00     0.109 C 
ATOM     16  O   LIG d   1      -4.133  78.615 115.706  0.00  0.00    -0.276 OA
ATOM     17  H   LIG d   1      -4.649  78.990 118.800  0.00  0.00     0.149 HD
ENDBRANCH   6  13
BRANCH   5  18
ATOM     18  N   LIG d   1      -6.921  81.051 117.356  0.00  0.00     0.381 N 
ATOM     19  H   LIG d   1      -6.473  81.678 117.993  0.00  0.00    -0.090 HD
ATOM     20  H   LIG d   1      -7.785  81.468 117.057  0.00  0.00    -0.090 HD
ATOM     21  H   LIG d   1      -6.333  80.889 116.568  0.00  0.00    -0.090 HD
ENDBRANCH   5  18
BRANCH   3  22
ATOM     22  C   LIG d   1     -10.376  77.997 118.650  0.00  0.00     0.382 C 
ATOM     23  O   LIG d   1     -10.767  78.455 119.751  0.00  0.00    -0.241 OA
ATOM     24  O   LIG d   1     -11.166  77.343 117.943  0.00  0.00    -0.241 OA
ENDBRANCH   3  22
TORSDOF 7
ENDMDL
MODEL 3
REMARK VINA RESULT:      -5.3      3.483      6.210
REMARK  7 active torsions:
REMARK  status: ('A' for Active; 'I' for Inactive)
REMARK    1  A    between atoms: C_2  and  C_3 
REMARK    2  A    between atoms: C_3  and  O_6 
REMARK    3  A    between atoms: C_3  and  C_4 
REMARK    4  A    between atoms: C_7  and  O_6 
REMARK    5  A    between atoms: C_9  and  C_10 
REMARK    6  A    between atoms: N_15  and  C_14 
REMARK    7  A    between atoms: N_20  and  C_19 
REMARK       I    between atoms: C_22  and  N_20 
ROOT
ATOM      1  C   LIG d   1      -7.209  76.672 117.351  0.00  0.00     0.161 C 
ATOM      2  C   LIG d   1      -8.522  77.017 117.709  0.00  0.00     0.016 C 
ATOM      3  C   LIG d   1      -8.923  78.337 118.019  0.00  0.00     0.038 C 
ATOM      4  C   LIG d   1      -8.065  79.432 117.844  0.00  0.00     0.028 C 
ATOM      5  C   LIG d   1      -6.589  79.072 117.970  0.00  0.00    -0.047 C 
ATOM      6  C   LIG d   1      -6.285  77.870 117.047  0.00  0.00     0.091 C 
ENDROOT
BRANCH   1   7
ATOM      7  O   LIG d   1      -7.230  75.760 116.235  0.00  0.00    -0.368 OA
BRANCH   7   8
ATOM      8  C   LIG d   1      -6.275  74.671 116.283  0.00  0.00     0.119 C 
BRANCH   8   9
ATOM      9  C   LIG d   1      -5.542  74.638 114.928  0.00  0.00     0.028 C 
ATOM     10  C   LIG d   1      -5.961  75.795 114.006  0.00  0.00     0.006 C 
ENDBRANCH   8   9
BRANCH   8  11
ATOM     11  C   LIG d   1      -6.980  73.316 116.396  0.00  0.00     0.028 C 
ATOM     12  C   LIG d   1      -8.258  73.379 117.247  0.00  0.00     0.006 C 
ENDBRANCH   8  11
ENDBRANCH   7   8
ENDBRANCH   1   7
BRANCH   6  13
ATOM     13  N   LIG d   1      -4.881  77.399 117.173  0.00  0.00    -0.311 N 
ATOM     14  C   LIG d   1      -3.897  77.807 116.373  0.00  0.00     0.210 C 
ATOM     15  C   LIG d   1      -2.528  77.182 116.663  0.00  0.00     0.109 C 
ATOM     16  O   LIG d   1      -4.021  78.650 115.472  0.00  0.00    -0.276 OA
ATOM     17  H   LIG d   1      -4.685  76.737 117.898  0.00  0.00     0.149 HD
ENDBRANCH   6  13
BRANCH   5  18
ATOM     18  N   LIG d   1      -5.806  80.275 117.630  0.00  0.00     0.381 N 
ATOM     19  H   LIG d   1      -6.421  81.050 117.486  0.00  0.00    -0.090 HD
ATOM     20  H   LIG d   1      -5.306  80.106 116.775  0.00  0.00    -0.090 HD
ATOM     21  H   LIG d   1      -5.164  80.483 118.363  0.00  0.00    -0.090 HD
ENDBRANCH   5  18
BRANCH   3  22
ATOM     22  C   LIG d   1     -10.184  78.565 118.548  0.00  0.00     0.382 C 
ATOM     23  O   LIG d   1     -11.072  77.684 118.456  0.00  0.00    -0.241 OA
ATOM     24  O   LIG d   1     -10.459  79.659 119.078  0.00  0.00    -0.241 OA
ENDBRANCH   3  22
TORSDOF 7
ENDMDL
MODEL 4
REMARK VINA RESULT:      -5.1      4.120      7.391
REMARK  7 active torsions:
REMARK  status: ('A' for Active; 'I' for Inactive)
REMARK    1  A    between atoms: C_2  and  C_3 
REMARK    2  A    between atoms: C_3  and  O_6 
REMARK    3  A    between atoms: C_3  and  C_4 
REMARK    4  A    between atoms: C_7  and  O_6 
REMARK    5  A    between atoms: C_9  and  C_10 
REMARK    6  A    between atoms: N_15  and  C_14 
REMARK    7  A    between atoms: N_20  and  C_19 
REMARK       I    between atoms: C_22  and  N_20 
ROOT
ATOM      1  C   LIG d   1      -6.662  77.929 117.388  0.00  0.00     0.161 C 
ATOM      2  C   LIG d   1      -6.643  76.576 117.010  0.00  0.00     0.016 C 
ATOM      3  C   LIG d   1      -7.773  75.731 117.086  0.00  0.00     0.038 C 
ATOM      4  C   LIG d   1      -9.047  76.224 117.405  0.00  0.00     0.028 C 
ATOM      5  C   LIG d   1      -9.012  77.472 118.280  0.00  0.00    -0.047 C 
ATOM      6  C   LIG d   1      -8.069  78.512 117.633  0.00  0.00     0.091 C 
ENDROOT
BRANCH   1   7
ATOM      7  O   LIG d   1      -5.955  78.719 116.411  0.00  0.00    -0.368 OA
BRANCH   7   8
ATOM      8  C   LIG d   1      -4.664  79.234 116.821  0.00  0.00     0.119 C 
BRANCH   8   9
ATOM      9  C   LIG d   1      -3.585  78.420 116.081  0.00  0.00     0.028 C 
ATOM     10  C   LIG d   1      -2.671  77.645 117.043  0.00  0.00     0.006 C 
ENDBRANCH   8   9
BRANCH   8  11
ATOM     11  C   LIG d   1      -4.411  78.982 118.311  0.00  0.00     0.028 C 
ATOM     12  C   LIG d   1      -4.366  80.278 119.135  0.00  0.00     0.006 C 
ENDBRANCH   8  11
ENDBRANCH   7   8
ENDBRANCH   1   7
BRANCH   6  13
ATOM     13  N   LIG d   1      -7.911  79.731 118.468  0.00  0.00    -0.311 N 
ATOM     14  C   LIG d   1      -7.929  80.967 117.972  0.00  0.00     0.210 C 
ATOM     15  C   LIG d   1      -7.728  82.081 119.004  0.00  0.00     0.109 C 
ATOM     16  O   LIG d   1      -8.123  81.248 116.780  0.00  0.00    -0.276 OA
ATOM     17  H   LIG d   1      -7.780  79.597 119.452  0.00  0.00     0.149 HD
ENDBRANCH   6  13
BRANCH   5  18
ATOM     18  N   LIG d   1     -10.398  77.957 118.421  0.00  0.00     0.381 N 
ATOM     19  H   LIG d   1     -10.429  78.705 119.084  0.00  0.00    -0.090 HD
ATOM     20  H   LIG d   1     -10.972  77.207 118.764  0.00  0.00    -0.090 HD
ATOM     21  H   LIG d   1     -10.741  78.271 117.540  0.00  0.00    -0.090 HD
ENDBRANCH   5  18
BRANCH   3  22
ATOM     22  C   LIG d   1      -7.628  74.368 116.879  0.00  0.00     0.382 C 
ATOM     23  O   LIG d   1      -6.672  73.937 116.190  0.00  0.00    -0.241 OA
ATOM     24  O   LIG d   1      -8.465  73.566 117.336  0.00  0.00    -0.241 OA
ENDBRANCH   3  22
TORSDOF 7
ENDMDL
MODEL 5
REMARK VINA RESULT:      -4.9      5.208      7.680
REMARK  7 active torsions:
REMARK  status: ('A' for Active; 'I' for Inactive)
REMARK    1  A    between atoms: C_2  and  C_3 
REMARK    2  A    between atoms: C_3  and  O_6 
REMARK    3  A    between atoms: C_3  and  C_4 
REMARK    4  A    between atoms: C_7  and  O_6 
REMARK    5  A    between atoms: C_9  and  C_10 
REMARK    6  A    between atoms: N_15  and  C_14 
REMARK    7  A    between atoms: N_20  and  C_19 
REMARK       I    between atoms: C_22  and  N_20 
ROOT
ATOM      1  C   LIG d   1      -7.642  79.337 117.575  0.00  0.00     0.161 C 
ATOM      2  C   LIG d   1      -8.045  80.662 117.808  0.00  0.00     0.016 C 
ATOM      3  C   LIG d   1      -9.286  81.006 118.391  0.00  0.00     0.038 C 
ATOM      4  C   LIG d   1     -10.149  80.037 118.924  0.00  0.00     0.028 C 
ATOM      5  C   LIG d   1     -10.013  78.673 118.258  0.00  0.00    -0.047 C 
ATOM      6  C   LIG d   1      -8.522  78.265 118.251  0.00  0.00     0.091 C 
ENDROOT
BRANCH   1   7
ATOM      7  O   LIG d   1      -6.263  79.171 117.963  0.00  0.00    -0.368 OA
BRANCH   7   8
ATOM      8  C   LIG d   1      -6.033  78.710 119.317  0.00  0.00     0.119 C 
BRANCH   8   9
ATOM      9  C   LIG d   1      -5.450  79.892 120.115  0.00  0.00     0.028 C 
ATOM     10  C   LIG d   1      -4.370  80.655 119.329  0.00  0.00     0.006 C 
ENDBRANCH   8   9
BRANCH   8  11
ATOM     11  C   LIG d   1      -4.957  77.621 119.360  0.00  0.00     0.028 C 
ATOM     12  C   LIG d   1      -4.666  77.016 117.977  0.00  0.00     0.006 C 
ENDBRANCH   8  11
ENDBRANCH   7   8
ENDBRANCH   1   7
BRANCH   6  13
ATOM     13  N   LIG d   1      -8.289  76.979 117.542  0.00  0.00    -0.311 N 
ATOM     14  C   LIG d   1      -8.265  75.798 118.155  0.00  0.00     0.210 C 
ATOM     15  C   LIG d   1      -7.989  74.600 117.241  0.00  0.00     0.109 C 
ATOM     16  O   LIG d   1      -8.478  75.624 119.365  0.00  0.00    -0.276 OA
ATOM     17  H   LIG d   1      -8.138  77.025 116.553  0.00  0.00     0.149 HD
ENDBRANCH   6  13
BRANCH   5  18
ATOM     18  N   LIG d   1     -10.867  77.727 119.000  0.00  0.00     0.381 N 
ATOM     19  H   LIG d   1     -10.408  76.841 119.073  0.00  0.00    -0.090 HD
ATOM     20  H   LIG d   1     -11.725  77.597 118.493  0.00  0.00    -0.090 HD
ATOM     21  H   LIG d   1     -11.062  78.084 119.909  0.00  0.00    -0.090 HD
ENDBRANCH   5  18
BRANCH   3  22
ATOM     22  C   LIG d   1      -9.693  82.332 118.410  0.00  0.00     0.382 C 
ATOM     23  O   LIG d   1     -10.674  82.697 117.718  0.00  0.00    -0.241 OA
ATOM     24  O   LIG d   1      -9.063  83.176 119.076  0.00  0.00    -0.241 OA
ENDBRANCH   3  22
TORSDOF 7
ENDMDL
MODEL 6
REMARK VINA RESULT:      -4.9     10.955     13.217
REMARK  7 active torsions:
REMARK  status: ('A' for Active; 'I' for Inactive)
REMARK    1  A    between atoms: C_2  and  C_3 
REMARK    2  A    between atoms: C_3  and  O_6 
REMARK    3  A    between atoms: C_3  and  C_4 
REMARK    4  A    between atoms: C_7  and  O_6 
REMARK    5  A    between atoms: C_9  and  C_10 
REMARK    6  A    between atoms: N_15  and  C_14 
REMARK    7  A    between atoms: N_20  and  C_19 
REMARK       I    between atoms: C_22  and  N_20 
ROOT
ATOM      1  C   LIG d   1       1.347  87.336 116.057  0.00  0.00     0.161 C 
ATOM      2  C   LIG d   1       0.000  87.365 116.457  0.00  0.00     0.016 C 
ATOM      3  C   LIG d   1      -0.586  88.457 117.137  0.00  0.00     0.038 C 
ATOM      4  C   LIG d   1       0.100  89.664 117.332  0.00  0.00     0.028 C 
ATOM      5  C   LIG d   1       1.615  89.497 117.395  0.00  0.00    -0.047 C 
ATOM      6  C   LIG d   1       2.082  88.689 116.162  0.00  0.00     0.091 C 
ENDROOT
BRANCH   1   7
ATOM      7  O   LIG d   1       1.448  86.814 114.718  0.00  0.00    -0.368 OA
BRANCH   7   8
ATOM      8  C   LIG d   1       1.806  85.414 114.605  0.00  0.00     0.119 C 
BRANCH   8   9
ATOM      9  C   LIG d   1       3.307  85.347 114.261  0.00  0.00     0.028 C 
ATOM     10  C   LIG d   1       3.637  86.049 112.933  0.00  0.00     0.006 C 
ENDBRANCH   8   9
BRANCH   8  11
ATOM     11  C   LIG d   1       1.090  84.749 113.426  0.00  0.00     0.028 C 
ATOM     12  C   LIG d   1      -0.119  85.558 112.930  0.00  0.00     0.006 C 
ENDBRANCH   8  11
ENDBRANCH   7   8
ENDBRANCH   1   7
BRANCH   6  13
ATOM     13  N   LIG d   1       3.541  88.407 116.189  0.00  0.00    -0.311 N 
ATOM     14  C   LIG d   1       4.388  88.843 115.259  0.00  0.00     0.210 C 
ATOM     15  C   LIG d   1       5.847  88.423 115.465  0.00  0.00     0.109 C 
ATOM     16  O   LIG d   1       4.076  89.565 114.300  0.00  0.00    -0.276 OA
ATOM     17  H   LIG d   1       3.885  87.854 116.949  0.00  0.00     0.149 HD
ENDBRANCH   6  13
BRANCH   5  18
ATOM     18  N   LIG d   1       2.210  90.845 117.461  0.00  0.00     0.381 N 
ATOM     19  H   LIG d   1       1.493  91.537 117.366  0.00  0.00    -0.090 HD
ATOM     20  H   LIG d   1       2.856  90.953 116.700  0.00  0.00    -0.090 HD
ATOM     21  H   LIG d   1       2.684  90.966 118.329  0.00  0.00    -0.090 HD
ENDBRANCH   5  18
BRANCH   3  22
ATOM     22  C   LIG d   1      -1.862  88.332 117.666  0.00  0.00     0.382 C 
ATOM     23  O   LIG d   1      -2.026  87.784 118.783  0.00  0.00    -0.241 OA
ATOM     24  O   LIG d   1      -2.854  88.719 117.021  0.00  0.00    -0.241 OA
ENDBRANCH   3  22
TORSDOF 7
ENDMDL
MODEL 7
REMARK VINA RESULT:      -4.8      4.476      6.752
REMARK  7 active torsions:
REMARK  status: ('A' for Active; 'I' for Inactive)
REMARK    1  A    between atoms: C_2  and  C_3 
REMARK    2  A    between atoms: C_3  and  O_6 
REMARK    3  A    between atoms: C_3  and  C_4 
REMARK    4  A    between atoms: C_7  and  O_6 
REMARK    5  A    between atoms: C_9  and  C_10 
REMARK    6  A    between atoms: N_15  and  C_14 
REMARK    7  A    between atoms: N_20  and  C_19 
REMARK       I    between atoms: C_22  and  N_20 
ROOT
ATOM      1  C   LIG d   1      -6.995  78.667 117.814  0.00  0.00     0.161 C 
ATOM      2  C   LIG d   1      -5.854  78.553 117.003  0.00  0.00     0.016 C 
ATOM      3  C   LIG d   1      -5.478  77.354 116.354  0.00  0.00     0.038 C 
ATOM      4  C   LIG d   1      -6.305  76.221 116.351  0.00  0.00     0.028 C 
ATOM      5  C   LIG d   1      -7.216  76.133 117.571  0.00  0.00    -0.047 C 
ATOM      6  C   LIG d   1      -7.969  77.473 117.732  0.00  0.00     0.091 C 
ENDROOT
BRANCH   1   7
ATOM      7  O   LIG d   1      -7.685  79.898 117.516  0.00  0.00    -0.368 OA
BRANCH   7   8
ATOM      8  C   LIG d   1      -7.962  80.762 118.645  0.00  0.00     0.119 C 
BRANCH   8   9
ATOM      9  C   LIG d   1      -9.482  81.019 118.669  0.00  0.00     0.028 C 
ATOM     10  C   LIG d   1      -9.935  81.963 117.543  0.00  0.00     0.006 C 
ENDBRANCH   8   9
BRANCH   8  11
ATOM     11  C   LIG d   1      -7.321  82.141 118.463  0.00  0.00     0.028 C 
ATOM     12  C   LIG d   1      -6.895  82.781 119.793  0.00  0.00     0.006 C 
ENDBRANCH   8  11
ENDBRANCH   7   8
ENDBRANCH   1   7
BRANCH   6  13
ATOM     13  N   LIG d   1      -8.819  77.502 118.951  0.00  0.00    -0.311 N 
ATOM     14  C   LIG d   1     -10.149  77.571 118.916  0.00  0.00     0.210 C 
ATOM     15  C   LIG d   1     -10.831  77.610 120.287  0.00  0.00     0.109 C 
ATOM     16  O   LIG d   1     -10.830  77.571 117.879  0.00  0.00    -0.276 OA
ATOM     17  H   LIG d   1      -8.351  77.474 119.835  0.00  0.00     0.149 HD
ENDBRANCH   6  13
BRANCH   5  18
ATOM     18  N   LIG d   1      -8.118  74.983 117.372  0.00  0.00     0.381 N 
ATOM     19  H   LIG d   1      -8.575  74.758 118.233  0.00  0.00    -0.090 HD
ATOM     20  H   LIG d   1      -7.573  74.188 117.087  0.00  0.00    -0.090 HD
ATOM     21  H   LIG d   1      -8.795  75.198 116.673  0.00  0.00    -0.090 HD
ENDBRANCH   5  18
BRANCH   3  22
ATOM     22  C   LIG d   1      -4.241  77.269 115.732  0.00  0.00     0.382 C 
ATOM     23  O   LIG d   1      -3.563  76.218 115.828  0.00  0.00    -0.241 OA
ATOM     24  O   LIG d   1      -3.777  78.245 115.113  0.00  0.00    -0.241 OA
ENDBRANCH   3  22
TORSDOF 7
ENDMDL
MODEL 8
REMARK VINA RESULT:      -4.8      4.636      7.197
REMARK  7 active torsions:
REMARK  status: ('A' for Active; 'I' for Inactive)
REMARK    1  A    between atoms: C_2  and  C_3 
REMARK    2  A    between atoms: C_3  and  O_6 
REMARK    3  A    between atoms: C_3  and  C_4 
REMARK    4  A    between atoms: C_7  and  O_6 
REMARK    5  A    between atoms: C_9  and  C_10 
REMARK    6  A    between atoms: N_15  and  C_14 
REMARK    7  A    between atoms: N_20  and  C_19 
REMARK       I    between atoms: C_22  and  N_20 
ROOT
ATOM      1  C   LIG d   1      -7.257  78.850 117.464  0.00  0.00     0.161 C 
ATOM      2  C   LIG d   1      -7.466  80.222 117.679  0.00  0.00     0.016 C 
ATOM      3  C   LIG d   1      -8.641  80.748 118.265  0.00  0.00     0.038 C 
ATOM      4  C   LIG d   1      -9.629  79.920 118.817  0.00  0.00     0.028 C 
ATOM      5  C   LIG d   1      -9.693  78.540 118.170  0.00  0.00    -0.047 C 
ATOM      6  C   LIG d   1      -8.276  77.924 118.161  0.00  0.00     0.091 C 
ENDROOT
BRANCH   1   7
ATOM      7  O   LIG d   1      -5.914  78.494 117.846  0.00  0.00    -0.368 OA
BRANCH   7   8
ATOM      8  C   LIG d   1      -5.056  78.009 116.784  0.00  0.00     0.119 C 
BRANCH   8   9
ATOM      9  C   LIG d   1      -4.632  76.574 117.152  0.00  0.00     0.028 C 
ATOM     10  C   LIG d   1      -4.958  75.562 116.040  0.00  0.00     0.006 C 
ENDBRANCH   8   9
BRANCH   8  11
ATOM     11  C   LIG d   1      -3.754  78.810 116.709  0.00  0.00     0.028 C 
ATOM     12  C   LIG d   1      -3.125  79.057 118.089  0.00  0.00     0.006 C 
ENDBRANCH   8  11
ENDBRANCH   7   8
ENDBRANCH   1   7
BRANCH   6  13
ATOM     13  N   LIG d   1      -8.234  76.609 117.470  0.00  0.00    -0.311 N 
ATOM     14  C   LIG d   1      -8.294  75.442 118.110  0.00  0.00     0.210 C 
ATOM     15  C   LIG d   1      -8.215  74.205 117.209  0.00  0.00     0.109 C 
ATOM     16  O   LIG d   1      -8.438  75.314 119.335  0.00  0.00    -0.276 OA
ATOM     17  H   LIG d   1      -8.150  76.620 116.472  0.00  0.00     0.149 HD
ENDBRANCH   6  13
BRANCH   5  18
ATOM     18  N   LIG d   1     -10.668  77.736 118.931  0.00  0.00     0.381 N 
ATOM     19  H   LIG d   1     -11.588  78.108 118.802  0.00  0.00    -0.090 HD
ATOM     20  H   LIG d   1     -10.441  77.789 119.909  0.00  0.00    -0.090 HD
ATOM     21  H   LIG d   1     -10.640  76.788 118.627  0.00  0.00    -0.090 HD
ENDBRANCH   5  18
BRANCH   3  22
ATOM     22  C   LIG d   1      -8.854  82.118 118.266  0.00  0.00     0.382 C 
ATOM     23  O   LIG d   1      -8.086  82.872 118.912  0.00  0.00    -0.241 OA
ATOM     24  O   LIG d   1      -9.830  82.606 117.666  0.00  0.00    -0.241 OA
ENDBRANCH   3  22
TORSDOF 7
ENDMDL
MODEL 9
REMARK VINA RESULT:      -4.7      2.539      5.610
REMARK  7 active torsions:
REMARK  status: ('A' for Active; 'I' for Inactive)
REMARK    1  A    between atoms: C_2  and  C_3 
REMARK    2  A    between atoms: C_3  and  O_6 
REMARK    3  A    between atoms: C_3  and  C_4 
REMARK    4  A    between atoms: C_7  and  O_6 
REMARK    5  A    between atoms: C_9  and  C_10 
REMARK    6  A    between atoms: N_15  and  C_14 
REMARK    7  A    between atoms: N_20  and  C_19 
REMARK       I    between atoms: C_22  and  N_20 
ROOT
ATOM      1  C   LIG d   1      -2.796  75.854 116.035  0.00  0.00     0.161 C 
ATOM      2  C   LIG d   1      -3.937  75.045 115.907  0.00  0.00     0.016 C 
ATOM      3  C   LIG d   1      -5.257  75.540 116.005  0.00  0.00     0.038 C 
ATOM      4  C   LIG d   1      -5.530  76.914 116.087  0.00  0.00     0.028 C 
ATOM      5  C   LIG d   1      -4.402  77.718 116.726  0.00  0.00    -0.047 C 
ATOM      6  C   LIG d   1      -3.074  77.372 116.015  0.00  0.00     0.091 C 
ENDROOT
BRANCH   1   7
ATOM      7  O   LIG d   1      -1.834  75.508 115.019  0.00  0.00    -0.368 OA
BRANCH   7   8
ATOM      8  C   LIG d   1      -0.495  75.209 115.485  0.00  0.00     0.119 C 
BRANCH   8   9
ATOM      9  C   LIG d   1       0.037  74.034 114.641  0.00  0.00     0.028 C 
ATOM     10  C   LIG d   1       0.985  74.497 113.522  0.00  0.00     0.006 C 
ENDBRANCH   8   9
BRANCH   8  11
ATOM     11  C   LIG d   1      -0.508  74.699 116.929  0.00  0.00     0.028 C 
ATOM     12  C   LIG d   1       0.347  75.560 117.872  0.00  0.00     0.006 C 
ENDBRANCH   8  11
ENDBRANCH   7   8
ENDBRANCH   1   7
BRANCH   6  13
ATOM     13  N   LIG d   1      -1.906  78.052 116.633  0.00  0.00    -0.311 N 
ATOM     14  C   LIG d   1      -1.092  78.865 115.963  0.00  0.00     0.210 C 
ATOM     15  C   LIG d   1       0.063  79.446 116.785  0.00  0.00     0.109 C 
ATOM     16  O   LIG d   1      -1.235  79.186 114.773  0.00  0.00    -0.276 OA
ATOM     17  H   LIG d   1      -1.734  77.872 117.603  0.00  0.00     0.149 HD
ENDBRANCH   6  13
BRANCH   5  18
ATOM     18  N   LIG d   1      -4.759  79.145 116.623  0.00  0.00     0.381 N 
ATOM     19  H   LIG d   1      -5.733  79.266 116.815  0.00  0.00    -0.090 HD
ATOM     20  H   LIG d   1      -4.581  79.458 115.685  0.00  0.00    -0.090 HD
ATOM     21  H   LIG d   1      -4.217  79.679 117.267  0.00  0.00    -0.090 HD
ENDBRANCH   5  18
BRANCH   3  22
ATOM     22  C   LIG d   1      -6.322  74.653 116.061  0.00  0.00     0.382 C 
ATOM     23  O   LIG d   1      -7.455  75.056 116.418  0.00  0.00    -0.241 OA
ATOM     24  O   LIG d   1      -6.153  73.447 115.801  0.00  0.00    -0.241 OA
ENDBRANCH   3  22
TORSDOF 7
ENDMDL
