MODEL 1
REMARK VINA RESULT:      -6.1      0.000      0.000
REMARK  7 active torsions:
REMARK  status: ('A' for Active; 'I' for Inactive)
REMARK    1  A    between atoms: C_2  and  C_3 
REMARK    2  A    between atoms: C_3  and  O_6 
REMARK    3  A    between atoms: C_3  and  C_4 
REMARK    4  A    between atoms: C_7  and  O_6 
REMARK    5  A    between atoms: C_9  and  C_10 
REMARK    6  A    between atoms: N_15  and  C_14 
REMARK    7  A    between atoms: N_20  and  C_19 
REMARK       I    between atoms: C_22  and  N_20 
ROOT
ATOM      1  C   LIG d   1      -7.339  74.515 117.594  0.00  0.00     0.161 C 
ATOM      2  C   LIG d   1      -8.563  75.035 118.046  0.00  0.00     0.016 C 
ATOM      3  C   LIG d   1      -8.840  76.420 118.121  0.00  0.00     0.038 C 
ATOM      4  C   LIG d   1      -7.960  77.381 117.603  0.00  0.00     0.028 C 
ATOM      5  C   LIG d   1      -6.503  76.930 117.601  0.00  0.00    -0.047 C 
ATOM      6  C   LIG d   1      -6.408  75.545 116.921  0.00  0.00     0.091 C 
ENDROOT
BRANCH   1   7
ATOM      7  O   LIG d   1      -7.578  73.402 116.710  0.00  0.00    -0.368 OA
BRANCH   7   8
ATOM      8  C   LIG d   1      -7.845  72.129 117.347  0.00  0.00     0.119 C 
BRANCH   8   9
ATOM      9  C   LIG d   1      -6.900  71.088 116.716  0.00  0.00     0.028 C 
ATOM     10  C   LIG d   1      -6.117  71.655 115.520  0.00  0.00     0.006 C 
ENDBRANCH   8   9
BRANCH   8  11
ATOM     11  C   LIG d   1      -9.260  71.635 117.032  0.00  0.00     0.028 C 
ATOM     12  C   LIG d   1      -9.405  70.111 117.176  0.00  0.00     0.006 C 
ENDBRANCH   8  11
ENDBRANCH   7   8
ENDBRANCH   1   7
BRANCH   6  13
ATOM     13  N   LIG d   1      -5.029  74.993 116.951  0.00  0.00    -0.311 N 
ATOM     14  C   LIG d   1      -4.307  74.762 115.856  0.00  0.00     0.210 C 
ATOM     15  C   LIG d   1      -2.917  74.171 116.110  0.00  0.00     0.109 C 
ATOM     16  O   LIG d   1      -4.674  75.022 114.700  0.00  0.00    -0.276 OA
ATOM     17  H   LIG d   1      -4.641  74.783 117.850  0.00  0.00     0.149 HD
ENDBRANCH   6  13
BRANCH   5  18
ATOM     18  N   LIG d   1      -5.716  77.969 116.910  0.00  0.00     0.381 N 
ATOM     19  H   LIG d   1      -5.803  77.857 115.920  0.00  0.00    -0.090 HD
ATOM     20  H   LIG d   1      -4.748  77.860 117.156  0.00  0.00    -0.090 HD
ATOM     21  H   LIG d   1      -6.035  78.874 117.179  0.00  0.00    -0.090 HD
ENDBRANCH   5  18
BRANCH   3  22
ATOM     22  C   LIG d   1      -9.993  76.856 118.757  0.00  0.00     0.382 C 
ATOM     23  O   LIG d   1      -9.929  77.325 119.919  0.00  0.00    -0.241 OA
ATOM     24  O   LIG d   1     -11.102  76.746 118.200  0.00  0.00    -0.241 OA
ENDBRANCH   3  22
TORSDOF 7
ENDMDL
MODEL 2
REMARK VINA RESULT:      -5.9      0.945      1.743
REMARK  7 active torsions:
REMARK  status: ('A' for Active; 'I' for Inactive)
REMARK    1  A    between atoms: C_2  and  C_3 
REMARK    2  A    between atoms: C_3  and  O_6 
REMARK    3  A    between atoms: C_3  and  C_4 
REMARK    4  A    between atoms: C_7  and  O_6 
REMARK    5  A    between atoms: C_9  and  C_10 
REMARK    6  A    between atoms: N_15  and  C_14 
REMARK    7  A    between atoms: N_20  and  C_19 
REMARK       I    between atoms: C_22  and  N_20 
ROOT
ATOM      1  C   LIG d   1      -6.958  74.415 118.383  0.00  0.00     0.161 C 
ATOM      2  C   LIG d   1      -8.165  75.119 118.528  0.00  0.00     0.016 C 
ATOM      3  C   LIG d   1      -8.452  76.321 117.841  0.00  0.00     0.038 C 
ATOM      4  C   LIG d   1      -7.606  76.824 116.842  0.00  0.00     0.028 C 
ATOM      5  C   LIG d   1      -6.147  76.422 117.025  0.00  0.00    -0.047 C 
ATOM      6  C   LIG d   1      -6.069  74.890 117.215  0.00  0.00     0.091 C 
ENDROOT
BRANCH   1   7
ATOM      7  O   LIG d   1      -7.226  73.004 118.268  0.00  0.00    -0.368 OA
BRANCH   7   8
ATOM      8  C   LIG d   1      -7.744  72.555 116.992  0.00  0.00     0.119 C 
BRANCH   8   9
ATOM      9  C   LIG d   1      -9.201  72.105 117.217  0.00  0.00     0.028 C 
ATOM     10  C   LIG d   1      -9.348  70.574 117.213  0.00  0.00     0.006 C 
ENDBRANCH   8   9
BRANCH   8  11
ATOM     11  C   LIG d   1      -7.005  71.308 116.498  0.00  0.00     0.028 C 
ATOM     12  C   LIG d   1      -6.061  71.602 115.321  0.00  0.00     0.006 C 
ENDBRANCH   8  11
ENDBRANCH   7   8
ENDBRANCH   1   7
BRANCH   6  13
ATOM     13  N   LIG d   1      -4.684  74.421 117.484  0.00  0.00    -0.311 N 
ATOM     14  C   LIG d   1      -3.803  74.147 116.523  0.00  0.00     0.210 C 
ATOM     15  C   LIG d   1      -2.438  73.659 117.018  0.00  0.00     0.109 C 
ATOM     16  O   LIG d   1      -4.012  74.292 115.310  0.00  0.00    -0.276 OA
ATOM     17  H   LIG d   1      -4.420  74.306 118.443  0.00  0.00     0.149 HD
ENDBRANCH   6  13
BRANCH   5  18
ATOM     18  N   LIG d   1      -5.402  76.896 115.843  0.00  0.00     0.381 N 
ATOM     19  H   LIG d   1      -4.425  76.936 116.052  0.00  0.00    -0.090 HD
ATOM     20  H   LIG d   1      -5.713  77.824 115.614  0.00  0.00    -0.090 HD
ATOM     21  H   LIG d   1      -5.560  76.285 115.072  0.00  0.00    -0.090 HD
ENDBRANCH   5  18
BRANCH   3  22
ATOM     22  C   LIG d   1      -9.579  77.054 118.181  0.00  0.00     0.382 C 
ATOM     23  O   LIG d   1      -9.462  78.248 118.549  0.00  0.00    -0.241 OA
ATOM     24  O   LIG d   1     -10.706  76.524 118.167  0.00  0.00    -0.241 OA
ENDBRANCH   3  22
TORSDOF 7
ENDMDL
MODEL 3
REMARK VINA RESULT:      -5.2      2.483      5.628
REMARK  7 active torsions:
REMARK  status: ('A' for Active; 'I' for Inactive)
REMARK    1  A    between atoms: C_2  and  C_3 
REMARK    2  A    between atoms: C_3  and  O_6 
REMARK    3  A    between atoms: C_3  and  C_4 
REMARK    4  A    between atoms: C_7  and  O_6 
REMARK    5  A    between atoms: C_9  and  C_10 
REMARK    6  A    between atoms: N_15  and  C_14 
REMARK    7  A    between atoms: N_20  and  C_19 
REMARK       I    between atoms: C_22  and  N_20 
ROOT
ATOM      1  C   LIG d   1      -6.440  73.600 118.127  0.00  0.00     0.161 C 
ATOM      2  C   LIG d   1      -5.386  74.489 117.861  0.00  0.00     0.016 C 
ATOM      3  C   LIG d   1      -4.584  74.420 116.698  0.00  0.00     0.038 C 
ATOM      4  C   LIG d   1      -4.882  73.543 115.644  0.00  0.00     0.028 C 
ATOM      5  C   LIG d   1      -5.626  72.290 116.090  0.00  0.00    -0.047 C 
ATOM      6  C   LIG d   1      -6.850  72.708 116.937  0.00  0.00     0.091 C 
ENDROOT
BRANCH   1   7
ATOM      7  O   LIG d   1      -7.580  74.329 118.623  0.00  0.00    -0.368 OA
BRANCH   7   8
ATOM      8  C   LIG d   1      -8.078  75.390 117.771  0.00  0.00     0.119 C 
BRANCH   8   9
ATOM      9  C   LIG d   1      -8.062  76.692 118.596  0.00  0.00     0.028 C 
ATOM     10  C   LIG d   1      -7.094  77.739 118.021  0.00  0.00     0.006 C 
ENDBRANCH   8   9
BRANCH   8  11
ATOM     11  C   LIG d   1      -9.547  75.163 117.400  0.00  0.00     0.028 C 
ATOM     12  C   LIG d   1     -10.484  76.219 118.006  0.00  0.00     0.006 C 
ENDBRANCH   8  11
ENDBRANCH   7   8
ENDBRANCH   1   7
BRANCH   6  13
ATOM     13  N   LIG d   1      -7.587  71.539 117.485  0.00  0.00    -0.311 N 
ATOM     14  C   LIG d   1      -8.822  71.209 117.110  0.00  0.00     0.210 C 
ATOM     15  C   LIG d   1      -9.404  69.979 117.813  0.00  0.00     0.109 C 
ATOM     16  O   LIG d   1      -9.477  71.800 116.238  0.00  0.00    -0.276 OA
ATOM     17  H   LIG d   1      -7.117  70.986 118.174  0.00  0.00     0.149 HD
ENDBRANCH   6  13
BRANCH   5  18
ATOM     18  N   LIG d   1      -5.993  71.534 114.878  0.00  0.00     0.381 N 
ATOM     19  H   LIG d   1      -6.939  71.740 114.624  0.00  0.00    -0.090 HD
ATOM     20  H   LIG d   1      -5.927  70.551 115.075  0.00  0.00    -0.090 HD
ATOM     21  H   LIG d   1      -5.381  71.772 114.129  0.00  0.00    -0.090 HD
ENDBRANCH   5  18
BRANCH   3  22
ATOM     22  C   LIG d   1      -3.447  75.206 116.600  0.00  0.00     0.382 C 
ATOM     23  O   LIG d   1      -2.802  75.244 115.524  0.00  0.00    -0.241 OA
ATOM     24  O   LIG d   1      -3.032  75.844 117.586  0.00  0.00    -0.241 OA
ENDBRANCH   3  22
TORSDOF 7
ENDMDL
MODEL 4
REMARK VINA RESULT:      -5.2      1.800      5.046
REMARK  7 active torsions:
REMARK  status: ('A' for Active; 'I' for Inactive)
REMARK    1  A    between atoms: C_2  and  C_3 
REMARK    2  A    between atoms: C_3  and  O_6 
REMARK    3  A    between atoms: C_3  and  C_4 
REMARK    4  A    between atoms: C_7  and  O_6 
REMARK    5  A    between atoms: C_9  and  C_10 
REMARK    6  A    between atoms: N_15  and  C_14 
REMARK    7  A    between atoms: N_20  and  C_19 
REMARK       I    between atoms: C_22  and  N_20 
ROOT
ATOM      1  C   LIG d   1      -5.991  75.422 116.338  0.00  0.00     0.161 C 
ATOM      2  C   LIG d   1      -4.715  75.425 115.751  0.00  0.00     0.016 C 
ATOM      3  C   LIG d   1      -3.849  76.542 115.776  0.00  0.00     0.038 C 
ATOM      4  C   LIG d   1      -4.143  77.691 116.526  0.00  0.00     0.028 C 
ATOM      5  C   LIG d   1      -5.638  77.924 116.716  0.00  0.00    -0.047 C 
ATOM      6  C   LIG d   1      -6.284  76.627 117.256  0.00  0.00     0.091 C 
ENDROOT
BRANCH   1   7
ATOM      7  O   LIG d   1      -6.198  74.187 117.053  0.00  0.00    -0.368 OA
BRANCH   7   8
ATOM      8  C   LIG d   1      -7.150  73.264 116.469  0.00  0.00     0.119 C 
BRANCH   8   9
ATOM      9  C   LIG d   1      -8.205  72.946 117.545  0.00  0.00     0.028 C 
ATOM     10  C   LIG d   1      -9.627  73.335 117.106  0.00  0.00     0.006 C 
ENDBRANCH   8   9
BRANCH   8  11
ATOM     11  C   LIG d   1      -6.492  71.922 116.135  0.00  0.00     0.028 C 
ATOM     12  C   LIG d   1      -7.186  70.733 116.819  0.00  0.00     0.006 C 
ENDBRANCH   8  11
ENDBRANCH   7   8
ENDBRANCH   1   7
BRANCH   6  13
ATOM     13  N   LIG d   1      -7.759  76.742 117.390  0.00  0.00    -0.311 N 
ATOM     14  C   LIG d   1      -8.404  76.587 118.545  0.00  0.00     0.210 C 
ATOM     15  C   LIG d   1      -9.927  76.727 118.459  0.00  0.00     0.109 C 
ATOM     16  O   LIG d   1      -7.857  76.380 119.639  0.00  0.00    -0.276 OA
ATOM     17  H   LIG d   1      -8.279  76.940 116.558  0.00  0.00     0.149 HD
ENDBRANCH   6  13
BRANCH   5  18
ATOM     18  N   LIG d   1      -5.798  79.073 117.628  0.00  0.00     0.381 N 
ATOM     19  H   LIG d   1      -5.196  79.819 117.342  0.00  0.00    -0.090 HD
ATOM     20  H   LIG d   1      -5.533  78.791 118.555  0.00  0.00    -0.090 HD
ATOM     21  H   LIG d   1      -6.745  79.381 117.625  0.00  0.00    -0.090 HD
ENDBRANCH   5  18
BRANCH   3  22
ATOM     22  C   LIG d   1      -2.692  76.533 115.012  0.00  0.00     0.382 C 
ATOM     23  O   LIG d   1      -2.755  76.735 113.776  0.00  0.00    -0.241 OA
ATOM     24  O   LIG d   1      -1.591  76.280 115.537  0.00  0.00    -0.241 OA
ENDBRANCH   3  22
TORSDOF 7
ENDMDL
MODEL 5
REMARK VINA RESULT:      -5.1      1.928      5.139
REMARK  7 active torsions:
REMARK  status: ('A' for Active; 'I' for Inactive)
REMARK    1  A    between atoms: C_2  and  C_3 
REMARK    2  A    between atoms: C_3  and  O_6 
REMARK    3  A    between atoms: C_3  and  C_4 
REMARK    4  A    between atoms: C_7  and  O_6 
REMARK    5  A    between atoms: C_9  and  C_10 
REMARK    6  A    between atoms: N_15  and  C_14 
REMARK    7  A    between atoms: N_20  and  C_19 
REMARK       I    between atoms: C_22  and  N_20 
ROOT
ATOM      1  C   LIG d   1      -7.818  75.343 117.369  0.00  0.00     0.161 C 
ATOM      2  C   LIG d   1      -8.314  74.036 117.231  0.00  0.00     0.016 C 
ATOM      3  C   LIG d   1      -7.505  72.929 116.887  0.00  0.00     0.038 C 
ATOM      4  C   LIG d   1      -6.108  73.029 116.805  0.00  0.00     0.028 C 
ATOM      5  C   LIG d   1      -5.621  74.428 116.440  0.00  0.00    -0.047 C 
ATOM      6  C   LIG d   1      -6.279  75.452 117.392  0.00  0.00     0.091 C 
ENDROOT
BRANCH   1   7
ATOM      7  O   LIG d   1      -8.382  75.957 118.545  0.00  0.00    -0.368 OA
BRANCH   7   8
ATOM      8  C   LIG d   1      -9.250  77.094 118.316  0.00  0.00     0.119 C 
BRANCH   8   9
ATOM      9  C   LIG d   1      -8.883  78.173 119.354  0.00  0.00     0.028 C 
ATOM     10  C   LIG d   1      -8.139  79.363 118.725  0.00  0.00     0.006 C 
ENDBRANCH   8   9
BRANCH   8  11
ATOM     11  C   LIG d   1     -10.714  76.743 118.597  0.00  0.00     0.028 C 
ATOM     12  C   LIG d   1     -11.288  77.502 119.803  0.00  0.00     0.006 C 
ENDBRANCH   8  11
ENDBRANCH   7   8
ENDBRANCH   1   7
BRANCH   6  13
ATOM     13  N   LIG d   1      -5.923  76.854 117.051  0.00  0.00    -0.311 N 
ATOM     14  C   LIG d   1      -4.929  77.520 117.635  0.00  0.00     0.210 C 
ATOM     15  C   LIG d   1      -4.743  78.961 117.150  0.00  0.00     0.109 C 
ATOM     16  O   LIG d   1      -4.162  77.044 118.486  0.00  0.00    -0.276 OA
ATOM     17  H   LIG d   1      -6.474  77.306 116.348  0.00  0.00     0.149 HD
ENDBRANCH   6  13
BRANCH   5  18
ATOM     18  N   LIG d   1      -4.149  74.423 116.524  0.00  0.00     0.381 N 
ATOM     19  H   LIG d   1      -3.803  73.499 116.358  0.00  0.00    -0.090 HD
ATOM     20  H   LIG d   1      -3.875  74.701 117.450  0.00  0.00    -0.090 HD
ATOM     21  H   LIG d   1      -3.767  75.054 115.854  0.00  0.00    -0.090 HD
ENDBRANCH   5  18
BRANCH   3  22
ATOM     22  C   LIG d   1      -8.097  71.713 116.582  0.00  0.00     0.382 C 
ATOM     23  O   LIG d   1      -9.343  71.636 116.460  0.00  0.00    -0.241 OA
ATOM     24  O   LIG d   1      -7.405  70.683 116.470  0.00  0.00    -0.241 OA
ENDBRANCH   3  22
TORSDOF 7
ENDMDL
MODEL 6
REMARK VINA RESULT:      -5.1      3.735      6.075
REMARK  7 active torsions:
REMARK  status: ('A' for Active; 'I' for Inactive)
REMARK    1  A    between atoms: C_2  and  C_3 
REMARK    2  A    between atoms: C_3  and  O_6 
REMARK    3  A    between atoms: C_3  and  C_4 
REMARK    4  A    between atoms: C_7  and  O_6 
REMARK    5  A    between atoms: C_9  and  C_10 
REMARK    6  A    between atoms: N_15  and  C_14 
REMARK    7  A    between atoms: N_20  and  C_19 
REMARK       I    between atoms: C_22  and  N_20 
ROOT
ATOM      1  C   LIG d   1      -2.931  75.573 116.574  0.00  0.00     0.161 C 
ATOM      2  C   LIG d   1      -3.347  76.507 115.611  0.00  0.00     0.016 C 
ATOM      3  C   LIG d   1      -2.516  76.969 114.565  0.00  0.00     0.038 C 
ATOM      4  C   LIG d   1      -1.253  76.410 114.320  0.00  0.00     0.028 C 
ATOM      5  C   LIG d   1      -0.597  75.827 115.567  0.00  0.00    -0.047 C 
ATOM      6  C   LIG d   1      -1.595  74.870 116.258  0.00  0.00     0.091 C 
ENDROOT
BRANCH   1   7
ATOM      7  O   LIG d   1      -3.971  74.599 116.791  0.00  0.00    -0.368 OA
BRANCH   7   8
ATOM      8  C   LIG d   1      -5.129  74.699 115.926  0.00  0.00     0.119 C 
BRANCH   8   9
ATOM      9  C   LIG d   1      -6.381  74.689 116.825  0.00  0.00     0.028 C 
ATOM     10  C   LIG d   1      -6.040  74.920 118.307  0.00  0.00     0.006 C 
ENDBRANCH   8   9
BRANCH   8  11
ATOM     11  C   LIG d   1      -5.264  73.465 115.029  0.00  0.00     0.028 C 
ATOM     12  C   LIG d   1      -5.994  72.303 115.721  0.00  0.00     0.006 C 
ENDBRANCH   8  11
ENDBRANCH   7   8
ENDBRANCH   1   7
BRANCH   6  13
ATOM     13  N   LIG d   1      -1.063  74.320 117.532  0.00  0.00    -0.311 N 
ATOM     14  C   LIG d   1      -0.358  73.193 117.607  0.00  0.00     0.210 C 
ATOM     15  C   LIG d   1       0.077  72.794 119.021  0.00  0.00     0.109 C 
ATOM     16  O   LIG d   1      -0.024  72.502 116.633  0.00  0.00    -0.276 OA
ATOM     17  H   LIG d   1      -1.261  74.834 118.368  0.00  0.00     0.149 HD
ENDBRANCH   6  13
BRANCH   5  18
ATOM     18  N   LIG d   1       0.648  75.157 115.144  0.00  0.00     0.381 N 
ATOM     19  H   LIG d   1       0.703  75.143 114.145  0.00  0.00    -0.090 HD
ATOM     20  H   LIG d   1       0.634  74.207 115.472  0.00  0.00    -0.090 HD
ATOM     21  H   LIG d   1       1.437  75.635 115.521  0.00  0.00    -0.090 HD
ENDBRANCH   5  18
BRANCH   3  22
ATOM     22  C   LIG d   1      -2.931  78.029 113.774  0.00  0.00     0.382 C 
ATOM     23  O   LIG d   1      -3.734  77.831 112.830  0.00  0.00    -0.241 OA
ATOM     24  O   LIG d   1      -2.479  79.174 113.964  0.00  0.00    -0.241 OA
ENDBRANCH   3  22
TORSDOF 7
ENDMDL
MODEL 7
REMARK VINA RESULT:      -5.0      5.687      8.062
REMARK  7 active torsions:
REMARK  status: ('A' for Active; 'I' for Inactive)
REMARK    1  A    between atoms: C_2  and  C_3 
REMARK    2  A    between atoms: C_3  and  O_6 
REMARK    3  A    between atoms: C_3  and  C_4 
REMARK    4  A    between atoms: C_7  and  O_6 
REMARK    5  A    between atoms: C_9  and  C_10 
REMARK    6  A    between atoms: N_15  and  C_14 
REMARK    7  A    between atoms: N_20  and  C_19 
REMARK       I    between atoms: C_22  and  N_20 
ROOT
ATOM      1  C   LIG d   1      -1.598  79.417 115.875  0.00  0.00     0.161 C 
ATOM      2  C   LIG d   1      -2.174  80.464 115.136  0.00  0.00     0.016 C 
ATOM      3  C   LIG d   1      -2.395  80.401 113.741  0.00  0.00     0.038 C 
ATOM      4  C   LIG d   1      -2.192  79.220 113.010  0.00  0.00     0.028 C 
ATOM      5  C   LIG d   1      -1.138  78.303 113.622  0.00  0.00    -0.047 C 
ATOM      6  C   LIG d   1      -1.472  78.081 115.115  0.00  0.00     0.091 C 
ENDROOT
BRANCH   1   7
ATOM      7  O   LIG d   1      -2.327  79.228 117.104  0.00  0.00    -0.368 OA
BRANCH   7   8
ATOM      8  C   LIG d   1      -3.744  79.523 117.056  0.00  0.00     0.119 C 
BRANCH   8   9
ATOM      9  C   LIG d   1      -4.051  80.510 118.198  0.00  0.00     0.028 C 
ATOM     10  C   LIG d   1      -4.556  81.868 117.681  0.00  0.00     0.006 C 
ENDBRANCH   8   9
BRANCH   8  11
ATOM     11  C   LIG d   1      -4.583  78.278 117.359  0.00  0.00     0.028 C 
ATOM     12  C   LIG d   1      -4.911  77.459 116.101  0.00  0.00     0.006 C 
ENDBRANCH   8  11
ENDBRANCH   7   8
ENDBRANCH   1   7
BRANCH   6  13
ATOM     13  N   LIG d   1      -0.444  77.262 115.810  0.00  0.00    -0.311 N 
ATOM     14  C   LIG d   1      -0.504  75.935 115.903  0.00  0.00     0.210 C 
ATOM     15  C   LIG d   1       0.647  75.289 116.680  0.00  0.00     0.109 C 
ATOM     16  O   LIG d   1      -1.385  75.229 115.390  0.00  0.00    -0.276 OA
ATOM     17  H   LIG d   1       0.322  77.752 116.228  0.00  0.00     0.149 HD
ENDBRANCH   6  13
BRANCH   5  18
ATOM     18  N   LIG d   1      -1.127  77.053 112.839  0.00  0.00     0.381 N 
ATOM     19  H   LIG d   1      -1.589  77.197 111.964  0.00  0.00    -0.090 HD
ATOM     20  H   LIG d   1      -1.628  76.346 113.348  0.00  0.00    -0.090 HD
ATOM     21  H   LIG d   1      -0.189  76.757 112.683  0.00  0.00    -0.090 HD
ENDBRANCH   5  18
BRANCH   3  22
ATOM     22  C   LIG d   1      -2.786  81.540 113.055  0.00  0.00     0.382 C 
ATOM     23  O   LIG d   1      -1.925  82.270 112.508  0.00  0.00    -0.241 OA
ATOM     24  O   LIG d   1      -3.986  81.872 113.014  0.00  0.00    -0.241 OA
ENDBRANCH   3  22
TORSDOF 7
ENDMDL
MODEL 8
REMARK VINA RESULT:      -5.0      3.631      5.936
REMARK  7 active torsions:
REMARK  status: ('A' for Active; 'I' for Inactive)
REMARK    1  A    between atoms: C_2  and  C_3 
REMARK    2  A    between atoms: C_3  and  O_6 
REMARK    3  A    between atoms: C_3  and  C_4 
REMARK    4  A    between atoms: C_7  and  O_6 
REMARK    5  A    between atoms: C_9  and  C_10 
REMARK    6  A    between atoms: N_15  and  C_14 
REMARK    7  A    between atoms: N_20  and  C_19 
REMARK       I    between atoms: C_22  and  N_20 
ROOT
ATOM      1  C   LIG d   1      -3.286  74.342 116.737  0.00  0.00     0.161 C 
ATOM      2  C   LIG d   1      -4.163  73.263 116.941  0.00  0.00     0.016 C 
ATOM      3  C   LIG d   1      -5.393  73.121 116.259  0.00  0.00     0.038 C 
ATOM      4  C   LIG d   1      -5.762  73.974 115.208  0.00  0.00     0.028 C 
ATOM      5  C   LIG d   1      -5.146  75.365 115.313  0.00  0.00    -0.047 C 
ATOM      6  C   LIG d   1      -3.620  75.223 115.515  0.00  0.00     0.091 C 
ENDROOT
BRANCH   1   7
ATOM      7  O   LIG d   1      -1.931  73.860 116.652  0.00  0.00    -0.368 OA
BRANCH   7   8
ATOM      8  C   LIG d   1      -1.181  73.844 117.892  0.00  0.00     0.119 C 
BRANCH   8   9
ATOM      9  C   LIG d   1      -0.576  75.248 118.085  0.00  0.00     0.028 C 
ATOM     10  C   LIG d   1      -0.615  75.707 119.552  0.00  0.00     0.006 C 
ENDBRANCH   8   9
BRANCH   8  11
ATOM     11  C   LIG d   1       0.016  72.893 117.807  0.00  0.00     0.028 C 
ATOM     12  C   LIG d   1       0.162  72.005 119.053  0.00  0.00     0.006 C 
ENDBRANCH   8  11
ENDBRANCH   7   8
ENDBRANCH   1   7
BRANCH   6  13
ATOM     13  N   LIG d   1      -2.950  76.535 115.711  0.00  0.00    -0.311 N 
ATOM     14  C   LIG d   1      -2.415  77.241 114.716  0.00  0.00     0.210 C 
ATOM     15  C   LIG d   1      -1.755  78.558 115.139  0.00  0.00     0.109 C 
ATOM     16  O   LIG d   1      -2.452  76.918 113.519  0.00  0.00    -0.276 OA
ATOM     17  H   LIG d   1      -2.902  76.888 116.647  0.00  0.00     0.149 HD
ENDBRANCH   6  13
BRANCH   5  18
ATOM     18  N   LIG d   1      -5.501  76.103 114.086  0.00  0.00     0.381 N 
ATOM     19  H   LIG d   1      -5.296  77.075 114.205  0.00  0.00    -0.090 HD
ATOM     20  H   LIG d   1      -6.487  76.007 113.923  0.00  0.00    -0.090 HD
ATOM     21  H   LIG d   1      -4.991  75.741 113.311  0.00  0.00    -0.090 HD
ENDBRANCH   5  18
BRANCH   3  22
ATOM     22  C   LIG d   1      -6.288  72.138 116.654  0.00  0.00     0.382 C 
ATOM     23  O   LIG d   1      -6.793  71.370 115.800  0.00  0.00    -0.241 OA
ATOM     24  O   LIG d   1      -6.631  72.038 117.847  0.00  0.00    -0.241 OA
ENDBRANCH   3  22
TORSDOF 7
ENDMDL
MODEL 9
REMARK VINA RESULT:      -4.9      2.393      4.807
REMARK  7 active torsions:
REMARK  status: ('A' for Active; 'I' for Inactive)
REMARK    1  A    between atoms: C_2  and  C_3 
REMARK    2  A    between atoms: C_3  and  O_6 
REMARK    3  A    between atoms: C_3  and  C_4 
REMARK    4  A    between atoms: C_7  and  O_6 
REMARK    5  A    between atoms: C_9  and  C_10 
REMARK    6  A    between atoms: N_15  and  C_14 
REMARK    7  A    between atoms: N_20  and  C_19 
REMARK       I    between atoms: C_22  and  N_20 
ROOT
ATOM      1  C   LIG d   1      -6.599  74.347 118.448  0.00  0.00     0.161 C 
ATOM      2  C   LIG d   1      -6.956  73.074 117.973  0.00  0.00     0.016 C 
ATOM      3  C   LIG d   1      -8.208  72.788 117.381  0.00  0.00     0.038 C 
ATOM      4  C   LIG d   1      -9.136  73.796 117.085  0.00  0.00     0.028 C 
ATOM      5  C   LIG d   1      -9.027  75.009 118.004  0.00  0.00    -0.047 C 
ATOM      6  C   LIG d   1      -7.556  75.484 118.034  0.00  0.00     0.091 C 
ENDROOT
BRANCH   1   7
ATOM      7  O   LIG d   1      -5.249  74.657 118.048  0.00  0.00    -0.368 OA
BRANCH   7   8
ATOM      8  C   LIG d   1      -4.906  74.354 116.674  0.00  0.00     0.119 C 
BRANCH   8   9
ATOM      9  C   LIG d   1      -3.639  73.478 116.695  0.00  0.00     0.028 C 
ATOM     10  C   LIG d   1      -2.400  74.250 117.181  0.00  0.00     0.006 C 
ENDBRANCH   8   9
BRANCH   8  11
ATOM     11  C   LIG d   1      -4.512  75.620 115.906  0.00  0.00     0.028 C 
ATOM     12  C   LIG d   1      -5.448  75.915 114.723  0.00  0.00     0.006 C 
ENDBRANCH   8  11
ENDBRANCH   7   8
ENDBRANCH   1   7
BRANCH   6  13
ATOM     13  N   LIG d   1      -7.345  76.615 118.974  0.00  0.00    -0.311 N 
ATOM     14  C   LIG d   1      -6.815  77.782 118.611  0.00  0.00     0.210 C 
ATOM     15  C   LIG d   1      -6.667  78.805 119.742  0.00  0.00     0.109 C 
ATOM     16  O   LIG d   1      -6.484  78.078 117.453  0.00  0.00    -0.276 OA
ATOM     17  H   LIG d   1      -7.615  76.472 119.928  0.00  0.00     0.149 HD
ENDBRANCH   6  13
BRANCH   5  18
ATOM     18  N   LIG d   1      -9.956  76.037 117.498  0.00  0.00     0.381 N 
ATOM     19  H   LIG d   1      -9.859  76.875 118.035  0.00  0.00    -0.090 HD
ATOM     20  H   LIG d   1     -10.898  75.703 117.603  0.00  0.00    -0.090 HD
ATOM     21  H   LIG d   1      -9.767  76.224 116.538  0.00  0.00    -0.090 HD
ENDBRANCH   5  18
BRANCH   3  22
ATOM     22  C   LIG d   1      -8.557  71.472 117.115  0.00  0.00     0.382 C 
ATOM     23  O   LIG d   1      -9.611  70.993 117.598  0.00  0.00    -0.241 OA
ATOM     24  O   LIG d   1      -7.808  70.745 116.434  0.00  0.00    -0.241 OA
ENDBRANCH   3  22
TORSDOF 7
ENDMDL
