MODEL 1
REMARK VINA RESULT:      -6.0      0.000      0.000
REMARK  7 active torsions:
REMARK  status: ('A' for Active; 'I' for Inactive)
REMARK    1  A    between atoms: C_2  and  C_3 
REMARK    2  A    between atoms: C_3  and  O_6 
REMARK    3  A    between atoms: C_3  and  C_4 
REMARK    4  A    between atoms: C_7  and  O_6 
REMARK    5  A    between atoms: C_9  and  C_10 
REMARK    6  A    between atoms: N_15  and  C_14 
REMARK    7  A    between atoms: N_20  and  C_19 
REMARK       I    between atoms: C_22  and  N_20 
ROOT
ATOM      1  C   LIG d   1      -3.869  75.181 116.770  0.00  0.00     0.161 C 
ATOM      2  C   LIG d   1      -4.334  75.539 115.494  0.00  0.00     0.016 C 
ATOM      3  C   LIG d   1      -3.479  75.862 114.416  0.00  0.00     0.038 C 
ATOM      4  C   LIG d   1      -2.088  75.702 114.500  0.00  0.00     0.028 C 
ATOM      5  C   LIG d   1      -1.548  75.830 115.920  0.00  0.00    -0.047 C 
ATOM      6  C   LIG d   1      -2.355  74.894 116.849  0.00  0.00     0.091 C 
ENDROOT
BRANCH   1   7
ATOM      7  O   LIG d   1      -4.619  74.055 117.266  0.00  0.00    -0.368 OA
BRANCH   7   8
ATOM      8  C   LIG d   1      -5.964  73.908 116.749  0.00  0.00     0.119 C 
BRANCH   8   9
ATOM      9  C   LIG d   1      -6.940  74.261 117.888  0.00  0.00     0.028 C 
ATOM     10  C   LIG d   1      -7.443  75.712 117.802  0.00  0.00     0.006 C 
ENDBRANCH   8   9
BRANCH   8  11
ATOM     11  C   LIG d   1      -6.267  72.449 116.393  0.00  0.00     0.028 C 
ATOM     12  C   LIG d   1      -7.687  72.020 116.797  0.00  0.00     0.006 C 
ENDBRANCH   8  11
ENDBRANCH   7   8
ENDBRANCH   1   7
BRANCH   6  13
ATOM     13  N   LIG d   1      -1.947  75.019 118.273  0.00  0.00    -0.311 N 
ATOM     14  C   LIG d   1      -0.955  74.315 118.816  0.00  0.00     0.210 C 
ATOM     15  C   LIG d   1      -0.712  74.583 120.305  0.00  0.00     0.109 C 
ATOM     16  O   LIG d   1      -0.234  73.517 118.199  0.00  0.00    -0.276 OA
ATOM     17  H   LIG d   1      -2.459  75.667 118.839  0.00  0.00     0.149 HD
ENDBRANCH   6  13
BRANCH   5  18
ATOM     18  N   LIG d   1      -0.109  75.505 115.881  0.00  0.00     0.381 N 
ATOM     19  H   LIG d   1       0.061  74.657 116.383  0.00  0.00    -0.090 HD
ATOM     20  H   LIG d   1       0.403  76.245 116.328  0.00  0.00    -0.090 HD
ATOM     21  H   LIG d   1       0.192  75.407 114.936  0.00  0.00    -0.090 HD
ENDBRANCH   5  18
BRANCH   3  22
ATOM     22  C   LIG d   1      -4.012  76.390 113.250  0.00  0.00     0.382 C 
ATOM     23  O   LIG d   1      -3.355  77.224 112.581  0.00  0.00    -0.241 OA
ATOM     24  O   LIG d   1      -5.160  76.075 112.881  0.00  0.00    -0.241 OA
ENDBRANCH   3  22
TORSDOF 7
ENDMDL
MODEL 2
REMARK VINA RESULT:      -5.0     16.046     17.293
REMARK  7 active torsions:
REMARK  status: ('A' for Active; 'I' for Inactive)
REMARK    1  A    between atoms: C_2  and  C_3 
REMARK    2  A    between atoms: C_3  and  O_6 
REMARK    3  A    between atoms: C_3  and  C_4 
REMARK    4  A    between atoms: C_7  and  O_6 
REMARK    5  A    between atoms: C_9  and  C_10 
REMARK    6  A    between atoms: N_15  and  C_14 
REMARK    7  A    between atoms: N_20  and  C_19 
REMARK       I    between atoms: C_22  and  N_20 
ROOT
ATOM      1  C   LIG d   1      -4.068  91.813 118.315  0.00  0.00     0.161 C 
ATOM      2  C   LIG d   1      -5.345  92.399 118.293  0.00  0.00     0.016 C 
ATOM      3  C   LIG d   1      -6.362  92.014 117.390  0.00  0.00     0.038 C 
ATOM      4  C   LIG d   1      -6.221  90.906 116.542  0.00  0.00     0.028 C 
ATOM      5  C   LIG d   1      -4.771  90.604 116.176  0.00  0.00    -0.047 C 
ATOM      6  C   LIG d   1      -3.932  90.528 117.472  0.00  0.00     0.091 C 
ENDROOT
BRANCH   1   7
ATOM      7  O   LIG d   1      -3.668  91.564 119.677  0.00  0.00    -0.368 OA
BRANCH   7   8
ATOM      8  C   LIG d   1      -2.671  92.463 120.223  0.00  0.00     0.119 C 
BRANCH   8   9
ATOM      9  C   LIG d   1      -2.497  93.623 119.224  0.00  0.00     0.028 C 
ATOM     10  C   LIG d   1      -2.923  94.977 119.817  0.00  0.00     0.006 C 
ENDBRANCH   8   9
BRANCH   8  11
ATOM     11  C   LIG d   1      -1.298  91.789 120.304  0.00  0.00     0.028 C 
ATOM     12  C   LIG d   1      -0.278  92.394 119.327  0.00  0.00     0.006 C 
ENDBRANCH   8  11
ENDBRANCH   7   8
ENDBRANCH   1   7
BRANCH   6  13
ATOM     13  N   LIG d   1      -2.486  90.320 117.200  0.00  0.00    -0.311 N 
ATOM     14  C   LIG d   1      -1.785  89.302 117.698  0.00  0.00     0.210 C 
ATOM     15  C   LIG d   1      -0.304  89.286 117.309  0.00  0.00     0.109 C 
ATOM     16  O   LIG d   1      -2.257  88.394 118.399  0.00  0.00    -0.276 OA
ATOM     17  H   LIG d   1      -2.031  90.992 116.615  0.00  0.00     0.149 HD
ENDBRANCH   6  13
BRANCH   5  18
ATOM     18  N   LIG d   1      -4.759  89.347 115.404  0.00  0.00     0.381 N 
ATOM     19  H   LIG d   1      -4.562  89.542 114.443  0.00  0.00    -0.090 HD
ATOM     20  H   LIG d   1      -5.667  88.922 115.460  0.00  0.00    -0.090 HD
ATOM     21  H   LIG d   1      -4.071  88.728 115.773  0.00  0.00    -0.090 HD
ENDBRANCH   5  18
BRANCH   3  22
ATOM     22  C   LIG d   1      -7.524  92.767 117.302  0.00  0.00     0.382 C 
ATOM     23  O   LIG d   1      -8.141  93.091 118.345  0.00  0.00    -0.241 OA
ATOM     24  O   LIG d   1      -7.985  93.088 116.190  0.00  0.00    -0.241 OA
ENDBRANCH   3  22
TORSDOF 7
ENDMDL
MODEL 3
REMARK VINA RESULT:      -4.9     11.691     14.518
REMARK  7 active torsions:
REMARK  status: ('A' for Active; 'I' for Inactive)
REMARK    1  A    between atoms: C_2  and  C_3 
REMARK    2  A    between atoms: C_3  and  O_6 
REMARK    3  A    between atoms: C_3  and  C_4 
REMARK    4  A    between atoms: C_7  and  O_6 
REMARK    5  A    between atoms: C_9  and  C_10 
REMARK    6  A    between atoms: N_15  and  C_14 
REMARK    7  A    between atoms: N_20  and  C_19 
REMARK       I    between atoms: C_22  and  N_20 
ROOT
ATOM      1  C   LIG d   1       9.668  77.145 114.550  0.00  0.00     0.161 C 
ATOM      2  C   LIG d   1       9.564  75.912 115.213  0.00  0.00     0.016 C 
ATOM      3  C   LIG d   1      10.677  75.093 115.513  0.00  0.00     0.038 C 
ATOM      4  C   LIG d   1      11.994  75.526 115.302  0.00  0.00     0.028 C 
ATOM      5  C   LIG d   1      12.123  76.546 114.175  0.00  0.00    -0.047 C 
ATOM      6  C   LIG d   1      11.106  77.686 114.411  0.00  0.00     0.091 C 
ENDROOT
BRANCH   1   7
ATOM      7  O   LIG d   1       8.826  78.121 115.197  0.00  0.00    -0.368 OA
BRANCH   7   8
ATOM      8  C   LIG d   1       7.747  77.594 116.007  0.00  0.00     0.119 C 
BRANCH   8   9
ATOM      9  C   LIG d   1       6.422  78.004 115.336  0.00  0.00     0.028 C 
ATOM     10  C   LIG d   1       5.209  77.803 116.260  0.00  0.00     0.006 C 
ENDBRANCH   8   9
BRANCH   8  11
ATOM     11  C   LIG d   1       7.720  78.248 117.392  0.00  0.00     0.028 C 
ATOM     12  C   LIG d   1       8.474  77.429 118.452  0.00  0.00     0.006 C 
ENDBRANCH   8  11
ENDBRANCH   7   8
ENDBRANCH   1   7
BRANCH   6  13
ATOM     13  N   LIG d   1      11.108  78.684 113.310  0.00  0.00    -0.311 N 
ATOM     14  C   LIG d   1      11.172  79.998 113.512  0.00  0.00     0.210 C 
ATOM     15  C   LIG d   1      11.141  80.850 112.239  0.00  0.00     0.109 C 
ATOM     16  O   LIG d   1      11.286  80.539 114.622  0.00  0.00    -0.276 OA
ATOM     17  H   LIG d   1      11.050  78.331 112.375  0.00  0.00     0.149 HD
ENDBRANCH   6  13
BRANCH   5  18
ATOM     18  N   LIG d   1      13.522  77.013 114.156  0.00  0.00     0.381 N 
ATOM     19  H   LIG d   1      13.598  77.876 114.657  0.00  0.00    -0.090 HD
ATOM     20  H   LIG d   1      13.797  77.177 113.203  0.00  0.00    -0.090 HD
ATOM     21  H   LIG d   1      14.117  76.328 114.567  0.00  0.00    -0.090 HD
ENDBRANCH   5  18
BRANCH   3  22
ATOM     22  C   LIG d   1      10.475  73.808 115.994  0.00  0.00     0.382 C 
ATOM     23  O   LIG d   1      10.335  72.853 115.192  0.00  0.00    -0.241 OA
ATOM     24  O   LIG d   1      10.387  73.598 117.218  0.00  0.00    -0.241 OA
ENDBRANCH   3  22
TORSDOF 7
ENDMDL
MODEL 4
REMARK VINA RESULT:      -4.9     15.864     17.335
REMARK  7 active torsions:
REMARK  status: ('A' for Active; 'I' for Inactive)
REMARK    1  A    between atoms: C_2  and  C_3 
REMARK    2  A    between atoms: C_3  and  O_6 
REMARK    3  A    between atoms: C_3  and  C_4 
REMARK    4  A    between atoms: C_7  and  O_6 
REMARK    5  A    between atoms: C_9  and  C_10 
REMARK    6  A    between atoms: N_15  and  C_14 
REMARK    7  A    between atoms: N_20  and  C_19 
REMARK       I    between atoms: C_22  and  N_20 
ROOT
ATOM      1  C   LIG d   1      -4.768  90.918 117.940  0.00  0.00     0.161 C 
ATOM      2  C   LIG d   1      -3.867  91.811 118.545  0.00  0.00     0.016 C 
ATOM      3  C   LIG d   1      -4.273  92.966 119.252  0.00  0.00     0.038 C 
ATOM      4  C   LIG d   1      -5.622  93.228 119.533  0.00  0.00     0.028 C 
ATOM      5  C   LIG d   1      -6.582  92.625 118.512  0.00  0.00    -0.047 C 
ATOM      6  C   LIG d   1      -6.246  91.127 118.331  0.00  0.00     0.091 C 
ENDROOT
BRANCH   1   7
ATOM      7  O   LIG d   1      -4.366  89.561 118.210  0.00  0.00    -0.368 OA
BRANCH   7   8
ATOM      8  C   LIG d   1      -3.179  89.397 119.024  0.00  0.00     0.119 C 
BRANCH   8   9
ATOM      9  C   LIG d   1      -2.185  88.532 118.226  0.00  0.00     0.028 C 
ATOM     10  C   LIG d   1      -1.029  89.358 117.637  0.00  0.00     0.006 C 
ENDBRANCH   8   9
BRANCH   8  11
ATOM     11  C   LIG d   1      -3.482  88.598 120.296  0.00  0.00     0.028 C 
ATOM     12  C   LIG d   1      -2.810  87.216 120.305  0.00  0.00     0.006 C 
ENDBRANCH   8  11
ENDBRANCH   7   8
ENDBRANCH   1   7
BRANCH   6  13
ATOM     13  N   LIG d   1      -7.084  90.481 117.287  0.00  0.00    -0.311 N 
ATOM     14  C   LIG d   1      -7.039  90.818 115.999  0.00  0.00     0.210 C 
ATOM     15  C   LIG d   1      -8.000  90.041 115.094  0.00  0.00     0.109 C 
ATOM     16  O   LIG d   1      -6.273  91.665 115.516  0.00  0.00    -0.276 OA
ATOM     17  H   LIG d   1      -7.712  89.762 117.587  0.00  0.00     0.149 HD
ENDBRANCH   6  13
BRANCH   5  18
ATOM     18  N   LIG d   1      -7.954  92.856 119.000  0.00  0.00     0.381 N 
ATOM     19  H   LIG d   1      -8.342  91.998 119.338  0.00  0.00    -0.090 HD
ATOM     20  H   LIG d   1      -8.521  93.179 118.236  0.00  0.00    -0.090 HD
ATOM     21  H   LIG d   1      -7.947  93.536 119.729  0.00  0.00    -0.090 HD
ENDBRANCH   5  18
BRANCH   3  22
ATOM     22  C   LIG d   1      -3.324  93.895 119.651  0.00  0.00     0.382 C 
ATOM     23  O   LIG d   1      -3.661  95.087 119.855  0.00  0.00    -0.241 OA
ATOM     24  O   LIG d   1      -2.128  93.567 119.767  0.00  0.00    -0.241 OA
ENDBRANCH   3  22
TORSDOF 7
ENDMDL
MODEL 5
REMARK VINA RESULT:      -4.6     12.049     14.948
REMARK  7 active torsions:
REMARK  status: ('A' for Active; 'I' for Inactive)
REMARK    1  A    between atoms: C_2  and  C_3 
REMARK    2  A    between atoms: C_3  and  O_6 
REMARK    3  A    between atoms: C_3  and  C_4 
REMARK    4  A    between atoms: C_7  and  O_6 
REMARK    5  A    between atoms: C_9  and  C_10 
REMARK    6  A    between atoms: N_15  and  C_14 
REMARK    7  A    between atoms: N_20  and  C_19 
REMARK       I    between atoms: C_22  and  N_20 
ROOT
ATOM      1  C   LIG d   1      10.297  76.670 114.702  0.00  0.00     0.161 C 
ATOM      2  C   LIG d   1       9.085  77.380 114.701  0.00  0.00     0.016 C 
ATOM      3  C   LIG d   1       8.302  77.584 115.861  0.00  0.00     0.038 C 
ATOM      4  C   LIG d   1       8.758  77.219 117.137  0.00  0.00     0.028 C 
ATOM      5  C   LIG d   1       9.741  76.053 117.119  0.00  0.00    -0.047 C 
ATOM      6  C   LIG d   1      10.865  76.361 116.103  0.00  0.00     0.091 C 
ENDROOT
BRANCH   1   7
ATOM      7  O   LIG d   1      11.275  77.372 113.909  0.00  0.00    -0.368 OA
BRANCH   7   8
ATOM      8  C   LIG d   1      11.707  78.656 114.421  0.00  0.00     0.119 C 
BRANCH   8   9
ATOM      9  C   LIG d   1      11.312  79.725 113.383  0.00  0.00     0.028 C 
ATOM     10  C   LIG d   1      10.452  80.844 113.991  0.00  0.00     0.006 C 
ENDBRANCH   8   9
BRANCH   8  11
ATOM     11  C   LIG d   1      13.234  78.732 114.519  0.00  0.00     0.028 C 
ATOM     12  C   LIG d   1      13.876  79.417 113.303  0.00  0.00     0.006 C 
ENDBRANCH   8  11
ENDBRANCH   7   8
ENDBRANCH   1   7
BRANCH   6  13
ATOM     13  N   LIG d   1      11.824  75.234 115.961  0.00  0.00    -0.311 N 
ATOM     14  C   LIG d   1      11.472  74.021 115.540  0.00  0.00     0.210 C 
ATOM     15  C   LIG d   1      12.613  72.999 115.486  0.00  0.00     0.109 C 
ATOM     16  O   LIG d   1      10.331  73.702 115.175  0.00  0.00    -0.276 OA
ATOM     17  H   LIG d   1      12.778  75.414 116.206  0.00  0.00     0.149 HD
ENDBRANCH   6  13
BRANCH   5  18
ATOM     18  N   LIG d   1      10.239  75.869 118.495  0.00  0.00     0.381 N 
ATOM     19  H   LIG d   1      10.988  75.206 118.498  0.00  0.00    -0.090 HD
ATOM     20  H   LIG d   1       9.494  75.506 119.064  0.00  0.00    -0.090 HD
ATOM     21  H   LIG d   1      10.554  76.740 118.863  0.00  0.00    -0.090 HD
ENDBRANCH   5  18
BRANCH   3  22
ATOM     22  C   LIG d   1       7.031  78.124 115.745  0.00  0.00     0.382 C 
ATOM     23  O   LIG d   1       6.594  78.897 116.632  0.00  0.00    -0.241 OA
ATOM     24  O   LIG d   1       6.297  77.814 114.787  0.00  0.00    -0.241 OA
ENDBRANCH   3  22
TORSDOF 7
ENDMDL
MODEL 6
REMARK VINA RESULT:      -4.6     22.110     24.508
REMARK  7 active torsions:
REMARK  status: ('A' for Active; 'I' for Inactive)
REMARK    1  A    between atoms: C_2  and  C_3 
REMARK    2  A    between atoms: C_3  and  O_6 
REMARK    3  A    between atoms: C_3  and  C_4 
REMARK    4  A    between atoms: C_7  and  O_6 
REMARK    5  A    between atoms: C_9  and  C_10 
REMARK    6  A    between atoms: N_15  and  C_14 
REMARK    7  A    between atoms: N_20  and  C_19 
REMARK       I    between atoms: C_22  and  N_20 
ROOT
ATOM      1  C   LIG d   1     -25.450  85.511 114.437  0.00  0.00     0.161 C 
ATOM      2  C   LIG d   1     -24.436  86.482 114.379  0.00  0.00     0.016 C 
ATOM      3  C   LIG d   1     -23.176  86.257 113.778  0.00  0.00     0.038 C 
ATOM      4  C   LIG d   1     -22.897  85.086 113.057  0.00  0.00     0.028 C 
ATOM      5  C   LIG d   1     -23.707  83.881 113.522  0.00  0.00    -0.047 C 
ATOM      6  C   LIG d   1     -25.204  84.267 113.558  0.00  0.00     0.091 C 
ENDROOT
BRANCH   1   7
ATOM      7  O   LIG d   1     -26.720  86.110 114.113  0.00  0.00    -0.368 OA
BRANCH   7   8
ATOM      8  C   LIG d   1     -26.918  86.473 112.724  0.00  0.00     0.119 C 
BRANCH   8   9
ATOM      9  C   LIG d   1     -27.483  87.906 112.696  0.00  0.00     0.028 C 
ATOM     10  C   LIG d   1     -26.434  88.942 112.259  0.00  0.00     0.006 C 
ENDBRANCH   8   9
BRANCH   8  11
ATOM     11  C   LIG d   1     -27.992  85.600 112.068  0.00  0.00     0.028 C 
ATOM     12  C   LIG d   1     -29.087  85.161 113.053  0.00  0.00     0.006 C 
ENDBRANCH   8  11
ENDBRANCH   7   8
ENDBRANCH   1   7
BRANCH   6  13
ATOM     13  N   LIG d   1     -26.059  83.170 114.082  0.00  0.00    -0.311 N 
ATOM     14  C   LIG d   1     -26.682  82.289 113.301  0.00  0.00     0.210 C 
ATOM     15  C   LIG d   1     -27.530  81.252 114.045  0.00  0.00     0.109 C 
ATOM     16  O   LIG d   1     -26.588  82.249 112.066  0.00  0.00    -0.276 OA
ATOM     17  H   LIG d   1     -26.166  83.110 115.076  0.00  0.00     0.149 HD
ENDBRANCH   6  13
BRANCH   5  18
ATOM     18  N   LIG d   1     -23.420  82.768 112.598  0.00  0.00     0.381 N 
ATOM     19  H   LIG d   1     -23.199  81.943 113.120  0.00  0.00    -0.090 HD
ATOM     20  H   LIG d   1     -22.621  83.008 112.037  0.00  0.00    -0.090 HD
ATOM     21  H   LIG d   1     -24.207  82.598 112.012  0.00  0.00    -0.090 HD
ENDBRANCH   5  18
BRANCH   3  22
ATOM     22  C   LIG d   1     -22.165  87.193 113.931  0.00  0.00     0.382 C 
ATOM     23  O   LIG d   1     -21.098  87.076 113.280  0.00  0.00    -0.241 OA
ATOM     24  O   LIG d   1     -22.288  88.129 114.744  0.00  0.00    -0.241 OA
ENDBRANCH   3  22
TORSDOF 7
ENDMDL
MODEL 7
REMARK VINA RESULT:      -4.6     12.751     14.662
REMARK  7 active torsions:
REMARK  status: ('A' for Active; 'I' for Inactive)
REMARK    1  A    between atoms: C_2  and  C_3 
REMARK    2  A    between atoms: C_3  and  O_6 
REMARK    3  A    between atoms: C_3  and  C_4 
REMARK    4  A    between atoms: C_7  and  O_6 
REMARK    5  A    between atoms: C_9  and  C_10 
REMARK    6  A    between atoms: N_15  and  C_14 
REMARK    7  A    between atoms: N_20  and  C_19 
REMARK       I    between atoms: C_22  and  N_20 
ROOT
ATOM      1  C   LIG d   1       1.801  87.151 115.527  0.00  0.00     0.161 C 
ATOM      2  C   LIG d   1       0.732  87.036 116.431  0.00  0.00     0.016 C 
ATOM      3  C   LIG d   1       0.481  87.971 117.461  0.00  0.00     0.038 C 
ATOM      4  C   LIG d   1       1.199  89.172 117.564  0.00  0.00     0.028 C 
ATOM      5  C   LIG d   1       2.608  89.087 116.986  0.00  0.00    -0.047 C 
ATOM      6  C   LIG d   1       2.528  88.511 115.554  0.00  0.00     0.091 C 
ENDROOT
BRANCH   1   7
ATOM      7  O   LIG d   1       1.347  86.851 114.192  0.00  0.00    -0.368 OA
BRANCH   7   8
ATOM      8  C   LIG d   1       1.401  85.458 113.798  0.00  0.00     0.119 C 
BRANCH   8   9
ATOM      9  C   LIG d   1       2.862  85.139 113.425  0.00  0.00     0.028 C 
ATOM     10  C   LIG d   1       3.261  85.727 112.061  0.00  0.00     0.006 C 
ENDBRANCH   8   9
BRANCH   8  11
ATOM     11  C   LIG d   1       0.593  85.209 112.521  0.00  0.00     0.028 C 
ATOM     12  C   LIG d   1      -0.680  86.066 112.445  0.00  0.00     0.006 C 
ENDBRANCH   8  11
ENDBRANCH   7   8
ENDBRANCH   1   7
BRANCH   6  13
ATOM     13  N   LIG d   1       3.871  88.316 114.946  0.00  0.00    -0.311 N 
ATOM     14  C   LIG d   1       4.233  88.851 113.782  0.00  0.00     0.210 C 
ATOM     15  C   LIG d   1       5.655  88.508 113.327  0.00  0.00     0.109 C 
ATOM     16  O   LIG d   1       3.523  89.604 113.098  0.00  0.00    -0.276 OA
ATOM     17  H   LIG d   1       4.521  87.744 115.450  0.00  0.00     0.149 HD
ENDBRANCH   6  13
BRANCH   5  18
ATOM     18  N   LIG d   1       3.191  90.441 117.033  0.00  0.00     0.381 N 
ATOM     19  H   LIG d   1       2.470  91.125 116.923  0.00  0.00    -0.090 HD
ATOM     20  H   LIG d   1       3.841  90.542 116.273  0.00  0.00    -0.090 HD
ATOM     21  H   LIG d   1       3.661  90.580 117.901  0.00  0.00    -0.090 HD
ENDBRANCH   5  18
BRANCH   3  22
ATOM     22  C   LIG d   1      -0.472  87.689 118.428  0.00  0.00     0.382 C 
ATOM     23  O   LIG d   1      -0.148  87.057 119.462  0.00  0.00    -0.241 OA
ATOM     24  O   LIG d   1      -1.661  88.021 118.259  0.00  0.00    -0.241 OA
ENDBRANCH   3  22
TORSDOF 7
ENDMDL
MODEL 8
REMARK VINA RESULT:      -4.6     13.851     15.799
REMARK  7 active torsions:
REMARK  status: ('A' for Active; 'I' for Inactive)
REMARK    1  A    between atoms: C_2  and  C_3 
REMARK    2  A    between atoms: C_3  and  O_6 
REMARK    3  A    between atoms: C_3  and  C_4 
REMARK    4  A    between atoms: C_7  and  O_6 
REMARK    5  A    between atoms: C_9  and  C_10 
REMARK    6  A    between atoms: N_15  and  C_14 
REMARK    7  A    between atoms: N_20  and  C_19 
REMARK       I    between atoms: C_22  and  N_20 
ROOT
ATOM      1  C   LIG d   1       2.919  88.416 116.067  0.00  0.00     0.161 C 
ATOM      2  C   LIG d   1       3.224  89.289 117.124  0.00  0.00     0.016 C 
ATOM      3  C   LIG d   1       4.256  90.254 117.064  0.00  0.00     0.038 C 
ATOM      4  C   LIG d   1       4.959  90.514 115.878  0.00  0.00     0.028 C 
ATOM      5  C   LIG d   1       5.029  89.314 114.940  0.00  0.00    -0.047 C 
ATOM      6  C   LIG d   1       3.601  88.760 114.727  0.00  0.00     0.091 C 
ENDROOT
BRANCH   1   7
ATOM      7  O   LIG d   1       1.490  88.336 115.896  0.00  0.00    -0.368 OA
BRANCH   7   8
ATOM      8  C   LIG d   1       0.879  87.063 116.220  0.00  0.00     0.119 C 
BRANCH   8   9
ATOM      9  C   LIG d   1       0.166  87.225 117.577  0.00  0.00     0.028 C 
ATOM     10  C   LIG d   1      -0.880  88.352 117.560  0.00  0.00     0.006 C 
ENDBRANCH   8   9
BRANCH   8  11
ATOM     11  C   LIG d   1       1.937  85.979 116.445  0.00  0.00     0.028 C 
ATOM     12  C   LIG d   1       1.782  84.788 115.485  0.00  0.00     0.006 C 
ENDBRANCH   8  11
ENDBRANCH   7   8
ENDBRANCH   1   7
BRANCH   6  13
ATOM     13  N   LIG d   1       3.589  87.533 113.888  0.00  0.00    -0.311 N 
ATOM     14  C   LIG d   1       2.896  87.427 112.755  0.00  0.00     0.210 C 
ATOM     15  C   LIG d   1       3.006  86.068 112.056  0.00  0.00     0.109 C 
ATOM     16  O   LIG d   1       2.227  88.339 112.247  0.00  0.00    -0.276 OA
ATOM     17  H   LIG d   1       4.130  86.755 114.210  0.00  0.00     0.149 HD
ENDBRANCH   6  13
BRANCH   5  18
ATOM     18  N   LIG d   1       5.667  89.763 113.688  0.00  0.00     0.381 N 
ATOM     19  H   LIG d   1       6.490  89.221 113.514  0.00  0.00    -0.090 HD
ATOM     20  H   LIG d   1       5.939  90.725 113.789  0.00  0.00    -0.090 HD
ATOM     21  H   LIG d   1       5.031  89.669 112.928  0.00  0.00    -0.090 HD
ENDBRANCH   5  18
BRANCH   3  22
ATOM     22  C   LIG d   1       4.621  90.943 118.211  0.00  0.00     0.382 C 
ATOM     23  O   LIG d   1       3.763  91.192 119.092  0.00  0.00    -0.241 OA
ATOM     24  O   LIG d   1       5.786  91.357 118.355  0.00  0.00    -0.241 OA
ENDBRANCH   3  22
TORSDOF 7
ENDMDL
MODEL 9
REMARK VINA RESULT:      -4.5     21.026     23.325
REMARK  7 active torsions:
REMARK  status: ('A' for Active; 'I' for Inactive)
REMARK    1  A    between atoms: C_2  and  C_3 
REMARK    2  A    between atoms: C_3  and  O_6 
REMARK    3  A    between atoms: C_3  and  C_4 
REMARK    4  A    between atoms: C_7  and  O_6 
REMARK    5  A    between atoms: C_9  and  C_10 
REMARK    6  A    between atoms: N_15  and  C_14 
REMARK    7  A    between atoms: N_20  and  C_19 
REMARK       I    between atoms: C_22  and  N_20 
ROOT
ATOM      1  C   LIG d   1     -24.173  83.457 113.995  0.00  0.00     0.161 C 
ATOM      2  C   LIG d   1     -23.245  84.489 114.213  0.00  0.00     0.016 C 
ATOM      3  C   LIG d   1     -23.434  85.815 113.758  0.00  0.00     0.038 C 
ATOM      4  C   LIG d   1     -24.642  86.236 113.182  0.00  0.00     0.028 C 
ATOM      5  C   LIG d   1     -25.406  85.113 112.489  0.00  0.00    -0.047 C 
ATOM      6  C   LIG d   1     -25.546  83.923 113.467  0.00  0.00     0.091 C 
ENDROOT
BRANCH   1   7
ATOM      7  O   LIG d   1     -24.337  82.685 115.201  0.00  0.00    -0.368 OA
BRANCH   7   8
ATOM      8  C   LIG d   1     -23.958  81.289 115.120  0.00  0.00     0.119 C 
BRANCH   8   9
ATOM      9  C   LIG d   1     -25.213  80.450 115.433  0.00  0.00     0.028 C 
ATOM     10  C   LIG d   1     -24.901  78.949 115.548  0.00  0.00     0.006 C 
ENDBRANCH   8   9
BRANCH   8  11
ATOM     11  C   LIG d   1     -22.944  80.922 116.208  0.00  0.00     0.028 C 
ATOM     12  C   LIG d   1     -22.306  82.155 116.867  0.00  0.00     0.006 C 
ENDBRANCH   8  11
ENDBRANCH   7   8
ENDBRANCH   1   7
BRANCH   6  13
ATOM     13  N   LIG d   1     -26.208  82.749 112.840  0.00  0.00    -0.311 N 
ATOM     14  C   LIG d   1     -27.411  82.307 113.202  0.00  0.00     0.210 C 
ATOM     15  C   LIG d   1     -27.901  81.070 112.442  0.00  0.00     0.109 C 
ATOM     16  O   LIG d   1     -28.132  82.839 114.059  0.00  0.00    -0.276 OA
ATOM     17  H   LIG d   1     -25.707  82.276 112.114  0.00  0.00     0.149 HD
ENDBRANCH   6  13
BRANCH   5  18
ATOM     18  N   LIG d   1     -26.706  85.660 112.055  0.00  0.00     0.381 N 
ATOM     19  H   LIG d   1     -26.620  86.048 111.137  0.00  0.00    -0.090 HD
ATOM     20  H   LIG d   1     -26.975  86.395 112.685  0.00  0.00    -0.090 HD
ATOM     21  H   LIG d   1     -27.396  84.941 112.057  0.00  0.00    -0.090 HD
ENDBRANCH   5  18
BRANCH   3  22
ATOM     22  C   LIG d   1     -22.392  86.725 113.842  0.00  0.00     0.382 C 
ATOM     23  O   LIG d   1     -22.478  87.707 114.618  0.00  0.00    -0.241 OA
ATOM     24  O   LIG d   1     -21.385  86.602 113.119  0.00  0.00    -0.241 OA
ENDBRANCH   3  22
TORSDOF 7
ENDMDL
