MODEL 1
REMARK VINA RESULT:      -5.2      0.000      0.000
REMARK  7 active torsions:
REMARK  status: ('A' for Active; 'I' for Inactive)
REMARK    1  A    between atoms: C_2  and  C_3 
REMARK    2  A    between atoms: C_3  and  O_6 
REMARK    3  A    between atoms: C_3  and  C_4 
REMARK    4  A    between atoms: C_7  and  O_6 
REMARK    5  A    between atoms: C_9  and  C_10 
REMARK    6  A    between atoms: N_15  and  C_14 
REMARK    7  A    between atoms: N_20  and  C_19 
REMARK       I    between atoms: C_22  and  N_20 
ROOT
ATOM      1  C   LIG d   1     -16.794  65.901 114.403  0.00  0.00     0.161 C 
ATOM      2  C   LIG d   1     -16.343  66.849 113.470  0.00  0.00     0.016 C 
ATOM      3  C   LIG d   1     -15.230  67.692 113.693  0.00  0.00     0.038 C 
ATOM      4  C   LIG d   1     -14.395  67.537 114.809  0.00  0.00     0.028 C 
ATOM      5  C   LIG d   1     -15.104  66.934 116.017  0.00  0.00    -0.047 C 
ATOM      6  C   LIG d   1     -15.830  65.641 115.579  0.00  0.00     0.091 C 
ENDROOT
BRANCH   1   7
ATOM      7  O   LIG d   1     -17.109  64.665 113.731  0.00  0.00    -0.368 OA
BRANCH   7   8
ATOM      8  C   LIG d   1     -18.512  64.427 113.459  0.00  0.00     0.119 C 
BRANCH   8   9
ATOM      9  C   LIG d   1     -18.996  63.342 114.440  0.00  0.00     0.028 C 
ATOM     10  C   LIG d   1     -19.841  63.921 115.586  0.00  0.00     0.006 C 
ENDBRANCH   8   9
BRANCH   8  11
ATOM     11  C   LIG d   1     -18.716  63.832 112.062  0.00  0.00     0.028 C 
ATOM     12  C   LIG d   1     -19.568  62.553 112.078  0.00  0.00     0.006 C 
ENDBRANCH   8  11
ENDBRANCH   7   8
ENDBRANCH   1   7
BRANCH   6  13
ATOM     13  N   LIG d   1     -16.618  65.032 116.682  0.00  0.00    -0.311 N 
ATOM     14  C   LIG d   1     -16.154  64.060 117.465  0.00  0.00     0.210 C 
ATOM     15  C   LIG d   1     -17.138  63.561 118.528  0.00  0.00     0.109 C 
ATOM     16  O   LIG d   1     -15.010  63.586 117.401  0.00  0.00    -0.276 OA
ATOM     17  H   LIG d   1     -17.547  65.379 116.824  0.00  0.00     0.149 HD
ENDBRANCH   6  13
BRANCH   5  18
ATOM     18  N   LIG d   1     -14.088  66.701 117.060  0.00  0.00     0.381 N 
ATOM     19  H   LIG d   1     -13.196  67.026 116.743  0.00  0.00    -0.090 HD
ATOM     20  H   LIG d   1     -14.020  65.714 117.234  0.00  0.00    -0.090 HD
ATOM     21  H   LIG d   1     -14.344  67.176 117.898  0.00  0.00    -0.090 HD
ENDBRANCH   5  18
BRANCH   3  22
ATOM     22  C   LIG d   1     -14.966  68.729 112.812  0.00  0.00     0.382 C 
ATOM     23  O   LIG d   1     -15.881  69.178 112.080  0.00  0.00    -0.241 OA
ATOM     24  O   LIG d   1     -13.814  69.192 112.707  0.00  0.00    -0.241 OA
ENDBRANCH   3  22
TORSDOF 7
ENDMDL
MODEL 2
REMARK VINA RESULT:      -5.1      0.825      1.593
REMARK  7 active torsions:
REMARK  status: ('A' for Active; 'I' for Inactive)
REMARK    1  A    between atoms: C_2  and  C_3 
REMARK    2  A    between atoms: C_3  and  O_6 
REMARK    3  A    between atoms: C_3  and  C_4 
REMARK    4  A    between atoms: C_7  and  O_6 
REMARK    5  A    between atoms: C_9  and  C_10 
REMARK    6  A    between atoms: N_15  and  C_14 
REMARK    7  A    between atoms: N_20  and  C_19 
REMARK       I    between atoms: C_22  and  N_20 
ROOT
ATOM      1  C   LIG d   1     -16.795  65.502 115.009  0.00  0.00     0.161 C 
ATOM      2  C   LIG d   1     -16.396  66.436 114.038  0.00  0.00     0.016 C 
ATOM      3  C   LIG d   1     -15.343  67.360 114.232  0.00  0.00     0.038 C 
ATOM      4  C   LIG d   1     -14.513  67.310 115.362  0.00  0.00     0.028 C 
ATOM      5  C   LIG d   1     -15.194  66.715 116.589  0.00  0.00    -0.047 C 
ATOM      6  C   LIG d   1     -15.829  65.359 116.204  0.00  0.00     0.091 C 
ENDROOT
BRANCH   1   7
ATOM      7  O   LIG d   1     -17.020  64.220 114.390  0.00  0.00    -0.368 OA
BRANCH   7   8
ATOM      8  C   LIG d   1     -18.403  63.809 114.261  0.00  0.00     0.119 C 
BRANCH   8   9
ATOM      9  C   LIG d   1     -18.847  64.123 112.819  0.00  0.00     0.028 C 
ATOM     10  C   LIG d   1     -20.268  64.706 112.755  0.00  0.00     0.006 C 
ENDBRANCH   8   9
BRANCH   8  11
ATOM     11  C   LIG d   1     -19.320  64.647 115.158  0.00  0.00     0.028 C 
ATOM     12  C   LIG d   1     -19.901  63.843 116.332  0.00  0.00     0.006 C 
ENDBRANCH   8  11
ENDBRANCH   7   8
ENDBRANCH   1   7
BRANCH   6  13
ATOM     13  N   LIG d   1     -16.588  64.749 117.326  0.00  0.00    -0.311 N 
ATOM     14  C   LIG d   1     -16.053  63.889 118.190  0.00  0.00     0.210 C 
ATOM     15  C   LIG d   1     -17.017  63.364 119.260  0.00  0.00     0.109 C 
ATOM     16  O   LIG d   1     -14.865  63.535 118.193  0.00  0.00    -0.276 OA
ATOM     17  H   LIG d   1     -17.552  65.005 117.417  0.00  0.00     0.149 HD
ENDBRANCH   6  13
BRANCH   5  18
ATOM     18  N   LIG d   1     -14.177  66.597 117.650  0.00  0.00     0.381 N 
ATOM     19  H   LIG d   1     -14.228  67.389 118.259  0.00  0.00    -0.090 HD
ATOM     20  H   LIG d   1     -13.266  66.583 117.227  0.00  0.00    -0.090 HD
ATOM     21  H   LIG d   1     -14.322  65.759 118.170  0.00  0.00    -0.090 HD
ENDBRANCH   5  18
BRANCH   3  22
ATOM     22  C   LIG d   1     -15.138  68.372 113.307  0.00  0.00     0.382 C 
ATOM     23  O   LIG d   1     -16.072  68.726 112.548  0.00  0.00    -0.241 OA
ATOM     24  O   LIG d   1     -14.018  68.905 113.193  0.00  0.00    -0.241 OA
ENDBRANCH   3  22
TORSDOF 7
ENDMDL
MODEL 3
REMARK VINA RESULT:      -5.1     15.033     17.834
REMARK  7 active torsions:
REMARK  status: ('A' for Active; 'I' for Inactive)
REMARK    1  A    between atoms: C_2  and  C_3 
REMARK    2  A    between atoms: C_3  and  O_6 
REMARK    3  A    between atoms: C_3  and  C_4 
REMARK    4  A    between atoms: C_7  and  O_6 
REMARK    5  A    between atoms: C_9  and  C_10 
REMARK    6  A    between atoms: N_15  and  C_14 
REMARK    7  A    between atoms: N_20  and  C_19 
REMARK       I    between atoms: C_22  and  N_20 
ROOT
ATOM      1  C   LIG d   1      -2.961  75.712 115.565  0.00  0.00     0.161 C 
ATOM      2  C   LIG d   1      -2.872  74.901 116.708  0.00  0.00     0.016 C 
ATOM      3  C   LIG d   1      -1.910  75.093 117.726  0.00  0.00     0.038 C 
ATOM      4  C   LIG d   1      -1.062  76.211 117.742  0.00  0.00     0.028 C 
ATOM      5  C   LIG d   1      -0.776  76.775 116.355  0.00  0.00    -0.047 C 
ATOM      6  C   LIG d   1      -2.117  77.002 115.620  0.00  0.00     0.091 C 
ENDROOT
BRANCH   1   7
ATOM      7  O   LIG d   1      -4.342  76.028 115.296  0.00  0.00    -0.368 OA
BRANCH   7   8
ATOM      8  C   LIG d   1      -5.317  75.053 115.742  0.00  0.00     0.119 C 
BRANCH   8   9
ATOM      9  C   LIG d   1      -5.912  74.387 114.486  0.00  0.00     0.028 C 
ATOM     10  C   LIG d   1      -5.509  75.111 113.190  0.00  0.00     0.006 C 
ENDBRANCH   8   9
BRANCH   8  11
ATOM     11  C   LIG d   1      -6.500  75.728 116.442  0.00  0.00     0.028 C 
ATOM     12  C   LIG d   1      -6.060  76.777 117.476  0.00  0.00     0.006 C 
ENDBRANCH   8  11
ENDBRANCH   7   8
ENDBRANCH   1   7
BRANCH   6  13
ATOM     13  N   LIG d   1      -1.925  77.475 114.224  0.00  0.00    -0.311 N 
ATOM     14  C   LIG d   1      -2.436  78.613 113.758  0.00  0.00     0.210 C 
ATOM     15  C   LIG d   1      -2.135  78.902 112.284  0.00  0.00     0.109 C 
ATOM     16  O   LIG d   1      -3.082  79.427 114.435  0.00  0.00    -0.276 OA
ATOM     17  H   LIG d   1      -1.387  76.890 113.615  0.00  0.00     0.149 HD
ENDBRANCH   6  13
BRANCH   5  18
ATOM     18  N   LIG d   1       0.005  78.014 116.530  0.00  0.00     0.381 N 
ATOM     19  H   LIG d   1       0.706  78.076 115.820  0.00  0.00    -0.090 HD
ATOM     20  H   LIG d   1       0.463  77.986 117.424  0.00  0.00    -0.090 HD
ATOM     21  H   LIG d   1      -0.597  78.806 116.482  0.00  0.00    -0.090 HD
ENDBRANCH   5  18
BRANCH   3  22
ATOM     22  C   LIG d   1      -1.762  74.139 118.721  0.00  0.00     0.382 C 
ATOM     23  O   LIG d   1      -0.752  74.161 119.465  0.00  0.00    -0.241 OA
ATOM     24  O   LIG d   1      -2.604  73.231 118.856  0.00  0.00    -0.241 OA
ENDBRANCH   3  22
TORSDOF 7
ENDMDL
MODEL 4
REMARK VINA RESULT:      -5.0      2.113      4.965
REMARK  7 active torsions:
REMARK  status: ('A' for Active; 'I' for Inactive)
REMARK    1  A    between atoms: C_2  and  C_3 
REMARK    2  A    between atoms: C_3  and  O_6 
REMARK    3  A    between atoms: C_3  and  C_4 
REMARK    4  A    between atoms: C_7  and  O_6 
REMARK    5  A    between atoms: C_9  and  C_10 
REMARK    6  A    between atoms: N_15  and  C_14 
REMARK    7  A    between atoms: N_20  and  C_19 
REMARK       I    between atoms: C_22  and  N_20 
ROOT
ATOM      1  C   LIG d   1     -16.525  64.397 114.746  0.00  0.00     0.161 C 
ATOM      2  C   LIG d   1     -17.574  64.620 113.839  0.00  0.00     0.016 C 
ATOM      3  C   LIG d   1     -18.939  64.461 114.173  0.00  0.00     0.038 C 
ATOM      4  C   LIG d   1     -19.356  64.214 115.490  0.00  0.00     0.028 C 
ATOM      5  C   LIG d   1     -18.312  63.485 116.329  0.00  0.00    -0.047 C 
ATOM      6  C   LIG d   1     -16.965  64.235 116.216  0.00  0.00     0.091 C 
ENDROOT
BRANCH   1   7
ATOM      7  O   LIG d   1     -15.547  65.449 114.628  0.00  0.00    -0.368 OA
BRANCH   7   8
ATOM      8  C   LIG d   1     -16.066  66.777 114.375  0.00  0.00     0.119 C 
BRANCH   8   9
ATOM      9  C   LIG d   1     -15.441  67.275 113.057  0.00  0.00     0.028 C 
ATOM     10  C   LIG d   1     -14.580  68.534 113.254  0.00  0.00     0.006 C 
ENDBRANCH   8   9
BRANCH   8  11
ATOM     11  C   LIG d   1     -15.602  67.771 115.444  0.00  0.00     0.028 C 
ATOM     12  C   LIG d   1     -16.645  67.983 116.553  0.00  0.00     0.006 C 
ENDBRANCH   8  11
ENDBRANCH   7   8
ENDBRANCH   1   7
BRANCH   6  13
ATOM     13  N   LIG d   1     -15.867  63.541 116.939  0.00  0.00    -0.311 N 
ATOM     14  C   LIG d   1     -15.495  63.853 118.180  0.00  0.00     0.210 C 
ATOM     15  C   LIG d   1     -14.329  63.027 118.732  0.00  0.00     0.109 C 
ATOM     16  O   LIG d   1     -16.041  64.713 118.887  0.00  0.00    -0.276 OA
ATOM     17  H   LIG d   1     -15.390  62.809 116.451  0.00  0.00     0.149 HD
ENDBRANCH   6  13
BRANCH   5  18
ATOM     18  N   LIG d   1     -18.820  63.415 117.712  0.00  0.00     0.381 N 
ATOM     19  H   LIG d   1     -19.587  62.774 117.758  0.00  0.00    -0.090 HD
ATOM     20  H   LIG d   1     -19.153  64.324 117.982  0.00  0.00    -0.090 HD
ATOM     21  H   LIG d   1     -18.094  63.122 118.328  0.00  0.00    -0.090 HD
ENDBRANCH   5  18
BRANCH   3  22
ATOM     22  C   LIG d   1     -19.901  64.511 113.176  0.00  0.00     0.382 C 
ATOM     23  O   LIG d   1     -19.672  63.992 112.057  0.00  0.00    -0.241 OA
ATOM     24  O   LIG d   1     -20.978  65.106 113.367  0.00  0.00    -0.241 OA
ENDBRANCH   3  22
TORSDOF 7
ENDMDL
MODEL 5
REMARK VINA RESULT:      -5.0     17.717     19.269
REMARK  7 active torsions:
REMARK  status: ('A' for Active; 'I' for Inactive)
REMARK    1  A    between atoms: C_2  and  C_3 
REMARK    2  A    between atoms: C_3  and  O_6 
REMARK    3  A    between atoms: C_3  and  C_4 
REMARK    4  A    between atoms: C_7  and  O_6 
REMARK    5  A    between atoms: C_9  and  C_10 
REMARK    6  A    between atoms: N_15  and  C_14 
REMARK    7  A    between atoms: N_20  and  C_19 
REMARK       I    between atoms: C_22  and  N_20 
ROOT
ATOM      1  C   LIG d   1       0.509  58.087 118.757  0.00  0.00     0.161 C 
ATOM      2  C   LIG d   1       1.540  58.976 118.408  0.00  0.00     0.016 C 
ATOM      3  C   LIG d   1       2.709  58.579 117.719  0.00  0.00     0.038 C 
ATOM      4  C   LIG d   1       2.859  57.286 117.197  0.00  0.00     0.028 C 
ATOM      5  C   LIG d   1       2.072  56.228 117.963  0.00  0.00    -0.047 C 
ATOM      6  C   LIG d   1       0.605  56.695 118.099  0.00  0.00     0.091 C 
ENDROOT
BRANCH   1   7
ATOM      7  O   LIG d   1      -0.770  58.688 118.476  0.00  0.00    -0.368 OA
BRANCH   7   8
ATOM      8  C   LIG d   1      -0.777  59.735 117.475  0.00  0.00     0.119 C 
BRANCH   8   9
ATOM      9  C   LIG d   1      -1.910  60.715 117.837  0.00  0.00     0.028 C 
ATOM     10  C   LIG d   1      -3.288  60.216 117.372  0.00  0.00     0.006 C 
ENDBRANCH   8   9
BRANCH   8  11
ATOM     11  C   LIG d   1      -1.144  59.182 116.094  0.00  0.00     0.028 C 
ATOM     12  C   LIG d   1      -0.063  59.454 115.037  0.00  0.00     0.006 C 
ENDBRANCH   8  11
ENDBRANCH   7   8
ENDBRANCH   1   7
BRANCH   6  13
ATOM     13  N   LIG d   1      -0.216  55.757 118.909  0.00  0.00    -0.311 N 
ATOM     14  C   LIG d   1      -1.427  55.340 118.543  0.00  0.00     0.210 C 
ATOM     15  C   LIG d   1      -2.109  54.390 119.533  0.00  0.00     0.109 C 
ATOM     16  O   LIG d   1      -1.987  55.640 117.478  0.00  0.00    -0.276 OA
ATOM     17  H   LIG d   1       0.175  55.439 119.773  0.00  0.00     0.149 HD
ENDBRANCH   6  13
BRANCH   5  18
ATOM     18  N   LIG d   1       2.208  54.954 117.231  0.00  0.00     0.381 N 
ATOM     19  H   LIG d   1       3.110  54.559 117.406  0.00  0.00    -0.090 HD
ATOM     20  H   LIG d   1       2.128  55.135 116.246  0.00  0.00    -0.090 HD
ATOM     21  H   LIG d   1       1.497  54.319 117.519  0.00  0.00    -0.090 HD
ENDBRANCH   5  18
BRANCH   3  22
ATOM     22  C   LIG d   1       3.762  59.471 117.581  0.00  0.00     0.382 C 
ATOM     23  O   LIG d   1       3.564  60.701 117.729  0.00  0.00    -0.241 OA
ATOM     24  O   LIG d   1       4.897  59.066 117.268  0.00  0.00    -0.241 OA
ENDBRANCH   3  22
TORSDOF 7
ENDMDL
MODEL 6
REMARK VINA RESULT:      -4.8     14.340     16.627
REMARK  7 active torsions:
REMARK  status: ('A' for Active; 'I' for Inactive)
REMARK    1  A    between atoms: C_2  and  C_3 
REMARK    2  A    between atoms: C_3  and  O_6 
REMARK    3  A    between atoms: C_3  and  C_4 
REMARK    4  A    between atoms: C_7  and  O_6 
REMARK    5  A    between atoms: C_9  and  C_10 
REMARK    6  A    between atoms: N_15  and  C_14 
REMARK    7  A    between atoms: N_20  and  C_19 
REMARK       I    between atoms: C_22  and  N_20 
ROOT
ATOM      1  C   LIG d   1      -6.275  77.158 117.734  0.00  0.00     0.161 C 
ATOM      2  C   LIG d   1      -7.627  76.782 117.801  0.00  0.00     0.016 C 
ATOM      3  C   LIG d   1      -8.647  77.627 118.295  0.00  0.00     0.038 C 
ATOM      4  C   LIG d   1      -8.405  78.970 118.618  0.00  0.00     0.028 C 
ATOM      5  C   LIG d   1      -6.966  79.241 119.044  0.00  0.00    -0.047 C 
ATOM      6  C   LIG d   1      -6.009  78.659 117.978  0.00  0.00     0.091 C 
ENDROOT
BRANCH   1   7
ATOM      7  O   LIG d   1      -5.715  76.749 116.471  0.00  0.00    -0.368 OA
BRANCH   7   8
ATOM      8  C   LIG d   1      -5.021  75.478 116.463  0.00  0.00     0.119 C 
BRANCH   8   9
ATOM      9  C   LIG d   1      -3.682  75.687 115.729  0.00  0.00     0.028 C 
ATOM     10  C   LIG d   1      -2.469  75.349 116.613  0.00  0.00     0.006 C 
ENDBRANCH   8   9
BRANCH   8  11
ATOM     11  C   LIG d   1      -5.778  74.434 115.636  0.00  0.00     0.028 C 
ATOM     12  C   LIG d   1      -5.915  74.830 114.158  0.00  0.00     0.006 C 
ENDBRANCH   8  11
ENDBRANCH   7   8
ENDBRANCH   1   7
BRANCH   6  13
ATOM     13  N   LIG d   1      -4.580  78.806 118.358  0.00  0.00    -0.311 N 
ATOM     14  C   LIG d   1      -3.630  79.188 117.506  0.00  0.00     0.210 C 
ATOM     15  C   LIG d   1      -2.219  79.257 118.098  0.00  0.00     0.109 C 
ATOM     16  O   LIG d   1      -3.828  79.508 116.324  0.00  0.00    -0.276 OA
ATOM     17  H   LIG d   1      -4.336  78.597 119.306  0.00  0.00     0.149 HD
ENDBRANCH   6  13
BRANCH   5  18
ATOM     18  N   LIG d   1      -6.819  80.699 119.217  0.00  0.00     0.381 N 
ATOM     19  H   LIG d   1      -7.711  81.108 119.410  0.00  0.00    -0.090 HD
ATOM     20  H   LIG d   1      -6.469  81.094 118.362  0.00  0.00    -0.090 HD
ATOM     21  H   LIG d   1      -6.188  80.892 119.964  0.00  0.00    -0.090 HD
ENDBRANCH   5  18
BRANCH   3  22
ATOM     22  C   LIG d   1      -9.918  77.117 118.508  0.00  0.00     0.382 C 
ATOM     23  O   LIG d   1     -10.208  75.965 118.104  0.00  0.00    -0.241 OA
ATOM     24  O   LIG d   1     -10.793  77.811 119.061  0.00  0.00    -0.241 OA
ENDBRANCH   3  22
TORSDOF 7
ENDMDL
MODEL 7
REMARK VINA RESULT:      -4.8      2.770      5.444
REMARK  7 active torsions:
REMARK  status: ('A' for Active; 'I' for Inactive)
REMARK    1  A    between atoms: C_2  and  C_3 
REMARK    2  A    between atoms: C_3  and  O_6 
REMARK    3  A    between atoms: C_3  and  C_4 
REMARK    4  A    between atoms: C_7  and  O_6 
REMARK    5  A    between atoms: C_9  and  C_10 
REMARK    6  A    between atoms: N_15  and  C_14 
REMARK    7  A    between atoms: N_20  and  C_19 
REMARK       I    between atoms: C_22  and  N_20 
ROOT
ATOM      1  C   LIG d   1     -17.507  65.047 116.582  0.00  0.00     0.161 C 
ATOM      2  C   LIG d   1     -16.901  64.459 115.459  0.00  0.00     0.016 C 
ATOM      3  C   LIG d   1     -17.594  64.173 114.260  0.00  0.00     0.038 C 
ATOM      4  C   LIG d   1     -18.915  64.597 114.049  0.00  0.00     0.028 C 
ATOM      5  C   LIG d   1     -19.718  64.743 115.337  0.00  0.00    -0.047 C 
ATOM      6  C   LIG d   1     -18.918  65.617 116.330  0.00  0.00     0.091 C 
ENDROOT
BRANCH   1   7
ATOM      7  O   LIG d   1     -16.644  66.066 117.125  0.00  0.00    -0.368 OA
BRANCH   7   8
ATOM      8  C   LIG d   1     -15.560  66.506 116.270  0.00  0.00     0.119 C 
BRANCH   8   9
ATOM      9  C   LIG d   1     -14.302  66.640 117.150  0.00  0.00     0.028 C 
ATOM     10  C   LIG d   1     -14.570  66.268 118.618  0.00  0.00     0.006 C 
ENDBRANCH   8   9
BRANCH   8  11
ATOM     11  C   LIG d   1     -15.821  67.911 115.719  0.00  0.00     0.028 C 
ATOM     12  C   LIG d   1     -15.305  68.092 114.283  0.00  0.00     0.006 C 
ENDBRANCH   8  11
ENDBRANCH   7   8
ENDBRANCH   1   7
BRANCH   6  13
ATOM     13  N   LIG d   1     -19.594  65.741 117.648  0.00  0.00    -0.311 N 
ATOM     14  C   LIG d   1     -20.452  66.716 117.943  0.00  0.00     0.210 C 
ATOM     15  C   LIG d   1     -21.020  66.669 119.365  0.00  0.00     0.109 C 
ATOM     16  O   LIG d   1     -20.821  67.597 117.152  0.00  0.00    -0.276 OA
ATOM     17  H   LIG d   1     -19.377  65.050 118.339  0.00  0.00     0.149 HD
ENDBRANCH   6  13
BRANCH   5  18
ATOM     18  N   LIG d   1     -21.028  65.321 114.983  0.00  0.00     0.381 N 
ATOM     19  H   LIG d   1     -21.588  65.420 115.806  0.00  0.00    -0.090 HD
ATOM     20  H   LIG d   1     -21.500  64.695 114.354  0.00  0.00    -0.090 HD
ATOM     21  H   LIG d   1     -20.903  66.209 114.549  0.00  0.00    -0.090 HD
ENDBRANCH   5  18
BRANCH   3  22
ATOM     22  C   LIG d   1     -16.978  63.421 113.272  0.00  0.00     0.382 C 
ATOM     23  O   LIG d   1     -17.318  62.226 113.091  0.00  0.00    -0.241 OA
ATOM     24  O   LIG d   1     -16.056  63.907 112.590  0.00  0.00    -0.241 OA
ENDBRANCH   3  22
TORSDOF 7
ENDMDL
MODEL 8
REMARK VINA RESULT:      -4.7      2.688      4.232
REMARK  7 active torsions:
REMARK  status: ('A' for Active; 'I' for Inactive)
REMARK    1  A    between atoms: C_2  and  C_3 
REMARK    2  A    between atoms: C_3  and  O_6 
REMARK    3  A    between atoms: C_3  and  C_4 
REMARK    4  A    between atoms: C_7  and  O_6 
REMARK    5  A    between atoms: C_9  and  C_10 
REMARK    6  A    between atoms: N_15  and  C_14 
REMARK    7  A    between atoms: N_20  and  C_19 
REMARK       I    between atoms: C_22  and  N_20 
ROOT
ATOM      1  C   LIG d   1     -16.932  66.363 116.338  0.00  0.00     0.161 C 
ATOM      2  C   LIG d   1     -16.474  67.153 115.271  0.00  0.00     0.016 C 
ATOM      3  C   LIG d   1     -16.147  66.629 113.999  0.00  0.00     0.038 C 
ATOM      4  C   LIG d   1     -16.401  65.292 113.660  0.00  0.00     0.028 C 
ATOM      5  C   LIG d   1     -16.388  64.351 114.860  0.00  0.00    -0.047 C 
ATOM      6  C   LIG d   1     -17.320  64.920 115.954  0.00  0.00     0.091 C 
ENDROOT
BRANCH   1   7
ATOM      7  O   LIG d   1     -18.033  67.020 116.996  0.00  0.00    -0.368 OA
BRANCH   7   8
ATOM      8  C   LIG d   1     -17.740  67.624 118.280  0.00  0.00     0.119 C 
BRANCH   8   9
ATOM      9  C   LIG d   1     -16.492  66.921 118.848  0.00  0.00     0.028 C 
ATOM     10  C   LIG d   1     -16.738  66.326 120.245  0.00  0.00     0.006 C 
ENDBRANCH   8   9
BRANCH   8  11
ATOM     11  C   LIG d   1     -18.856  67.349 119.293  0.00  0.00     0.028 C 
ATOM     12  C   LIG d   1     -20.253  67.346 118.653  0.00  0.00     0.006 C 
ENDBRANCH   8  11
ENDBRANCH   7   8
ENDBRANCH   1   7
BRANCH   6  13
ATOM     13  N   LIG d   1     -17.301  64.103 117.196  0.00  0.00    -0.311 N 
ATOM     14  C   LIG d   1     -18.401  63.757 117.863  0.00  0.00     0.210 C 
ATOM     15  C   LIG d   1     -18.156  62.930 119.129  0.00  0.00     0.109 C 
ATOM     16  O   LIG d   1     -19.558  64.028 117.508  0.00  0.00    -0.276 OA
ATOM     17  H   LIG d   1     -16.405  63.813 117.537  0.00  0.00     0.149 HD
ENDBRANCH   6  13
BRANCH   5  18
ATOM     18  N   LIG d   1     -16.802  63.017 114.385  0.00  0.00     0.381 N 
ATOM     19  H   LIG d   1     -17.578  62.690 114.925  0.00  0.00    -0.090 HD
ATOM     20  H   LIG d   1     -16.039  62.376 114.510  0.00  0.00    -0.090 HD
ATOM     21  H   LIG d   1     -17.053  63.061 113.422  0.00  0.00    -0.090 HD
ENDBRANCH   5  18
BRANCH   3  22
ATOM     22  C   LIG d   1     -15.523  67.439 113.062  0.00  0.00     0.382 C 
ATOM     23  O   LIG d   1     -15.621  68.687 113.147  0.00  0.00    -0.241 OA
ATOM     24  O   LIG d   1     -14.899  66.936 112.109  0.00  0.00    -0.241 OA
ENDBRANCH   3  22
TORSDOF 7
ENDMDL
MODEL 9
REMARK VINA RESULT:      -4.7     25.555     28.258
REMARK  7 active torsions:
REMARK  status: ('A' for Active; 'I' for Inactive)
REMARK    1  A    between atoms: C_2  and  C_3 
REMARK    2  A    between atoms: C_3  and  O_6 
REMARK    3  A    between atoms: C_3  and  C_4 
REMARK    4  A    between atoms: C_7  and  O_6 
REMARK    5  A    between atoms: C_9  and  C_10 
REMARK    6  A    between atoms: N_15  and  C_14 
REMARK    7  A    between atoms: N_20  and  C_19 
REMARK       I    between atoms: C_22  and  N_20 
ROOT
ATOM      1  C   LIG d   1       2.839  86.096 114.541  0.00  0.00     0.161 C 
ATOM      2  C   LIG d   1       2.940  87.430 114.114  0.00  0.00     0.016 C 
ATOM      3  C   LIG d   1       3.858  88.355 114.663  0.00  0.00     0.038 C 
ATOM      4  C   LIG d   1       4.846  87.965 115.578  0.00  0.00     0.028 C 
ATOM      5  C   LIG d   1       4.455  86.748 116.410  0.00  0.00    -0.047 C 
ATOM      6  C   LIG d   1       3.983  85.622 115.461  0.00  0.00     0.091 C 
ENDROOT
BRANCH   1   7
ATOM      7  O   LIG d   1       2.721  85.224 113.399  0.00  0.00    -0.368 OA
BRANCH   7   8
ATOM      8  C   LIG d   1       1.373  84.861 113.011  0.00  0.00     0.119 C 
BRANCH   8   9
ATOM      9  C   LIG d   1       0.499  84.904 114.279  0.00  0.00     0.028 C 
ATOM     10  C   LIG d   1      -0.978  84.589 113.985  0.00  0.00     0.006 C 
ENDBRANCH   8   9
BRANCH   8  11
ATOM     11  C   LIG d   1       1.306  83.412 112.520  0.00  0.00     0.028 C 
ATOM     12  C   LIG d   1       2.134  82.450 113.387  0.00  0.00     0.006 C 
ENDBRANCH   8  11
ENDBRANCH   7   8
ENDBRANCH   1   7
BRANCH   6  13
ATOM     13  N   LIG d   1       3.502  84.424 116.197  0.00  0.00    -0.311 N 
ATOM     14  C   LIG d   1       4.274  83.373 116.471  0.00  0.00     0.210 C 
ATOM     15  C   LIG d   1       3.574  82.236 117.222  0.00  0.00     0.109 C 
ATOM     16  O   LIG d   1       5.479  83.289 116.192  0.00  0.00    -0.276 OA
ATOM     17  H   LIG d   1       2.545  84.422 116.489  0.00  0.00     0.149 HD
ENDBRANCH   6  13
BRANCH   5  18
ATOM     18  N   LIG d   1       5.626  86.367 117.221  0.00  0.00     0.381 N 
ATOM     19  H   LIG d   1       6.414  86.208 116.626  0.00  0.00    -0.090 HD
ATOM     20  H   LIG d   1       5.421  85.512 117.708  0.00  0.00    -0.090 HD
ATOM     21  H   LIG d   1       5.836  87.088 117.876  0.00  0.00    -0.090 HD
ENDBRANCH   5  18
BRANCH   3  22
ATOM     22  C   LIG d   1       3.766  89.697 114.325  0.00  0.00     0.382 C 
ATOM     23  O   LIG d   1       3.478  90.029 113.150  0.00  0.00    -0.241 OA
ATOM     24  O   LIG d   1       4.010  90.579 115.170  0.00  0.00    -0.241 OA
ENDBRANCH   3  22
TORSDOF 7
ENDMDL
