MODEL 1
REMARK VINA RESULT:      -5.7      0.000      0.000
REMARK  7 active torsions:
REMARK  status: ('A' for Active; 'I' for Inactive)
REMARK    1  A    between atoms: C_2  and  C_3 
REMARK    2  A    between atoms: C_3  and  O_6 
REMARK    3  A    between atoms: C_3  and  C_4 
REMARK    4  A    between atoms: C_7  and  O_6 
REMARK    5  A    between atoms: C_9  and  C_10 
REMARK    6  A    between atoms: N_15  and  C_14 
REMARK    7  A    between atoms: N_20  and  C_19 
REMARK       I    between atoms: C_22  and  N_20 
ROOT
ATOM      1  C   LIG d   1      -3.107  75.348 116.451  0.00  0.00     0.161 C 
ATOM      2  C   LIG d   1      -3.386  76.069 115.279  0.00  0.00     0.016 C 
ATOM      3  C   LIG d   1      -2.385  76.551 114.404  0.00  0.00     0.038 C 
ATOM      4  C   LIG d   1      -1.034  76.211 114.566  0.00  0.00     0.028 C 
ATOM      5  C   LIG d   1      -0.654  75.910 116.012  0.00  0.00    -0.047 C 
ATOM      6  C   LIG d   1      -1.646  74.872 116.586  0.00  0.00     0.091 C 
ENDROOT
BRANCH   1   7
ATOM      7  O   LIG d   1      -4.010  74.231 116.564  0.00  0.00    -0.368 OA
BRANCH   7   8
ATOM      8  C   LIG d   1      -5.148  74.237 115.668  0.00  0.00     0.119 C 
BRANCH   8   9
ATOM      9  C   LIG d   1      -6.371  74.714 116.475  0.00  0.00     0.028 C 
ATOM     10  C   LIG d   1      -7.127  75.856 115.777  0.00  0.00     0.006 C 
ENDBRANCH   8   9
BRANCH   8  11
ATOM     11  C   LIG d   1      -5.498  72.822 115.200  0.00  0.00     0.028 C 
ATOM     12  C   LIG d   1      -6.392  72.068 116.197  0.00  0.00     0.006 C 
ENDBRANCH   8  11
ENDBRANCH   7   8
ENDBRANCH   1   7
BRANCH   6  13
ATOM     13  N   LIG d   1      -1.397  74.584 118.022  0.00  0.00    -0.311 N 
ATOM     14  C   LIG d   1      -0.618  73.591 118.446  0.00  0.00     0.210 C 
ATOM     15  C   LIG d   1      -0.513  73.456 119.969  0.00  0.00     0.109 C 
ATOM     16  O   LIG d   1       0.021  72.828 117.706  0.00  0.00    -0.276 OA
ATOM     17  H   LIG d   1      -1.851  75.174 118.691  0.00  0.00     0.149 HD
ENDBRANCH   6  13
BRANCH   5  18
ATOM     18  N   LIG d   1       0.744  75.438 116.016  0.00  0.00     0.381 N 
ATOM     19  H   LIG d   1       0.786  74.502 115.666  0.00  0.00    -0.090 HD
ATOM     20  H   LIG d   1       1.083  75.436 116.962  0.00  0.00    -0.090 HD
ATOM     21  H   LIG d   1       1.308  76.036 115.454  0.00  0.00    -0.090 HD
ENDBRANCH   5  18
BRANCH   3  22
ATOM     22  C   LIG d   1      -2.728  77.416 113.376  0.00  0.00     0.382 C 
ATOM     23  O   LIG d   1      -3.347  78.477 113.630  0.00  0.00    -0.241 OA
ATOM     24  O   LIG d   1      -2.466  77.126 112.193  0.00  0.00    -0.241 OA
ENDBRANCH   3  22
TORSDOF 7
ENDMDL
MODEL 2
REMARK VINA RESULT:      -5.5      1.567      4.726
REMARK  7 active torsions:
REMARK  status: ('A' for Active; 'I' for Inactive)
REMARK    1  A    between atoms: C_2  and  C_3 
REMARK    2  A    between atoms: C_3  and  O_6 
REMARK    3  A    between atoms: C_3  and  C_4 
REMARK    4  A    between atoms: C_7  and  O_6 
REMARK    5  A    between atoms: C_9  and  C_10 
REMARK    6  A    between atoms: N_15  and  C_14 
REMARK    7  A    between atoms: N_20  and  C_19 
REMARK       I    between atoms: C_22  and  N_20 
ROOT
ATOM      1  C   LIG d   1      -2.588  75.079 115.762  0.00  0.00     0.161 C 
ATOM      2  C   LIG d   1      -2.136  74.326 116.859  0.00  0.00     0.016 C 
ATOM      3  C   LIG d   1      -0.895  74.549 117.498  0.00  0.00     0.038 C 
ATOM      4  C   LIG d   1      -0.082  75.646 117.176  0.00  0.00     0.028 C 
ATOM      5  C   LIG d   1      -0.259  76.131 115.741  0.00  0.00    -0.047 C 
ATOM      6  C   LIG d   1      -1.765  76.350 115.468  0.00  0.00     0.091 C 
ENDROOT
BRANCH   1   7
ATOM      7  O   LIG d   1      -3.979  75.412 115.938  0.00  0.00    -0.368 OA
BRANCH   7   8
ATOM      8  C   LIG d   1      -4.934  74.421 115.483  0.00  0.00     0.119 C 
BRANCH   8   9
ATOM      9  C   LIG d   1      -5.266  74.739 114.012  0.00  0.00     0.028 C 
ATOM     10  C   LIG d   1      -6.170  75.975 113.868  0.00  0.00     0.006 C 
ENDBRANCH   8   9
BRANCH   8  11
ATOM     11  C   LIG d   1      -6.263  74.543 116.234  0.00  0.00     0.028 C 
ATOM     12  C   LIG d   1      -6.758  73.199 116.792  0.00  0.00     0.006 C 
ENDBRANCH   8  11
ENDBRANCH   7   8
ENDBRANCH   1   7
BRANCH   6  13
ATOM     13  N   LIG d   1      -2.034  76.744 114.060  0.00  0.00    -0.311 N 
ATOM     14  C   LIG d   1      -2.888  77.708 113.720  0.00  0.00     0.210 C 
ATOM     15  C   LIG d   1      -3.032  77.941 112.212  0.00  0.00     0.109 C 
ATOM     16  O   LIG d   1      -3.515  78.414 114.523  0.00  0.00    -0.276 OA
ATOM     17  H   LIG d   1      -1.544  76.244 113.345  0.00  0.00     0.149 HD
ENDBRANCH   6  13
BRANCH   5  18
ATOM     18  N   LIG d   1       0.542  77.359 115.583  0.00  0.00     0.381 N 
ATOM     19  H   LIG d   1       0.631  77.821 116.466  0.00  0.00    -0.090 HD
ATOM     20  H   LIG d   1       0.067  77.978 114.949  0.00  0.00    -0.090 HD
ATOM     21  H   LIG d   1       1.444  77.134 115.225  0.00  0.00    -0.090 HD
ENDBRANCH   5  18
BRANCH   3  22
ATOM     22  C   LIG d   1      -0.437  73.645 118.444  0.00  0.00     0.382 C 
ATOM     23  O   LIG d   1       0.258  72.663 118.088  0.00  0.00    -0.241 OA
ATOM     24  O   LIG d   1      -0.746  73.775 119.644  0.00  0.00    -0.241 OA
ENDBRANCH   3  22
TORSDOF 7
ENDMDL
MODEL 3
REMARK VINA RESULT:      -5.4      2.696      4.118
REMARK  7 active torsions:
REMARK  status: ('A' for Active; 'I' for Inactive)
REMARK    1  A    between atoms: C_2  and  C_3 
REMARK    2  A    between atoms: C_3  and  O_6 
REMARK    3  A    between atoms: C_3  and  C_4 
REMARK    4  A    between atoms: C_7  and  O_6 
REMARK    5  A    between atoms: C_9  and  C_10 
REMARK    6  A    between atoms: N_15  and  C_14 
REMARK    7  A    between atoms: N_20  and  C_19 
REMARK       I    between atoms: C_22  and  N_20 
ROOT
ATOM      1  C   LIG d   1      -3.866  76.003 116.889  0.00  0.00     0.161 C 
ATOM      2  C   LIG d   1      -5.101  76.570 117.244  0.00  0.00     0.016 C 
ATOM      3  C   LIG d   1      -5.456  77.908 116.951  0.00  0.00     0.038 C 
ATOM      4  C   LIG d   1      -4.652  78.728 116.145  0.00  0.00     0.028 C 
ATOM      5  C   LIG d   1      -3.173  78.361 116.192  0.00  0.00    -0.047 C 
ATOM      6  C   LIG d   1      -3.022  76.848 115.912  0.00  0.00     0.091 C 
ENDROOT
BRANCH   1   7
ATOM      7  O   LIG d   1      -4.072  74.679 116.357  0.00  0.00    -0.368 OA
BRANCH   7   8
ATOM      8  C   LIG d   1      -5.330  74.455 115.675  0.00  0.00     0.119 C 
BRANCH   8   9
ATOM      9  C   LIG d   1      -5.735  72.988 115.920  0.00  0.00     0.028 C 
ATOM     10  C   LIG d   1      -6.742  72.842 117.073  0.00  0.00     0.006 C 
ENDBRANCH   8   9
BRANCH   8  11
ATOM     11  C   LIG d   1      -5.172  74.584 114.157  0.00  0.00     0.028 C 
ATOM     12  C   LIG d   1      -5.844  75.845 113.592  0.00  0.00     0.006 C 
ENDBRANCH   8  11
ENDBRANCH   7   8
ENDBRANCH   1   7
BRANCH   6  13
ATOM     13  N   LIG d   1      -1.613  76.389 116.022  0.00  0.00    -0.311 N 
ATOM     14  C   LIG d   1      -0.810  76.229 114.971  0.00  0.00     0.210 C 
ATOM     15  C   LIG d   1       0.599  75.728 115.304  0.00  0.00     0.109 C 
ATOM     16  O   LIG d   1      -1.121  76.485 113.798  0.00  0.00    -0.276 OA
ATOM     17  H   LIG d   1      -1.269  76.189 116.941  0.00  0.00     0.149 HD
ENDBRANCH   6  13
BRANCH   5  18
ATOM     18  N   LIG d   1      -2.474  79.204 115.204  0.00  0.00     0.381 N 
ATOM     19  H   LIG d   1      -2.075  80.000 115.660  0.00  0.00    -0.090 HD
ATOM     20  H   LIG d   1      -3.139  79.530 114.525  0.00  0.00    -0.090 HD
ATOM     21  H   LIG d   1      -1.758  78.678 114.752  0.00  0.00    -0.090 HD
ENDBRANCH   5  18
BRANCH   3  22
ATOM     22  C   LIG d   1      -6.608  78.449 117.501  0.00  0.00     0.382 C 
ATOM     23  O   LIG d   1      -7.272  77.791 118.337  0.00  0.00    -0.241 OA
ATOM     24  O   LIG d   1      -7.014  79.569 117.139  0.00  0.00    -0.241 OA
ENDBRANCH   3  22
TORSDOF 7
ENDMDL
MODEL 4
REMARK VINA RESULT:      -5.3      2.345      4.993
REMARK  7 active torsions:
REMARK  status: ('A' for Active; 'I' for Inactive)
REMARK    1  A    between atoms: C_2  and  C_3 
REMARK    2  A    between atoms: C_3  and  O_6 
REMARK    3  A    between atoms: C_3  and  C_4 
REMARK    4  A    between atoms: C_7  and  O_6 
REMARK    5  A    between atoms: C_9  and  C_10 
REMARK    6  A    between atoms: N_15  and  C_14 
REMARK    7  A    between atoms: N_20  and  C_19 
REMARK       I    between atoms: C_22  and  N_20 
ROOT
ATOM      1  C   LIG d   1      -2.785  74.726 116.254  0.00  0.00     0.161 C 
ATOM      2  C   LIG d   1      -1.919  75.631 115.617  0.00  0.00     0.016 C 
ATOM      3  C   LIG d   1      -2.311  76.455 114.537  0.00  0.00     0.038 C 
ATOM      4  C   LIG d   1      -3.646  76.540 114.116  0.00  0.00     0.028 C 
ATOM      5  C   LIG d   1      -4.451  75.275 114.395  0.00  0.00    -0.047 C 
ATOM      6  C   LIG d   1      -4.274  74.885 115.881  0.00  0.00     0.091 C 
ENDROOT
BRANCH   1   7
ATOM      7  O   LIG d   1      -2.614  74.810 117.682  0.00  0.00    -0.368 OA
BRANCH   7   8
ATOM      8  C   LIG d   1      -1.267  75.063 118.150  0.00  0.00     0.119 C 
BRANCH   8   9
ATOM      9  C   LIG d   1      -0.729  73.748 118.746  0.00  0.00     0.028 C 
ATOM     10  C   LIG d   1       0.514  73.231 118.002  0.00  0.00     0.006 C 
ENDBRANCH   8   9
BRANCH   8  11
ATOM     11  C   LIG d   1      -1.258  76.066 119.307  0.00  0.00     0.028 C 
ATOM     12  C   LIG d   1      -1.171  77.525 118.831  0.00  0.00     0.006 C 
ENDBRANCH   8  11
ENDBRANCH   7   8
ENDBRANCH   1   7
BRANCH   6  13
ATOM     13  N   LIG d   1      -4.960  73.611 116.218  0.00  0.00    -0.311 N 
ATOM     14  C   LIG d   1      -6.224  73.547 116.635  0.00  0.00     0.210 C 
ATOM     15  C   LIG d   1      -6.731  72.136 116.948  0.00  0.00     0.109 C 
ATOM     16  O   LIG d   1      -6.982  74.522 116.744  0.00  0.00    -0.276 OA
ATOM     17  H   LIG d   1      -4.428  72.768 116.128  0.00  0.00     0.149 HD
ENDBRANCH   6  13
BRANCH   5  18
ATOM     18  N   LIG d   1      -5.854  75.550 114.033  0.00  0.00     0.381 N 
ATOM     19  H   LIG d   1      -6.179  76.357 114.527  0.00  0.00    -0.090 HD
ATOM     20  H   LIG d   1      -6.419  74.765 114.304  0.00  0.00    -0.090 HD
ATOM     21  H   LIG d   1      -5.929  75.700 113.051  0.00  0.00    -0.090 HD
ENDBRANCH   5  18
BRANCH   3  22
ATOM     22  C   LIG d   1      -1.353  77.176 113.840  0.00  0.00     0.382 C 
ATOM     23  O   LIG d   1      -1.211  77.000 112.606  0.00  0.00    -0.241 OA
ATOM     24  O   LIG d   1      -0.600  77.969 114.438  0.00  0.00    -0.241 OA
ENDBRANCH   3  22
TORSDOF 7
ENDMDL
MODEL 5
REMARK VINA RESULT:      -5.2      2.425      5.988
REMARK  7 active torsions:
REMARK  status: ('A' for Active; 'I' for Inactive)
REMARK    1  A    between atoms: C_2  and  C_3 
REMARK    2  A    between atoms: C_3  and  O_6 
REMARK    3  A    between atoms: C_3  and  C_4 
REMARK    4  A    between atoms: C_7  and  O_6 
REMARK    5  A    between atoms: C_9  and  C_10 
REMARK    6  A    between atoms: N_15  and  C_14 
REMARK    7  A    between atoms: N_20  and  C_19 
REMARK       I    between atoms: C_22  and  N_20 
ROOT
ATOM      1  C   LIG d   1      -3.394  75.414 115.841  0.00  0.00     0.161 C 
ATOM      2  C   LIG d   1      -4.149  74.351 116.363  0.00  0.00     0.016 C 
ATOM      3  C   LIG d   1      -5.393  73.944 115.829  0.00  0.00     0.038 C 
ATOM      4  C   LIG d   1      -5.899  74.480 114.636  0.00  0.00     0.028 C 
ATOM      5  C   LIG d   1      -5.417  75.900 114.358  0.00  0.00    -0.047 C 
ATOM      6  C   LIG d   1      -3.876  75.938 114.472  0.00  0.00     0.091 C 
ENDROOT
BRANCH   1   7
ATOM      7  O   LIG d   1      -2.004  75.039 115.773  0.00  0.00    -0.368 OA
BRANCH   7   8
ATOM      8  C   LIG d   1      -1.205  75.339 116.944  0.00  0.00     0.119 C 
BRANCH   8   9
ATOM      9  C   LIG d   1      -0.336  76.567 116.610  0.00  0.00     0.028 C 
ATOM     10  C   LIG d   1       1.094  76.179 116.197  0.00  0.00     0.006 C 
ENDBRANCH   8   9
BRANCH   8  11
ATOM     11  C   LIG d   1      -0.214  74.210 117.246  0.00  0.00     0.028 C 
ATOM     12  C   LIG d   1      -0.532  73.472 118.555  0.00  0.00     0.006 C 
ENDBRANCH   8  11
ENDBRANCH   7   8
ENDBRANCH   1   7
BRANCH   6  13
ATOM     13  N   LIG d   1      -3.328  77.309 114.298  0.00  0.00    -0.311 N 
ATOM     14  C   LIG d   1      -2.897  77.783 113.130  0.00  0.00     0.210 C 
ATOM     15  C   LIG d   1      -2.353  79.214 113.174  0.00  0.00     0.109 C 
ATOM     16  O   LIG d   1      -2.944  77.166 112.055  0.00  0.00    -0.276 OA
ATOM     17  H   LIG d   1      -3.283  77.889 115.112  0.00  0.00     0.149 HD
ENDBRANCH   6  13
BRANCH   5  18
ATOM     18  N   LIG d   1      -5.907  76.283 113.020  0.00  0.00     0.381 N 
ATOM     19  H   LIG d   1      -6.067  77.270 112.988  0.00  0.00    -0.090 HD
ATOM     20  H   LIG d   1      -6.779  75.816 112.847  0.00  0.00    -0.090 HD
ATOM     21  H   LIG d   1      -5.240  76.025 112.326  0.00  0.00    -0.090 HD
ENDBRANCH   5  18
BRANCH   3  22
ATOM     22  C   LIG d   1      -6.165  73.018 116.514  0.00  0.00     0.382 C 
ATOM     23  O   LIG d   1      -6.891  73.389 117.468  0.00  0.00    -0.241 OA
ATOM     24  O   LIG d   1      -6.111  71.809 116.220  0.00  0.00    -0.241 OA
ENDBRANCH   3  22
TORSDOF 7
ENDMDL
MODEL 6
REMARK VINA RESULT:      -5.0      3.144      4.275
REMARK  7 active torsions:
REMARK  status: ('A' for Active; 'I' for Inactive)
REMARK    1  A    between atoms: C_2  and  C_3 
REMARK    2  A    between atoms: C_3  and  O_6 
REMARK    3  A    between atoms: C_3  and  C_4 
REMARK    4  A    between atoms: C_7  and  O_6 
REMARK    5  A    between atoms: C_9  and  C_10 
REMARK    6  A    between atoms: N_15  and  C_14 
REMARK    7  A    between atoms: N_20  and  C_19 
REMARK       I    between atoms: C_22  and  N_20 
ROOT
ATOM      1  C   LIG d   1      -5.720  76.473 117.110  0.00  0.00     0.161 C 
ATOM      2  C   LIG d   1      -6.676  77.497 117.209  0.00  0.00     0.016 C 
ATOM      3  C   LIG d   1      -6.350  78.872 117.174  0.00  0.00     0.038 C 
ATOM      4  C   LIG d   1      -5.053  79.319 116.885  0.00  0.00     0.028 C 
ATOM      5  C   LIG d   1      -3.967  78.324 117.279  0.00  0.00    -0.047 C 
ATOM      6  C   LIG d   1      -4.313  76.941 116.683  0.00  0.00     0.091 C 
ENDROOT
BRANCH   1   7
ATOM      7  O   LIG d   1      -6.197  75.443 116.222  0.00  0.00    -0.368 OA
BRANCH   7   8
ATOM      8  C   LIG d   1      -5.796  74.088 116.544  0.00  0.00     0.119 C 
BRANCH   8   9
ATOM      9  C   LIG d   1      -5.331  73.420 115.236  0.00  0.00     0.028 C 
ATOM     10  C   LIG d   1      -5.104  74.438 114.105  0.00  0.00     0.006 C 
ENDBRANCH   8   9
BRANCH   8  11
ATOM     11  C   LIG d   1      -6.988  73.254 117.023  0.00  0.00     0.028 C 
ATOM     12  C   LIG d   1      -6.988  71.829 116.448  0.00  0.00     0.006 C 
ENDBRANCH   8  11
ENDBRANCH   7   8
ENDBRANCH   1   7
BRANCH   6  13
ATOM     13  N   LIG d   1      -3.346  75.889 117.091  0.00  0.00    -0.311 N 
ATOM     14  C   LIG d   1      -2.316  75.508 116.337  0.00  0.00     0.210 C 
ATOM     15  C   LIG d   1      -1.453  74.394 116.937  0.00  0.00     0.109 C 
ATOM     16  O   LIG d   1      -2.016  76.009 115.243  0.00  0.00    -0.276 OA
ATOM     17  H   LIG d   1      -3.496  75.451 117.979  0.00  0.00     0.149 HD
ENDBRANCH   6  13
BRANCH   5  18
ATOM     18  N   LIG d   1      -2.678  78.856 116.797  0.00  0.00     0.381 N 
ATOM     19  H   LIG d   1      -2.837  79.500 116.048  0.00  0.00    -0.090 HD
ATOM     20  H   LIG d   1      -2.123  78.095 116.446  0.00  0.00    -0.090 HD
ATOM     21  H   LIG d   1      -2.197  79.311 117.541  0.00  0.00    -0.090 HD
ENDBRANCH   5  18
BRANCH   3  22
ATOM     22  C   LIG d   1      -7.321  79.816 117.471  0.00  0.00     0.382 C 
ATOM     23  O   LIG d   1      -8.354  79.478 118.097  0.00  0.00    -0.241 OA
ATOM     24  O   LIG d   1      -7.199  80.993 117.081  0.00  0.00    -0.241 OA
ENDBRANCH   3  22
TORSDOF 7
ENDMDL
MODEL 7
REMARK VINA RESULT:      -4.9     13.768     15.806
REMARK  7 active torsions:
REMARK  status: ('A' for Active; 'I' for Inactive)
REMARK    1  A    between atoms: C_2  and  C_3 
REMARK    2  A    between atoms: C_3  and  O_6 
REMARK    3  A    between atoms: C_3  and  C_4 
REMARK    4  A    between atoms: C_7  and  O_6 
REMARK    5  A    between atoms: C_9  and  C_10 
REMARK    6  A    between atoms: N_15  and  C_14 
REMARK    7  A    between atoms: N_20  and  C_19 
REMARK       I    between atoms: C_22  and  N_20 
ROOT
ATOM      1  C   LIG d   1       4.811  87.631 116.437  0.00  0.00     0.161 C 
ATOM      2  C   LIG d   1       4.079  88.826 116.527  0.00  0.00     0.016 C 
ATOM      3  C   LIG d   1       4.649  90.061 116.915  0.00  0.00     0.038 C 
ATOM      4  C   LIG d   1       6.032  90.215 117.095  0.00  0.00     0.028 C 
ATOM      5  C   LIG d   1       6.737  88.927 117.506  0.00  0.00    -0.047 C 
ATOM      6  C   LIG d   1       6.343  87.803 116.521  0.00  0.00     0.091 C 
ENDROOT
BRANCH   1   7
ATOM      7  O   LIG d   1       4.452  86.927 115.232  0.00  0.00    -0.368 OA
BRANCH   7   8
ATOM      8  C   LIG d   1       3.627  87.657 114.290  0.00  0.00     0.119 C 
BRANCH   8   9
ATOM      9  C   LIG d   1       2.470  86.729 113.873  0.00  0.00     0.028 C 
ATOM     10  C   LIG d   1       1.719  86.147 115.082  0.00  0.00     0.006 C 
ENDBRANCH   8   9
BRANCH   8  11
ATOM     11  C   LIG d   1       4.391  87.958 112.997  0.00  0.00     0.028 C 
ATOM     12  C   LIG d   1       5.455  89.053 113.175  0.00  0.00     0.006 C 
ENDBRANCH   8  11
ENDBRANCH   7   8
ENDBRANCH   1   7
BRANCH   6  13
ATOM     13  N   LIG d   1       6.922  86.488 116.901  0.00  0.00    -0.311 N 
ATOM     14  C   LIG d   1       8.108  86.058 116.472  0.00  0.00     0.210 C 
ATOM     15  C   LIG d   1       8.508  84.665 116.967  0.00  0.00     0.109 C 
ATOM     16  O   LIG d   1       8.880  86.712 115.755  0.00  0.00    -0.276 OA
ATOM     17  H   LIG d   1       6.376  85.906 117.505  0.00  0.00     0.149 HD
ENDBRANCH   6  13
BRANCH   5  18
ATOM     18  N   LIG d   1       8.186  89.198 117.524  0.00  0.00     0.381 N 
ATOM     19  H   LIG d   1       8.515  89.221 118.468  0.00  0.00    -0.090 HD
ATOM     20  H   LIG d   1       8.354  90.098 117.110  0.00  0.00    -0.090 HD
ATOM     21  H   LIG d   1       8.671  88.494 117.013  0.00  0.00    -0.090 HD
ENDBRANCH   5  18
BRANCH   3  22
ATOM     22  C   LIG d   1       3.827  91.149 117.166  0.00  0.00     0.382 C 
ATOM     23  O   LIG d   1       2.599  90.975 117.358  0.00  0.00    -0.241 OA
ATOM     24  O   LIG d   1       4.290  92.305 117.160  0.00  0.00    -0.241 OA
ENDBRANCH   3  22
TORSDOF 7
ENDMDL
MODEL 8
REMARK VINA RESULT:      -4.9     13.642     15.274
REMARK  7 active torsions:
REMARK  status: ('A' for Active; 'I' for Inactive)
REMARK    1  A    between atoms: C_2  and  C_3 
REMARK    2  A    between atoms: C_3  and  O_6 
REMARK    3  A    between atoms: C_3  and  C_4 
REMARK    4  A    between atoms: C_7  and  O_6 
REMARK    5  A    between atoms: C_9  and  C_10 
REMARK    6  A    between atoms: N_15  and  C_14 
REMARK    7  A    between atoms: N_20  and  C_19 
REMARK       I    between atoms: C_22  and  N_20 
ROOT
ATOM      1  C   LIG d   1       3.484  88.404 115.628  0.00  0.00     0.161 C 
ATOM      2  C   LIG d   1       2.627  87.792 114.697  0.00  0.00     0.016 C 
ATOM      3  C   LIG d   1       2.954  87.623 113.332  0.00  0.00     0.038 C 
ATOM      4  C   LIG d   1       4.231  87.920 112.833  0.00  0.00     0.028 C 
ATOM      5  C   LIG d   1       4.953  89.005 113.625  0.00  0.00    -0.047 C 
ATOM      6  C   LIG d   1       4.924  88.634 115.126  0.00  0.00     0.091 C 
ENDROOT
BRANCH   1   7
ATOM      7  O   LIG d   1       3.495  87.646 116.853  0.00  0.00    -0.368 OA
BRANCH   7   8
ATOM      8  C   LIG d   1       2.913  88.296 118.010  0.00  0.00     0.119 C 
BRANCH   8   9
ATOM      9  C   LIG d   1       1.738  87.422 118.490  0.00  0.00     0.028 C 
ATOM     10  C   LIG d   1       0.427  87.747 117.756  0.00  0.00     0.006 C 
ENDBRANCH   8   9
BRANCH   8  11
ATOM     11  C   LIG d   1       2.290  89.644 117.637  0.00  0.00     0.028 C 
ATOM     12  C   LIG d   1       2.940  90.826 118.374  0.00  0.00     0.006 C 
ENDBRANCH   8  11
ENDBRANCH   7   8
ENDBRANCH   1   7
BRANCH   6  13
ATOM     13  N   LIG d   1       5.536  89.684 115.981  0.00  0.00    -0.311 N 
ATOM     14  C   LIG d   1       6.436  89.426 116.928  0.00  0.00     0.210 C 
ATOM     15  C   LIG d   1       6.924  90.651 117.708  0.00  0.00     0.109 C 
ATOM     16  O   LIG d   1       6.901  88.302 117.175  0.00  0.00    -0.276 OA
ATOM     17  H   LIG d   1       5.240  90.628 115.827  0.00  0.00     0.149 HD
ENDBRANCH   6  13
BRANCH   5  18
ATOM     18  N   LIG d   1       6.321  89.117 113.083  0.00  0.00     0.381 N 
ATOM     19  H   LIG d   1       6.841  89.786 113.614  0.00  0.00    -0.090 HD
ATOM     20  H   LIG d   1       6.268  89.439 112.133  0.00  0.00    -0.090 HD
ATOM     21  H   LIG d   1       6.774  88.230 113.117  0.00  0.00    -0.090 HD
ENDBRANCH   5  18
BRANCH   3  22
ATOM     22  C   LIG d   1       1.984  87.188 112.442  0.00  0.00     0.382 C 
ATOM     23  O   LIG d   1       1.089  87.978 112.055  0.00  0.00    -0.241 OA
ATOM     24  O   LIG d   1       1.966  86.004 112.055  0.00  0.00    -0.241 OA
ENDBRANCH   3  22
TORSDOF 7
ENDMDL
MODEL 9
REMARK VINA RESULT:      -4.9     15.031     16.950
REMARK  7 active torsions:
REMARK  status: ('A' for Active; 'I' for Inactive)
REMARK    1  A    between atoms: C_2  and  C_3 
REMARK    2  A    between atoms: C_3  and  O_6 
REMARK    3  A    between atoms: C_3  and  C_4 
REMARK    4  A    between atoms: C_7  and  O_6 
REMARK    5  A    between atoms: C_9  and  C_10 
REMARK    6  A    between atoms: N_15  and  C_14 
REMARK    7  A    between atoms: N_20  and  C_19 
REMARK       I    between atoms: C_22  and  N_20 
ROOT
ATOM      1  C   LIG d   1       0.166  91.025 117.321  0.00  0.00     0.161 C 
ATOM      2  C   LIG d   1       1.566  90.960 117.418  0.00  0.00     0.016 C 
ATOM      3  C   LIG d   1       2.325  91.783 118.282  0.00  0.00     0.038 C 
ATOM      4  C   LIG d   1       1.719  92.626 119.225  0.00  0.00     0.028 C 
ATOM      5  C   LIG d   1       0.327  93.093 118.813  0.00  0.00    -0.047 C 
ATOM      6  C   LIG d   1      -0.520  91.860 118.422  0.00  0.00     0.091 C 
ENDROOT
BRANCH   1   7
ATOM      7  O   LIG d   1      -0.383  89.692 117.288  0.00  0.00    -0.368 OA
BRANCH   7   8
ATOM      8  C   LIG d   1       0.076  88.788 118.322  0.00  0.00     0.119 C 
BRANCH   8   9
ATOM      9  C   LIG d   1       0.721  87.575 117.624  0.00  0.00     0.028 C 
ATOM     10  C   LIG d   1       0.338  86.242 118.289  0.00  0.00     0.006 C 
ENDBRANCH   8   9
BRANCH   8  11
ATOM     11  C   LIG d   1      -1.097  88.217 119.124  0.00  0.00     0.028 C 
ATOM     12  C   LIG d   1      -2.464  88.632 118.558  0.00  0.00     0.006 C 
ENDBRANCH   8  11
ENDBRANCH   7   8
ENDBRANCH   1   7
BRANCH   6  13
ATOM     13  N   LIG d   1      -1.870  92.235 117.926  0.00  0.00    -0.311 N 
ATOM     14  C   LIG d   1      -2.950  92.281 118.704  0.00  0.00     0.210 C 
ATOM     15  C   LIG d   1      -4.247  92.671 117.988  0.00  0.00     0.109 C 
ATOM     16  O   LIG d   1      -2.951  92.067 119.926  0.00  0.00    -0.276 OA
ATOM     17  H   LIG d   1      -1.954  92.454 116.953  0.00  0.00     0.149 HD
ENDBRANCH   6  13
BRANCH   5  18
ATOM     18  N   LIG d   1      -0.242  93.850 119.944  0.00  0.00     0.381 N 
ATOM     19  H   LIG d   1       0.496  94.233 120.501  0.00  0.00    -0.090 HD
ATOM     20  H   LIG d   1      -0.777  93.222 120.519  0.00  0.00    -0.090 HD
ATOM     21  H   LIG d   1      -0.827  94.581 119.605  0.00  0.00    -0.090 HD
ENDBRANCH   5  18
BRANCH   3  22
ATOM     22  C   LIG d   1       3.708  91.795 118.180  0.00  0.00     0.382 C 
ATOM     23  O   LIG d   1       4.412  91.455 119.161  0.00  0.00    -0.241 OA
ATOM     24  O   LIG d   1       4.261  92.184 117.134  0.00  0.00    -0.241 OA
ENDBRANCH   3  22
TORSDOF 7
ENDMDL
