MODEL 1
REMARK VINA RESULT:      -5.8      0.000      0.000
REMARK  7 active torsions:
REMARK  status: ('A' for Active; 'I' for Inactive)
REMARK    1  A    between atoms: C_2  and  C_3 
REMARK    2  A    between atoms: C_3  and  O_6 
REMARK    3  A    between atoms: C_3  and  C_4 
REMARK    4  A    between atoms: C_7  and  O_6 
REMARK    5  A    between atoms: C_9  and  C_10 
REMARK    6  A    between atoms: N_15  and  C_14 
REMARK    7  A    between atoms: N_20  and  C_19 
REMARK       I    between atoms: C_22  and  N_20 
ROOT
ATOM      1  C   LIG d   1      -2.551  78.045 114.577  0.00  0.00     0.161 C 
ATOM      2  C   LIG d   1      -2.821  79.203 113.829  0.00  0.00     0.016 C 
ATOM      3  C   LIG d   1      -1.847  80.185 113.536  0.00  0.00     0.038 C 
ATOM      4  C   LIG d   1      -0.491  79.999 113.844  0.00  0.00     0.028 C 
ATOM      5  C   LIG d   1      -0.262  79.081 115.040  0.00  0.00    -0.047 C 
ATOM      6  C   LIG d   1      -1.053  77.771 114.827  0.00  0.00     0.091 C 
ENDROOT
BRANCH   1   7
ATOM      7  O   LIG d   1      -3.172  76.904 113.953  0.00  0.00    -0.368 OA
BRANCH   7   8
ATOM      8  C   LIG d   1      -4.380  76.412 114.583  0.00  0.00     0.119 C 
BRANCH   8   9
ATOM      9  C   LIG d   1      -4.512  77.118 115.946  0.00  0.00     0.028 C 
ATOM     10  C   LIG d   1      -5.891  77.771 116.137  0.00  0.00     0.006 C 
ENDBRANCH   8   9
BRANCH   8  11
ATOM     11  C   LIG d   1      -4.270  74.919 114.909  0.00  0.00     0.028 C 
ATOM     12  C   LIG d   1      -5.630  74.276 115.223  0.00  0.00     0.006 C 
ENDBRANCH   8  11
ENDBRANCH   7   8
ENDBRANCH   1   7
BRANCH   6  13
ATOM     13  N   LIG d   1      -0.952  76.852 115.990  0.00  0.00    -0.311 N 
ATOM     14  C   LIG d   1      -0.750  75.540 115.873  0.00  0.00     0.210 C 
ATOM     15  C   LIG d   1      -0.697  74.773 117.198  0.00  0.00     0.109 C 
ATOM     16  O   LIG d   1      -0.577  74.945 114.799  0.00  0.00    -0.276 OA
ATOM     17  H   LIG d   1      -1.049  77.256 116.901  0.00  0.00     0.149 HD
ENDBRANCH   6  13
BRANCH   5  18
ATOM     18  N   LIG d   1       1.192  78.865 115.164  0.00  0.00     0.381 N 
ATOM     19  H   LIG d   1       1.446  78.004 114.722  0.00  0.00    -0.090 HD
ATOM     20  H   LIG d   1       1.430  78.802 116.138  0.00  0.00    -0.090 HD
ATOM     21  H   LIG d   1       1.687  79.621 114.743  0.00  0.00    -0.090 HD
ENDBRANCH   5  18
BRANCH   3  22
ATOM     22  C   LIG d   1      -2.233  81.386 112.961  0.00  0.00     0.382 C 
ATOM     23  O   LIG d   1      -1.412  82.331 112.873  0.00  0.00    -0.241 OA
ATOM     24  O   LIG d   1      -3.404  81.552 112.571  0.00  0.00    -0.241 OA
ENDBRANCH   3  22
TORSDOF 7
ENDMDL
MODEL 2
REMARK VINA RESULT:      -5.6      1.618      2.038
REMARK  7 active torsions:
REMARK  status: ('A' for Active; 'I' for Inactive)
REMARK    1  A    between atoms: C_2  and  C_3 
REMARK    2  A    between atoms: C_3  and  O_6 
REMARK    3  A    between atoms: C_3  and  C_4 
REMARK    4  A    between atoms: C_7  and  O_6 
REMARK    5  A    between atoms: C_9  and  C_10 
REMARK    6  A    between atoms: N_15  and  C_14 
REMARK    7  A    between atoms: N_20  and  C_19 
REMARK       I    between atoms: C_22  and  N_20 
ROOT
ATOM      1  C   LIG d   1      -2.278  78.760 115.915  0.00  0.00     0.161 C 
ATOM      2  C   LIG d   1      -2.506  79.922 115.160  0.00  0.00     0.016 C 
ATOM      3  C   LIG d   1      -2.277  80.002 113.767  0.00  0.00     0.038 C 
ATOM      4  C   LIG d   1      -1.944  78.872 113.004  0.00  0.00     0.028 C 
ATOM      5  C   LIG d   1      -1.214  77.797 113.801  0.00  0.00    -0.047 C 
ATOM      6  C   LIG d   1      -2.022  77.487 115.082  0.00  0.00     0.091 C 
ENDROOT
BRANCH   1   7
ATOM      7  O   LIG d   1      -3.372  78.549 116.829  0.00  0.00    -0.368 OA
BRANCH   7   8
ATOM      8  C   LIG d   1      -4.692  78.470 116.237  0.00  0.00     0.119 C 
BRANCH   8   9
ATOM      9  C   LIG d   1      -5.657  79.251 117.150  0.00  0.00     0.028 C 
ATOM     10  C   LIG d   1      -5.396  80.766 117.121  0.00  0.00     0.006 C 
ENDBRANCH   8   9
BRANCH   8  11
ATOM     11  C   LIG d   1      -5.215  77.031 116.230  0.00  0.00     0.028 C 
ATOM     12  C   LIG d   1      -5.679  76.571 114.838  0.00  0.00     0.006 C 
ENDBRANCH   8  11
ENDBRANCH   7   8
ENDBRANCH   1   7
BRANCH   6  13
ATOM     13  N   LIG d   1      -1.335  76.505 115.962  0.00  0.00    -0.311 N 
ATOM     14  C   LIG d   1      -1.638  75.208 115.989  0.00  0.00     0.210 C 
ATOM     15  C   LIG d   1      -0.822  74.374 116.982  0.00  0.00     0.109 C 
ATOM     16  O   LIG d   1      -2.482  74.663 115.262  0.00  0.00    -0.276 OA
ATOM     17  H   LIG d   1      -0.615  76.856 116.562  0.00  0.00     0.149 HD
ENDBRANCH   6  13
BRANCH   5  18
ATOM     18  N   LIG d   1      -1.052  76.623 112.922  0.00  0.00     0.381 N 
ATOM     19  H   LIG d   1      -1.892  76.080 112.924  0.00  0.00    -0.090 HD
ATOM     20  H   LIG d   1      -0.305  76.052 113.277  0.00  0.00    -0.090 HD
ATOM     21  H   LIG d   1      -0.842  76.919 111.994  0.00  0.00    -0.090 HD
ENDBRANCH   5  18
BRANCH   3  22
ATOM     22  C   LIG d   1      -2.340  81.232 113.129  0.00  0.00     0.382 C 
ATOM     23  O   LIG d   1      -1.350  82.001 113.151  0.00  0.00    -0.241 OA
ATOM     24  O   LIG d   1      -3.391  81.600 112.571  0.00  0.00    -0.241 OA
ENDBRANCH   3  22
TORSDOF 7
ENDMDL
MODEL 3
REMARK VINA RESULT:      -5.1      1.793      2.087
REMARK  7 active torsions:
REMARK  status: ('A' for Active; 'I' for Inactive)
REMARK    1  A    between atoms: C_2  and  C_3 
REMARK    2  A    between atoms: C_3  and  O_6 
REMARK    3  A    between atoms: C_3  and  C_4 
REMARK    4  A    between atoms: C_7  and  O_6 
REMARK    5  A    between atoms: C_9  and  C_10 
REMARK    6  A    between atoms: N_15  and  C_14 
REMARK    7  A    between atoms: N_20  and  C_19 
REMARK       I    between atoms: C_22  and  N_20 
ROOT
ATOM      1  C   LIG d   1      -2.316  79.318 116.188  0.00  0.00     0.161 C 
ATOM      2  C   LIG d   1      -2.708  80.046 115.052  0.00  0.00     0.016 C 
ATOM      3  C   LIG d   1      -1.798  80.512 114.075  0.00  0.00     0.038 C 
ATOM      4  C   LIG d   1      -0.443  80.149 114.091  0.00  0.00     0.028 C 
ATOM      5  C   LIG d   1       0.085  79.840 115.487  0.00  0.00    -0.047 C 
ATOM      6  C   LIG d   1      -0.857  78.818 116.165  0.00  0.00     0.091 C 
ENDROOT
BRANCH   1   7
ATOM      7  O   LIG d   1      -3.220  78.215 116.397  0.00  0.00    -0.368 OA
BRANCH   7   8
ATOM      8  C   LIG d   1      -3.890  77.707 115.217  0.00  0.00     0.119 C 
BRANCH   8   9
ATOM      9  C   LIG d   1      -5.335  77.357 115.621  0.00  0.00     0.028 C 
ATOM     10  C   LIG d   1      -6.030  76.455 114.587  0.00  0.00     0.006 C 
ENDBRANCH   8   9
BRANCH   8  11
ATOM     11  C   LIG d   1      -3.268  76.389 114.748  0.00  0.00     0.028 C 
ATOM     12  C   LIG d   1      -2.625  75.592 115.894  0.00  0.00     0.006 C 
ENDBRANCH   8  11
ENDBRANCH   7   8
ENDBRANCH   1   7
BRANCH   6  13
ATOM     13  N   LIG d   1      -0.460  78.524 117.566  0.00  0.00    -0.311 N 
ATOM     14  C   LIG d   1       0.253  77.454 117.917  0.00  0.00     0.210 C 
ATOM     15  C   LIG d   1       0.536  77.330 119.418  0.00  0.00     0.109 C 
ATOM     16  O   LIG d   1       0.704  76.614 117.125  0.00  0.00    -0.276 OA
ATOM     17  H   LIG d   1      -0.757  79.170 118.270  0.00  0.00     0.149 HD
ENDBRANCH   6  13
BRANCH   5  18
ATOM     18  N   LIG d   1       1.467  79.344 115.342  0.00  0.00     0.381 N 
ATOM     19  H   LIG d   1       1.600  78.537 115.917  0.00  0.00    -0.090 HD
ATOM     20  H   LIG d   1       2.103  80.059 115.650  0.00  0.00    -0.090 HD
ATOM     21  H   LIG d   1       1.649  79.116 114.389  0.00  0.00    -0.090 HD
ENDBRANCH   5  18
BRANCH   3  22
ATOM     22  C   LIG d   1      -2.235  81.384 113.089  0.00  0.00     0.382 C 
ATOM     23  O   LIG d   1      -3.321  81.169 112.499  0.00  0.00    -0.241 OA
ATOM     24  O   LIG d   1      -1.536  82.358 112.752  0.00  0.00    -0.241 OA
ENDBRANCH   3  22
TORSDOF 7
ENDMDL
MODEL 4
REMARK VINA RESULT:      -4.9      2.198      5.103
REMARK  7 active torsions:
REMARK  status: ('A' for Active; 'I' for Inactive)
REMARK    1  A    between atoms: C_2  and  C_3 
REMARK    2  A    between atoms: C_3  and  O_6 
REMARK    3  A    between atoms: C_3  and  C_4 
REMARK    4  A    between atoms: C_7  and  O_6 
REMARK    5  A    between atoms: C_9  and  C_10 
REMARK    6  A    between atoms: N_15  and  C_14 
REMARK    7  A    between atoms: N_20  and  C_19 
REMARK       I    between atoms: C_22  and  N_20 
ROOT
ATOM      1  C   LIG d   1      -1.379  77.920 115.183  0.00  0.00     0.161 C 
ATOM      2  C   LIG d   1      -2.681  77.571 114.786  0.00  0.00     0.016 C 
ATOM      3  C   LIG d   1      -3.226  76.277 114.956  0.00  0.00     0.038 C 
ATOM      4  C   LIG d   1      -2.553  75.278 115.676  0.00  0.00     0.028 C 
ATOM      5  C   LIG d   1      -1.036  75.431 115.652  0.00  0.00    -0.047 C 
ATOM      6  C   LIG d   1      -0.671  76.874 116.070  0.00  0.00     0.091 C 
ENDROOT
BRANCH   1   7
ATOM      7  O   LIG d   1      -1.396  79.204 115.838  0.00  0.00    -0.368 OA
BRANCH   7   8
ATOM      8  C   LIG d   1      -1.003  80.338 115.026  0.00  0.00     0.119 C 
BRANCH   8   9
ATOM      9  C   LIG d   1      -2.265  80.851 114.305  0.00  0.00     0.028 C 
ATOM     10  C   LIG d   1      -1.997  81.205 112.833  0.00  0.00     0.006 C 
ENDBRANCH   8   9
BRANCH   8  11
ATOM     11  C   LIG d   1      -0.041  79.919 113.911  0.00  0.00     0.028 C 
ATOM     12  C   LIG d   1       1.409  80.352 114.180  0.00  0.00     0.006 C 
ENDBRANCH   8  11
ENDBRANCH   7   8
ENDBRANCH   1   7
BRANCH   6  13
ATOM     13  N   LIG d   1       0.790  77.134 115.993  0.00  0.00    -0.311 N 
ATOM     14  C   LIG d   1       1.470  77.784 116.936  0.00  0.00     0.210 C 
ATOM     15  C   LIG d   1       2.964  77.961 116.650  0.00  0.00     0.109 C 
ATOM     16  O   LIG d   1       0.983  78.201 117.998  0.00  0.00    -0.276 OA
ATOM     17  H   LIG d   1       1.270  76.803 115.179  0.00  0.00     0.149 HD
ENDBRANCH   6  13
BRANCH   5  18
ATOM     18  N   LIG d   1      -0.471  74.409 116.552  0.00  0.00     0.381 N 
ATOM     19  H   LIG d   1      -1.173  73.733 116.780  0.00  0.00    -0.090 HD
ATOM     20  H   LIG d   1      -0.173  74.853 117.403  0.00  0.00    -0.090 HD
ATOM     21  H   LIG d   1       0.303  73.959 116.114  0.00  0.00    -0.090 HD
ENDBRANCH   5  18
BRANCH   3  22
ATOM     22  C   LIG d   1      -4.440  75.960 114.367  0.00  0.00     0.382 C 
ATOM     23  O   LIG d   1      -4.723  74.763 114.119  0.00  0.00    -0.241 OA
ATOM     24  O   LIG d   1      -5.237  76.859 114.040  0.00  0.00    -0.241 OA
ENDBRANCH   3  22
TORSDOF 7
ENDMDL
MODEL 5
REMARK VINA RESULT:      -4.9      2.758      6.076
REMARK  7 active torsions:
REMARK  status: ('A' for Active; 'I' for Inactive)
REMARK    1  A    between atoms: C_2  and  C_3 
REMARK    2  A    between atoms: C_3  and  O_6 
REMARK    3  A    between atoms: C_3  and  C_4 
REMARK    4  A    between atoms: C_7  and  O_6 
REMARK    5  A    between atoms: C_9  and  C_10 
REMARK    6  A    between atoms: N_15  and  C_14 
REMARK    7  A    between atoms: N_20  and  C_19 
REMARK       I    between atoms: C_22  and  N_20 
ROOT
ATOM      1  C   LIG d   1      -3.036  77.101 115.659  0.00  0.00     0.161 C 
ATOM      2  C   LIG d   1      -3.550  75.882 115.187  0.00  0.00     0.016 C 
ATOM      3  C   LIG d   1      -4.914  75.523 115.283  0.00  0.00     0.038 C 
ATOM      4  C   LIG d   1      -5.890  76.429 115.725  0.00  0.00     0.028 C 
ATOM      5  C   LIG d   1      -5.347  77.486 116.680  0.00  0.00    -0.047 C 
ATOM      6  C   LIG d   1      -4.103  78.147 116.043  0.00  0.00     0.091 C 
ENDROOT
BRANCH   1   7
ATOM      7  O   LIG d   1      -2.119  77.652 114.692  0.00  0.00    -0.368 OA
BRANCH   7   8
ATOM      8  C   LIG d   1      -2.664  78.648 113.792  0.00  0.00     0.119 C 
BRANCH   8   9
ATOM      9  C   LIG d   1      -2.691  78.031 112.381  0.00  0.00     0.028 C 
ATOM     10  C   LIG d   1      -1.411  77.239 112.062  0.00  0.00     0.006 C 
ENDBRANCH   8   9
BRANCH   8  11
ATOM     11  C   LIG d   1      -1.743  79.866 113.686  0.00  0.00     0.028 C 
ATOM     12  C   LIG d   1      -2.467  81.118 113.166  0.00  0.00     0.006 C 
ENDBRANCH   8  11
ENDBRANCH   7   8
ENDBRANCH   1   7
BRANCH   6  13
ATOM     13  N   LIG d   1      -3.460  79.135 116.948  0.00  0.00    -0.311 N 
ATOM     14  C   LIG d   1      -3.742  80.437 116.932  0.00  0.00     0.210 C 
ATOM     15  C   LIG d   1      -2.950  81.282 117.934  0.00  0.00     0.109 C 
ATOM     16  O   LIG d   1      -4.596  80.966 116.205  0.00  0.00    -0.276 OA
ATOM     17  H   LIG d   1      -2.777  78.786 117.591  0.00  0.00     0.149 HD
ENDBRANCH   6  13
BRANCH   5  18
ATOM     18  N   LIG d   1      -6.435  78.443 116.952  0.00  0.00     0.381 N 
ATOM     19  H   LIG d   1      -7.151  77.998 117.491  0.00  0.00    -0.090 HD
ATOM     20  H   LIG d   1      -6.835  78.737 116.078  0.00  0.00    -0.090 HD
ATOM     21  H   LIG d   1      -6.081  79.232 117.445  0.00  0.00    -0.090 HD
ENDBRANCH   5  18
BRANCH   3  22
ATOM     22  C   LIG d   1      -5.308  74.230 114.972  0.00  0.00     0.382 C 
ATOM     23  O   LIG d   1      -4.851  73.664 113.950  0.00  0.00    -0.241 OA
ATOM     24  O   LIG d   1      -6.149  73.640 115.675  0.00  0.00    -0.241 OA
ENDBRANCH   3  22
TORSDOF 7
ENDMDL
MODEL 6
REMARK VINA RESULT:      -4.9     12.324     14.494
REMARK  7 active torsions:
REMARK  status: ('A' for Active; 'I' for Inactive)
REMARK    1  A    between atoms: C_2  and  C_3 
REMARK    2  A    between atoms: C_3  and  O_6 
REMARK    3  A    between atoms: C_3  and  C_4 
REMARK    4  A    between atoms: C_7  and  O_6 
REMARK    5  A    between atoms: C_9  and  C_10 
REMARK    6  A    between atoms: N_15  and  C_14 
REMARK    7  A    between atoms: N_20  and  C_19 
REMARK       I    between atoms: C_22  and  N_20 
ROOT
ATOM      1  C   LIG d   1      11.378  75.631 115.350  0.00  0.00     0.161 C 
ATOM      2  C   LIG d   1      10.042  76.011 115.560  0.00  0.00     0.016 C 
ATOM      3  C   LIG d   1       9.517  77.261 115.159  0.00  0.00     0.038 C 
ATOM      4  C   LIG d   1      10.258  78.162 114.380  0.00  0.00     0.028 C 
ATOM      5  C   LIG d   1      11.765  78.036 114.578  0.00  0.00    -0.047 C 
ATOM      6  C   LIG d   1      12.172  76.555 114.403  0.00  0.00     0.091 C 
ENDROOT
BRANCH   1   7
ATOM      7  O   LIG d   1      11.430  74.269 114.881  0.00  0.00    -0.368 OA
BRANCH   7   8
ATOM      8  C   LIG d   1      11.898  73.284 115.834  0.00  0.00     0.119 C 
BRANCH   8   9
ATOM      9  C   LIG d   1      12.804  72.296 115.073  0.00  0.00     0.028 C 
ATOM     10  C   LIG d   1      14.280  72.727 115.085  0.00  0.00     0.006 C 
ENDBRANCH   8   9
BRANCH   8  11
ATOM     11  C   LIG d   1      10.741  72.438 116.375  0.00  0.00     0.028 C 
ATOM     12  C   LIG d   1      10.181  71.458 115.331  0.00  0.00     0.006 C 
ENDBRANCH   8  11
ENDBRANCH   7   8
ENDBRANCH   1   7
BRANCH   6  13
ATOM     13  N   LIG d   1      13.618  76.330 114.663  0.00  0.00    -0.311 N 
ATOM     14  C   LIG d   1      14.545  76.340 113.707  0.00  0.00     0.210 C 
ATOM     15  C   LIG d   1      15.973  76.066 114.188  0.00  0.00     0.109 C 
ATOM     16  O   LIG d   1      14.325  76.581 112.511  0.00  0.00    -0.276 OA
ATOM     17  H   LIG d   1      13.889  76.158 115.611  0.00  0.00     0.149 HD
ENDBRANCH   6  13
BRANCH   5  18
ATOM     18  N   LIG d   1      12.419  78.934 113.607  0.00  0.00     0.381 N 
ATOM     19  H   LIG d   1      12.357  78.542 112.689  0.00  0.00    -0.090 HD
ATOM     20  H   LIG d   1      13.390  79.021 113.848  0.00  0.00    -0.090 HD
ATOM     21  H   LIG d   1      11.983  79.829 113.624  0.00  0.00    -0.090 HD
ENDBRANCH   5  18
BRANCH   3  22
ATOM     22  C   LIG d   1       8.248  77.638 115.572  0.00  0.00     0.382 C 
ATOM     23  O   LIG d   1       7.266  77.479 114.807  0.00  0.00    -0.241 OA
ATOM     24  O   LIG d   1       8.079  78.174 116.684  0.00  0.00    -0.241 OA
ENDBRANCH   3  22
TORSDOF 7
ENDMDL
MODEL 7
REMARK VINA RESULT:      -4.8     10.111     12.282
REMARK  7 active torsions:
REMARK  status: ('A' for Active; 'I' for Inactive)
REMARK    1  A    between atoms: C_2  and  C_3 
REMARK    2  A    between atoms: C_3  and  O_6 
REMARK    3  A    between atoms: C_3  and  C_4 
REMARK    4  A    between atoms: C_7  and  O_6 
REMARK    5  A    between atoms: C_9  and  C_10 
REMARK    6  A    between atoms: N_15  and  C_14 
REMARK    7  A    between atoms: N_20  and  C_19 
REMARK       I    between atoms: C_22  and  N_20 
ROOT
ATOM      1  C   LIG d   1       1.921  88.144 115.656  0.00  0.00     0.161 C 
ATOM      2  C   LIG d   1       0.814  88.183 116.520  0.00  0.00     0.016 C 
ATOM      3  C   LIG d   1       0.633  89.178 117.509  0.00  0.00     0.038 C 
ATOM      4  C   LIG d   1       1.479  90.294 117.601  0.00  0.00     0.028 C 
ATOM      5  C   LIG d   1       2.888  90.030 117.083  0.00  0.00    -0.047 C 
ATOM      6  C   LIG d   1       2.796  89.414 115.668  0.00  0.00     0.091 C 
ENDROOT
BRANCH   1   7
ATOM      7  O   LIG d   1       1.484  87.848 114.315  0.00  0.00    -0.368 OA
BRANCH   7   8
ATOM      8  C   LIG d   1       1.498  86.451 113.933  0.00  0.00     0.119 C 
BRANCH   8   9
ATOM      9  C   LIG d   1       2.961  85.970 113.992  0.00  0.00     0.028 C 
ATOM     10  C   LIG d   1       3.647  86.008 112.616  0.00  0.00     0.006 C 
ENDBRANCH   8   9
BRANCH   8  11
ATOM     11  C   LIG d   1       1.069  86.267 112.475  0.00  0.00     0.028 C 
ATOM     12  C   LIG d   1      -0.457  86.283 112.296  0.00  0.00     0.006 C 
ENDBRANCH   8  11
ENDBRANCH   7   8
ENDBRANCH   1   7
BRANCH   6  13
ATOM     13  N   LIG d   1       4.129  89.048 115.121  0.00  0.00    -0.311 N 
ATOM     14  C   LIG d   1       4.544  89.398 113.905  0.00  0.00     0.210 C 
ATOM     15  C   LIG d   1       5.943  88.900 113.531  0.00  0.00     0.109 C 
ATOM     16  O   LIG d   1       3.899  90.101 113.113  0.00  0.00    -0.276 OA
ATOM     17  H   LIG d   1       4.729  88.504 115.709  0.00  0.00     0.149 HD
ENDBRANCH   6  13
BRANCH   5  18
ATOM     18  N   LIG d   1       3.620  91.311 117.109  0.00  0.00     0.381 N 
ATOM     19  H   LIG d   1       3.971  91.520 116.196  0.00  0.00    -0.090 HD
ATOM     20  H   LIG d   1       4.401  91.226 117.735  0.00  0.00    -0.090 HD
ATOM     21  H   LIG d   1       3.016  92.042 117.416  0.00  0.00    -0.090 HD
ENDBRANCH   5  18
BRANCH   3  22
ATOM     22  C   LIG d   1      -0.380  89.040 118.445  0.00  0.00     0.382 C 
ATOM     23  O   LIG d   1      -1.348  89.838 118.443  0.00  0.00    -0.241 OA
ATOM     24  O   LIG d   1      -0.316  88.156 119.320  0.00  0.00    -0.241 OA
ENDBRANCH   3  22
TORSDOF 7
ENDMDL
MODEL 8
REMARK VINA RESULT:      -4.8     17.503     20.412
REMARK  7 active torsions:
REMARK  status: ('A' for Active; 'I' for Inactive)
REMARK    1  A    between atoms: C_2  and  C_3 
REMARK    2  A    between atoms: C_3  and  O_6 
REMARK    3  A    between atoms: C_3  and  C_4 
REMARK    4  A    between atoms: C_7  and  O_6 
REMARK    5  A    between atoms: C_9  and  C_10 
REMARK    6  A    between atoms: N_15  and  C_14 
REMARK    7  A    between atoms: N_20  and  C_19 
REMARK       I    between atoms: C_22  and  N_20 
ROOT
ATOM      1  C   LIG d   1     -16.385  63.685 116.789  0.00  0.00     0.161 C 
ATOM      2  C   LIG d   1     -16.575  62.415 116.219  0.00  0.00     0.016 C 
ATOM      3  C   LIG d   1     -16.933  62.214 114.866  0.00  0.00     0.038 C 
ATOM      4  C   LIG d   1     -16.978  63.272 113.947  0.00  0.00     0.028 C 
ATOM      5  C   LIG d   1     -17.288  64.620 114.589  0.00  0.00    -0.047 C 
ATOM      6  C   LIG d   1     -16.321  64.845 115.774  0.00  0.00     0.091 C 
ENDROOT
BRANCH   1   7
ATOM      7  O   LIG d   1     -15.205  63.678 117.616  0.00  0.00    -0.368 OA
BRANCH   7   8
ATOM      8  C   LIG d   1     -15.400  64.038 119.006  0.00  0.00     0.119 C 
BRANCH   8   9
ATOM      9  C   LIG d   1     -14.218  64.937 119.421  0.00  0.00     0.028 C 
ATOM     10  C   LIG d   1     -14.660  66.116 120.304  0.00  0.00     0.006 C 
ENDBRANCH   8   9
BRANCH   8  11
ATOM     11  C   LIG d   1     -15.315  62.810 119.918  0.00  0.00     0.028 C 
ATOM     12  C   LIG d   1     -16.666  62.098 120.084  0.00  0.00     0.006 C 
ENDBRANCH   8  11
ENDBRANCH   7   8
ENDBRANCH   1   7
BRANCH   6  13
ATOM     13  N   LIG d   1     -16.611  66.103 116.510  0.00  0.00    -0.311 N 
ATOM     14  C   LIG d   1     -15.684  67.015 116.797  0.00  0.00     0.210 C 
ATOM     15  C   LIG d   1     -16.191  68.229 117.581  0.00  0.00     0.109 C 
ATOM     16  O   LIG d   1     -14.495  66.949 116.448  0.00  0.00    -0.276 OA
ATOM     17  H   LIG d   1     -17.557  66.253 116.804  0.00  0.00     0.149 HD
ENDBRANCH   6  13
BRANCH   5  18
ATOM     18  N   LIG d   1     -17.169  65.651 113.541  0.00  0.00     0.381 N 
ATOM     19  H   LIG d   1     -16.502  65.360 112.854  0.00  0.00    -0.090 HD
ATOM     20  H   LIG d   1     -16.839  66.503 113.959  0.00  0.00    -0.090 HD
ATOM     21  H   LIG d   1     -18.054  65.805 113.111  0.00  0.00    -0.090 HD
ENDBRANCH   5  18
BRANCH   3  22
ATOM     22  C   LIG d   1     -17.289  60.947 114.430  0.00  0.00     0.382 C 
ATOM     23  O   LIG d   1     -16.533  59.971 114.653  0.00  0.00    -0.241 OA
ATOM     24  O   LIG d   1     -18.336  60.774 113.778  0.00  0.00    -0.241 OA
ENDBRANCH   3  22
TORSDOF 7
ENDMDL
MODEL 9
REMARK VINA RESULT:      -4.7     17.226     20.454
REMARK  7 active torsions:
REMARK  status: ('A' for Active; 'I' for Inactive)
REMARK    1  A    between atoms: C_2  and  C_3 
REMARK    2  A    between atoms: C_3  and  O_6 
REMARK    3  A    between atoms: C_3  and  C_4 
REMARK    4  A    between atoms: C_7  and  O_6 
REMARK    5  A    between atoms: C_9  and  C_10 
REMARK    6  A    between atoms: N_15  and  C_14 
REMARK    7  A    between atoms: N_20  and  C_19 
REMARK       I    between atoms: C_22  and  N_20 
ROOT
ATOM      1  C   LIG d   1     -17.259  64.317 116.638  0.00  0.00     0.161 C 
ATOM      2  C   LIG d   1     -17.503  63.073 116.033  0.00  0.00     0.016 C 
ATOM      3  C   LIG d   1     -17.186  62.788 114.685  0.00  0.00     0.038 C 
ATOM      4  C   LIG d   1     -16.460  63.685 113.888  0.00  0.00     0.028 C 
ATOM      5  C   LIG d   1     -16.638  65.143 114.301  0.00  0.00    -0.047 C 
ATOM      6  C   LIG d   1     -16.367  65.272 115.817  0.00  0.00     0.091 C 
ENDROOT
BRANCH   1   7
ATOM      7  O   LIG d   1     -16.705  64.121 117.954  0.00  0.00    -0.368 OA
BRANCH   7   8
ATOM      8  C   LIG d   1     -15.937  62.907 118.147  0.00  0.00     0.119 C 
BRANCH   8   9
ATOM      9  C   LIG d   1     -16.340  62.317 119.512  0.00  0.00     0.028 C 
ATOM     10  C   LIG d   1     -17.730  61.661 119.481  0.00  0.00     0.006 C 
ENDBRANCH   8   9
BRANCH   8  11
ATOM     11  C   LIG d   1     -14.439  63.207 118.260  0.00  0.00     0.028 C 
ATOM     12  C   LIG d   1     -13.889  62.966 119.675  0.00  0.00     0.006 C 
ENDBRANCH   8  11
ENDBRANCH   7   8
ENDBRANCH   1   7
BRANCH   6  13
ATOM     13  N   LIG d   1     -16.601  66.651 116.319  0.00  0.00    -0.311 N 
ATOM     14  C   LIG d   1     -15.677  67.365 116.960  0.00  0.00     0.210 C 
ATOM     15  C   LIG d   1     -16.133  68.756 117.410  0.00  0.00     0.109 C 
ATOM     16  O   LIG d   1     -14.514  66.990 117.169  0.00  0.00    -0.276 OA
ATOM     17  H   LIG d   1     -17.509  67.044 116.165  0.00  0.00     0.149 HD
ENDBRANCH   6  13
BRANCH   5  18
ATOM     18  N   LIG d   1     -15.721  65.954 113.478  0.00  0.00     0.381 N 
ATOM     19  H   LIG d   1     -16.235  66.670 113.005  0.00  0.00    -0.090 HD
ATOM     20  H   LIG d   1     -15.295  65.362 112.787  0.00  0.00    -0.090 HD
ATOM     21  H   LIG d   1     -15.019  66.364 114.054  0.00  0.00    -0.090 HD
ENDBRANCH   5  18
BRANCH   3  22
ATOM     22  C   LIG d   1     -17.632  61.608 114.109  0.00  0.00     0.382 C 
ATOM     23  O   LIG d   1     -18.672  61.607 113.407  0.00  0.00    -0.241 OA
ATOM     24  O   LIG d   1     -17.033  60.536 114.319  0.00  0.00    -0.241 OA
ENDBRANCH   3  22
TORSDOF 7
ENDMDL
