MODEL 1
REMARK VINA RESULT:      -4.9      0.000      0.000
REMARK  7 active torsions:
REMARK  status: ('A' for Active; 'I' for Inactive)
REMARK    1  A    between atoms: C_2  and  C_3 
REMARK    2  A    between atoms: C_3  and  O_6 
REMARK    3  A    between atoms: C_3  and  C_4 
REMARK    4  A    between atoms: C_7  and  O_6 
REMARK    5  A    between atoms: C_9  and  C_10 
REMARK    6  A    between atoms: N_15  and  C_14 
REMARK    7  A    between atoms: N_20  and  C_19 
REMARK       I    between atoms: C_22  and  N_20 
ROOT
ATOM      1  C   LIG d   1       2.870  88.243 116.165  0.00  0.00     0.161 C 
ATOM      2  C   LIG d   1       3.248  89.083 117.225  0.00  0.00     0.016 C 
ATOM      3  C   LIG d   1       4.244  90.080 117.111  0.00  0.00     0.038 C 
ATOM      4  C   LIG d   1       4.828  90.407 115.878  0.00  0.00     0.028 C 
ATOM      5  C   LIG d   1       4.842  89.247 114.888  0.00  0.00    -0.047 C 
ATOM      6  C   LIG d   1       3.416  88.660 114.783  0.00  0.00     0.091 C 
ENDROOT
BRANCH   1   7
ATOM      7  O   LIG d   1       1.433  88.128 116.121  0.00  0.00    -0.368 OA
BRANCH   7   8
ATOM      8  C   LIG d   1       0.868  86.964 116.774  0.00  0.00     0.119 C 
BRANCH   8   9
ATOM      9  C   LIG d   1       0.625  85.897 115.689  0.00  0.00     0.028 C 
ATOM     10  C   LIG d   1       1.597  84.711 115.806  0.00  0.00     0.006 C 
ENDBRANCH   8   9
BRANCH   8  11
ATOM     11  C   LIG d   1      -0.515  87.271 117.358  0.00  0.00     0.028 C 
ATOM     12  C   LIG d   1      -0.905  86.317 118.498  0.00  0.00     0.006 C 
ENDBRANCH   8  11
ENDBRANCH   7   8
ENDBRANCH   1   7
BRANCH   6  13
ATOM     13  N   LIG d   1       3.358  87.467 113.898  0.00  0.00    -0.311 N 
ATOM     14  C   LIG d   1       2.586  87.394 112.816  0.00  0.00     0.210 C 
ATOM     15  C   LIG d   1       2.662  86.066 112.056  0.00  0.00     0.109 C 
ATOM     16  O   LIG d   1       1.870  88.315 112.395  0.00  0.00    -0.276 OA
ATOM     17  H   LIG d   1       3.932  86.685 114.149  0.00  0.00     0.149 HD
ENDBRANCH   6  13
BRANCH   5  18
ATOM     18  N   LIG d   1       5.350  89.764 113.603  0.00  0.00     0.381 N 
ATOM     19  H   LIG d   1       4.597  90.157 113.074  0.00  0.00    -0.090 HD
ATOM     20  H   LIG d   1       5.741  89.002 113.078  0.00  0.00    -0.090 HD
ATOM     21  H   LIG d   1       6.047  90.457 113.767  0.00  0.00    -0.090 HD
ENDBRANCH   5  18
BRANCH   3  22
ATOM     22  C   LIG d   1       4.695  90.734 118.248  0.00  0.00     0.382 C 
ATOM     23  O   LIG d   1       4.329  90.344 119.383  0.00  0.00    -0.241 OA
ATOM     24  O   LIG d   1       5.429  91.736 118.151  0.00  0.00    -0.241 OA
ENDBRANCH   3  22
TORSDOF 7
ENDMDL
MODEL 2
REMARK VINA RESULT:      -4.8     11.983     13.872
REMARK  7 active torsions:
REMARK  status: ('A' for Active; 'I' for Inactive)
REMARK    1  A    between atoms: C_2  and  C_3 
REMARK    2  A    between atoms: C_3  and  O_6 
REMARK    3  A    between atoms: C_3  and  C_4 
REMARK    4  A    between atoms: C_7  and  O_6 
REMARK    5  A    between atoms: C_9  and  C_10 
REMARK    6  A    between atoms: N_15  and  C_14 
REMARK    7  A    between atoms: N_20  and  C_19 
REMARK       I    between atoms: C_22  and  N_20 
ROOT
ATOM      1  C   LIG d   1      -3.313  75.722 116.013  0.00  0.00     0.161 C 
ATOM      2  C   LIG d   1      -2.989  75.107 117.234  0.00  0.00     0.016 C 
ATOM      3  C   LIG d   1      -1.768  75.322 117.914  0.00  0.00     0.038 C 
ATOM      4  C   LIG d   1      -0.845  76.291 117.492  0.00  0.00     0.028 C 
ATOM      5  C   LIG d   1      -0.902  76.570 115.994  0.00  0.00    -0.047 C 
ATOM      6  C   LIG d   1      -2.366  76.867 115.595  0.00  0.00     0.091 C 
ENDROOT
BRANCH   1   7
ATOM      7  O   LIG d   1      -4.676  76.188 116.048  0.00  0.00    -0.368 OA
BRANCH   7   8
ATOM      8  C   LIG d   1      -5.699  75.162 116.088  0.00  0.00     0.119 C 
BRANCH   8   9
ATOM      9  C   LIG d   1      -6.011  74.762 114.633  0.00  0.00     0.028 C 
ATOM     10  C   LIG d   1      -6.434  75.963 113.771  0.00  0.00     0.006 C 
ENDBRANCH   8   9
BRANCH   8  11
ATOM     11  C   LIG d   1      -7.015  75.710 116.649  0.00  0.00     0.028 C 
ATOM     12  C   LIG d   1      -6.831  77.020 117.431  0.00  0.00     0.006 C 
ENDBRANCH   8  11
ENDBRANCH   7   8
ENDBRANCH   1   7
BRANCH   6  13
ATOM     13  N   LIG d   1      -2.524  77.068 114.131  0.00  0.00    -0.311 N 
ATOM     14  C   LIG d   1      -2.838  78.241 113.582  0.00  0.00     0.210 C 
ATOM     15  C   LIG d   1      -2.971  78.225 112.056  0.00  0.00     0.109 C 
ATOM     16  O   LIG d   1      -2.986  79.299 114.211  0.00  0.00    -0.276 OA
ATOM     17  H   LIG d   1      -2.391  76.269 113.543  0.00  0.00     0.149 HD
ENDBRANCH   6  13
BRANCH   5  18
ATOM     18  N   LIG d   1       0.012  77.693 115.715  0.00  0.00     0.381 N 
ATOM     19  H   LIG d   1       0.957  77.366 115.702  0.00  0.00    -0.090 HD
ATOM     20  H   LIG d   1      -0.075  78.374 116.449  0.00  0.00    -0.090 HD
ATOM     21  H   LIG d   1      -0.216  78.109 114.838  0.00  0.00    -0.090 HD
ENDBRANCH   5  18
BRANCH   3  22
ATOM     22  C   LIG d   1      -1.443  74.535 119.008  0.00  0.00     0.382 C 
ATOM     23  O   LIG d   1      -1.672  73.301 118.983  0.00  0.00    -0.241 OA
ATOM     24  O   LIG d   1      -0.964  75.049 120.036  0.00  0.00    -0.241 OA
ENDBRANCH   3  22
TORSDOF 7
ENDMDL
MODEL 3
REMARK VINA RESULT:      -4.8     27.912     29.103
REMARK  7 active torsions:
REMARK  status: ('A' for Active; 'I' for Inactive)
REMARK    1  A    between atoms: C_2  and  C_3 
REMARK    2  A    between atoms: C_3  and  O_6 
REMARK    3  A    between atoms: C_3  and  C_4 
REMARK    4  A    between atoms: C_7  and  O_6 
REMARK    5  A    between atoms: C_9  and  C_10 
REMARK    6  A    between atoms: N_15  and  C_14 
REMARK    7  A    between atoms: N_20  and  C_19 
REMARK       I    between atoms: C_22  and  N_20 
ROOT
ATOM      1  C   LIG d   1       1.178  59.529 118.786  0.00  0.00     0.161 C 
ATOM      2  C   LIG d   1       2.419  60.070 119.160  0.00  0.00     0.016 C 
ATOM      3  C   LIG d   1       3.437  60.398 118.234  0.00  0.00     0.038 C 
ATOM      4  C   LIG d   1       3.222  60.346 116.849  0.00  0.00     0.028 C 
ATOM      5  C   LIG d   1       2.163  59.329 116.437  0.00  0.00    -0.047 C 
ATOM      6  C   LIG d   1       0.885  59.570 117.272  0.00  0.00     0.091 C 
ENDROOT
BRANCH   1   7
ATOM      7  O   LIG d   1       0.121  60.179 119.519  0.00  0.00    -0.368 OA
BRANCH   7   8
ATOM      8  C   LIG d   1      -0.737  59.314 120.303  0.00  0.00     0.119 C 
BRANCH   8   9
ATOM      9  C   LIG d   1      -0.158  57.888 120.218  0.00  0.00     0.028 C 
ATOM     10  C   LIG d   1      -1.236  56.834 119.913  0.00  0.00     0.006 C 
ENDBRANCH   8   9
BRANCH   8  11
ATOM     11  C   LIG d   1      -2.139  59.219 119.695  0.00  0.00     0.028 C 
ATOM     12  C   LIG d   1      -2.582  60.524 119.014  0.00  0.00     0.006 C 
ENDBRANCH   8  11
ENDBRANCH   7   8
ENDBRANCH   1   7
BRANCH   6  13
ATOM     13  N   LIG d   1      -0.173  58.565 116.991  0.00  0.00    -0.311 N 
ATOM     14  C   LIG d   1      -1.001  58.642 115.951  0.00  0.00     0.210 C 
ATOM     15  C   LIG d   1      -2.031  57.512 115.858  0.00  0.00     0.109 C 
ATOM     16  O   LIG d   1      -0.960  59.523 115.078  0.00  0.00    -0.276 OA
ATOM     17  H   LIG d   1      -0.256  57.799 117.632  0.00  0.00     0.149 HD
ENDBRANCH   6  13
BRANCH   5  18
ATOM     18  N   LIG d   1       1.943  59.478 114.986  0.00  0.00     0.381 N 
ATOM     19  H   LIG d   1       2.816  59.643 114.526  0.00  0.00    -0.090 HD
ATOM     20  H   LIG d   1       1.349  60.272 114.827  0.00  0.00    -0.090 HD
ATOM     21  H   LIG d   1       1.516  58.656 114.620  0.00  0.00    -0.090 HD
ENDBRANCH   5  18
BRANCH   3  22
ATOM     22  C   LIG d   1       4.698  60.744 118.694  0.00  0.00     0.382 C 
ATOM     23  O   LIG d   1       5.419  61.520 118.021  0.00  0.00    -0.241 OA
ATOM     24  O   LIG d   1       5.142  60.255 119.750  0.00  0.00    -0.241 OA
ENDBRANCH   3  22
TORSDOF 7
ENDMDL
MODEL 4
REMARK VINA RESULT:      -4.6     12.107     14.283
REMARK  7 active torsions:
REMARK  status: ('A' for Active; 'I' for Inactive)
REMARK    1  A    between atoms: C_2  and  C_3 
REMARK    2  A    between atoms: C_3  and  O_6 
REMARK    3  A    between atoms: C_3  and  C_4 
REMARK    4  A    between atoms: C_7  and  O_6 
REMARK    5  A    between atoms: C_9  and  C_10 
REMARK    6  A    between atoms: N_15  and  C_14 
REMARK    7  A    between atoms: N_20  and  C_19 
REMARK       I    between atoms: C_22  and  N_20 
ROOT
ATOM      1  C   LIG d   1      -5.568  76.931 117.982  0.00  0.00     0.161 C 
ATOM      2  C   LIG d   1      -6.444  78.015 117.803  0.00  0.00     0.016 C 
ATOM      3  C   LIG d   1      -6.046  79.366 117.929  0.00  0.00     0.038 C 
ATOM      4  C   LIG d   1      -4.702  79.731 118.096  0.00  0.00     0.028 C 
ATOM      5  C   LIG d   1      -3.864  78.659 118.785  0.00  0.00    -0.047 C 
ATOM      6  C   LIG d   1      -4.074  77.312 118.055  0.00  0.00     0.091 C 
ENDROOT
BRANCH   1   7
ATOM      7  O   LIG d   1      -5.785  75.951 116.948  0.00  0.00    -0.368 OA
BRANCH   7   8
ATOM      8  C   LIG d   1      -6.740  76.310 115.920  0.00  0.00     0.119 C 
BRANCH   8   9
ATOM      9  C   LIG d   1      -7.968  75.394 116.088  0.00  0.00     0.028 C 
ATOM     10  C   LIG d   1      -7.590  73.995 116.602  0.00  0.00     0.006 C 
ENDBRANCH   8   9
BRANCH   8  11
ATOM     11  C   LIG d   1      -6.194  76.005 114.521  0.00  0.00     0.028 C 
ATOM     12  C   LIG d   1      -4.679  75.745 114.517  0.00  0.00     0.006 C 
ENDBRANCH   8  11
ENDBRANCH   7   8
ENDBRANCH   1   7
BRANCH   6  13
ATOM     13  N   LIG d   1      -3.356  76.192 118.716  0.00  0.00    -0.311 N 
ATOM     14  C   LIG d   1      -2.472  75.417 118.090  0.00  0.00     0.210 C 
ATOM     15  C   LIG d   1      -1.861  74.306 118.951  0.00  0.00     0.109 C 
ATOM     16  O   LIG d   1      -2.111  75.564 116.913  0.00  0.00    -0.276 OA
ATOM     17  H   LIG d   1      -3.565  76.021 119.680  0.00  0.00     0.149 HD
ENDBRANCH   6  13
BRANCH   5  18
ATOM     18  N   LIG d   1      -2.461  79.112 118.770  0.00  0.00     0.381 N 
ATOM     19  H   LIG d   1      -1.868  78.368 118.460  0.00  0.00    -0.090 HD
ATOM     20  H   LIG d   1      -2.190  79.363 119.704  0.00  0.00    -0.090 HD
ATOM     21  H   LIG d   1      -2.363  79.898 118.166  0.00  0.00    -0.090 HD
ENDBRANCH   5  18
BRANCH   3  22
ATOM     22  C   LIG d   1      -7.005  80.367 117.928  0.00  0.00     0.382 C 
ATOM     23  O   LIG d   1      -6.854  81.379 117.202  0.00  0.00    -0.241 OA
ATOM     24  O   LIG d   1      -7.998  80.292 118.677  0.00  0.00    -0.241 OA
ENDBRANCH   3  22
TORSDOF 7
ENDMDL
MODEL 5
REMARK VINA RESULT:      -4.5      9.759     12.182
REMARK  7 active torsions:
REMARK  status: ('A' for Active; 'I' for Inactive)
REMARK    1  A    between atoms: C_2  and  C_3 
REMARK    2  A    between atoms: C_3  and  O_6 
REMARK    3  A    between atoms: C_3  and  C_4 
REMARK    4  A    between atoms: C_7  and  O_6 
REMARK    5  A    between atoms: C_9  and  C_10 
REMARK    6  A    between atoms: N_15  and  C_14 
REMARK    7  A    between atoms: N_20  and  C_19 
REMARK       I    between atoms: C_22  and  N_20 
ROOT
ATOM      1  C   LIG d   1      -3.293  78.272 116.563  0.00  0.00     0.161 C 
ATOM      2  C   LIG d   1      -2.278  79.162 116.950  0.00  0.00     0.016 C 
ATOM      3  C   LIG d   1      -0.970  79.133 116.413  0.00  0.00     0.038 C 
ATOM      4  C   LIG d   1      -0.630  78.302 115.335  0.00  0.00     0.028 C 
ATOM      5  C   LIG d   1      -1.479  77.037 115.254  0.00  0.00    -0.047 C 
ATOM      6  C   LIG d   1      -2.972  77.431 115.309  0.00  0.00     0.091 C 
ENDROOT
BRANCH   1   7
ATOM      7  O   LIG d   1      -4.530  78.990 116.382  0.00  0.00    -0.368 OA
BRANCH   7   8
ATOM      8  C   LIG d   1      -5.407  79.049 117.534  0.00  0.00     0.119 C 
BRANCH   8   9
ATOM      9  C   LIG d   1      -6.573  78.074 117.278  0.00  0.00     0.028 C 
ATOM     10  C   LIG d   1      -6.318  76.683 117.882  0.00  0.00     0.006 C 
ENDBRANCH   8   9
BRANCH   8  11
ATOM     11  C   LIG d   1      -6.055  80.430 117.671  0.00  0.00     0.028 C 
ATOM     12  C   LIG d   1      -7.512  80.359 118.153  0.00  0.00     0.006 C 
ENDBRANCH   8  11
ENDBRANCH   7   8
ENDBRANCH   1   7
BRANCH   6  13
ATOM     13  N   LIG d   1      -3.871  76.247 115.320  0.00  0.00    -0.311 N 
ATOM     14  C   LIG d   1      -4.753  75.988 114.356  0.00  0.00     0.210 C 
ATOM     15  C   LIG d   1      -5.594  74.726 114.573  0.00  0.00     0.109 C 
ATOM     16  O   LIG d   1      -4.895  76.665 113.327  0.00  0.00    -0.276 OA
ATOM     17  H   LIG d   1      -3.800  75.628 116.103  0.00  0.00     0.149 HD
ENDBRANCH   6  13
BRANCH   5  18
ATOM     18  N   LIG d   1      -1.112  76.334 114.010  0.00  0.00     0.381 N 
ATOM     19  H   LIG d   1      -0.217  76.650 113.694  0.00  0.00    -0.090 HD
ATOM     20  H   LIG d   1      -1.792  76.550 113.302  0.00  0.00    -0.090 HD
ATOM     21  H   LIG d   1      -1.088  75.351 114.169  0.00  0.00    -0.090 HD
ENDBRANCH   5  18
BRANCH   3  22
ATOM     22  C   LIG d   1       0.025  79.913 116.982  0.00  0.00     0.382 C 
ATOM     23  O   LIG d   1       1.210  79.504 117.000  0.00  0.00    -0.241 OA
ATOM     24  O   LIG d   1      -0.256  81.002 117.518  0.00  0.00    -0.241 OA
ENDBRANCH   3  22
TORSDOF 7
ENDMDL
MODEL 6
REMARK VINA RESULT:      -4.5     25.588     27.348
REMARK  7 active torsions:
REMARK  status: ('A' for Active; 'I' for Inactive)
REMARK    1  A    between atoms: C_2  and  C_3 
REMARK    2  A    between atoms: C_3  and  O_6 
REMARK    3  A    between atoms: C_3  and  C_4 
REMARK    4  A    between atoms: C_7  and  O_6 
REMARK    5  A    between atoms: C_9  and  C_10 
REMARK    6  A    between atoms: N_15  and  C_14 
REMARK    7  A    between atoms: N_20  and  C_19 
REMARK       I    between atoms: C_22  and  N_20 
ROOT
ATOM      1  C   LIG d   1     -23.496  83.311 115.606  0.00  0.00     0.161 C 
ATOM      2  C   LIG d   1     -23.024  84.583 115.242  0.00  0.00     0.016 C 
ATOM      3  C   LIG d   1     -23.221  85.148 113.961  0.00  0.00     0.038 C 
ATOM      4  C   LIG d   1     -24.039  84.538 112.999  0.00  0.00     0.028 C 
ATOM      5  C   LIG d   1     -24.119  83.022 113.145  0.00  0.00    -0.047 C 
ATOM      6  C   LIG d   1     -24.486  82.677 114.606  0.00  0.00     0.091 C 
ENDROOT
BRANCH   1   7
ATOM      7  O   LIG d   1     -24.080  83.364 116.923  0.00  0.00    -0.368 OA
BRANCH   7   8
ATOM      8  C   LIG d   1     -23.251  83.938 117.964  0.00  0.00     0.119 C 
BRANCH   8   9
ATOM      9  C   LIG d   1     -22.924  82.814 118.967  0.00  0.00     0.028 C 
ATOM     10  C   LIG d   1     -21.433  82.436 118.958  0.00  0.00     0.006 C 
ENDBRANCH   8   9
BRANCH   8  11
ATOM     11  C   LIG d   1     -24.018  84.989 118.771  0.00  0.00     0.028 C 
ATOM     12  C   LIG d   1     -23.122  85.752 119.760  0.00  0.00     0.006 C 
ENDBRANCH   8  11
ENDBRANCH   7   8
ENDBRANCH   1   7
BRANCH   6  13
ATOM     13  N   LIG d   1     -24.502  81.212 114.856  0.00  0.00    -0.311 N 
ATOM     14  C   LIG d   1     -25.601  80.466 114.768  0.00  0.00     0.210 C 
ATOM     15  C   LIG d   1     -25.401  78.980 115.085  0.00  0.00     0.109 C 
ATOM     16  O   LIG d   1     -26.717  80.887 114.426  0.00  0.00    -0.276 OA
ATOM     17  H   LIG d   1     -23.633  80.783 115.109  0.00  0.00     0.149 HD
ENDBRANCH   6  13
BRANCH   5  18
ATOM     18  N   LIG d   1     -25.110  82.532 112.169  0.00  0.00     0.381 N 
ATOM     19  H   LIG d   1     -25.849  83.200 112.071  0.00  0.00    -0.090 HD
ATOM     20  H   LIG d   1     -25.504  81.673 112.509  0.00  0.00    -0.090 HD
ATOM     21  H   LIG d   1     -24.673  82.379 111.287  0.00  0.00    -0.090 HD
ENDBRANCH   5  18
BRANCH   3  22
ATOM     22  C   LIG d   1     -22.562  86.319 113.619  0.00  0.00     0.382 C 
ATOM     23  O   LIG d   1     -23.001  87.425 114.017  0.00  0.00    -0.241 OA
ATOM     24  O   LIG d   1     -21.560  86.288 112.879  0.00  0.00    -0.241 OA
ENDBRANCH   3  22
TORSDOF 7
ENDMDL
MODEL 7
REMARK VINA RESULT:      -4.4     27.876     30.982
REMARK  7 active torsions:
REMARK  status: ('A' for Active; 'I' for Inactive)
REMARK    1  A    between atoms: C_2  and  C_3 
REMARK    2  A    between atoms: C_3  and  O_6 
REMARK    3  A    between atoms: C_3  and  C_4 
REMARK    4  A    between atoms: C_7  and  O_6 
REMARK    5  A    between atoms: C_9  and  C_10 
REMARK    6  A    between atoms: N_15  and  C_14 
REMARK    7  A    between atoms: N_20  and  C_19 
REMARK       I    between atoms: C_22  and  N_20 
ROOT
ATOM      1  C   LIG d   1     -15.964  63.925 116.587  0.00  0.00     0.161 C 
ATOM      2  C   LIG d   1     -16.724  63.394 115.531  0.00  0.00     0.016 C 
ATOM      3  C   LIG d   1     -17.308  64.187 114.517  0.00  0.00     0.038 C 
ATOM      4  C   LIG d   1     -17.044  65.560 114.406  0.00  0.00     0.028 C 
ATOM      5  C   LIG d   1     -16.696  66.220 115.736  0.00  0.00    -0.047 C 
ATOM      6  C   LIG d   1     -15.573  65.408 116.420  0.00  0.00     0.091 C 
ENDROOT
BRANCH   1   7
ATOM      7  O   LIG d   1     -14.789  63.118 116.799  0.00  0.00    -0.368 OA
BRANCH   7   8
ATOM      8  C   LIG d   1     -14.715  62.420 118.066  0.00  0.00     0.119 C 
BRANCH   8   9
ATOM      9  C   LIG d   1     -14.722  60.909 117.763  0.00  0.00     0.028 C 
ATOM     10  C   LIG d   1     -16.145  60.332 117.683  0.00  0.00     0.006 C 
ENDBRANCH   8   9
BRANCH   8  11
ATOM     11  C   LIG d   1     -15.966  62.669 118.914  0.00  0.00     0.028 C 
ATOM     12  C   LIG d   1     -15.648  63.328 120.265  0.00  0.00     0.006 C 
ENDBRANCH   8  11
ENDBRANCH   7   8
ENDBRANCH   1   7
BRANCH   6  13
ATOM     13  N   LIG d   1     -15.231  65.937 117.766  0.00  0.00    -0.311 N 
ATOM     14  C   LIG d   1     -14.017  66.377 118.094  0.00  0.00     0.210 C 
ATOM     15  C   LIG d   1     -13.874  66.862 119.541  0.00  0.00     0.109 C 
ATOM     16  O   LIG d   1     -13.054  66.442 117.316  0.00  0.00    -0.276 OA
ATOM     17  H   LIG d   1     -15.962  65.950 118.451  0.00  0.00     0.149 HD
ENDBRANCH   6  13
BRANCH   5  18
ATOM     18  N   LIG d   1     -16.311  67.616 115.454  0.00  0.00     0.381 N 
ATOM     19  H   LIG d   1     -15.392  67.792 115.807  0.00  0.00    -0.090 HD
ATOM     20  H   LIG d   1     -16.952  68.231 115.922  0.00  0.00    -0.090 HD
ATOM     21  H   LIG d   1     -16.335  67.785 114.472  0.00  0.00    -0.090 HD
ENDBRANCH   5  18
BRANCH   3  22
ATOM     22  C   LIG d   1     -18.199  63.613 113.623  0.00  0.00     0.382 C 
ATOM     23  O   LIG d   1     -18.517  64.225 112.575  0.00  0.00    -0.241 OA
ATOM     24  O   LIG d   1     -18.723  62.511 113.874  0.00  0.00    -0.241 OA
ENDBRANCH   3  22
TORSDOF 7
ENDMDL
MODEL 8
REMARK VINA RESULT:      -4.3     25.851     27.674
REMARK  7 active torsions:
REMARK  status: ('A' for Active; 'I' for Inactive)
REMARK    1  A    between atoms: C_2  and  C_3 
REMARK    2  A    between atoms: C_3  and  O_6 
REMARK    3  A    between atoms: C_3  and  C_4 
REMARK    4  A    between atoms: C_7  and  O_6 
REMARK    5  A    between atoms: C_9  and  C_10 
REMARK    6  A    between atoms: N_15  and  C_14 
REMARK    7  A    between atoms: N_20  and  C_19 
REMARK       I    between atoms: C_22  and  N_20 
ROOT
ATOM      1  C   LIG d   1     -23.977  83.563 114.638  0.00  0.00     0.161 C 
ATOM      2  C   LIG d   1     -23.028  84.583 114.460  0.00  0.00     0.016 C 
ATOM      3  C   LIG d   1     -23.355  85.879 113.998  0.00  0.00     0.038 C 
ATOM      4  C   LIG d   1     -24.685  86.290 113.826  0.00  0.00     0.028 C 
ATOM      5  C   LIG d   1     -25.638  85.143 113.509  0.00  0.00    -0.047 C 
ATOM      6  C   LIG d   1     -25.447  84.027 114.562  0.00  0.00     0.091 C 
ENDROOT
BRANCH   1   7
ATOM      7  O   LIG d   1     -23.731  82.879 115.883  0.00  0.00    -0.368 OA
BRANCH   7   8
ATOM      8  C   LIG d   1     -23.360  83.715 117.007  0.00  0.00     0.119 C 
BRANCH   8   9
ATOM      9  C   LIG d   1     -22.139  83.064 117.685  0.00  0.00     0.028 C 
ATOM     10  C   LIG d   1     -22.438  82.615 119.125  0.00  0.00     0.006 C 
ENDBRANCH   8   9
BRANCH   8  11
ATOM     11  C   LIG d   1     -24.457  83.731 118.075  0.00  0.00     0.028 C 
ATOM     12  C   LIG d   1     -25.198  85.076 118.149  0.00  0.00     0.006 C 
ENDBRANCH   8  11
ENDBRANCH   7   8
ENDBRANCH   1   7
BRANCH   6  13
ATOM     13  N   LIG d   1     -26.281  82.830 114.278  0.00  0.00    -0.311 N 
ATOM     14  C   LIG d   1     -26.216  82.145 113.138  0.00  0.00     0.210 C 
ATOM     15  C   LIG d   1     -27.178  80.956 113.042  0.00  0.00     0.109 C 
ATOM     16  O   LIG d   1     -25.430  82.388 112.210  0.00  0.00    -0.276 OA
ATOM     17  H   LIG d   1     -26.925  82.544 114.989  0.00  0.00     0.149 HD
ENDBRANCH   6  13
BRANCH   5  18
ATOM     18  N   LIG d   1     -27.007  85.692 113.492  0.00  0.00     0.381 N 
ATOM     19  H   LIG d   1     -26.996  86.618 113.112  0.00  0.00    -0.090 HD
ATOM     20  H   LIG d   1     -27.349  85.743 114.436  0.00  0.00    -0.090 HD
ATOM     21  H   LIG d   1     -27.602  85.108 112.947  0.00  0.00    -0.090 HD
ENDBRANCH   5  18
BRANCH   3  22
ATOM     22  C   LIG d   1     -22.343  86.766 113.665  0.00  0.00     0.382 C 
ATOM     23  O   LIG d   1     -22.341  87.925 114.146  0.00  0.00    -0.241 OA
ATOM     24  O   LIG d   1     -21.456  86.437 112.855  0.00  0.00    -0.241 OA
ENDBRANCH   3  22
TORSDOF 7
ENDMDL
MODEL 9
REMARK VINA RESULT:      -4.3      2.687      4.553
REMARK  7 active torsions:
REMARK  status: ('A' for Active; 'I' for Inactive)
REMARK    1  A    between atoms: C_2  and  C_3 
REMARK    2  A    between atoms: C_3  and  O_6 
REMARK    3  A    between atoms: C_3  and  C_4 
REMARK    4  A    between atoms: C_7  and  O_6 
REMARK    5  A    between atoms: C_9  and  C_10 
REMARK    6  A    between atoms: N_15  and  C_14 
REMARK    7  A    between atoms: N_20  and  C_19 
REMARK       I    between atoms: C_22  and  N_20 
ROOT
ATOM      1  C   LIG d   1       2.252  86.716 115.102  0.00  0.00     0.161 C 
ATOM      2  C   LIG d   1       3.093  87.703 114.561  0.00  0.00     0.016 C 
ATOM      3  C   LIG d   1       3.797  88.643 115.348  0.00  0.00     0.038 C 
ATOM      4  C   LIG d   1       3.826  88.564 116.748  0.00  0.00     0.028 C 
ATOM      5  C   LIG d   1       2.591  87.897 117.343  0.00  0.00    -0.047 C 
ATOM      6  C   LIG d   1       2.359  86.544 116.632  0.00  0.00     0.091 C 
ENDROOT
BRANCH   1   7
ATOM      7  O   LIG d   1       2.486  85.458 114.439  0.00  0.00    -0.368 OA
BRANCH   7   8
ATOM      8  C   LIG d   1       1.489  85.055 113.467  0.00  0.00     0.119 C 
BRANCH   8   9
ATOM      9  C   LIG d   1       2.130  85.174 112.071  0.00  0.00     0.028 C 
ATOM     10  C   LIG d   1       3.622  84.798 112.076  0.00  0.00     0.006 C 
ENDBRANCH   8   9
BRANCH   8  11
ATOM     11  C   LIG d   1       0.303  86.023 113.452  0.00  0.00     0.028 C 
ATOM     12  C   LIG d   1      -0.653  85.776 112.274  0.00  0.00     0.006 C 
ENDBRANCH   8  11
ENDBRANCH   7   8
ENDBRANCH   1   7
BRANCH   6  13
ATOM     13  N   LIG d   1       1.122  85.864 117.096  0.00  0.00    -0.311 N 
ATOM     14  C   LIG d   1       1.100  84.980 118.092  0.00  0.00     0.210 C 
ATOM     15  C   LIG d   1      -0.277  84.382 118.396  0.00  0.00     0.109 C 
ATOM     16  O   LIG d   1       2.085  84.658 118.773  0.00  0.00    -0.276 OA
ATOM     17  H   LIG d   1       0.271  86.090 116.619  0.00  0.00     0.149 HD
ENDBRANCH   6  13
BRANCH   5  18
ATOM     18  N   LIG d   1       2.815  87.756 118.794  0.00  0.00     0.381 N 
ATOM     19  H   LIG d   1       2.977  88.656 119.201  0.00  0.00    -0.090 HD
ATOM     20  H   LIG d   1       3.633  87.191 118.943  0.00  0.00    -0.090 HD
ATOM     21  H   LIG d   1       2.024  87.328 119.222  0.00  0.00    -0.090 HD
ENDBRANCH   5  18
BRANCH   3  22
ATOM     22  C   LIG d   1       4.449  89.702 114.734  0.00  0.00     0.382 C 
ATOM     23  O   LIG d   1       5.039  90.563 115.430  0.00  0.00    -0.241 OA
ATOM     24  O   LIG d   1       4.418  89.831 113.496  0.00  0.00    -0.241 OA
ENDBRANCH   3  22
TORSDOF 7
ENDMDL
