MODEL 1
REMARK VINA RESULT:      -6.2      0.000      0.000
REMARK  7 active torsions:
REMARK  status: ('A' for Active; 'I' for Inactive)
REMARK    1  A    between atoms: C_2  and  C_3 
REMARK    2  A    between atoms: C_3  and  O_6 
REMARK    3  A    between atoms: C_3  and  C_4 
REMARK    4  A    between atoms: C_7  and  O_6 
REMARK    5  A    between atoms: C_9  and  C_10 
REMARK    6  A    between atoms: N_15  and  C_14 
REMARK    7  A    between atoms: N_20  and  C_19 
REMARK       I    between atoms: C_22  and  N_20 
ROOT
ATOM      1  C   LIG d   1      -3.741  76.355 116.191  0.00  0.00     0.161 C 
ATOM      2  C   LIG d   1      -4.129  76.943 114.975  0.00  0.00     0.016 C 
ATOM      3  C   LIG d   1      -3.217  77.278 113.948  0.00  0.00     0.038 C 
ATOM      4  C   LIG d   1      -1.866  76.908 114.006  0.00  0.00     0.028 C 
ATOM      5  C   LIG d   1      -1.337  76.766 115.429  0.00  0.00    -0.047 C 
ATOM      6  C   LIG d   1      -2.286  75.843 116.227  0.00  0.00     0.091 C 
ENDROOT
BRANCH   1   7
ATOM      7  O   LIG d   1      -4.655  75.295 116.534  0.00  0.00    -0.368 OA
BRANCH   7   8
ATOM      8  C   LIG d   1      -5.939  75.317 115.863  0.00  0.00     0.119 C 
BRANCH   8   9
ATOM      9  C   LIG d   1      -7.011  75.628 116.925  0.00  0.00     0.028 C 
ATOM     10  C   LIG d   1      -7.570  77.055 116.795  0.00  0.00     0.006 C 
ENDBRANCH   8   9
BRANCH   8  11
ATOM     11  C   LIG d   1      -6.303  73.936 115.311  0.00  0.00     0.028 C 
ATOM     12  C   LIG d   1      -7.250  73.155 116.237  0.00  0.00     0.006 C 
ENDBRANCH   8  11
ENDBRANCH   7   8
ENDBRANCH   1   7
BRANCH   6  13
ATOM     13  N   LIG d   1      -1.889  75.717 117.653  0.00  0.00    -0.311 N 
ATOM     14  C   LIG d   1      -1.199  74.685 118.134  0.00  0.00     0.210 C 
ATOM     15  C   LIG d   1      -0.911  74.743 119.638  0.00  0.00     0.109 C 
ATOM     16  O   LIG d   1      -0.771  73.741 117.453  0.00  0.00    -0.276 OA
ATOM     17  H   LIG d   1      -2.168  76.454 118.271  0.00  0.00     0.149 HD
ENDBRANCH   6  13
BRANCH   5  18
ATOM     18  N   LIG d   1       0.040  76.244 115.343  0.00  0.00     0.381 N 
ATOM     19  H   LIG d   1       0.125  75.641 114.549  0.00  0.00    -0.090 HD
ATOM     20  H   LIG d   1       0.236  75.706 116.169  0.00  0.00    -0.090 HD
ATOM     21  H   LIG d   1       0.686  76.998 115.267  0.00  0.00    -0.090 HD
ENDBRANCH   5  18
BRANCH   3  22
ATOM     22  C   LIG d   1      -3.649  78.027 112.864  0.00  0.00     0.382 C 
ATOM     23  O   LIG d   1      -3.164  79.165 112.655  0.00  0.00    -0.241 OA
ATOM     24  O   LIG d   1      -4.549  77.598 112.117  0.00  0.00    -0.241 OA
ENDBRANCH   3  22
TORSDOF 7
ENDMDL
MODEL 2
REMARK VINA RESULT:      -5.3      3.657      5.601
REMARK  7 active torsions:
REMARK  status: ('A' for Active; 'I' for Inactive)
REMARK    1  A    between atoms: C_2  and  C_3 
REMARK    2  A    between atoms: C_3  and  O_6 
REMARK    3  A    between atoms: C_3  and  C_4 
REMARK    4  A    between atoms: C_7  and  O_6 
REMARK    5  A    between atoms: C_9  and  C_10 
REMARK    6  A    between atoms: N_15  and  C_14 
REMARK    7  A    between atoms: N_20  and  C_19 
REMARK       I    between atoms: C_22  and  N_20 
ROOT
ATOM      1  C   LIG d   1      -6.965  77.764 117.321  0.00  0.00     0.161 C 
ATOM      2  C   LIG d   1      -8.267  78.241 117.547  0.00  0.00     0.016 C 
ATOM      3  C   LIG d   1      -8.556  79.581 117.893  0.00  0.00     0.038 C 
ATOM      4  C   LIG d   1      -7.568  80.577 117.889  0.00  0.00     0.028 C 
ATOM      5  C   LIG d   1      -6.166  80.042 118.160  0.00  0.00    -0.047 C 
ATOM      6  C   LIG d   1      -5.886  78.861 117.203  0.00  0.00     0.091 C 
ENDROOT
BRANCH   1   7
ATOM      7  O   LIG d   1      -6.950  76.919 116.154  0.00  0.00    -0.368 OA
BRANCH   7   8
ATOM      8  C   LIG d   1      -6.415  75.585 116.339  0.00  0.00     0.119 C 
BRANCH   8   9
ATOM      9  C   LIG d   1      -5.470  75.296 115.157  0.00  0.00     0.028 C 
ATOM     10  C   LIG d   1      -5.744  76.210 113.950  0.00  0.00     0.006 C 
ENDBRANCH   8   9
BRANCH   8  11
ATOM     11  C   LIG d   1      -7.517  74.525 116.246  0.00  0.00     0.028 C 
ATOM     12  C   LIG d   1      -6.964  73.108 116.026  0.00  0.00     0.006 C 
ENDBRANCH   8  11
ENDBRANCH   7   8
ENDBRANCH   1   7
BRANCH   6  13
ATOM     13  N   LIG d   1      -4.567  78.224 117.458  0.00  0.00    -0.311 N 
ATOM     14  C   LIG d   1      -3.590  78.174 116.555  0.00  0.00     0.210 C 
ATOM     15  C   LIG d   1      -2.319  77.454 117.017  0.00  0.00     0.109 C 
ATOM     16  O   LIG d   1      -3.643  78.685 115.426  0.00  0.00    -0.276 OA
ATOM     17  H   LIG d   1      -4.427  77.812 118.360  0.00  0.00     0.149 HD
ENDBRANCH   6  13
BRANCH   5  18
ATOM     18  N   LIG d   1      -5.221  81.161 117.990  0.00  0.00     0.381 N 
ATOM     19  H   LIG d   1      -4.983  81.542 118.884  0.00  0.00    -0.090 HD
ATOM     20  H   LIG d   1      -5.664  81.882 117.448  0.00  0.00    -0.090 HD
ATOM     21  H   LIG d   1      -4.398  80.845 117.526  0.00  0.00    -0.090 HD
ENDBRANCH   5  18
BRANCH   3  22
ATOM     22  C   LIG d   1      -9.839  79.928 118.287  0.00  0.00     0.382 C 
ATOM     23  O   LIG d   1     -10.175  81.135 118.335  0.00  0.00    -0.241 OA
ATOM     24  O   LIG d   1     -10.651  79.050 118.638  0.00  0.00    -0.241 OA
ENDBRANCH   3  22
TORSDOF 7
ENDMDL
MODEL 3
REMARK VINA RESULT:      -5.3     13.555     16.445
REMARK  7 active torsions:
REMARK  status: ('A' for Active; 'I' for Inactive)
REMARK    1  A    between atoms: C_2  and  C_3 
REMARK    2  A    between atoms: C_3  and  O_6 
REMARK    3  A    between atoms: C_3  and  C_4 
REMARK    4  A    between atoms: C_7  and  O_6 
REMARK    5  A    between atoms: C_9  and  C_10 
REMARK    6  A    between atoms: N_15  and  C_14 
REMARK    7  A    between atoms: N_20  and  C_19 
REMARK       I    between atoms: C_22  and  N_20 
ROOT
ATOM      1  C   LIG d   1     -16.101  65.724 114.570  0.00  0.00     0.161 C 
ATOM      2  C   LIG d   1     -15.678  66.767 113.730  0.00  0.00     0.016 C 
ATOM      3  C   LIG d   1     -14.918  67.870 114.182  0.00  0.00     0.038 C 
ATOM      4  C   LIG d   1     -14.397  67.929 115.483  0.00  0.00     0.028 C 
ATOM      5  C   LIG d   1     -15.221  67.148 116.501  0.00  0.00    -0.047 C 
ATOM      6  C   LIG d   1     -15.449  65.715 115.969  0.00  0.00     0.091 C 
ENDROOT
BRANCH   1   7
ATOM      7  O   LIG d   1     -15.900  64.456 113.915  0.00  0.00    -0.368 OA
BRANCH   7   8
ATOM      8  C   LIG d   1     -17.098  63.755 113.501  0.00  0.00     0.119 C 
BRANCH   8   9
ATOM      9  C   LIG d   1     -18.307  64.585 113.973  0.00  0.00     0.028 C 
ATOM     10  C   LIG d   1     -19.289  64.894 112.830  0.00  0.00     0.006 C 
ENDBRANCH   8   9
BRANCH   8  11
ATOM     11  C   LIG d   1     -17.229  62.406 114.215  0.00  0.00     0.028 C 
ATOM     12  C   LIG d   1     -18.312  61.508 113.597  0.00  0.00     0.006 C 
ENDBRANCH   8  11
ENDBRANCH   7   8
ENDBRANCH   1   7
BRANCH   6  13
ATOM     13  N   LIG d   1     -16.318  64.908 116.865  0.00  0.00    -0.311 N 
ATOM     14  C   LIG d   1     -15.984  63.701 117.318  0.00  0.00     0.210 C 
ATOM     15  C   LIG d   1     -17.032  63.034 118.214  0.00  0.00     0.109 C 
ATOM     16  O   LIG d   1     -14.905  63.133 117.089  0.00  0.00    -0.276 OA
ATOM     17  H   LIG d   1     -17.198  65.307 117.127  0.00  0.00     0.149 HD
ENDBRANCH   6  13
BRANCH   5  18
ATOM     18  N   LIG d   1     -14.492  67.180 117.783  0.00  0.00     0.381 N 
ATOM     19  H   LIG d   1     -13.782  67.884 117.751  0.00  0.00    -0.090 HD
ATOM     20  H   LIG d   1     -14.049  66.290 117.927  0.00  0.00    -0.090 HD
ATOM     21  H   LIG d   1     -15.124  67.369 118.530  0.00  0.00    -0.090 HD
ENDBRANCH   5  18
BRANCH   3  22
ATOM     22  C   LIG d   1     -14.706  68.950 113.338  0.00  0.00     0.382 C 
ATOM     23  O   LIG d   1     -15.423  69.100 112.319  0.00  0.00    -0.241 OA
ATOM     24  O   LIG d   1     -13.777  69.750 113.558  0.00  0.00    -0.241 OA
ENDBRANCH   3  22
TORSDOF 7
ENDMDL
MODEL 4
REMARK VINA RESULT:      -5.0     14.011     15.816
REMARK  7 active torsions:
REMARK  status: ('A' for Active; 'I' for Inactive)
REMARK    1  A    between atoms: C_2  and  C_3 
REMARK    2  A    between atoms: C_3  and  O_6 
REMARK    3  A    between atoms: C_3  and  C_4 
REMARK    4  A    between atoms: C_7  and  O_6 
REMARK    5  A    between atoms: C_9  and  C_10 
REMARK    6  A    between atoms: N_15  and  C_14 
REMARK    7  A    between atoms: N_20  and  C_19 
REMARK       I    between atoms: C_22  and  N_20 
ROOT
ATOM      1  C   LIG d   1     -15.158  66.631 116.237  0.00  0.00     0.161 C 
ATOM      2  C   LIG d   1     -14.944  67.742 115.406  0.00  0.00     0.016 C 
ATOM      3  C   LIG d   1     -15.152  67.719 114.007  0.00  0.00     0.038 C 
ATOM      4  C   LIG d   1     -15.736  66.619 113.362  0.00  0.00     0.028 C 
ATOM      5  C   LIG d   1     -15.497  65.297 114.084  0.00  0.00    -0.047 C 
ATOM      6  C   LIG d   1     -15.901  65.456 115.568  0.00  0.00     0.091 C 
ENDROOT
BRANCH   1   7
ATOM      7  O   LIG d   1     -15.846  67.042 117.435  0.00  0.00    -0.368 OA
BRANCH   7   8
ATOM      8  C   LIG d   1     -15.034  67.160 118.628  0.00  0.00     0.119 C 
BRANCH   8   9
ATOM      9  C   LIG d   1     -15.492  66.066 119.612  0.00  0.00     0.028 C 
ATOM     10  C   LIG d   1     -14.387  65.035 119.899  0.00  0.00     0.006 C 
ENDBRANCH   8   9
BRANCH   8  11
ATOM     11  C   LIG d   1     -15.292  68.487 119.349  0.00  0.00     0.028 C 
ATOM     12  C   LIG d   1     -15.940  69.543 118.439  0.00  0.00     0.006 C 
ENDBRANCH   8  11
ENDBRANCH   7   8
ENDBRANCH   1   7
BRANCH   6  13
ATOM     13  N   LIG d   1     -15.620  64.233 116.365  0.00  0.00    -0.311 N 
ATOM     14  C   LIG d   1     -16.537  63.617 117.110  0.00  0.00     0.210 C 
ATOM     15  C   LIG d   1     -16.032  62.385 117.868  0.00  0.00     0.109 C 
ATOM     16  O   LIG d   1     -17.727  63.955 117.189  0.00  0.00    -0.276 OA
ATOM     17  H   LIG d   1     -14.687  63.873 116.334  0.00  0.00     0.149 HD
ENDBRANCH   6  13
BRANCH   5  18
ATOM     18  N   LIG d   1     -16.274  64.259 113.381  0.00  0.00     0.381 N 
ATOM     19  H   LIG d   1     -15.979  64.203 112.427  0.00  0.00    -0.090 HD
ATOM     20  H   LIG d   1     -17.246  64.514 113.396  0.00  0.00    -0.090 HD
ATOM     21  H   LIG d   1     -16.148  63.377 113.828  0.00  0.00    -0.090 HD
ENDBRANCH   5  18
BRANCH   3  22
ATOM     22  C   LIG d   1     -14.736  68.792 113.233  0.00  0.00     0.382 C 
ATOM     23  O   LIG d   1     -15.152  68.914 112.056  0.00  0.00    -0.241 OA
ATOM     24  O   LIG d   1     -13.916  69.615 113.682  0.00  0.00    -0.241 OA
ENDBRANCH   3  22
TORSDOF 7
ENDMDL
MODEL 5
REMARK VINA RESULT:      -4.9      2.050      2.515
REMARK  7 active torsions:
REMARK  status: ('A' for Active; 'I' for Inactive)
REMARK    1  A    between atoms: C_2  and  C_3 
REMARK    2  A    between atoms: C_3  and  O_6 
REMARK    3  A    between atoms: C_3  and  C_4 
REMARK    4  A    between atoms: C_7  and  O_6 
REMARK    5  A    between atoms: C_9  and  C_10 
REMARK    6  A    between atoms: N_15  and  C_14 
REMARK    7  A    between atoms: N_20  and  C_19 
REMARK       I    between atoms: C_22  and  N_20 
ROOT
ATOM      1  C   LIG d   1      -2.586  78.262 117.036  0.00  0.00     0.161 C 
ATOM      2  C   LIG d   1      -2.790  79.243 116.051  0.00  0.00     0.016 C 
ATOM      3  C   LIG d   1      -2.288  79.138 114.733  0.00  0.00     0.038 C 
ATOM      4  C   LIG d   1      -1.674  77.967 114.264  0.00  0.00     0.028 C 
ATOM      5  C   LIG d   1      -1.002  77.153 115.365  0.00  0.00    -0.047 C 
ATOM      6  C   LIG d   1      -2.014  76.928 116.512  0.00  0.00     0.091 C 
ENDROOT
BRANCH   1   7
ATOM      7  O   LIG d   1      -3.813  78.032 117.757  0.00  0.00    -0.368 OA
BRANCH   7   8
ATOM      8  C   LIG d   1      -5.038  78.204 117.003  0.00  0.00     0.119 C 
BRANCH   8   9
ATOM      9  C   LIG d   1      -6.015  79.006 117.883  0.00  0.00     0.028 C 
ATOM     10  C   LIG d   1      -6.017  80.506 117.541  0.00  0.00     0.006 C 
ENDBRANCH   8   9
BRANCH   8  11
ATOM     11  C   LIG d   1      -5.729  76.861 116.749  0.00  0.00     0.028 C 
ATOM     12  C   LIG d   1      -7.204  77.017 116.345  0.00  0.00     0.006 C 
ENDBRANCH   8  11
ENDBRANCH   7   8
ENDBRANCH   1   7
BRANCH   6  13
ATOM     13  N   LIG d   1      -1.413  76.212 117.666  0.00  0.00    -0.311 N 
ATOM     14  C   LIG d   1      -1.439  74.887 117.802  0.00  0.00     0.210 C 
ATOM     15  C   LIG d   1      -0.778  74.354 119.077  0.00  0.00     0.109 C 
ATOM     16  O   LIG d   1      -1.920  74.100 116.973  0.00  0.00    -0.276 OA
ATOM     17  H   LIG d   1      -0.974  76.771 118.372  0.00  0.00     0.149 HD
ENDBRANCH   6  13
BRANCH   5  18
ATOM     18  N   LIG d   1      -0.524  75.895 114.760  0.00  0.00     0.381 N 
ATOM     19  H   LIG d   1      -0.692  75.133 115.387  0.00  0.00    -0.090 HD
ATOM     20  H   LIG d   1       0.466  75.964 114.606  0.00  0.00    -0.090 HD
ATOM     21  H   LIG d   1      -0.992  75.733 113.896  0.00  0.00    -0.090 HD
ENDBRANCH   5  18
BRANCH   3  22
ATOM     22  C   LIG d   1      -2.364  80.228 113.880  0.00  0.00     0.382 C 
ATOM     23  O   LIG d   1      -1.314  80.793 113.490  0.00  0.00    -0.241 OA
ATOM     24  O   LIG d   1      -3.471  80.682 113.531  0.00  0.00    -0.241 OA
ENDBRANCH   3  22
TORSDOF 7
ENDMDL
MODEL 6
REMARK VINA RESULT:      -4.9     11.850     14.091
REMARK  7 active torsions:
REMARK  status: ('A' for Active; 'I' for Inactive)
REMARK    1  A    between atoms: C_2  and  C_3 
REMARK    2  A    between atoms: C_3  and  O_6 
REMARK    3  A    between atoms: C_3  and  C_4 
REMARK    4  A    between atoms: C_7  and  O_6 
REMARK    5  A    between atoms: C_9  and  C_10 
REMARK    6  A    between atoms: N_15  and  C_14 
REMARK    7  A    between atoms: N_20  and  C_19 
REMARK       I    between atoms: C_22  and  N_20 
ROOT
ATOM      1  C   LIG d   1       1.937  87.693 115.570  0.00  0.00     0.161 C 
ATOM      2  C   LIG d   1       0.889  87.635 116.503  0.00  0.00     0.016 C 
ATOM      3  C   LIG d   1       0.923  88.295 117.753  0.00  0.00     0.038 C 
ATOM      4  C   LIG d   1       1.950  89.187 118.093  0.00  0.00     0.028 C 
ATOM      5  C   LIG d   1       3.272  88.884 117.394  0.00  0.00    -0.047 C 
ATOM      6  C   LIG d   1       3.018  88.751 115.875  0.00  0.00     0.091 C 
ENDROOT
BRANCH   1   7
ATOM      7  O   LIG d   1       1.402  87.891 114.246  0.00  0.00    -0.368 OA
BRANCH   7   8
ATOM      8  C   LIG d   1       1.398  86.730 113.379  0.00  0.00     0.119 C 
BRANCH   8   9
ATOM      9  C   LIG d   1       2.292  87.055 112.167  0.00  0.00     0.028 C 
ATOM     10  C   LIG d   1       3.499  86.109 112.056  0.00  0.00     0.006 C 
ENDBRANCH   8   9
BRANCH   8  11
ATOM     11  C   LIG d   1       0.005  86.473 112.799  0.00  0.00     0.028 C 
ATOM     12  C   LIG d   1      -0.195  85.015 112.354  0.00  0.00     0.006 C 
ENDBRANCH   8  11
ENDBRANCH   7   8
ENDBRANCH   1   7
BRANCH   6  13
ATOM     13  N   LIG d   1       4.244  88.371 115.127  0.00  0.00    -0.311 N 
ATOM     14  C   LIG d   1       4.679  89.026 114.052  0.00  0.00     0.210 C 
ATOM     15  C   LIG d   1       5.952  88.456 113.419  0.00  0.00     0.109 C 
ATOM     16  O   LIG d   1       4.150  90.044 113.582  0.00  0.00    -0.276 OA
ATOM     17  H   LIG d   1       4.752  87.575 115.458  0.00  0.00     0.149 HD
ENDBRANCH   6  13
BRANCH   5  18
ATOM     18  N   LIG d   1       4.213  89.968 117.731  0.00  0.00     0.381 N 
ATOM     19  H   LIG d   1       3.851  90.843 117.407  0.00  0.00    -0.090 HD
ATOM     20  H   LIG d   1       5.087  89.796 117.265  0.00  0.00    -0.090 HD
ATOM     21  H   LIG d   1       4.355  90.003 118.716  0.00  0.00    -0.090 HD
ENDBRANCH   5  18
BRANCH   3  22
ATOM     22  C   LIG d   1      -0.061  88.033 118.695  0.00  0.00     0.382 C 
ATOM     23  O   LIG d   1      -0.294  86.852 119.046  0.00  0.00    -0.241 OA
ATOM     24  O   LIG d   1      -0.747  88.960 119.166  0.00  0.00    -0.241 OA
ENDBRANCH   3  22
TORSDOF 7
ENDMDL
MODEL 7
REMARK VINA RESULT:      -4.8     14.953     17.743
REMARK  7 active torsions:
REMARK  status: ('A' for Active; 'I' for Inactive)
REMARK    1  A    between atoms: C_2  and  C_3 
REMARK    2  A    between atoms: C_3  and  O_6 
REMARK    3  A    between atoms: C_3  and  C_4 
REMARK    4  A    between atoms: C_7  and  O_6 
REMARK    5  A    between atoms: C_9  and  C_10 
REMARK    6  A    between atoms: N_15  and  C_14 
REMARK    7  A    between atoms: N_20  and  C_19 
REMARK       I    between atoms: C_22  and  N_20 
ROOT
ATOM      1  C   LIG d   1     -16.997  65.807 116.236  0.00  0.00     0.161 C 
ATOM      2  C   LIG d   1     -15.985  65.335 117.088  0.00  0.00     0.016 C 
ATOM      3  C   LIG d   1     -15.556  63.988 117.115  0.00  0.00     0.038 C 
ATOM      4  C   LIG d   1     -16.010  63.046 116.180  0.00  0.00     0.028 C 
ATOM      5  C   LIG d   1     -17.400  63.357 115.633  0.00  0.00    -0.047 C 
ATOM      6  C   LIG d   1     -17.427  64.819 115.132  0.00  0.00     0.091 C 
ENDROOT
BRANCH   1   7
ATOM      7  O   LIG d   1     -16.601  67.066 115.656  0.00  0.00    -0.368 OA
BRANCH   7   8
ATOM      8  C   LIG d   1     -15.224  67.159 115.216  0.00  0.00     0.119 C 
BRANCH   8   9
ATOM      9  C   LIG d   1     -14.683  68.527 115.673  0.00  0.00     0.028 C 
ATOM     10  C   LIG d   1     -15.593  69.200 116.714  0.00  0.00     0.006 C 
ENDBRANCH   8   9
BRANCH   8  11
ATOM     11  C   LIG d   1     -15.127  67.175 113.687  0.00  0.00     0.028 C 
ATOM     12  C   LIG d   1     -14.873  68.581 113.121  0.00  0.00     0.006 C 
ENDBRANCH   8  11
ENDBRANCH   7   8
ENDBRANCH   1   7
BRANCH   6  13
ATOM     13  N   LIG d   1     -18.774  65.231 114.658  0.00  0.00    -0.311 N 
ATOM     14  C   LIG d   1     -19.169  65.126 113.390  0.00  0.00     0.210 C 
ATOM     15  C   LIG d   1     -20.589  65.627 113.112  0.00  0.00     0.109 C 
ATOM     16  O   LIG d   1     -18.489  64.635 112.476  0.00  0.00    -0.276 OA
ATOM     17  H   LIG d   1     -19.400  65.611 115.340  0.00  0.00     0.149 HD
ENDBRANCH   6  13
BRANCH   5  18
ATOM     18  N   LIG d   1     -17.690  62.376 114.571  0.00  0.00     0.381 N 
ATOM     19  H   LIG d   1     -18.117  62.836 113.792  0.00  0.00    -0.090 HD
ATOM     20  H   LIG d   1     -18.337  61.693 114.927  0.00  0.00    -0.090 HD
ATOM     21  H   LIG d   1     -16.849  61.928 114.281  0.00  0.00    -0.090 HD
ENDBRANCH   5  18
BRANCH   3  22
ATOM     22  C   LIG d   1     -14.692  63.562 118.113  0.00  0.00     0.382 C 
ATOM     23  O   LIG d   1     -14.718  64.110 119.241  0.00  0.00    -0.241 OA
ATOM     24  O   LIG d   1     -13.857  62.666 117.885  0.00  0.00    -0.241 OA
ENDBRANCH   3  22
TORSDOF 7
ENDMDL
MODEL 8
REMARK VINA RESULT:      -4.8     14.348     16.125
REMARK  7 active torsions:
REMARK  status: ('A' for Active; 'I' for Inactive)
REMARK    1  A    between atoms: C_2  and  C_3 
REMARK    2  A    between atoms: C_3  and  O_6 
REMARK    3  A    between atoms: C_3  and  C_4 
REMARK    4  A    between atoms: C_7  and  O_6 
REMARK    5  A    between atoms: C_9  and  C_10 
REMARK    6  A    between atoms: N_15  and  C_14 
REMARK    7  A    between atoms: N_20  and  C_19 
REMARK       I    between atoms: C_22  and  N_20 
ROOT
ATOM      1  C   LIG d   1     -15.080  66.257 117.199  0.00  0.00     0.161 C 
ATOM      2  C   LIG d   1     -14.932  67.315 116.288  0.00  0.00     0.016 C 
ATOM      3  C   LIG d   1     -15.288  67.222 114.923  0.00  0.00     0.038 C 
ATOM      4  C   LIG d   1     -15.962  66.105 114.407  0.00  0.00     0.028 C 
ATOM      5  C   LIG d   1     -15.676  64.818 115.174  0.00  0.00    -0.047 C 
ATOM      6  C   LIG d   1     -15.916  65.068 116.680  0.00  0.00     0.091 C 
ENDROOT
BRANCH   1   7
ATOM      7  O   LIG d   1     -15.628  66.752 118.437  0.00  0.00    -0.368 OA
BRANCH   7   8
ATOM      8  C   LIG d   1     -16.349  68.006 118.359  0.00  0.00     0.119 C 
BRANCH   8   9
ATOM      9  C   LIG d   1     -15.898  68.874 119.550  0.00  0.00     0.028 C 
ATOM     10  C   LIG d   1     -16.159  70.372 119.316  0.00  0.00     0.006 C 
ENDBRANCH   8   9
BRANCH   8  11
ATOM     11  C   LIG d   1     -17.853  67.797 118.557  0.00  0.00     0.028 C 
ATOM     12  C   LIG d   1     -18.595  67.524 117.239  0.00  0.00     0.006 C 
ENDBRANCH   8  11
ENDBRANCH   7   8
ENDBRANCH   1   7
BRANCH   6  13
ATOM     13  N   LIG d   1     -15.579  63.884 117.512  0.00  0.00    -0.311 N 
ATOM     14  C   LIG d   1     -16.466  62.952 117.855  0.00  0.00     0.210 C 
ATOM     15  C   LIG d   1     -15.914  61.825 118.733  0.00  0.00     0.109 C 
ATOM     16  O   LIG d   1     -17.651  62.934 117.487  0.00  0.00    -0.276 OA
ATOM     17  H   LIG d   1     -14.632  63.803 117.828  0.00  0.00     0.149 HD
ENDBRANCH   6  13
BRANCH   5  18
ATOM     18  N   LIG d   1     -16.546  63.765 114.617  0.00  0.00     0.381 N 
ATOM     19  H   LIG d   1     -15.992  63.092 114.127  0.00  0.00    -0.090 HD
ATOM     20  H   LIG d   1     -17.185  64.183 113.964  0.00  0.00    -0.090 HD
ATOM     21  H   LIG d   1     -17.053  63.319 115.349  0.00  0.00    -0.090 HD
ENDBRANCH   5  18
BRANCH   3  22
ATOM     22  C   LIG d   1     -14.934  68.239 114.049  0.00  0.00     0.382 C 
ATOM     23  O   LIG d   1     -14.569  69.352 114.498  0.00  0.00    -0.241 OA
ATOM     24  O   LIG d   1     -15.017  68.071 112.817  0.00  0.00    -0.241 OA
ENDBRANCH   3  22
TORSDOF 7
ENDMDL
MODEL 9
REMARK VINA RESULT:      -4.8     19.505     21.828
REMARK  7 active torsions:
REMARK  status: ('A' for Active; 'I' for Inactive)
REMARK    1  A    between atoms: C_2  and  C_3 
REMARK    2  A    between atoms: C_3  and  O_6 
REMARK    3  A    between atoms: C_3  and  C_4 
REMARK    4  A    between atoms: C_7  and  O_6 
REMARK    5  A    between atoms: C_9  and  C_10 
REMARK    6  A    between atoms: N_15  and  C_14 
REMARK    7  A    between atoms: N_20  and  C_19 
REMARK       I    between atoms: C_22  and  N_20 
ROOT
ATOM      1  C   LIG d   1     -23.443  83.414 116.012  0.00  0.00     0.161 C 
ATOM      2  C   LIG d   1     -23.918  82.099 115.872  0.00  0.00     0.016 C 
ATOM      3  C   LIG d   1     -24.445  81.587 114.664  0.00  0.00     0.038 C 
ATOM      4  C   LIG d   1     -24.392  82.312 113.465  0.00  0.00     0.028 C 
ATOM      5  C   LIG d   1     -24.383  83.823 113.671  0.00  0.00    -0.047 C 
ATOM      6  C   LIG d   1     -23.275  84.185 114.686  0.00  0.00     0.091 C 
ENDROOT
BRANCH   1   7
ATOM      7  O   LIG d   1     -22.205  83.410 116.750  0.00  0.00    -0.368 OA
BRANCH   7   8
ATOM      8  C   LIG d   1     -22.276  83.886 118.116  0.00  0.00     0.119 C 
BRANCH   8   9
ATOM      9  C   LIG d   1     -22.173  82.657 119.041  0.00  0.00     0.028 C 
ATOM     10  C   LIG d   1     -20.764  82.040 119.041  0.00  0.00     0.006 C 
ENDBRANCH   8   9
BRANCH   8  11
ATOM     11  C   LIG d   1     -23.643  84.507 118.420  0.00  0.00     0.028 C 
ATOM     12  C   LIG d   1     -24.309  83.902 119.665  0.00  0.00     0.006 C 
ENDBRANCH   8  11
ENDBRANCH   7   8
ENDBRANCH   1   7
BRANCH   6  13
ATOM     13  N   LIG d   1     -23.253  85.636 115.009  0.00  0.00    -0.311 N 
ATOM     14  C   LIG d   1     -22.490  86.518 114.366  0.00  0.00     0.210 C 
ATOM     15  C   LIG d   1     -22.605  87.960 114.870  0.00  0.00     0.109 C 
ATOM     16  O   LIG d   1     -21.754  86.250 113.405  0.00  0.00    -0.276 OA
ATOM     17  H   LIG d   1     -23.844  85.946 115.755  0.00  0.00     0.149 HD
ENDBRANCH   6  13
BRANCH   5  18
ATOM     18  N   LIG d   1     -24.187  84.452 112.352  0.00  0.00     0.381 N 
ATOM     19  H   LIG d   1     -24.714  83.958 111.659  0.00  0.00    -0.090 HD
ATOM     20  H   LIG d   1     -23.214  84.396 112.106  0.00  0.00    -0.090 HD
ATOM     21  H   LIG d   1     -24.475  85.405 112.382  0.00  0.00    -0.090 HD
ENDBRANCH   5  18
BRANCH   3  22
ATOM     22  C   LIG d   1     -25.069  80.348 114.658  0.00  0.00     0.382 C 
ATOM     23  O   LIG d   1     -24.430  79.323 114.996  0.00  0.00    -0.241 OA
ATOM     24  O   LIG d   1     -26.249  80.238 114.276  0.00  0.00    -0.241 OA
ENDBRANCH   3  22
TORSDOF 7
ENDMDL
