MODEL 1
REMARK VINA RESULT:      -5.4      0.000      0.000
REMARK  7 active torsions:
REMARK  status: ('A' for Active; 'I' for Inactive)
REMARK    1  A    between atoms: C_2  and  C_3 
REMARK    2  A    between atoms: C_3  and  O_6 
REMARK    3  A    between atoms: C_3  and  C_4 
REMARK    4  A    between atoms: C_7  and  O_6 
REMARK    5  A    between atoms: C_9  and  C_10 
REMARK    6  A    between atoms: N_15  and  C_14 
REMARK    7  A    between atoms: N_20  and  C_19 
REMARK       I    between atoms: C_22  and  N_20 
ROOT
ATOM      1  C   LIG d   1      -7.581  74.457 118.648  0.00  0.00     0.161 C 
ATOM      2  C   LIG d   1      -7.733  73.097 118.329  0.00  0.00     0.016 C 
ATOM      3  C   LIG d   1      -8.847  72.582 117.627  0.00  0.00     0.038 C 
ATOM      4  C   LIG d   1      -9.820  73.421 117.062  0.00  0.00     0.028 C 
ATOM      5  C   LIG d   1      -9.971  74.751 117.793  0.00  0.00    -0.047 C 
ATOM      6  C   LIG d   1      -8.577  75.402 117.944  0.00  0.00     0.091 C 
ENDROOT
BRANCH   1   7
ATOM      7  O   LIG d   1      -6.226  74.872 118.387  0.00  0.00    -0.368 OA
BRANCH   7   8
ATOM      8  C   LIG d   1      -5.559  74.213 117.283  0.00  0.00     0.119 C 
BRANCH   8   9
ATOM      9  C   LIG d   1      -4.091  73.991 117.695  0.00  0.00     0.028 C 
ATOM     10  C   LIG d   1      -3.599  75.042 118.705  0.00  0.00     0.006 C 
ENDBRANCH   8   9
BRANCH   8  11
ATOM     11  C   LIG d   1      -5.502  75.116 116.047  0.00  0.00     0.028 C 
ATOM     12  C   LIG d   1      -5.373  74.325 114.736  0.00  0.00     0.006 C 
ENDBRANCH   8  11
ENDBRANCH   7   8
ENDBRANCH   1   7
BRANCH   6  13
ATOM     13  N   LIG d   1      -8.623  76.667 118.722  0.00  0.00    -0.311 N 
ATOM     14  C   LIG d   1      -7.965  77.770 118.368  0.00  0.00     0.210 C 
ATOM     15  C   LIG d   1      -8.133  78.957 119.321  0.00  0.00     0.109 C 
ATOM     16  O   LIG d   1      -7.282  77.886 117.339  0.00  0.00    -0.276 OA
ATOM     17  H   LIG d   1      -9.179  76.670 119.555  0.00  0.00     0.149 HD
ENDBRANCH   6  13
BRANCH   5  18
ATOM     18  N   LIG d   1     -10.915  75.579 117.019  0.00  0.00     0.381 N 
ATOM     19  H   LIG d   1     -11.370  76.231 117.626  0.00  0.00    -0.090 HD
ATOM     20  H   LIG d   1     -11.615  74.983 116.615  0.00  0.00    -0.090 HD
ATOM     21  H   LIG d   1     -10.429  76.068 116.300  0.00  0.00    -0.090 HD
ENDBRANCH   5  18
BRANCH   3  22
ATOM     22  C   LIG d   1      -9.018  71.210 117.520  0.00  0.00     0.382 C 
ATOM     23  O   LIG d   1      -9.950  70.644 118.139  0.00  0.00    -0.241 OA
ATOM     24  O   LIG d   1      -8.224  70.526 116.847  0.00  0.00    -0.241 OA
ENDBRANCH   3  22
TORSDOF 7
ENDMDL
MODEL 2
REMARK VINA RESULT:      -5.1      2.476      4.912
REMARK  7 active torsions:
REMARK  status: ('A' for Active; 'I' for Inactive)
REMARK    1  A    between atoms: C_2  and  C_3 
REMARK    2  A    between atoms: C_3  and  O_6 
REMARK    3  A    between atoms: C_3  and  C_4 
REMARK    4  A    between atoms: C_7  and  O_6 
REMARK    5  A    between atoms: C_9  and  C_10 
REMARK    6  A    between atoms: N_15  and  C_14 
REMARK    7  A    between atoms: N_20  and  C_19 
REMARK       I    between atoms: C_22  and  N_20 
ROOT
ATOM      1  C   LIG d   1      -7.550  75.324 119.141  0.00  0.00     0.161 C 
ATOM      2  C   LIG d   1      -8.773  75.932 118.812  0.00  0.00     0.016 C 
ATOM      3  C   LIG d   1      -8.869  77.172 118.138  0.00  0.00     0.038 C 
ATOM      4  C   LIG d   1      -7.741  77.818 117.610  0.00  0.00     0.028 C 
ATOM      5  C   LIG d   1      -6.452  77.495 118.359  0.00  0.00    -0.047 C 
ATOM      6  C   LIG d   1      -6.312  75.960 118.476  0.00  0.00     0.091 C 
ENDROOT
BRANCH   1   7
ATOM      7  O   LIG d   1      -7.610  73.915 118.845  0.00  0.00    -0.368 OA
BRANCH   7   8
ATOM      8  C   LIG d   1      -7.985  73.564 117.490  0.00  0.00     0.119 C 
BRANCH   8   9
ATOM      9  C   LIG d   1      -9.145  72.553 117.578  0.00  0.00     0.028 C 
ATOM     10  C   LIG d   1      -9.050  71.455 116.505  0.00  0.00     0.006 C 
ENDBRANCH   8   9
BRANCH   8  11
ATOM     11  C   LIG d   1      -6.854  72.821 116.774  0.00  0.00     0.028 C 
ATOM     12  C   LIG d   1      -6.140  73.690 115.726  0.00  0.00     0.006 C 
ENDBRANCH   8  11
ENDBRANCH   7   8
ENDBRANCH   1   7
BRANCH   6  13
ATOM     13  N   LIG d   1      -5.120  75.559 119.268  0.00  0.00    -0.311 N 
ATOM     14  C   LIG d   1      -3.930  75.306 118.725  0.00  0.00     0.210 C 
ATOM     15  C   LIG d   1      -2.842  74.889 119.719  0.00  0.00     0.109 C 
ATOM     16  O   LIG d   1      -3.664  75.420 117.519  0.00  0.00    -0.276 OA
ATOM     17  H   LIG d   1      -5.238  75.472 120.258  0.00  0.00     0.149 HD
ENDBRANCH   6  13
BRANCH   5  18
ATOM     18  N   LIG d   1      -5.340  78.123 117.622  0.00  0.00     0.381 N 
ATOM     19  H   LIG d   1      -4.890  77.442 117.043  0.00  0.00    -0.090 HD
ATOM     20  H   LIG d   1      -4.666  78.469 118.282  0.00  0.00    -0.090 HD
ATOM     21  H   LIG d   1      -5.682  78.872 117.061  0.00  0.00    -0.090 HD
ENDBRANCH   5  18
BRANCH   3  22
ATOM     22  C   LIG d   1     -10.101  77.797 118.021  0.00  0.00     0.382 C 
ATOM     23  O   LIG d   1     -10.170  79.050 118.013  0.00  0.00    -0.241 OA
ATOM     24  O   LIG d   1     -11.148  77.124 117.968  0.00  0.00    -0.241 OA
ENDBRANCH   3  22
TORSDOF 7
ENDMDL
MODEL 3
REMARK VINA RESULT:      -4.8     17.174     19.366
REMARK  7 active torsions:
REMARK  status: ('A' for Active; 'I' for Inactive)
REMARK    1  A    between atoms: C_2  and  C_3 
REMARK    2  A    between atoms: C_3  and  O_6 
REMARK    3  A    between atoms: C_3  and  C_4 
REMARK    4  A    between atoms: C_7  and  O_6 
REMARK    5  A    between atoms: C_9  and  C_10 
REMARK    6  A    between atoms: N_15  and  C_14 
REMARK    7  A    between atoms: N_20  and  C_19 
REMARK       I    between atoms: C_22  and  N_20 
ROOT
ATOM      1  C   LIG d   1       3.418  89.452 115.490  0.00  0.00     0.161 C 
ATOM      2  C   LIG d   1       2.257  90.110 115.928  0.00  0.00     0.016 C 
ATOM      3  C   LIG d   1       2.252  91.075 116.961  0.00  0.00     0.038 C 
ATOM      4  C   LIG d   1       3.440  91.561 117.527  0.00  0.00     0.028 C 
ATOM      5  C   LIG d   1       4.591  90.562 117.469  0.00  0.00    -0.047 C 
ATOM      6  C   LIG d   1       4.738  90.049 116.018  0.00  0.00     0.091 C 
ENDROOT
BRANCH   1   7
ATOM      7  O   LIG d   1       3.434  89.397 114.049  0.00  0.00    -0.368 OA
BRANCH   7   8
ATOM      8  C   LIG d   1       3.153  88.105 113.457  0.00  0.00     0.119 C 
BRANCH   8   9
ATOM      9  C   LIG d   1       2.625  87.188 114.577  0.00  0.00     0.028 C 
ATOM     10  C   LIG d   1       3.303  85.807 114.575  0.00  0.00     0.006 C 
ENDBRANCH   8   9
BRANCH   8  11
ATOM     11  C   LIG d   1       4.434  87.433 112.954  0.00  0.00     0.028 C 
ATOM     12  C   LIG d   1       5.481  88.442 112.456  0.00  0.00     0.006 C 
ENDBRANCH   8  11
ENDBRANCH   7   8
ENDBRANCH   1   7
BRANCH   6  13
ATOM     13  N   LIG d   1       5.788  89.005 115.890  0.00  0.00    -0.311 N 
ATOM     14  C   LIG d   1       5.773  87.862 116.574  0.00  0.00     0.210 C 
ATOM     15  C   LIG d   1       6.961  86.933 116.307  0.00  0.00     0.109 C 
ATOM     16  O   LIG d   1       4.871  87.516 117.353  0.00  0.00    -0.276 OA
ATOM     17  H   LIG d   1       6.541  89.190 115.256  0.00  0.00     0.149 HD
ENDBRANCH   6  13
BRANCH   5  18
ATOM     18  N   LIG d   1       5.800  91.246 117.966  0.00  0.00     0.381 N 
ATOM     19  H   LIG d   1       6.617  90.797 117.603  0.00  0.00    -0.090 HD
ATOM     20  H   LIG d   1       5.823  91.179 118.969  0.00  0.00    -0.090 HD
ATOM     21  H   LIG d   1       5.788  92.203 117.690  0.00  0.00    -0.090 HD
ENDBRANCH   5  18
BRANCH   3  22
ATOM     22  C   LIG d   1       1.046  91.535 117.467  0.00  0.00     0.382 C 
ATOM     23  O   LIG d   1       0.738  91.305 118.661  0.00  0.00    -0.241 OA
ATOM     24  O   LIG d   1       0.242  92.138 116.731  0.00  0.00    -0.241 OA
ENDBRANCH   3  22
TORSDOF 7
ENDMDL
MODEL 4
REMARK VINA RESULT:      -4.8      4.607      7.830
REMARK  7 active torsions:
REMARK  status: ('A' for Active; 'I' for Inactive)
REMARK    1  A    between atoms: C_2  and  C_3 
REMARK    2  A    between atoms: C_3  and  O_6 
REMARK    3  A    between atoms: C_3  and  C_4 
REMARK    4  A    between atoms: C_7  and  O_6 
REMARK    5  A    between atoms: C_9  and  C_10 
REMARK    6  A    between atoms: N_15  and  C_14 
REMARK    7  A    between atoms: N_20  and  C_19 
REMARK       I    between atoms: C_22  and  N_20 
ROOT
ATOM      1  C   LIG d   1      -3.148  75.556 116.132  0.00  0.00     0.161 C 
ATOM      2  C   LIG d   1      -3.423  76.482 115.113  0.00  0.00     0.016 C 
ATOM      3  C   LIG d   1      -2.420  77.102 114.333  0.00  0.00     0.038 C 
ATOM      4  C   LIG d   1      -1.073  76.720 114.418  0.00  0.00     0.028 C 
ATOM      5  C   LIG d   1      -0.688  76.155 115.781  0.00  0.00    -0.047 C 
ATOM      6  C   LIG d   1      -1.692  75.044 116.165  0.00  0.00     0.091 C 
ENDROOT
BRANCH   1   7
ATOM      7  O   LIG d   1      -4.066  74.448 116.047  0.00  0.00    -0.368 OA
BRANCH   7   8
ATOM      8  C   LIG d   1      -4.903  74.224 117.209  0.00  0.00     0.119 C 
BRANCH   8   9
ATOM      9  C   LIG d   1      -6.366  74.189 116.725  0.00  0.00     0.028 C 
ATOM     10  C   LIG d   1      -6.917  72.756 116.627  0.00  0.00     0.006 C 
ENDBRANCH   8   9
BRANCH   8  11
ATOM     11  C   LIG d   1      -4.828  75.401 118.186  0.00  0.00     0.028 C 
ATOM     12  C   LIG d   1      -6.106  75.564 119.022  0.00  0.00     0.006 C 
ENDBRANCH   8  11
ENDBRANCH   7   8
ENDBRANCH   1   7
BRANCH   6  13
ATOM     13  N   LIG d   1      -1.439  74.495 117.523  0.00  0.00    -0.311 N 
ATOM     14  C   LIG d   1      -0.773  73.362 117.743  0.00  0.00     0.210 C 
ATOM     15  C   LIG d   1      -0.642  72.966 119.217  0.00  0.00     0.109 C 
ATOM     16  O   LIG d   1      -0.252  72.665 116.860  0.00  0.00    -0.276 OA
ATOM     17  H   LIG d   1      -1.800  75.013 118.299  0.00  0.00     0.149 HD
ENDBRANCH   6  13
BRANCH   5  18
ATOM     18  N   LIG d   1       0.702  75.671 115.687  0.00  0.00     0.381 N 
ATOM     19  H   LIG d   1       0.755  74.918 115.031  0.00  0.00    -0.090 HD
ATOM     20  H   LIG d   1       0.987  75.325 116.587  0.00  0.00    -0.090 HD
ATOM     21  H   LIG d   1       1.303  76.412 115.402  0.00  0.00    -0.090 HD
ENDBRANCH   5  18
BRANCH   3  22
ATOM     22  C   LIG d   1      -2.756  78.144 113.482  0.00  0.00     0.382 C 
ATOM     23  O   LIG d   1      -2.627  79.332 113.865  0.00  0.00    -0.241 OA
ATOM     24  O   LIG d   1      -3.230  77.911 112.354  0.00  0.00    -0.241 OA
ENDBRANCH   3  22
TORSDOF 7
ENDMDL
MODEL 5
REMARK VINA RESULT:      -4.8     16.226     19.120
REMARK  7 active torsions:
REMARK  status: ('A' for Active; 'I' for Inactive)
REMARK    1  A    between atoms: C_2  and  C_3 
REMARK    2  A    between atoms: C_3  and  O_6 
REMARK    3  A    between atoms: C_3  and  C_4 
REMARK    4  A    between atoms: C_7  and  O_6 
REMARK    5  A    between atoms: C_9  and  C_10 
REMARK    6  A    between atoms: N_15  and  C_14 
REMARK    7  A    between atoms: N_20  and  C_19 
REMARK       I    between atoms: C_22  and  N_20 
ROOT
ATOM      1  C   LIG d   1       4.506  87.142 115.971  0.00  0.00     0.161 C 
ATOM      2  C   LIG d   1       3.489  88.103 115.844  0.00  0.00     0.016 C 
ATOM      3  C   LIG d   1       3.695  89.486 116.056  0.00  0.00     0.038 C 
ATOM      4  C   LIG d   1       4.974  90.022 116.264  0.00  0.00     0.028 C 
ATOM      5  C   LIG d   1       5.948  89.036 116.899  0.00  0.00    -0.047 C 
ATOM      6  C   LIG d   1       5.931  87.720 116.088  0.00  0.00     0.091 C 
ENDROOT
BRANCH   1   7
ATOM      7  O   LIG d   1       4.433  86.206 114.877  0.00  0.00    -0.368 OA
BRANCH   7   8
ATOM      8  C   LIG d   1       3.615  86.606 113.750  0.00  0.00     0.119 C 
BRANCH   8   9
ATOM      9  C   LIG d   1       2.673  85.431 113.422  0.00  0.00     0.028 C 
ATOM     10  C   LIG d   1       1.309  85.560 114.121  0.00  0.00     0.006 C 
ENDBRANCH   8   9
BRANCH   8  11
ATOM     11  C   LIG d   1       4.463  86.809 112.491  0.00  0.00     0.028 C 
ATOM     12  C   LIG d   1       5.191  88.162 112.475  0.00  0.00     0.006 C 
ENDBRANCH   8  11
ENDBRANCH   7   8
ENDBRANCH   1   7
BRANCH   6  13
ATOM     13  N   LIG d   1       6.794  86.671 116.691  0.00  0.00    -0.311 N 
ATOM     14  C   LIG d   1       8.091  86.541 116.416  0.00  0.00     0.210 C 
ATOM     15  C   LIG d   1       8.790  85.380 117.131  0.00  0.00     0.109 C 
ATOM     16  O   LIG d   1       8.736  87.296 115.673  0.00  0.00    -0.276 OA
ATOM     17  H   LIG d   1       6.359  86.034 117.329  0.00  0.00     0.149 HD
ENDBRANCH   6  13
BRANCH   5  18
ATOM     18  N   LIG d   1       7.276  89.678 116.932  0.00  0.00     0.381 N 
ATOM     19  H   LIG d   1       7.887  89.225 116.283  0.00  0.00    -0.090 HD
ATOM     20  H   LIG d   1       7.663  89.578 117.853  0.00  0.00    -0.090 HD
ATOM     21  H   LIG d   1       7.192  90.644 116.702  0.00  0.00    -0.090 HD
ENDBRANCH   5  18
BRANCH   3  22
ATOM     22  C   LIG d   1       2.606  90.344 116.101  0.00  0.00     0.382 C 
ATOM     23  O   LIG d   1       1.448  89.897 115.916  0.00  0.00    -0.241 OA
ATOM     24  O   LIG d   1       2.771  91.565 116.281  0.00  0.00    -0.241 OA
ENDBRANCH   3  22
TORSDOF 7
ENDMDL
MODEL 6
REMARK VINA RESULT:      -4.7      2.870      5.876
REMARK  7 active torsions:
REMARK  status: ('A' for Active; 'I' for Inactive)
REMARK    1  A    between atoms: C_2  and  C_3 
REMARK    2  A    between atoms: C_3  and  O_6 
REMARK    3  A    between atoms: C_3  and  C_4 
REMARK    4  A    between atoms: C_7  and  O_6 
REMARK    5  A    between atoms: C_9  and  C_10 
REMARK    6  A    between atoms: N_15  and  C_14 
REMARK    7  A    between atoms: N_20  and  C_19 
REMARK       I    between atoms: C_22  and  N_20 
ROOT
ATOM      1  C   LIG d   1      -7.509  77.420 117.825  0.00  0.00     0.161 C 
ATOM      2  C   LIG d   1      -8.695  78.139 118.046  0.00  0.00     0.016 C 
ATOM      3  C   LIG d   1      -8.771  79.550 117.994  0.00  0.00     0.038 C 
ATOM      4  C   LIG d   1      -7.691  80.336 117.566  0.00  0.00     0.028 C 
ATOM      5  C   LIG d   1      -6.333  79.689 117.822  0.00  0.00    -0.047 C 
ATOM      6  C   LIG d   1      -6.345  78.254 117.248  0.00  0.00     0.091 C 
ENDROOT
BRANCH   1   7
ATOM      7  O   LIG d   1      -7.776  76.283 116.982  0.00  0.00    -0.368 OA
BRANCH   7   8
ATOM      8  C   LIG d   1      -7.868  75.001 117.651  0.00  0.00     0.119 C 
BRANCH   8   9
ATOM      9  C   LIG d   1      -6.995  74.004 116.865  0.00  0.00     0.028 C 
ATOM     10  C   LIG d   1      -5.598  73.833 117.484  0.00  0.00     0.006 C 
ENDBRANCH   8   9
BRANCH   8  11
ATOM     11  C   LIG d   1      -9.291  74.437 117.581  0.00  0.00     0.028 C 
ATOM     12  C   LIG d   1      -9.321  72.901 117.539  0.00  0.00     0.006 C 
ENDBRANCH   8  11
ENDBRANCH   7   8
ENDBRANCH   1   7
BRANCH   6  13
ATOM     13  N   LIG d   1      -5.084  77.521 117.530  0.00  0.00    -0.311 N 
ATOM     14  C   LIG d   1      -4.212  77.172 116.586  0.00  0.00     0.210 C 
ATOM     15  C   LIG d   1      -2.986  76.404 117.089  0.00  0.00     0.109 C 
ATOM     16  O   LIG d   1      -4.321  77.454 115.383  0.00  0.00    -0.276 OA
ATOM     17  H   LIG d   1      -4.900  77.279 118.484  0.00  0.00     0.149 HD
ENDBRANCH   6  13
BRANCH   5  18
ATOM     18  N   LIG d   1      -5.307  80.550 117.205  0.00  0.00     0.381 N 
ATOM     19  H   LIG d   1      -5.295  81.442 117.658  0.00  0.00    -0.090 HD
ATOM     20  H   LIG d   1      -5.539  80.691 116.238  0.00  0.00    -0.090 HD
ATOM     21  H   LIG d   1      -4.411  80.120 117.279  0.00  0.00    -0.090 HD
ENDBRANCH   5  18
BRANCH   3  22
ATOM     22  C   LIG d   1      -9.928  80.192 118.411  0.00  0.00     0.382 C 
ATOM     23  O   LIG d   1     -10.640  80.804 117.579  0.00  0.00    -0.241 OA
ATOM     24  O   LIG d   1     -10.244  80.203 119.616  0.00  0.00    -0.241 OA
ENDBRANCH   3  22
TORSDOF 7
ENDMDL
MODEL 7
REMARK VINA RESULT:      -4.7      2.751      4.435
REMARK  7 active torsions:
REMARK  status: ('A' for Active; 'I' for Inactive)
REMARK    1  A    between atoms: C_2  and  C_3 
REMARK    2  A    between atoms: C_3  and  O_6 
REMARK    3  A    between atoms: C_3  and  C_4 
REMARK    4  A    between atoms: C_7  and  O_6 
REMARK    5  A    between atoms: C_9  and  C_10 
REMARK    6  A    between atoms: N_15  and  C_14 
REMARK    7  A    between atoms: N_20  and  C_19 
REMARK       I    between atoms: C_22  and  N_20 
ROOT
ATOM      1  C   LIG d   1      -7.290  76.145 117.800  0.00  0.00     0.161 C 
ATOM      2  C   LIG d   1      -8.681  76.080 117.990  0.00  0.00     0.016 C 
ATOM      3  C   LIG d   1      -9.489  77.217 118.219  0.00  0.00     0.038 C 
ATOM      4  C   LIG d   1      -8.979  78.521 118.123  0.00  0.00     0.028 C 
ATOM      5  C   LIG d   1      -7.489  78.613 118.433  0.00  0.00    -0.047 C 
ATOM      6  C   LIG d   1      -6.733  77.568 117.581  0.00  0.00     0.091 C 
ENDROOT
BRANCH   1   7
ATOM      7  O   LIG d   1      -6.905  75.283 116.710  0.00  0.00    -0.368 OA
BRANCH   7   8
ATOM      8  C   LIG d   1      -6.112  74.124 117.065  0.00  0.00     0.119 C 
BRANCH   8   9
ATOM      9  C   LIG d   1      -4.860  74.127 116.166  0.00  0.00     0.028 C 
ATOM     10  C   LIG d   1      -5.180  74.520 114.715  0.00  0.00     0.006 C 
ENDBRANCH   8   9
BRANCH   8  11
ATOM     11  C   LIG d   1      -6.848  72.823 116.730  0.00  0.00     0.028 C 
ATOM     12  C   LIG d   1      -7.687  72.294 117.904  0.00  0.00     0.006 C 
ENDBRANCH   8  11
ENDBRANCH   7   8
ENDBRANCH   1   7
BRANCH   6  13
ATOM     13  N   LIG d   1      -5.279  77.533 117.885  0.00  0.00    -0.311 N 
ATOM     14  C   LIG d   1      -4.333  77.676 116.958  0.00  0.00     0.210 C 
ATOM     15  C   LIG d   1      -2.896  77.588 117.482  0.00  0.00     0.109 C 
ATOM     16  O   LIG d   1      -4.547  77.900 115.757  0.00  0.00    -0.276 OA
ATOM     17  H   LIG d   1      -5.016  77.387 118.840  0.00  0.00     0.149 HD
ENDBRANCH   6  13
BRANCH   5  18
ATOM     18  N   LIG d   1      -7.062  79.998 118.162  0.00  0.00     0.381 N 
ATOM     19  H   LIG d   1      -7.838  80.620 118.272  0.00  0.00    -0.090 HD
ATOM     20  H   LIG d   1      -6.742  80.059 117.211  0.00  0.00    -0.090 HD
ATOM     21  H   LIG d   1      -6.328  80.257 118.784  0.00  0.00    -0.090 HD
ENDBRANCH   5  18
BRANCH   3  22
ATOM     22  C   LIG d   1     -10.815  77.054 118.588  0.00  0.00     0.382 C 
ATOM     23  O   LIG d   1     -11.656  76.658 117.746  0.00  0.00    -0.241 OA
ATOM     24  O   LIG d   1     -11.190  77.341 119.741  0.00  0.00    -0.241 OA
ENDBRANCH   3  22
TORSDOF 7
ENDMDL
MODEL 8
REMARK VINA RESULT:      -4.7      2.228      5.024
REMARK  7 active torsions:
REMARK  status: ('A' for Active; 'I' for Inactive)
REMARK    1  A    between atoms: C_2  and  C_3 
REMARK    2  A    between atoms: C_3  and  O_6 
REMARK    3  A    between atoms: C_3  and  C_4 
REMARK    4  A    between atoms: C_7  and  O_6 
REMARK    5  A    between atoms: C_9  and  C_10 
REMARK    6  A    between atoms: N_15  and  C_14 
REMARK    7  A    between atoms: N_20  and  C_19 
REMARK       I    between atoms: C_22  and  N_20 
ROOT
ATOM      1  C   LIG d   1      -6.513  74.510 117.424  0.00  0.00     0.161 C 
ATOM      2  C   LIG d   1      -5.474  74.375 116.487  0.00  0.00     0.016 C 
ATOM      3  C   LIG d   1      -4.224  75.024 116.613  0.00  0.00     0.038 C 
ATOM      4  C   LIG d   1      -3.871  75.736 117.769  0.00  0.00     0.028 C 
ATOM      5  C   LIG d   1      -5.070  76.316 118.512  0.00  0.00    -0.047 C 
ATOM      6  C   LIG d   1      -6.106  75.194 118.746  0.00  0.00     0.091 C 
ENDROOT
BRANCH   1   7
ATOM      7  O   LIG d   1      -7.104  73.222 117.687  0.00  0.00    -0.368 OA
BRANCH   7   8
ATOM      8  C   LIG d   1      -8.176  72.820 116.799  0.00  0.00     0.119 C 
BRANCH   8   9
ATOM      9  C   LIG d   1      -9.497  72.948 117.581  0.00  0.00     0.028 C 
ATOM     10  C   LIG d   1     -10.228  74.269 117.288  0.00  0.00     0.006 C 
ENDBRANCH   8   9
BRANCH   8  11
ATOM     11  C   LIG d   1      -8.066  71.338 116.429  0.00  0.00     0.028 C 
ATOM     12  C   LIG d   1      -9.175  70.482 117.061  0.00  0.00     0.006 C 
ENDBRANCH   8  11
ENDBRANCH   7   8
ENDBRANCH   1   7
BRANCH   6  13
ATOM     13  N   LIG d   1      -7.347  75.694 119.394  0.00  0.00    -0.311 N 
ATOM     14  C   LIG d   1      -8.096  76.672 118.886  0.00  0.00     0.210 C 
ATOM     15  C   LIG d   1      -9.322  77.048 119.723  0.00  0.00     0.109 C 
ATOM     16  O   LIG d   1      -7.879  77.241 117.806  0.00  0.00    -0.276 OA
ATOM     17  H   LIG d   1      -7.615  75.267 120.259  0.00  0.00     0.149 HD
ENDBRANCH   6  13
BRANCH   5  18
ATOM     18  N   LIG d   1      -4.570  76.913 119.766  0.00  0.00     0.381 N 
ATOM     19  H   LIG d   1      -5.342  77.188 120.341  0.00  0.00    -0.090 HD
ATOM     20  H   LIG d   1      -4.034  77.733 119.544  0.00  0.00    -0.090 HD
ATOM     21  H   LIG d   1      -4.001  76.256 120.253  0.00  0.00    -0.090 HD
ENDBRANCH   5  18
BRANCH   3  22
ATOM     22  C   LIG d   1      -3.326  74.996 115.557  0.00  0.00     0.382 C 
ATOM     23  O   LIG d   1      -2.412  74.137 115.534  0.00  0.00    -0.241 OA
ATOM     24  O   LIG d   1      -3.392  75.846 114.649  0.00  0.00    -0.241 OA
ENDBRANCH   3  22
TORSDOF 7
ENDMDL
MODEL 9
REMARK VINA RESULT:      -4.5     10.957     14.767
REMARK  7 active torsions:
REMARK  status: ('A' for Active; 'I' for Inactive)
REMARK    1  A    between atoms: C_2  and  C_3 
REMARK    2  A    between atoms: C_3  and  O_6 
REMARK    3  A    between atoms: C_3  and  C_4 
REMARK    4  A    between atoms: C_7  and  O_6 
REMARK    5  A    between atoms: C_9  and  C_10 
REMARK    6  A    between atoms: N_15  and  C_14 
REMARK    7  A    between atoms: N_20  and  C_19 
REMARK       I    between atoms: C_22  and  N_20 
ROOT
ATOM      1  C   LIG d   1     -16.058  63.367 116.753  0.00  0.00     0.161 C 
ATOM      2  C   LIG d   1     -15.346  64.377 117.420  0.00  0.00     0.016 C 
ATOM      3  C   LIG d   1     -15.028  65.623 116.833  0.00  0.00     0.038 C 
ATOM      4  C   LIG d   1     -15.536  66.004 115.581  0.00  0.00     0.028 C 
ATOM      5  C   LIG d   1     -15.836  64.822 114.665  0.00  0.00    -0.047 C 
ATOM      6  C   LIG d   1     -16.715  63.806 115.428  0.00  0.00     0.091 C 
ENDROOT
BRANCH   1   7
ATOM      7  O   LIG d   1     -17.044  62.798 117.638  0.00  0.00    -0.368 OA
BRANCH   7   8
ATOM      8  C   LIG d   1     -17.498  63.651 118.717  0.00  0.00     0.119 C 
BRANCH   8   9
ATOM      9  C   LIG d   1     -17.654  62.768 119.971  0.00  0.00     0.028 C 
ATOM     10  C   LIG d   1     -16.814  61.482 119.890  0.00  0.00     0.006 C 
ENDBRANCH   8   9
BRANCH   8  11
ATOM     11  C   LIG d   1     -18.897  64.207 118.437  0.00  0.00     0.028 C 
ATOM     12  C   LIG d   1     -18.870  65.649 117.906  0.00  0.00     0.006 C 
ENDBRANCH   8  11
ENDBRANCH   7   8
ENDBRANCH   1   7
BRANCH   6  13
ATOM     13  N   LIG d   1     -16.986  62.580 114.632  0.00  0.00    -0.311 N 
ATOM     14  C   LIG d   1     -18.076  62.417 113.885  0.00  0.00     0.210 C 
ATOM     15  C   LIG d   1     -18.168  61.070 113.161  0.00  0.00     0.109 C 
ATOM     16  O   LIG d   1     -18.960  63.272 113.727  0.00  0.00    -0.276 OA
ATOM     17  H   LIG d   1     -16.305  61.847 114.678  0.00  0.00     0.149 HD
ENDBRANCH   6  13
BRANCH   5  18
ATOM     18  N   LIG d   1     -16.486  65.353 113.452  0.00  0.00     0.381 N 
ATOM     19  H   LIG d   1     -15.832  65.902 112.930  0.00  0.00    -0.090 HD
ATOM     20  H   LIG d   1     -17.249  65.947 113.725  0.00  0.00    -0.090 HD
ATOM     21  H   LIG d   1     -16.824  64.603 112.890  0.00  0.00    -0.090 HD
ENDBRANCH   5  18
BRANCH   3  22
ATOM     22  C   LIG d   1     -14.160  66.488 117.482  0.00  0.00     0.382 C 
ATOM     23  O   LIG d   1     -14.010  66.409 118.725  0.00  0.00    -0.241 OA
ATOM     24  O   LIG d   1     -13.560  67.376 116.847  0.00  0.00    -0.241 OA
ENDBRANCH   3  22
TORSDOF 7
ENDMDL
