MODEL 1
REMARK VINA RESULT:      -5.6      0.000      0.000
REMARK  7 active torsions:
REMARK  status: ('A' for Active; 'I' for Inactive)
REMARK    1  A    between atoms: C_2  and  C_3 
REMARK    2  A    between atoms: C_3  and  O_6 
REMARK    3  A    between atoms: C_3  and  C_4 
REMARK    4  A    between atoms: C_7  and  O_6 
REMARK    5  A    between atoms: C_9  and  C_10 
REMARK    6  A    between atoms: N_15  and  C_14 
REMARK    7  A    between atoms: N_20  and  C_19 
REMARK       I    between atoms: C_22  and  N_20 
ROOT
ATOM      1  C   LIG d   1      -3.070  77.763 114.233  0.00  0.00     0.161 C 
ATOM      2  C   LIG d   1      -3.297  78.929 113.483  0.00  0.00     0.016 C 
ATOM      3  C   LIG d   1      -2.301  79.902 113.236  0.00  0.00     0.038 C 
ATOM      4  C   LIG d   1      -0.961  79.699 113.597  0.00  0.00     0.028 C 
ATOM      5  C   LIG d   1      -0.791  78.771 114.795  0.00  0.00    -0.047 C 
ATOM      6  C   LIG d   1      -1.587  77.471 114.541  0.00  0.00     0.091 C 
ENDROOT
BRANCH   1   7
ATOM      7  O   LIG d   1      -3.678  76.634 113.575  0.00  0.00    -0.368 OA
BRANCH   7   8
ATOM      8  C   LIG d   1      -4.661  75.901 114.346  0.00  0.00     0.119 C 
BRANCH   8   9
ATOM      9  C   LIG d   1      -5.974  75.898 113.538  0.00  0.00     0.028 C 
ATOM     10  C   LIG d   1      -5.932  76.871 112.348  0.00  0.00     0.006 C 
ENDBRANCH   8   9
BRANCH   8  11
ATOM     11  C   LIG d   1      -4.993  76.622 115.656  0.00  0.00     0.028 C 
ATOM     12  C   LIG d   1      -6.481  76.528 116.027  0.00  0.00     0.006 C 
ENDBRANCH   8  11
ENDBRANCH   7   8
ENDBRANCH   1   7
BRANCH   6  13
ATOM     13  N   LIG d   1      -1.543  76.543 115.700  0.00  0.00    -0.311 N 
ATOM     14  C   LIG d   1      -1.230  75.252 115.595  0.00  0.00     0.210 C 
ATOM     15  C   LIG d   1      -1.264  74.470 116.912  0.00  0.00     0.109 C 
ATOM     16  O   LIG d   1      -0.898  74.689 114.542  0.00  0.00    -0.276 OA
ATOM     17  H   LIG d   1      -1.769  76.924 116.598  0.00  0.00     0.149 HD
ENDBRANCH   6  13
BRANCH   5  18
ATOM     18  N   LIG d   1       0.654  78.538 114.977  0.00  0.00     0.381 N 
ATOM     19  H   LIG d   1       0.833  77.557 115.050  0.00  0.00    -0.090 HD
ATOM     20  H   LIG d   1       0.950  78.978 115.831  0.00  0.00    -0.090 HD
ATOM     21  H   LIG d   1       1.160  78.918 114.207  0.00  0.00    -0.090 HD
ENDBRANCH   5  18
BRANCH   3  22
ATOM     22  C   LIG d   1      -2.651  81.112 112.655  0.00  0.00     0.382 C 
ATOM     23  O   LIG d   1      -1.760  81.936 112.339  0.00  0.00    -0.241 OA
ATOM     24  O   LIG d   1      -3.849  81.407 112.484  0.00  0.00    -0.241 OA
ENDBRANCH   3  22
TORSDOF 7
ENDMDL
MODEL 2
REMARK VINA RESULT:      -5.3      1.678      2.342
REMARK  7 active torsions:
REMARK  status: ('A' for Active; 'I' for Inactive)
REMARK    1  A    between atoms: C_2  and  C_3 
REMARK    2  A    between atoms: C_3  and  O_6 
REMARK    3  A    between atoms: C_3  and  C_4 
REMARK    4  A    between atoms: C_7  and  O_6 
REMARK    5  A    between atoms: C_9  and  C_10 
REMARK    6  A    between atoms: N_15  and  C_14 
REMARK    7  A    between atoms: N_20  and  C_19 
REMARK       I    between atoms: C_22  and  N_20 
ROOT
ATOM      1  C   LIG d   1      -2.617  77.213 116.389  0.00  0.00     0.161 C 
ATOM      2  C   LIG d   1      -2.823  78.269 115.486  0.00  0.00     0.016 C 
ATOM      3  C   LIG d   1      -1.889  78.634 114.490  0.00  0.00     0.038 C 
ATOM      4  C   LIG d   1      -0.744  77.866 114.231  0.00  0.00     0.028 C 
ATOM      5  C   LIG d   1      -0.246  77.091 115.446  0.00  0.00    -0.047 C 
ATOM      6  C   LIG d   1      -1.425  76.294 116.050  0.00  0.00     0.091 C 
ENDROOT
BRANCH   1   7
ATOM      7  O   LIG d   1      -3.826  76.438 116.519  0.00  0.00    -0.368 OA
BRANCH   7   8
ATOM      8  C   LIG d   1      -4.848  76.681 115.521  0.00  0.00     0.119 C 
BRANCH   8   9
ATOM      9  C   LIG d   1      -6.194  76.815 116.261  0.00  0.00     0.028 C 
ATOM     10  C   LIG d   1      -6.150  77.878 117.371  0.00  0.00     0.006 C 
ENDBRANCH   8   9
BRANCH   8  11
ATOM     11  C   LIG d   1      -5.016  75.476 114.590  0.00  0.00     0.028 C 
ATOM     12  C   LIG d   1      -6.012  74.438 115.131  0.00  0.00     0.006 C 
ENDBRANCH   8  11
ENDBRANCH   7   8
ENDBRANCH   1   7
BRANCH   6  13
ATOM     13  N   LIG d   1      -1.044  75.573 117.292  0.00  0.00    -0.311 N 
ATOM     14  C   LIG d   1      -0.543  74.340 117.299  0.00  0.00     0.210 C 
ATOM     15  C   LIG d   1      -0.237  73.774 118.690  0.00  0.00     0.109 C 
ATOM     16  O   LIG d   1      -0.291  73.672 116.285  0.00  0.00    -0.276 OA
ATOM     17  H   LIG d   1      -1.186  76.053 118.159  0.00  0.00     0.149 HD
ENDBRANCH   6  13
BRANCH   5  18
ATOM     18  N   LIG d   1       0.866  76.230 115.000  0.00  0.00     0.381 N 
ATOM     19  H   LIG d   1       0.776  76.040 114.022  0.00  0.00    -0.090 HD
ATOM     20  H   LIG d   1       0.819  75.357 115.496  0.00  0.00    -0.090 HD
ATOM     21  H   LIG d   1       1.737  76.677 115.181  0.00  0.00    -0.090 HD
ENDBRANCH   5  18
BRANCH   3  22
ATOM     22  C   LIG d   1      -2.076  79.803 113.768  0.00  0.00     0.382 C 
ATOM     23  O   LIG d   1      -1.085  80.486 113.413  0.00  0.00    -0.241 OA
ATOM     24  O   LIG d   1      -3.225  80.205 113.503  0.00  0.00    -0.241 OA
ENDBRANCH   3  22
TORSDOF 7
ENDMDL
MODEL 3
REMARK VINA RESULT:      -5.2     15.733     18.191
REMARK  7 active torsions:
REMARK  status: ('A' for Active; 'I' for Inactive)
REMARK    1  A    between atoms: C_2  and  C_3 
REMARK    2  A    between atoms: C_3  and  O_6 
REMARK    3  A    between atoms: C_3  and  C_4 
REMARK    4  A    between atoms: C_7  and  O_6 
REMARK    5  A    between atoms: C_9  and  C_10 
REMARK    6  A    between atoms: N_15  and  C_14 
REMARK    7  A    between atoms: N_20  and  C_19 
REMARK       I    between atoms: C_22  and  N_20 
ROOT
ATOM      1  C   LIG d   1     -16.021  65.519 117.049  0.00  0.00     0.161 C 
ATOM      2  C   LIG d   1     -16.043  66.833 116.553  0.00  0.00     0.016 C 
ATOM      3  C   LIG d   1     -15.319  67.897 117.137  0.00  0.00     0.038 C 
ATOM      4  C   LIG d   1     -14.399  67.686 118.175  0.00  0.00     0.028 C 
ATOM      5  C   LIG d   1     -14.724  66.469 119.034  0.00  0.00    -0.047 C 
ATOM      6  C   LIG d   1     -14.937  65.247 118.112  0.00  0.00     0.091 C 
ENDROOT
BRANCH   1   7
ATOM      7  O   LIG d   1     -15.897  64.586 115.957  0.00  0.00    -0.368 OA
BRANCH   7   8
ATOM      8  C   LIG d   1     -17.113  63.907 115.557  0.00  0.00     0.119 C 
BRANCH   8   9
ATOM      9  C   LIG d   1     -17.051  62.476 116.123  0.00  0.00     0.028 C 
ATOM     10  C   LIG d   1     -17.575  61.427 115.127  0.00  0.00     0.006 C 
ENDBRANCH   8   9
BRANCH   8  11
ATOM     11  C   LIG d   1     -17.184  63.739 114.036  0.00  0.00     0.028 C 
ATOM     12  C   LIG d   1     -17.253  65.082 113.291  0.00  0.00     0.006 C 
ENDBRANCH   8  11
ENDBRANCH   7   8
ENDBRANCH   1   7
BRANCH   6  13
ATOM     13  N   LIG d   1     -15.342  64.032 118.866  0.00  0.00    -0.311 N 
ATOM     14  C   LIG d   1     -14.648  62.895 118.852  0.00  0.00     0.210 C 
ATOM     15  C   LIG d   1     -15.252  61.758 119.682  0.00  0.00     0.109 C 
ATOM     16  O   LIG d   1     -13.573  62.730 118.256  0.00  0.00    -0.276 OA
ATOM     17  H   LIG d   1     -16.186  64.087 119.402  0.00  0.00     0.149 HD
ENDBRANCH   6  13
BRANCH   5  18
ATOM     18  N   LIG d   1     -13.613  66.287 119.988  0.00  0.00     0.381 N 
ATOM     19  H   LIG d   1     -13.977  66.075 120.895  0.00  0.00    -0.090 HD
ATOM     20  H   LIG d   1     -13.093  67.145 120.049  0.00  0.00    -0.090 HD
ATOM     21  H   LIG d   1     -13.017  65.550 119.680  0.00  0.00    -0.090 HD
ENDBRANCH   5  18
BRANCH   3  22
ATOM     22  C   LIG d   1     -15.542  69.197 116.709  0.00  0.00     0.382 C 
ATOM     23  O   LIG d   1     -15.053  69.593 115.624  0.00  0.00    -0.241 OA
ATOM     24  O   LIG d   1     -16.190  69.993 117.416  0.00  0.00    -0.241 OA
ENDBRANCH   3  22
TORSDOF 7
ENDMDL
MODEL 4
REMARK VINA RESULT:      -5.0     16.280     19.426
REMARK  7 active torsions:
REMARK  status: ('A' for Active; 'I' for Inactive)
REMARK    1  A    between atoms: C_2  and  C_3 
REMARK    2  A    between atoms: C_3  and  O_6 
REMARK    3  A    between atoms: C_3  and  C_4 
REMARK    4  A    between atoms: C_7  and  O_6 
REMARK    5  A    between atoms: C_9  and  C_10 
REMARK    6  A    between atoms: N_15  and  C_14 
REMARK    7  A    between atoms: N_20  and  C_19 
REMARK       I    between atoms: C_22  and  N_20 
ROOT
ATOM      1  C   LIG d   1     -16.568  64.835 116.674  0.00  0.00     0.161 C 
ATOM      2  C   LIG d   1     -16.956  63.529 116.332  0.00  0.00     0.016 C 
ATOM      3  C   LIG d   1     -17.172  63.104 115.001  0.00  0.00     0.038 C 
ATOM      4  C   LIG d   1     -16.866  63.922 113.903  0.00  0.00     0.028 C 
ATOM      5  C   LIG d   1     -16.953  65.412 114.214  0.00  0.00    -0.047 C 
ATOM      6  C   LIG d   1     -16.121  65.709 115.483  0.00  0.00     0.091 C 
ENDROOT
BRANCH   1   7
ATOM      7  O   LIG d   1     -15.534  64.791 117.678  0.00  0.00    -0.368 OA
BRANCH   7   8
ATOM      8  C   LIG d   1     -15.982  64.621 119.045  0.00  0.00     0.119 C 
BRANCH   8   9
ATOM      9  C   LIG d   1     -15.709  65.943 119.789  0.00  0.00     0.028 C 
ATOM     10  C   LIG d   1     -14.261  66.429 119.609  0.00  0.00     0.006 C 
ENDBRANCH   8   9
BRANCH   8  11
ATOM     11  C   LIG d   1     -15.149  63.564 119.777  0.00  0.00     0.028 C 
ATOM     12  C   LIG d   1     -14.273  62.733 118.826  0.00  0.00     0.006 C 
ENDBRANCH   8  11
ENDBRANCH   7   8
ENDBRANCH   1   7
BRANCH   6  13
ATOM     13  N   LIG d   1     -16.220  67.130 115.906  0.00  0.00    -0.311 N 
ATOM     14  C   LIG d   1     -15.169  67.861 116.273  0.00  0.00     0.210 C 
ATOM     15  C   LIG d   1     -15.495  69.298 116.692  0.00  0.00     0.109 C 
ATOM     16  O   LIG d   1     -13.994  67.466 116.261  0.00  0.00    -0.276 OA
ATOM     17  H   LIG d   1     -17.134  67.541 115.916  0.00  0.00     0.149 HD
ENDBRANCH   6  13
BRANCH   5  18
ATOM     18  N   LIG d   1     -16.476  66.144 113.026  0.00  0.00     0.381 N 
ATOM     19  H   LIG d   1     -17.085  66.915 112.836  0.00  0.00    -0.090 HD
ATOM     20  H   LIG d   1     -16.494  65.526 112.234  0.00  0.00    -0.090 HD
ATOM     21  H   LIG d   1     -15.549  66.474 113.178  0.00  0.00    -0.090 HD
ENDBRANCH   5  18
BRANCH   3  22
ATOM     22  C   LIG d   1     -17.739  61.862 114.760  0.00  0.00     0.382 C 
ATOM     23  O   LIG d   1     -18.837  61.780 114.159  0.00  0.00    -0.241 OA
ATOM     24  O   LIG d   1     -17.187  60.825 115.174  0.00  0.00    -0.241 OA
ENDBRANCH   3  22
TORSDOF 7
ENDMDL
MODEL 5
REMARK VINA RESULT:      -5.0      2.192      5.143
REMARK  7 active torsions:
REMARK  status: ('A' for Active; 'I' for Inactive)
REMARK    1  A    between atoms: C_2  and  C_3 
REMARK    2  A    between atoms: C_3  and  O_6 
REMARK    3  A    between atoms: C_3  and  C_4 
REMARK    4  A    between atoms: C_7  and  O_6 
REMARK    5  A    between atoms: C_9  and  C_10 
REMARK    6  A    between atoms: N_15  and  C_14 
REMARK    7  A    between atoms: N_20  and  C_19 
REMARK       I    between atoms: C_22  and  N_20 
ROOT
ATOM      1  C   LIG d   1      -2.964  76.401 115.567  0.00  0.00     0.161 C 
ATOM      2  C   LIG d   1      -2.881  75.527 116.664  0.00  0.00     0.016 C 
ATOM      3  C   LIG d   1      -1.673  75.242 117.341  0.00  0.00     0.038 C 
ATOM      4  C   LIG d   1      -0.485  75.933 117.062  0.00  0.00     0.028 C 
ATOM      5  C   LIG d   1      -0.410  76.455 115.631  0.00  0.00    -0.047 C 
ATOM      6  C   LIG d   1      -1.699  77.249 115.318  0.00  0.00     0.091 C 
ENDROOT
BRANCH   1   7
ATOM      7  O   LIG d   1      -4.118  77.253 115.708  0.00  0.00    -0.368 OA
BRANCH   7   8
ATOM      8  C   LIG d   1      -5.262  76.670 116.381  0.00  0.00     0.119 C 
BRANCH   8   9
ATOM      9  C   LIG d   1      -6.229  76.161 115.294  0.00  0.00     0.028 C 
ATOM     10  C   LIG d   1      -6.133  74.640 115.089  0.00  0.00     0.006 C 
ENDBRANCH   8   9
BRANCH   8  11
ATOM     11  C   LIG d   1      -6.048  77.728 117.160  0.00  0.00     0.028 C 
ATOM     12  C   LIG d   1      -5.165  78.887 117.650  0.00  0.00     0.006 C 
ENDBRANCH   8  11
ENDBRANCH   7   8
ENDBRANCH   1   7
BRANCH   6  13
ATOM     13  N   LIG d   1      -1.745  77.724 113.911  0.00  0.00    -0.311 N 
ATOM     14  C   LIG d   1      -1.942  78.997 113.572  0.00  0.00     0.210 C 
ATOM     15  C   LIG d   1      -1.974  79.268 112.065  0.00  0.00     0.109 C 
ATOM     16  O   LIG d   1      -2.060  79.932 114.378  0.00  0.00    -0.276 OA
ATOM     17  H   LIG d   1      -1.627  77.035 113.193  0.00  0.00     0.149 HD
ENDBRANCH   6  13
BRANCH   5  18
ATOM     18  N   LIG d   1       0.813  77.271 115.517  0.00  0.00     0.381 N 
ATOM     19  H   LIG d   1       1.328  76.999 114.703  0.00  0.00    -0.090 HD
ATOM     20  H   LIG d   1       1.390  77.107 116.324  0.00  0.00    -0.090 HD
ATOM     21  H   LIG d   1       0.575  78.237 115.461  0.00  0.00    -0.090 HD
ENDBRANCH   5  18
BRANCH   3  22
ATOM     22  C   LIG d   1      -1.638  74.226 118.285  0.00  0.00     0.382 C 
ATOM     23  O   LIG d   1      -0.973  73.186 118.062  0.00  0.00    -0.241 OA
ATOM     24  O   LIG d   1      -2.298  74.318 119.337  0.00  0.00    -0.241 OA
ENDBRANCH   3  22
TORSDOF 7
ENDMDL
MODEL 6
REMARK VINA RESULT:      -5.0     12.614     15.240
REMARK  7 active torsions:
REMARK  status: ('A' for Active; 'I' for Inactive)
REMARK    1  A    between atoms: C_2  and  C_3 
REMARK    2  A    between atoms: C_3  and  O_6 
REMARK    3  A    between atoms: C_3  and  C_4 
REMARK    4  A    between atoms: C_7  and  O_6 
REMARK    5  A    between atoms: C_9  and  C_10 
REMARK    6  A    between atoms: N_15  and  C_14 
REMARK    7  A    between atoms: N_20  and  C_19 
REMARK       I    between atoms: C_22  and  N_20 
ROOT
ATOM      1  C   LIG d   1      -4.514  91.363 117.665  0.00  0.00     0.161 C 
ATOM      2  C   LIG d   1      -3.699  92.291 118.335  0.00  0.00     0.016 C 
ATOM      3  C   LIG d   1      -4.208  93.409 119.036  0.00  0.00     0.038 C 
ATOM      4  C   LIG d   1      -5.583  93.591 119.243  0.00  0.00     0.028 C 
ATOM      5  C   LIG d   1      -6.448  92.958 118.158  0.00  0.00    -0.047 C 
ATOM      6  C   LIG d   1      -6.021  91.484 117.973  0.00  0.00     0.091 C 
ENDROOT
BRANCH   1   7
ATOM      7  O   LIG d   1      -4.053  90.024 117.935  0.00  0.00    -0.368 OA
BRANCH   7   8
ATOM      8  C   LIG d   1      -2.683  89.901 118.389  0.00  0.00     0.119 C 
BRANCH   8   9
ATOM      9  C   LIG d   1      -1.962  88.934 117.430  0.00  0.00     0.028 C 
ATOM     10  C   LIG d   1      -0.523  89.379 117.120  0.00  0.00     0.006 C 
ENDBRANCH   8   9
BRANCH   8  11
ATOM     11  C   LIG d   1      -2.610  89.236 119.767  0.00  0.00     0.028 C 
ATOM     12  C   LIG d   1      -2.578  87.701 119.686  0.00  0.00     0.006 C 
ENDBRANCH   8  11
ENDBRANCH   7   8
ENDBRANCH   1   7
BRANCH   6  13
ATOM     13  N   LIG d   1      -6.760  90.814 116.871  0.00  0.00    -0.311 N 
ATOM     14  C   LIG d   1      -6.851  91.313 115.639  0.00  0.00     0.210 C 
ATOM     15  C   LIG d   1      -7.677  90.472 114.661  0.00  0.00     0.109 C 
ATOM     16  O   LIG d   1      -6.299  92.355 115.256  0.00  0.00    -0.276 OA
ATOM     17  H   LIG d   1      -7.212  89.947 117.086  0.00  0.00     0.149 HD
ENDBRANCH   6  13
BRANCH   5  18
ATOM     18  N   LIG d   1      -7.857  93.104 118.570  0.00  0.00     0.381 N 
ATOM     19  H   LIG d   1      -7.904  93.543 119.467  0.00  0.00    -0.090 HD
ATOM     20  H   LIG d   1      -8.271  92.191 118.643  0.00  0.00    -0.090 HD
ATOM     21  H   LIG d   1      -8.353  93.649 117.899  0.00  0.00    -0.090 HD
ENDBRANCH   5  18
BRANCH   3  22
ATOM     22  C   LIG d   1      -3.337  94.380 119.505  0.00  0.00     0.382 C 
ATOM     23  O   LIG d   1      -3.668  95.590 119.470  0.00  0.00    -0.241 OA
ATOM     24  O   LIG d   1      -2.205  94.066 119.922  0.00  0.00    -0.241 OA
ENDBRANCH   3  22
TORSDOF 7
ENDMDL
MODEL 7
REMARK VINA RESULT:      -4.9     11.861     13.566
REMARK  7 active torsions:
REMARK  status: ('A' for Active; 'I' for Inactive)
REMARK    1  A    between atoms: C_2  and  C_3 
REMARK    2  A    between atoms: C_3  and  O_6 
REMARK    3  A    between atoms: C_3  and  C_4 
REMARK    4  A    between atoms: C_7  and  O_6 
REMARK    5  A    between atoms: C_9  and  C_10 
REMARK    6  A    between atoms: N_15  and  C_14 
REMARK    7  A    between atoms: N_20  and  C_19 
REMARK       I    between atoms: C_22  and  N_20 
ROOT
ATOM      1  C   LIG d   1       2.693  89.026 116.859  0.00  0.00     0.161 C 
ATOM      2  C   LIG d   1       2.741  88.557 115.535  0.00  0.00     0.016 C 
ATOM      3  C   LIG d   1       3.939  88.189 114.883  0.00  0.00     0.038 C 
ATOM      4  C   LIG d   1       5.164  88.120 115.564  0.00  0.00     0.028 C 
ATOM      5  C   LIG d   1       5.246  89.065 116.758  0.00  0.00    -0.047 C 
ATOM      6  C   LIG d   1       4.005  88.852 117.654  0.00  0.00     0.091 C 
ENDROOT
BRANCH   1   7
ATOM      7  O   LIG d   1       1.597  88.404 117.559  0.00  0.00    -0.368 OA
BRANCH   7   8
ATOM      8  C   LIG d   1       0.321  89.085 117.479  0.00  0.00     0.119 C 
BRANCH   8   9
ATOM      9  C   LIG d   1       0.277  90.120 118.620  0.00  0.00     0.028 C 
ATOM     10  C   LIG d   1       0.284  91.567 118.101  0.00  0.00     0.006 C 
ENDBRANCH   8   9
BRANCH   8  11
ATOM     11  C   LIG d   1      -0.841  88.127 117.754  0.00  0.00     0.028 C 
ATOM     12  C   LIG d   1      -2.206  88.833 117.766  0.00  0.00     0.006 C 
ENDBRANCH   8  11
ENDBRANCH   7   8
ENDBRANCH   1   7
BRANCH   6  13
ATOM     13  N   LIG d   1       3.964  89.797 118.800  0.00  0.00    -0.311 N 
ATOM     14  C   LIG d   1       3.925  91.120 118.659  0.00  0.00     0.210 C 
ATOM     15  C   LIG d   1       3.908  91.911 119.971  0.00  0.00     0.109 C 
ATOM     16  O   LIG d   1       3.871  91.714 117.571  0.00  0.00    -0.276 OA
ATOM     17  H   LIG d   1       3.973  89.399 119.719  0.00  0.00     0.149 HD
ENDBRANCH   6  13
BRANCH   5  18
ATOM     18  N   LIG d   1       6.517  88.792 117.456  0.00  0.00     0.381 N 
ATOM     19  H   LIG d   1       7.261  89.293 117.014  0.00  0.00    -0.090 HD
ATOM     20  H   LIG d   1       6.717  87.809 117.393  0.00  0.00    -0.090 HD
ATOM     21  H   LIG d   1       6.446  89.063 118.412  0.00  0.00    -0.090 HD
ENDBRANCH   5  18
BRANCH   3  22
ATOM     22  C   LIG d   1       3.927  87.922 113.522  0.00  0.00     0.382 C 
ATOM     23  O   LIG d   1       5.004  87.707 112.916  0.00  0.00    -0.241 OA
ATOM     24  O   LIG d   1       2.857  87.938 112.885  0.00  0.00    -0.241 OA
ENDBRANCH   3  22
TORSDOF 7
ENDMDL
MODEL 8
REMARK VINA RESULT:      -4.9     13.447     15.748
REMARK  7 active torsions:
REMARK  status: ('A' for Active; 'I' for Inactive)
REMARK    1  A    between atoms: C_2  and  C_3 
REMARK    2  A    between atoms: C_3  and  O_6 
REMARK    3  A    between atoms: C_3  and  C_4 
REMARK    4  A    between atoms: C_7  and  O_6 
REMARK    5  A    between atoms: C_9  and  C_10 
REMARK    6  A    between atoms: N_15  and  C_14 
REMARK    7  A    between atoms: N_20  and  C_19 
REMARK       I    between atoms: C_22  and  N_20 
ROOT
ATOM      1  C   LIG d   1      -3.722  92.556 119.552  0.00  0.00     0.161 C 
ATOM      2  C   LIG d   1      -3.688  93.959 119.488  0.00  0.00     0.016 C 
ATOM      3  C   LIG d   1      -2.660  94.684 118.843  0.00  0.00     0.038 C 
ATOM      4  C   LIG d   1      -1.668  94.047 118.083  0.00  0.00     0.028 C 
ATOM      5  C   LIG d   1      -1.376  92.621 118.540  0.00  0.00    -0.047 C 
ATOM      6  C   LIG d   1      -2.708  91.842 118.634  0.00  0.00     0.091 C 
ENDROOT
BRANCH   1   7
ATOM      7  O   LIG d   1      -5.058  92.086 119.284  0.00  0.00    -0.368 OA
BRANCH   7   8
ATOM      8  C   LIG d   1      -5.698  92.627 118.102  0.00  0.00     0.119 C 
BRANCH   8   9
ATOM      9  C   LIG d   1      -7.104  93.104 118.515  0.00  0.00     0.028 C 
ATOM     10  C   LIG d   1      -7.220  94.637 118.544  0.00  0.00     0.006 C 
ENDBRANCH   8   9
BRANCH   8  11
ATOM     11  C   LIG d   1      -5.932  91.541 117.048  0.00  0.00     0.028 C 
ATOM     12  C   LIG d   1      -6.833  92.012 115.896  0.00  0.00     0.006 C 
ENDBRANCH   8  11
ENDBRANCH   7   8
ENDBRANCH   1   7
BRANCH   6  13
ATOM     13  N   LIG d   1      -2.522  90.463 119.155  0.00  0.00    -0.311 N 
ATOM     14  C   LIG d   1      -2.884  89.370 118.484  0.00  0.00     0.210 C 
ATOM     15  C   LIG d   1      -2.621  88.048 119.212  0.00  0.00     0.109 C 
ATOM     16  O   LIG d   1      -3.368  89.369 117.343  0.00  0.00    -0.276 OA
ATOM     17  H   LIG d   1      -2.107  90.370 120.062  0.00  0.00     0.149 HD
ENDBRANCH   6  13
BRANCH   5  18
ATOM     18  N   LIG d   1      -0.427  92.030 117.579  0.00  0.00     0.381 N 
ATOM     19  H   LIG d   1      -0.377  91.041 117.717  0.00  0.00    -0.090 HD
ATOM     20  H   LIG d   1       0.486  92.418 117.743  0.00  0.00    -0.090 HD
ATOM     21  H   LIG d   1      -0.717  92.229 116.647  0.00  0.00    -0.090 HD
ENDBRANCH   5  18
BRANCH   3  22
ATOM     22  C   LIG d   1      -2.595  96.061 118.989  0.00  0.00     0.382 C 
ATOM     23  O   LIG d   1      -1.488  96.648 118.917  0.00  0.00    -0.241 OA
ATOM     24  O   LIG d   1      -3.623  96.719 119.235  0.00  0.00    -0.241 OA
ENDBRANCH   3  22
TORSDOF 7
ENDMDL
MODEL 9
REMARK VINA RESULT:      -4.9     13.618     16.212
REMARK  7 active torsions:
REMARK  status: ('A' for Active; 'I' for Inactive)
REMARK    1  A    between atoms: C_2  and  C_3 
REMARK    2  A    between atoms: C_3  and  O_6 
REMARK    3  A    between atoms: C_3  and  C_4 
REMARK    4  A    between atoms: C_7  and  O_6 
REMARK    5  A    between atoms: C_9  and  C_10 
REMARK    6  A    between atoms: N_15  and  C_14 
REMARK    7  A    between atoms: N_20  and  C_19 
REMARK       I    between atoms: C_22  and  N_20 
ROOT
ATOM      1  C   LIG d   1      -5.042  92.742 118.587  0.00  0.00     0.161 C 
ATOM      2  C   LIG d   1      -5.458  93.868 119.317  0.00  0.00     0.016 C 
ATOM      3  C   LIG d   1      -6.681  94.537 119.085  0.00  0.00     0.038 C 
ATOM      4  C   LIG d   1      -7.647  94.032 118.202  0.00  0.00     0.028 C 
ATOM      5  C   LIG d   1      -7.058  93.184 117.080  0.00  0.00    -0.047 C 
ATOM      6  C   LIG d   1      -6.133  92.110 117.696  0.00  0.00     0.091 C 
ENDROOT
BRANCH   1   7
ATOM      7  O   LIG d   1      -4.493  91.755 119.482  0.00  0.00    -0.368 OA
BRANCH   7   8
ATOM      8  C   LIG d   1      -3.053  91.773 119.644  0.00  0.00     0.119 C 
BRANCH   8   9
ATOM      9  C   LIG d   1      -2.456  92.459 118.400  0.00  0.00     0.028 C 
ATOM     10  C   LIG d   1      -0.926  92.598 118.484  0.00  0.00     0.006 C 
ENDBRANCH   8   9
BRANCH   8  11
ATOM     11  C   LIG d   1      -2.474  90.355 119.642  0.00  0.00     0.028 C 
ATOM     12  C   LIG d   1      -2.932  89.526 118.432  0.00  0.00     0.006 C 
ENDBRANCH   8  11
ENDBRANCH   7   8
ENDBRANCH   1   7
BRANCH   6  13
ATOM     13  N   LIG d   1      -5.449  91.290 116.662  0.00  0.00    -0.311 N 
ATOM     14  C   LIG d   1      -6.010  90.234 116.075  0.00  0.00     0.210 C 
ATOM     15  C   LIG d   1      -5.125  89.518 115.051  0.00  0.00     0.109 C 
ATOM     16  O   LIG d   1      -7.169  89.843 116.282  0.00  0.00    -0.276 OA
ATOM     17  H   LIG d   1      -4.517  91.556 116.411  0.00  0.00     0.149 HD
ENDBRANCH   6  13
BRANCH   5  18
ATOM     18  N   LIG d   1      -8.183  92.609 116.318  0.00  0.00     0.381 N 
ATOM     19  H   LIG d   1      -8.460  91.739 116.727  0.00  0.00    -0.090 HD
ATOM     20  H   LIG d   1      -7.882  92.434 115.376  0.00  0.00    -0.090 HD
ATOM     21  H   LIG d   1      -8.952  93.243 116.316  0.00  0.00    -0.090 HD
ENDBRANCH   5  18
BRANCH   3  22
ATOM     22  C   LIG d   1      -6.931  95.749 119.711  0.00  0.00     0.382 C 
ATOM     23  O   LIG d   1      -8.108  96.171 119.813  0.00  0.00    -0.241 OA
ATOM     24  O   LIG d   1      -5.990  96.446 120.136  0.00  0.00    -0.241 OA
ENDBRANCH   3  22
TORSDOF 7
ENDMDL
