MODEL 1
REMARK VINA RESULT:      -5.7      0.000      0.000
REMARK  7 active torsions:
REMARK  status: ('A' for Active; 'I' for Inactive)
REMARK    1  A    between atoms: C_2  and  C_3 
REMARK    2  A    between atoms: C_3  and  O_6 
REMARK    3  A    between atoms: C_3  and  C_4 
REMARK    4  A    between atoms: C_7  and  O_6 
REMARK    5  A    between atoms: C_9  and  C_10 
REMARK    6  A    between atoms: N_15  and  C_14 
REMARK    7  A    between atoms: N_20  and  C_19 
REMARK       I    between atoms: C_22  and  N_20 
ROOT
ATOM      1  C   LIG d   1      -7.529  76.627 117.587  0.00  0.00     0.161 C 
ATOM      2  C   LIG d   1      -8.595  77.446 117.994  0.00  0.00     0.016 C 
ATOM      3  C   LIG d   1      -8.505  78.854 118.084  0.00  0.00     0.038 C 
ATOM      4  C   LIG d   1      -7.380  79.555 117.624  0.00  0.00     0.028 C 
ATOM      5  C   LIG d   1      -6.093  78.739 117.677  0.00  0.00    -0.047 C 
ATOM      6  C   LIG d   1      -6.330  77.382 116.975  0.00  0.00     0.091 C 
ENDROOT
BRANCH   1   7
ATOM      7  O   LIG d   1      -8.007  75.621 116.672  0.00  0.00    -0.368 OA
BRANCH   7   8
ATOM      8  C   LIG d   1      -8.186  74.293 117.221  0.00  0.00     0.119 C 
BRANCH   8   9
ATOM      9  C   LIG d   1      -7.059  73.404 116.659  0.00  0.00     0.028 C 
ATOM     10  C   LIG d   1      -6.022  73.024 117.730  0.00  0.00     0.006 C 
ENDBRANCH   8   9
BRANCH   8  11
ATOM     11  C   LIG d   1      -9.489  73.656 116.728  0.00  0.00     0.028 C 
ATOM     12  C   LIG d   1      -9.347  72.152 116.444  0.00  0.00     0.006 C 
ENDBRANCH   8  11
ENDBRANCH   7   8
ENDBRANCH   1   7
BRANCH   6  13
ATOM     13  N   LIG d   1      -5.146  76.488 117.056  0.00  0.00    -0.311 N 
ATOM     14  C   LIG d   1      -4.433  76.118 115.994  0.00  0.00     0.210 C 
ATOM     15  C   LIG d   1      -3.264  75.175 116.296  0.00  0.00     0.109 C 
ATOM     16  O   LIG d   1      -4.637  76.508 114.834  0.00  0.00    -0.276 OA
ATOM     17  H   LIG d   1      -4.891  76.150 117.963  0.00  0.00     0.149 HD
ENDBRANCH   6  13
BRANCH   5  18
ATOM     18  N   LIG d   1      -5.030  79.540 117.042  0.00  0.00     0.381 N 
ATOM     19  H   LIG d   1      -4.483  78.960 116.438  0.00  0.00    -0.090 HD
ATOM     20  H   LIG d   1      -4.428  79.907 117.758  0.00  0.00    -0.090 HD
ATOM     21  H   LIG d   1      -5.432  80.288 116.521  0.00  0.00    -0.090 HD
ENDBRANCH   5  18
BRANCH   3  22
ATOM     22  C   LIG d   1      -9.533  79.572 118.675  0.00  0.00     0.382 C 
ATOM     23  O   LIG d   1      -9.833  79.364 119.876  0.00  0.00    -0.241 OA
ATOM     24  O   LIG d   1     -10.192  80.394 118.012  0.00  0.00    -0.241 OA
ENDBRANCH   3  22
TORSDOF 7
ENDMDL
MODEL 2
REMARK VINA RESULT:      -5.6      1.160      1.880
REMARK  7 active torsions:
REMARK  status: ('A' for Active; 'I' for Inactive)
REMARK    1  A    between atoms: C_2  and  C_3 
REMARK    2  A    between atoms: C_3  and  O_6 
REMARK    3  A    between atoms: C_3  and  C_4 
REMARK    4  A    between atoms: C_7  and  O_6 
REMARK    5  A    between atoms: C_9  and  C_10 
REMARK    6  A    between atoms: N_15  and  C_14 
REMARK    7  A    between atoms: N_20  and  C_19 
REMARK       I    between atoms: C_22  and  N_20 
ROOT
ATOM      1  C   LIG d   1      -6.987  75.550 117.012  0.00  0.00     0.161 C 
ATOM      2  C   LIG d   1      -8.227  76.111 117.361  0.00  0.00     0.016 C 
ATOM      3  C   LIG d   1      -8.414  77.489 117.612  0.00  0.00     0.038 C 
ATOM      4  C   LIG d   1      -7.398  78.429 117.382  0.00  0.00     0.028 C 
ATOM      5  C   LIG d   1      -5.994  77.849 117.517  0.00  0.00    -0.047 C 
ATOM      6  C   LIG d   1      -5.892  76.575 116.648  0.00  0.00     0.091 C 
ENDROOT
BRANCH   1   7
ATOM      7  O   LIG d   1      -7.163  74.603 115.939  0.00  0.00    -0.368 OA
BRANCH   7   8
ATOM      8  C   LIG d   1      -7.143  73.204 116.314  0.00  0.00     0.119 C 
BRANCH   8   9
ATOM      9  C   LIG d   1      -8.547  72.843 116.835  0.00  0.00     0.028 C 
ATOM     10  C   LIG d   1      -9.120  71.587 116.159  0.00  0.00     0.006 C 
ENDBRANCH   8   9
BRANCH   8  11
ATOM     11  C   LIG d   1      -6.197  72.956 117.493  0.00  0.00     0.028 C 
ATOM     12  C   LIG d   1      -6.855  72.155 118.627  0.00  0.00     0.006 C 
ENDBRANCH   8  11
ENDBRANCH   7   8
ENDBRANCH   1   7
BRANCH   6  13
ATOM     13  N   LIG d   1      -4.577  75.897 116.788  0.00  0.00    -0.311 N 
ATOM     14  C   LIG d   1      -3.581  76.042 115.916  0.00  0.00     0.210 C 
ATOM     15  C   LIG d   1      -2.317  75.238 116.238  0.00  0.00     0.109 C 
ATOM     16  O   LIG d   1      -3.612  76.786 114.924  0.00  0.00    -0.276 OA
ATOM     17  H   LIG d   1      -4.454  75.299 117.582  0.00  0.00     0.149 HD
ENDBRANCH   6  13
BRANCH   5  18
ATOM     18  N   LIG d   1      -5.038  78.899 117.118  0.00  0.00     0.381 N 
ATOM     19  H   LIG d   1      -5.504  79.783 117.072  0.00  0.00    -0.090 HD
ATOM     20  H   LIG d   1      -4.681  78.683 116.204  0.00  0.00    -0.090 HD
ATOM     21  H   LIG d   1      -4.288  78.945 117.773  0.00  0.00    -0.090 HD
ENDBRANCH   5  18
BRANCH   3  22
ATOM     22  C   LIG d   1      -9.617  77.935 118.137  0.00  0.00     0.382 C 
ATOM     23  O   LIG d   1     -10.528  77.114 118.401  0.00  0.00    -0.241 OA
ATOM     24  O   LIG d   1      -9.820  79.152 118.307  0.00  0.00    -0.241 OA
ENDBRANCH   3  22
TORSDOF 7
ENDMDL
MODEL 3
REMARK VINA RESULT:      -5.4      1.485      2.139
REMARK  7 active torsions:
REMARK  status: ('A' for Active; 'I' for Inactive)
REMARK    1  A    between atoms: C_2  and  C_3 
REMARK    2  A    between atoms: C_3  and  O_6 
REMARK    3  A    between atoms: C_3  and  C_4 
REMARK    4  A    between atoms: C_7  and  O_6 
REMARK    5  A    between atoms: C_9  and  C_10 
REMARK    6  A    between atoms: N_15  and  C_14 
REMARK    7  A    between atoms: N_20  and  C_19 
REMARK       I    between atoms: C_22  and  N_20 
ROOT
ATOM      1  C   LIG d   1      -6.574  76.211 118.565  0.00  0.00     0.161 C 
ATOM      2  C   LIG d   1      -7.465  77.298 118.584  0.00  0.00     0.016 C 
ATOM      3  C   LIG d   1      -7.244  78.498 117.870  0.00  0.00     0.038 C 
ATOM      4  C   LIG d   1      -6.184  78.636 116.961  0.00  0.00     0.028 C 
ATOM      5  C   LIG d   1      -4.984  77.755 117.292  0.00  0.00    -0.047 C 
ATOM      6  C   LIG d   1      -5.469  76.300 117.492  0.00  0.00     0.091 C 
ENDROOT
BRANCH   1   7
ATOM      7  O   LIG d   1      -7.310  74.980 118.425  0.00  0.00    -0.368 OA
BRANCH   7   8
ATOM      8  C   LIG d   1      -7.786  74.669 117.093  0.00  0.00     0.119 C 
BRANCH   8   9
ATOM      9  C   LIG d   1      -9.299  74.391 117.195  0.00  0.00     0.028 C 
ATOM     10  C   LIG d   1     -10.138  75.677 117.120  0.00  0.00     0.006 C 
ENDBRANCH   8   9
BRANCH   8  11
ATOM     11  C   LIG d   1      -7.169  73.369 116.569  0.00  0.00     0.028 C 
ATOM     12  C   LIG d   1      -6.625  72.473 117.693  0.00  0.00     0.006 C 
ENDBRANCH   8  11
ENDBRANCH   7   8
ENDBRANCH   1   7
BRANCH   6  13
ATOM     13  N   LIG d   1      -4.370  75.388 117.901  0.00  0.00    -0.311 N 
ATOM     14  C   LIG d   1      -3.649  74.675 117.038  0.00  0.00     0.210 C 
ATOM     15  C   LIG d   1      -2.578  73.782 117.672  0.00  0.00     0.109 C 
ATOM     16  O   LIG d   1      -3.773  74.722 115.804  0.00  0.00    -0.276 OA
ATOM     17  H   LIG d   1      -4.181  75.313 118.882  0.00  0.00     0.149 HD
ENDBRANCH   6  13
BRANCH   5  18
ATOM     18  N   LIG d   1      -4.012  77.894 116.192  0.00  0.00     0.381 N 
ATOM     19  H   LIG d   1      -3.955  78.852 115.910  0.00  0.00    -0.090 HD
ATOM     20  H   LIG d   1      -4.329  77.353 115.407  0.00  0.00    -0.090 HD
ATOM     21  H   LIG d   1      -3.116  77.573 116.486  0.00  0.00    -0.090 HD
ENDBRANCH   5  18
BRANCH   3  22
ATOM     22  C   LIG d   1      -8.067  79.592 118.093  0.00  0.00     0.382 C 
ATOM     23  O   LIG d   1      -8.907  79.564 119.024  0.00  0.00    -0.241 OA
ATOM     24  O   LIG d   1      -8.010  80.587 117.346  0.00  0.00    -0.241 OA
ENDBRANCH   3  22
TORSDOF 7
ENDMDL
MODEL 4
REMARK VINA RESULT:      -5.3      2.391      5.387
REMARK  7 active torsions:
REMARK  status: ('A' for Active; 'I' for Inactive)
REMARK    1  A    between atoms: C_2  and  C_3 
REMARK    2  A    between atoms: C_3  and  O_6 
REMARK    3  A    between atoms: C_3  and  C_4 
REMARK    4  A    between atoms: C_7  and  O_6 
REMARK    5  A    between atoms: C_9  and  C_10 
REMARK    6  A    between atoms: N_15  and  C_14 
REMARK    7  A    between atoms: N_20  and  C_19 
REMARK       I    between atoms: C_22  and  N_20 
ROOT
ATOM      1  C   LIG d   1      -6.203  74.764 118.130  0.00  0.00     0.161 C 
ATOM      2  C   LIG d   1      -6.485  73.477 117.645  0.00  0.00     0.016 C 
ATOM      3  C   LIG d   1      -7.711  73.125 117.035  0.00  0.00     0.038 C 
ATOM      4  C   LIG d   1      -8.689  74.084 116.731  0.00  0.00     0.028 C 
ATOM      5  C   LIG d   1      -8.657  75.296 117.655  0.00  0.00    -0.047 C 
ATOM      6  C   LIG d   1      -7.215  75.850 117.707  0.00  0.00     0.091 C 
ENDROOT
BRANCH   1   7
ATOM      7  O   LIG d   1      -4.867  75.149 117.750  0.00  0.00    -0.368 OA
BRANCH   7   8
ATOM      8  C   LIG d   1      -4.455  74.781 116.411  0.00  0.00     0.119 C 
BRANCH   8   9
ATOM      9  C   LIG d   1      -2.934  74.539 116.445  0.00  0.00     0.028 C 
ATOM     10  C   LIG d   1      -2.474  73.873 117.753  0.00  0.00     0.006 C 
ENDBRANCH   8   9
BRANCH   8  11
ATOM     11  C   LIG d   1      -4.661  75.936 115.427  0.00  0.00     0.028 C 
ATOM     12  C   LIG d   1      -5.851  75.709 114.481  0.00  0.00     0.006 C 
ENDBRANCH   8  11
ENDBRANCH   7   8
ENDBRANCH   1   7
BRANCH   6  13
ATOM     13  N   LIG d   1      -7.078  76.986 118.655  0.00  0.00    -0.311 N 
ATOM     14  C   LIG d   1      -7.095  78.263 118.277  0.00  0.00     0.210 C 
ATOM     15  C   LIG d   1      -6.918  79.277 119.412  0.00  0.00     0.109 C 
ATOM     16  O   LIG d   1      -7.272  78.654 117.113  0.00  0.00    -0.276 OA
ATOM     17  H   LIG d   1      -6.961  76.761 119.624  0.00  0.00     0.149 HD
ENDBRANCH   6  13
BRANCH   5  18
ATOM     18  N   LIG d   1      -9.634  76.274 117.141  0.00  0.00     0.381 N 
ATOM     19  H   LIG d   1      -9.589  76.306 116.142  0.00  0.00    -0.090 HD
ATOM     20  H   LIG d   1      -9.400  77.185 117.496  0.00  0.00    -0.090 HD
ATOM     21  H   LIG d   1     -10.554  76.023 117.432  0.00  0.00    -0.090 HD
ENDBRANCH   5  18
BRANCH   3  22
ATOM     22  C   LIG d   1      -7.985  71.794 116.759  0.00  0.00     0.382 C 
ATOM     23  O   LIG d   1      -8.568  71.084 117.613  0.00  0.00    -0.241 OA
ATOM     24  O   LIG d   1      -7.616  71.284 115.684  0.00  0.00    -0.241 OA
ENDBRANCH   3  22
TORSDOF 7
ENDMDL
MODEL 5
REMARK VINA RESULT:      -4.9     13.335     15.039
REMARK  7 active torsions:
REMARK  status: ('A' for Active; 'I' for Inactive)
REMARK    1  A    between atoms: C_2  and  C_3 
REMARK    2  A    between atoms: C_3  and  O_6 
REMARK    3  A    between atoms: C_3  and  C_4 
REMARK    4  A    between atoms: C_7  and  O_6 
REMARK    5  A    between atoms: C_9  and  C_10 
REMARK    6  A    between atoms: N_15  and  C_14 
REMARK    7  A    between atoms: N_20  and  C_19 
REMARK       I    between atoms: C_22  and  N_20 
ROOT
ATOM      1  C   LIG d   1       2.201  87.506 115.498  0.00  0.00     0.161 C 
ATOM      2  C   LIG d   1       0.965  87.480 116.165  0.00  0.00     0.016 C 
ATOM      3  C   LIG d   1       0.472  88.559 116.933  0.00  0.00     0.038 C 
ATOM      4  C   LIG d   1       1.118  89.804 116.962  0.00  0.00     0.028 C 
ATOM      5  C   LIG d   1       2.620  89.713 116.715  0.00  0.00    -0.047 C 
ATOM      6  C   LIG d   1       2.867  88.896 115.427  0.00  0.00     0.091 C 
ENDROOT
BRANCH   1   7
ATOM      7  O   LIG d   1       2.054  86.953 114.175  0.00  0.00    -0.368 OA
BRANCH   7   8
ATOM      8  C   LIG d   1       2.478  85.577 114.009  0.00  0.00     0.119 C 
BRANCH   8   9
ATOM      9  C   LIG d   1       3.862  85.598 113.332  0.00  0.00     0.028 C 
ATOM     10  C   LIG d   1       3.878  86.456 112.055  0.00  0.00     0.006 C 
ENDBRANCH   8   9
BRANCH   8  11
ATOM     11  C   LIG d   1       1.562  84.826 113.037  0.00  0.00     0.028 C 
ATOM     12  C   LIG d   1       0.355  85.663 112.588  0.00  0.00     0.006 C 
ENDBRANCH   8  11
ENDBRANCH   7   8
ENDBRANCH   1   7
BRANCH   6  13
ATOM     13  N   LIG d   1       4.314  88.688 115.157  0.00  0.00    -0.311 N 
ATOM     14  C   LIG d   1       4.940  89.183 114.091  0.00  0.00     0.210 C 
ATOM     15  C   LIG d   1       6.428  88.833 113.994  0.00  0.00     0.109 C 
ATOM     16  O   LIG d   1       4.412  89.906 113.233  0.00  0.00    -0.276 OA
ATOM     17  H   LIG d   1       4.827  88.138 115.819  0.00  0.00     0.149 HD
ENDBRANCH   6  13
BRANCH   5  18
ATOM     18  N   LIG d   1       3.142  91.091 116.636  0.00  0.00     0.381 N 
ATOM     19  H   LIG d   1       3.222  91.476 117.555  0.00  0.00    -0.090 HD
ATOM     20  H   LIG d   1       2.495  91.654 116.112  0.00  0.00    -0.090 HD
ATOM     21  H   LIG d   1       4.032  91.092 116.188  0.00  0.00    -0.090 HD
ENDBRANCH   5  18
BRANCH   3  22
ATOM     22  C   LIG d   1      -0.660  88.386 117.715  0.00  0.00     0.382 C 
ATOM     23  O   LIG d   1      -0.617  87.639 118.723  0.00  0.00    -0.241 OA
ATOM     24  O   LIG d   1      -1.735  88.932 117.402  0.00  0.00    -0.241 OA
ENDBRANCH   3  22
TORSDOF 7
ENDMDL
MODEL 6
REMARK VINA RESULT:      -4.9      2.091      4.268
REMARK  7 active torsions:
REMARK  status: ('A' for Active; 'I' for Inactive)
REMARK    1  A    between atoms: C_2  and  C_3 
REMARK    2  A    between atoms: C_3  and  O_6 
REMARK    3  A    between atoms: C_3  and  C_4 
REMARK    4  A    between atoms: C_7  and  O_6 
REMARK    5  A    between atoms: C_9  and  C_10 
REMARK    6  A    between atoms: N_15  and  C_14 
REMARK    7  A    between atoms: N_20  and  C_19 
REMARK       I    between atoms: C_22  and  N_20 
ROOT
ATOM      1  C   LIG d   1      -6.530  77.455 117.175  0.00  0.00     0.161 C 
ATOM      2  C   LIG d   1      -6.769  78.811 117.453  0.00  0.00     0.016 C 
ATOM      3  C   LIG d   1      -8.033  79.316 117.836  0.00  0.00     0.038 C 
ATOM      4  C   LIG d   1      -9.116  78.469 118.115  0.00  0.00     0.028 C 
ATOM      5  C   LIG d   1      -9.060  77.145 117.361  0.00  0.00    -0.047 C 
ATOM      6  C   LIG d   1      -7.672  76.500 117.582  0.00  0.00     0.091 C 
ENDROOT
BRANCH   1   7
ATOM      7  O   LIG d   1      -5.291  77.042 117.785  0.00  0.00    -0.368 OA
BRANCH   7   8
ATOM      8  C   LIG d   1      -4.146  76.951 116.902  0.00  0.00     0.119 C 
BRANCH   8   9
ATOM      9  C   LIG d   1      -3.329  75.716 117.329  0.00  0.00     0.028 C 
ATOM     10  C   LIG d   1      -3.373  74.592 116.281  0.00  0.00     0.006 C 
ENDBRANCH   8   9
BRANCH   8  11
ATOM     11  C   LIG d   1      -3.204  78.144 117.086  0.00  0.00     0.028 C 
ATOM     12  C   LIG d   1      -3.081  79.007 115.821  0.00  0.00     0.006 C 
ENDBRANCH   8  11
ENDBRANCH   7   8
ENDBRANCH   1   7
BRANCH   6  13
ATOM     13  N   LIG d   1      -7.503  75.242 116.810  0.00  0.00    -0.311 N 
ATOM     14  C   LIG d   1      -7.098  74.096 117.356  0.00  0.00     0.210 C 
ATOM     15  C   LIG d   1      -6.970  72.924 116.378  0.00  0.00     0.109 C 
ATOM     16  O   LIG d   1      -6.863  73.932 118.562  0.00  0.00    -0.276 OA
ATOM     17  H   LIG d   1      -7.702  75.278 115.830  0.00  0.00     0.149 HD
ENDBRANCH   6  13
BRANCH   5  18
ATOM     18  N   LIG d   1     -10.171  76.307 117.849  0.00  0.00     0.381 N 
ATOM     19  H   LIG d   1     -10.397  75.612 117.165  0.00  0.00    -0.090 HD
ATOM     20  H   LIG d   1     -10.980  76.887 117.988  0.00  0.00    -0.090 HD
ATOM     21  H   LIG d   1      -9.917  75.869 118.707  0.00  0.00    -0.090 HD
ENDBRANCH   5  18
BRANCH   3  22
ATOM     22  C   LIG d   1      -8.234  80.686 117.905  0.00  0.00     0.382 C 
ATOM     23  O   LIG d   1      -7.866  81.422 116.957  0.00  0.00    -0.241 OA
ATOM     24  O   LIG d   1      -8.737  81.201 118.921  0.00  0.00    -0.241 OA
ENDBRANCH   3  22
TORSDOF 7
ENDMDL
MODEL 7
REMARK VINA RESULT:      -4.7      2.281      3.049
REMARK  7 active torsions:
REMARK  status: ('A' for Active; 'I' for Inactive)
REMARK    1  A    between atoms: C_2  and  C_3 
REMARK    2  A    between atoms: C_3  and  O_6 
REMARK    3  A    between atoms: C_3  and  C_4 
REMARK    4  A    between atoms: C_7  and  O_6 
REMARK    5  A    between atoms: C_9  and  C_10 
REMARK    6  A    between atoms: N_15  and  C_14 
REMARK    7  A    between atoms: N_20  and  C_19 
REMARK       I    between atoms: C_22  and  N_20 
ROOT
ATOM      1  C   LIG d   1      -5.874  77.679 117.170  0.00  0.00     0.161 C 
ATOM      2  C   LIG d   1      -6.426  78.970 117.219  0.00  0.00     0.016 C 
ATOM      3  C   LIG d   1      -5.748  80.086 117.762  0.00  0.00     0.038 C 
ATOM      4  C   LIG d   1      -4.404  80.016 118.159  0.00  0.00     0.028 C 
ATOM      5  C   LIG d   1      -3.973  78.620 118.595  0.00  0.00    -0.047 C 
ATOM      6  C   LIG d   1      -4.367  77.607 117.496  0.00  0.00     0.091 C 
ENDROOT
BRANCH   1   7
ATOM      7  O   LIG d   1      -6.137  77.084 115.884  0.00  0.00    -0.368 OA
BRANCH   7   8
ATOM      8  C   LIG d   1      -7.035  75.947 115.880  0.00  0.00     0.119 C 
BRANCH   8   9
ATOM      9  C   LIG d   1      -7.648  75.836 117.289  0.00  0.00     0.028 C 
ATOM     10  C   LIG d   1      -9.162  76.105 117.294  0.00  0.00     0.006 C 
ENDBRANCH   8   9
BRANCH   8  11
ATOM     11  C   LIG d   1      -6.273  74.636 115.664  0.00  0.00     0.028 C 
ATOM     12  C   LIG d   1      -6.476  73.633 116.810  0.00  0.00     0.006 C 
ENDBRANCH   8  11
ENDBRANCH   7   8
ENDBRANCH   1   7
BRANCH   6  13
ATOM     13  N   LIG d   1      -4.057  76.205 117.880  0.00  0.00    -0.311 N 
ATOM     14  C   LIG d   1      -2.938  75.578 117.522  0.00  0.00     0.210 C 
ATOM     15  C   LIG d   1      -2.826  74.129 118.007  0.00  0.00     0.109 C 
ATOM     16  O   LIG d   1      -2.013  76.094 116.877  0.00  0.00    -0.276 OA
ATOM     17  H   LIG d   1      -4.739  75.721 118.430  0.00  0.00     0.149 HD
ENDBRANCH   6  13
BRANCH   5  18
ATOM     18  N   LIG d   1      -2.521  78.662 118.849  0.00  0.00     0.381 N 
ATOM     19  H   LIG d   1      -2.042  78.101 118.173  0.00  0.00    -0.090 HD
ATOM     20  H   LIG d   1      -2.339  78.280 119.760  0.00  0.00    -0.090 HD
ATOM     21  H   LIG d   1      -2.193  79.601 118.803  0.00  0.00    -0.090 HD
ENDBRANCH   5  18
BRANCH   3  22
ATOM     22  C   LIG d   1      -6.429  81.279 117.950  0.00  0.00     0.382 C 
ATOM     23  O   LIG d   1      -7.226  81.691 117.073  0.00  0.00    -0.241 OA
ATOM     24  O   LIG d   1      -6.224  81.970 118.966  0.00  0.00    -0.241 OA
ENDBRANCH   3  22
TORSDOF 7
ENDMDL
MODEL 8
REMARK VINA RESULT:      -4.7     16.588     19.012
REMARK  7 active torsions:
REMARK  status: ('A' for Active; 'I' for Inactive)
REMARK    1  A    between atoms: C_2  and  C_3 
REMARK    2  A    between atoms: C_3  and  O_6 
REMARK    3  A    between atoms: C_3  and  C_4 
REMARK    4  A    between atoms: C_7  and  O_6 
REMARK    5  A    between atoms: C_9  and  C_10 
REMARK    6  A    between atoms: N_15  and  C_14 
REMARK    7  A    between atoms: N_20  and  C_19 
REMARK       I    between atoms: C_22  and  N_20 
ROOT
ATOM      1  C   LIG d   1     -23.794  83.448 114.761  0.00  0.00     0.161 C 
ATOM      2  C   LIG d   1     -22.873  84.508 114.764  0.00  0.00     0.016 C 
ATOM      3  C   LIG d   1     -23.147  85.779 114.207  0.00  0.00     0.038 C 
ATOM      4  C   LIG d   1     -24.425  86.124 113.742  0.00  0.00     0.028 C 
ATOM      5  C   LIG d   1     -25.237  84.928 113.259  0.00  0.00    -0.047 C 
ATOM      6  C   LIG d   1     -25.231  83.840 114.357  0.00  0.00     0.091 C 
ENDROOT
BRANCH   1   7
ATOM      7  O   LIG d   1     -23.795  82.798 116.047  0.00  0.00    -0.368 OA
BRANCH   7   8
ATOM      8  C   LIG d   1     -23.216  81.471 116.092  0.00  0.00     0.119 C 
BRANCH   8   9
ATOM      9  C   LIG d   1     -24.348  80.482 116.429  0.00  0.00     0.028 C 
ATOM     10  C   LIG d   1     -24.448  79.335 115.409  0.00  0.00     0.006 C 
ENDBRANCH   8   9
BRANCH   8  11
ATOM     11  C   LIG d   1     -22.209  81.340 117.239  0.00  0.00     0.028 C 
ATOM     12  C   LIG d   1     -21.329  82.589 117.404  0.00  0.00     0.006 C 
ENDBRANCH   8  11
ENDBRANCH   7   8
ENDBRANCH   1   7
BRANCH   6  13
ATOM     13  N   LIG d   1     -25.933  82.601 113.933  0.00  0.00    -0.311 N 
ATOM     14  C   LIG d   1     -27.032  82.141 114.528  0.00  0.00     0.210 C 
ATOM     15  C   LIG d   1     -27.585  80.836 113.945  0.00  0.00     0.109 C 
ATOM     16  O   LIG d   1     -27.621  82.706 115.462  0.00  0.00    -0.276 OA
ATOM     17  H   LIG d   1     -25.542  82.096 113.162  0.00  0.00     0.149 HD
ENDBRANCH   6  13
BRANCH   5  18
ATOM     18  N   LIG d   1     -26.592  85.412 112.932  0.00  0.00     0.381 N 
ATOM     19  H   LIG d   1     -26.793  86.238 113.459  0.00  0.00    -0.090 HD
ATOM     20  H   LIG d   1     -27.260  84.705 113.186  0.00  0.00    -0.090 HD
ATOM     21  H   LIG d   1     -26.658  85.607 111.957  0.00  0.00    -0.090 HD
ENDBRANCH   5  18
BRANCH   3  22
ATOM     22  C   LIG d   1     -22.125  86.707 114.076  0.00  0.00     0.382 C 
ATOM     23  O   LIG d   1     -21.219  86.526 113.227  0.00  0.00    -0.241 OA
ATOM     24  O   LIG d   1     -22.073  87.700 114.826  0.00  0.00    -0.241 OA
ENDBRANCH   3  22
TORSDOF 7
ENDMDL
MODEL 9
REMARK VINA RESULT:      -4.6      3.409      5.619
REMARK  7 active torsions:
REMARK  status: ('A' for Active; 'I' for Inactive)
REMARK    1  A    between atoms: C_2  and  C_3 
REMARK    2  A    between atoms: C_3  and  O_6 
REMARK    3  A    between atoms: C_3  and  C_4 
REMARK    4  A    between atoms: C_7  and  O_6 
REMARK    5  A    between atoms: C_9  and  C_10 
REMARK    6  A    between atoms: N_15  and  C_14 
REMARK    7  A    between atoms: N_20  and  C_19 
REMARK       I    between atoms: C_22  and  N_20 
ROOT
ATOM      1  C   LIG d   1      -4.626  74.356 116.837  0.00  0.00     0.161 C 
ATOM      2  C   LIG d   1      -3.954  75.371 116.136  0.00  0.00     0.016 C 
ATOM      3  C   LIG d   1      -4.515  76.645 115.884  0.00  0.00     0.038 C 
ATOM      4  C   LIG d   1      -5.734  77.043 116.452  0.00  0.00     0.028 C 
ATOM      5  C   LIG d   1      -6.675  75.880 116.745  0.00  0.00    -0.047 C 
ATOM      6  C   LIG d   1      -5.911  74.810 117.560  0.00  0.00     0.091 C 
ENDROOT
BRANCH   1   7
ATOM      7  O   LIG d   1      -3.723  73.727 117.769  0.00  0.00    -0.368 OA
BRANCH   7   8
ATOM      8  C   LIG d   1      -2.540  74.485 118.120  0.00  0.00     0.119 C 
BRANCH   8   9
ATOM      9  C   LIG d   1      -1.381  73.483 118.286  0.00  0.00     0.028 C 
ATOM     10  C   LIG d   1      -0.872  73.409 119.736  0.00  0.00     0.006 C 
ENDBRANCH   8   9
BRANCH   8  11
ATOM     11  C   LIG d   1      -2.694  75.157 119.488  0.00  0.00     0.028 C 
ATOM     12  C   LIG d   1      -2.943  76.670 119.384  0.00  0.00     0.006 C 
ENDBRANCH   8  11
ENDBRANCH   7   8
ENDBRANCH   1   7
BRANCH   6  13
ATOM     13  N   LIG d   1      -6.734  73.600 117.818  0.00  0.00    -0.311 N 
ATOM     14  C   LIG d   1      -7.214  72.820 116.850  0.00  0.00     0.210 C 
ATOM     15  C   LIG d   1      -8.055  71.634 117.334  0.00  0.00     0.109 C 
ATOM     16  O   LIG d   1      -6.997  72.979 115.640  0.00  0.00    -0.276 OA
ATOM     17  H   LIG d   1      -6.933  73.378 118.774  0.00  0.00     0.149 HD
ENDBRANCH   6  13
BRANCH   5  18
ATOM     18  N   LIG d   1      -7.846  76.422 117.459  0.00  0.00     0.381 N 
ATOM     19  H   LIG d   1      -7.545  77.069 118.161  0.00  0.00    -0.090 HD
ATOM     20  H   LIG d   1      -8.330  75.667 117.912  0.00  0.00    -0.090 HD
ATOM     21  H   LIG d   1      -8.456  76.879 116.816  0.00  0.00    -0.090 HD
ENDBRANCH   5  18
BRANCH   3  22
ATOM     22  C   LIG d   1      -3.872  77.520 115.023  0.00  0.00     0.382 C 
ATOM     23  O   LIG d   1      -3.653  77.184 113.834  0.00  0.00    -0.241 OA
ATOM     24  O   LIG d   1      -3.467  78.625 115.431  0.00  0.00    -0.241 OA
ENDBRANCH   3  22
TORSDOF 7
ENDMDL
