MODEL 1
REMARK VINA RESULT:      -5.3      0.000      0.000
REMARK  7 active torsions:
REMARK  status: ('A' for Active; 'I' for Inactive)
REMARK    1  A    between atoms: C_2  and  C_3 
REMARK    2  A    between atoms: C_3  and  O_6 
REMARK    3  A    between atoms: C_3  and  C_4 
REMARK    4  A    between atoms: C_7  and  O_6 
REMARK    5  A    between atoms: C_9  and  C_10 
REMARK    6  A    between atoms: N_15  and  C_14 
REMARK    7  A    between atoms: N_20  and  C_19 
REMARK       I    between atoms: C_22  and  N_20 
ROOT
ATOM      1  C   LIG d   1      -6.003  78.269 117.354  0.00  0.00     0.161 C 
ATOM      2  C   LIG d   1      -7.225  78.958 117.278  0.00  0.00     0.016 C 
ATOM      3  C   LIG d   1      -7.455  80.205 117.902  0.00  0.00     0.038 C 
ATOM      4  C   LIG d   1      -6.424  80.925 118.523  0.00  0.00     0.028 C 
ATOM      5  C   LIG d   1      -5.304  80.039 119.059  0.00  0.00    -0.047 C 
ATOM      6  C   LIG d   1      -4.833  79.091 117.933  0.00  0.00     0.091 C 
ENDROOT
BRANCH   1   7
ATOM      7  O   LIG d   1      -5.655  77.747 116.056  0.00  0.00    -0.368 OA
BRANCH   7   8
ATOM      8  C   LIG d   1      -5.729  76.308 115.907  0.00  0.00     0.119 C 
BRANCH   8   9
ATOM      9  C   LIG d   1      -4.602  75.884 114.945  0.00  0.00     0.028 C 
ATOM     10  C   LIG d   1      -3.483  75.107 115.659  0.00  0.00     0.006 C 
ENDBRANCH   8   9
BRANCH   8  11
ATOM     11  C   LIG d   1      -7.030  75.886 115.218  0.00  0.00     0.028 C 
ATOM     12  C   LIG d   1      -8.136  75.505 116.215  0.00  0.00     0.006 C 
ENDBRANCH   8  11
ENDBRANCH   7   8
ENDBRANCH   1   7
BRANCH   6  13
ATOM     13  N   LIG d   1      -3.796  78.132 118.397  0.00  0.00    -0.311 N 
ATOM     14  C   LIG d   1      -2.617  77.980 117.796  0.00  0.00     0.210 C 
ATOM     15  C   LIG d   1      -1.703  76.923 118.425  0.00  0.00     0.109 C 
ATOM     16  O   LIG d   1      -2.228  78.642 116.823  0.00  0.00    -0.276 OA
ATOM     17  H   LIG d   1      -4.016  77.576 119.200  0.00  0.00     0.149 HD
ENDBRANCH   6  13
BRANCH   5  18
ATOM     18  N   LIG d   1      -4.234  80.925 119.555  0.00  0.00     0.381 N 
ATOM     19  H   LIG d   1      -3.380  80.726 119.075  0.00  0.00    -0.090 HD
ATOM     20  H   LIG d   1      -4.094  80.747 120.535  0.00  0.00    -0.090 HD
ATOM     21  H   LIG d   1      -4.488  81.878 119.416  0.00  0.00    -0.090 HD
ENDBRANCH   5  18
BRANCH   3  22
ATOM     22  C   LIG d   1      -8.740  80.726 117.943  0.00  0.00     0.382 C 
ATOM     23  O   LIG d   1      -9.715  80.017 117.596  0.00  0.00    -0.241 OA
ATOM     24  O   LIG d   1      -8.931  81.910 118.281  0.00  0.00    -0.241 OA
ENDBRANCH   3  22
TORSDOF 7
ENDMDL
MODEL 2
REMARK VINA RESULT:      -5.1      2.064      4.946
REMARK  7 active torsions:
REMARK  status: ('A' for Active; 'I' for Inactive)
REMARK    1  A    between atoms: C_2  and  C_3 
REMARK    2  A    between atoms: C_3  and  O_6 
REMARK    3  A    between atoms: C_3  and  C_4 
REMARK    4  A    between atoms: C_7  and  O_6 
REMARK    5  A    between atoms: C_9  and  C_10 
REMARK    6  A    between atoms: N_15  and  C_14 
REMARK    7  A    between atoms: N_20  and  C_19 
REMARK       I    between atoms: C_22  and  N_20 
ROOT
ATOM      1  C   LIG d   1      -5.946  78.478 117.371  0.00  0.00     0.161 C 
ATOM      2  C   LIG d   1      -6.253  77.464 116.448  0.00  0.00     0.016 C 
ATOM      3  C   LIG d   1      -5.276  76.639 115.845  0.00  0.00     0.038 C 
ATOM      4  C   LIG d   1      -3.930  76.673 116.241  0.00  0.00     0.028 C 
ATOM      5  C   LIG d   1      -3.497  78.023 116.801  0.00  0.00    -0.047 C 
ATOM      6  C   LIG d   1      -4.496  78.456 117.898  0.00  0.00     0.091 C 
ENDROOT
BRANCH   1   7
ATOM      7  O   LIG d   1      -6.879  78.439 118.468  0.00  0.00    -0.368 OA
BRANCH   7   8
ATOM      8  C   LIG d   1      -7.845  79.517 118.522  0.00  0.00     0.119 C 
BRANCH   8   9
ATOM      9  C   LIG d   1      -9.137  79.016 117.848  0.00  0.00     0.028 C 
ATOM     10  C   LIG d   1      -9.508  77.587 118.279  0.00  0.00     0.006 C 
ENDBRANCH   8   9
BRANCH   8  11
ATOM     11  C   LIG d   1      -7.390  80.716 117.685  0.00  0.00     0.028 C 
ATOM     12  C   LIG d   1      -7.049  81.946 118.541  0.00  0.00     0.006 C 
ENDBRANCH   8  11
ENDBRANCH   7   8
ENDBRANCH   1   7
BRANCH   6  13
ATOM     13  N   LIG d   1      -4.194  79.806 118.441  0.00  0.00    -0.311 N 
ATOM     14  C   LIG d   1      -3.441  80.011 119.520  0.00  0.00     0.210 C 
ATOM     15  C   LIG d   1      -3.271  81.480 119.921  0.00  0.00     0.109 C 
ATOM     16  O   LIG d   1      -2.872  79.118 120.165  0.00  0.00    -0.276 OA
ATOM     17  H   LIG d   1      -4.590  80.590 117.960  0.00  0.00     0.149 HD
ENDBRANCH   6  13
BRANCH   5  18
ATOM     18  N   LIG d   1      -2.117  77.877 117.301  0.00  0.00     0.381 N 
ATOM     19  H   LIG d   1      -1.468  78.036 116.557  0.00  0.00    -0.090 HD
ATOM     20  H   LIG d   1      -1.990  76.937 117.634  0.00  0.00    -0.090 HD
ATOM     21  H   LIG d   1      -1.951  78.524 118.040  0.00  0.00    -0.090 HD
ENDBRANCH   5  18
BRANCH   3  22
ATOM     22  C   LIG d   1      -5.635  75.796 114.805  0.00  0.00     0.382 C 
ATOM     23  O   LIG d   1      -6.071  74.645 115.053  0.00  0.00    -0.241 OA
ATOM     24  O   LIG d   1      -5.488  76.154 113.621  0.00  0.00    -0.241 OA
ENDBRANCH   3  22
TORSDOF 7
ENDMDL
MODEL 3
REMARK VINA RESULT:      -5.0      2.890      5.447
REMARK  7 active torsions:
REMARK  status: ('A' for Active; 'I' for Inactive)
REMARK    1  A    between atoms: C_2  and  C_3 
REMARK    2  A    between atoms: C_3  and  O_6 
REMARK    3  A    between atoms: C_3  and  C_4 
REMARK    4  A    between atoms: C_7  and  O_6 
REMARK    5  A    between atoms: C_9  and  C_10 
REMARK    6  A    between atoms: N_15  and  C_14 
REMARK    7  A    between atoms: N_20  and  C_19 
REMARK       I    between atoms: C_22  and  N_20 
ROOT
ATOM      1  C   LIG d   1      -3.279  77.586 117.009  0.00  0.00     0.161 C 
ATOM      2  C   LIG d   1      -4.390  77.146 116.270  0.00  0.00     0.016 C 
ATOM      3  C   LIG d   1      -4.408  75.936 115.538  0.00  0.00     0.038 C 
ATOM      4  C   LIG d   1      -3.362  75.005 115.619  0.00  0.00     0.028 C 
ATOM      5  C   LIG d   1      -2.013  75.636 115.948  0.00  0.00    -0.047 C 
ATOM      6  C   LIG d   1      -2.170  76.530 117.199  0.00  0.00     0.091 C 
ENDROOT
BRANCH   1   7
ATOM      7  O   LIG d   1      -3.712  78.094 118.286  0.00  0.00    -0.368 OA
BRANCH   7   8
ATOM      8  C   LIG d   1      -4.007  79.511 118.342  0.00  0.00     0.119 C 
BRANCH   8   9
ATOM      9  C   LIG d   1      -3.136  80.122 119.456  0.00  0.00     0.028 C 
ATOM     10  C   LIG d   1      -1.796  80.658 118.926  0.00  0.00     0.006 C 
ENDBRANCH   8   9
BRANCH   8  11
ATOM     11  C   LIG d   1      -5.455  79.762 118.775  0.00  0.00     0.028 C 
ATOM     12  C   LIG d   1      -6.388  80.063 117.592  0.00  0.00     0.006 C 
ENDBRANCH   8  11
ENDBRANCH   7   8
ENDBRANCH   1   7
BRANCH   6  13
ATOM     13  N   LIG d   1      -0.916  77.252 117.540  0.00  0.00    -0.311 N 
ATOM     14  C   LIG d   1      -0.313  77.155 118.723  0.00  0.00     0.210 C 
ATOM     15  C   LIG d   1       0.957  77.998 118.873  0.00  0.00     0.109 C 
ATOM     16  O   LIG d   1      -0.691  76.425 119.652  0.00  0.00    -0.276 OA
ATOM     17  H   LIG d   1      -0.523  77.843 116.833  0.00  0.00     0.149 HD
ENDBRANCH   6  13
BRANCH   5  18
ATOM     18  N   LIG d   1      -1.043  74.541 116.138  0.00  0.00     0.381 N 
ATOM     19  H   LIG d   1      -1.363  73.719 115.666  0.00  0.00    -0.090 HD
ATOM     20  H   LIG d   1      -0.974  74.334 117.119  0.00  0.00    -0.090 HD
ATOM     21  H   LIG d   1      -0.152  74.810 115.784  0.00  0.00    -0.090 HD
ENDBRANCH   5  18
BRANCH   3  22
ATOM     22  C   LIG d   1      -5.465  75.666 114.682  0.00  0.00     0.382 C 
ATOM     23  O   LIG d   1      -5.518  76.219 113.557  0.00  0.00    -0.241 OA
ATOM     24  O   LIG d   1      -6.390  74.911 115.039  0.00  0.00    -0.241 OA
ENDBRANCH   3  22
TORSDOF 7
ENDMDL
MODEL 4
REMARK VINA RESULT:      -4.9      3.270      5.824
REMARK  7 active torsions:
REMARK  status: ('A' for Active; 'I' for Inactive)
REMARK    1  A    between atoms: C_2  and  C_3 
REMARK    2  A    between atoms: C_3  and  O_6 
REMARK    3  A    between atoms: C_3  and  C_4 
REMARK    4  A    between atoms: C_7  and  O_6 
REMARK    5  A    between atoms: C_9  and  C_10 
REMARK    6  A    between atoms: N_15  and  C_14 
REMARK    7  A    between atoms: N_20  and  C_19 
REMARK       I    between atoms: C_22  and  N_20 
ROOT
ATOM      1  C   LIG d   1      -2.367  77.746 116.256  0.00  0.00     0.161 C 
ATOM      2  C   LIG d   1      -3.601  77.301 115.754  0.00  0.00     0.016 C 
ATOM      3  C   LIG d   1      -3.857  75.956 115.400  0.00  0.00     0.038 C 
ATOM      4  C   LIG d   1      -2.937  74.931 115.667  0.00  0.00     0.028 C 
ATOM      5  C   LIG d   1      -1.490  75.410 115.706  0.00  0.00    -0.047 C 
ATOM      6  C   LIG d   1      -1.389  76.623 116.659  0.00  0.00     0.091 C 
ENDROOT
BRANCH   1   7
ATOM      7  O   LIG d   1      -2.585  78.642 117.364  0.00  0.00    -0.368 OA
BRANCH   7   8
ATOM      8  C   LIG d   1      -3.671  78.297 118.258  0.00  0.00     0.119 C 
BRANCH   8   9
ATOM      9  C   LIG d   1      -4.504  79.573 118.488  0.00  0.00     0.028 C 
ATOM     10  C   LIG d   1      -5.764  79.619 117.606  0.00  0.00     0.006 C 
ENDBRANCH   8   9
BRANCH   8  11
ATOM     11  C   LIG d   1      -3.150  77.899 119.642  0.00  0.00     0.028 C 
ATOM     12  C   LIG d   1      -1.737  78.435 119.923  0.00  0.00     0.006 C 
ENDBRANCH   8  11
ENDBRANCH   7   8
ENDBRANCH   1   7
BRANCH   6  13
ATOM     13  N   LIG d   1      -0.022  77.206 116.690  0.00  0.00    -0.311 N 
ATOM     14  C   LIG d   1       0.897  76.872 117.594  0.00  0.00     0.210 C 
ATOM     15  C   LIG d   1       2.234  77.608 117.459  0.00  0.00     0.109 C 
ATOM     16  O   LIG d   1       0.743  76.014 118.476  0.00  0.00    -0.276 OA
ATOM     17  H   LIG d   1       0.199  77.889 115.992  0.00  0.00     0.149 HD
ENDBRANCH   6  13
BRANCH   5  18
ATOM     18  N   LIG d   1      -0.655  74.271 116.129  0.00  0.00     0.381 N 
ATOM     19  H   LIG d   1      -0.376  74.390 117.083  0.00  0.00    -0.090 HD
ATOM     20  H   LIG d   1       0.173  74.245 115.560  0.00  0.00    -0.090 HD
ATOM     21  H   LIG d   1      -1.162  73.419 116.028  0.00  0.00    -0.090 HD
ENDBRANCH   5  18
BRANCH   3  22
ATOM     22  C   LIG d   1      -5.029  75.632 114.734  0.00  0.00     0.382 C 
ATOM     23  O   LIG d   1      -5.797  74.759 115.205  0.00  0.00    -0.241 OA
ATOM     24  O   LIG d   1      -5.307  76.171 113.646  0.00  0.00    -0.241 OA
ENDBRANCH   3  22
TORSDOF 7
ENDMDL
MODEL 5
REMARK VINA RESULT:      -4.9     10.835     12.474
REMARK  7 active torsions:
REMARK  status: ('A' for Active; 'I' for Inactive)
REMARK    1  A    between atoms: C_2  and  C_3 
REMARK    2  A    between atoms: C_3  and  O_6 
REMARK    3  A    between atoms: C_3  and  C_4 
REMARK    4  A    between atoms: C_7  and  O_6 
REMARK    5  A    between atoms: C_9  and  C_10 
REMARK    6  A    between atoms: N_15  and  C_14 
REMARK    7  A    between atoms: N_20  and  C_19 
REMARK       I    between atoms: C_22  and  N_20 
ROOT
ATOM      1  C   LIG d   1      -3.374  89.893 117.237  0.00  0.00     0.161 C 
ATOM      2  C   LIG d   1      -4.450  89.657 116.365  0.00  0.00     0.016 C 
ATOM      3  C   LIG d   1      -5.428  90.629 116.053  0.00  0.00     0.038 C 
ATOM      4  C   LIG d   1      -5.310  91.961 116.478  0.00  0.00     0.028 C 
ATOM      5  C   LIG d   1      -4.514  92.117 117.769  0.00  0.00    -0.047 C 
ATOM      6  C   LIG d   1      -3.167  91.373 117.622  0.00  0.00     0.091 C 
ENDROOT
BRANCH   1   7
ATOM      7  O   LIG d   1      -2.163  89.347 116.678  0.00  0.00    -0.368 OA
BRANCH   7   8
ATOM      8  C   LIG d   1      -1.792  88.022 117.134  0.00  0.00     0.119 C 
BRANCH   8   9
ATOM      9  C   LIG d   1      -2.237  87.897 118.604  0.00  0.00     0.028 C 
ATOM     10  C   LIG d   1      -1.057  88.000 119.585  0.00  0.00     0.006 C 
ENDBRANCH   8   9
BRANCH   8  11
ATOM     11  C   LIG d   1      -0.271  87.846 117.154  0.00  0.00     0.028 C 
ATOM     12  C   LIG d   1       0.242  86.956 116.011  0.00  0.00     0.006 C 
ENDBRANCH   8  11
ENDBRANCH   7   8
ENDBRANCH   1   7
BRANCH   6  13
ATOM     13  N   LIG d   1      -2.363  91.404 118.871  0.00  0.00    -0.311 N 
ATOM     14  C   LIG d   1      -1.102  91.832 118.921  0.00  0.00     0.210 C 
ATOM     15  C   LIG d   1      -0.449  91.761 120.305  0.00  0.00     0.109 C 
ATOM     16  O   LIG d   1      -0.473  92.293 117.956  0.00  0.00    -0.276 OA
ATOM     17  H   LIG d   1      -2.805  91.077 119.707  0.00  0.00     0.149 HD
ENDBRANCH   6  13
BRANCH   5  18
ATOM     18  N   LIG d   1      -4.352  93.561 118.022  0.00  0.00     0.381 N 
ATOM     19  H   LIG d   1      -4.949  93.843 118.773  0.00  0.00    -0.090 HD
ATOM     20  H   LIG d   1      -4.622  94.068 117.197  0.00  0.00    -0.090 HD
ATOM     21  H   LIG d   1      -3.403  93.764 118.248  0.00  0.00    -0.090 HD
ENDBRANCH   5  18
BRANCH   3  22
ATOM     22  C   LIG d   1      -6.560  90.263 115.341  0.00  0.00     0.382 C 
ATOM     23  O   LIG d   1      -6.836  90.840 114.263  0.00  0.00    -0.241 OA
ATOM     24  O   LIG d   1      -7.332  89.393 115.787  0.00  0.00    -0.241 OA
ENDBRANCH   3  22
TORSDOF 7
ENDMDL
MODEL 6
REMARK VINA RESULT:      -4.9     11.720     13.829
REMARK  7 active torsions:
REMARK  status: ('A' for Active; 'I' for Inactive)
REMARK    1  A    between atoms: C_2  and  C_3 
REMARK    2  A    between atoms: C_3  and  O_6 
REMARK    3  A    between atoms: C_3  and  C_4 
REMARK    4  A    between atoms: C_7  and  O_6 
REMARK    5  A    between atoms: C_9  and  C_10 
REMARK    6  A    between atoms: N_15  and  C_14 
REMARK    7  A    between atoms: N_20  and  C_19 
REMARK       I    between atoms: C_22  and  N_20 
ROOT
ATOM      1  C   LIG d   1      -2.285  90.928 117.839  0.00  0.00     0.161 C 
ATOM      2  C   LIG d   1      -3.310  90.257 117.151  0.00  0.00     0.016 C 
ATOM      3  C   LIG d   1      -4.568  90.837 116.871  0.00  0.00     0.038 C 
ATOM      4  C   LIG d   1      -4.834  92.191 117.127  0.00  0.00     0.028 C 
ATOM      5  C   LIG d   1      -4.008  92.763 118.275  0.00  0.00    -0.047 C 
ATOM      6  C   LIG d   1      -2.517  92.441 118.028  0.00  0.00     0.091 C 
ENDROOT
BRANCH   1   7
ATOM      7  O   LIG d   1      -1.022  90.692 117.184  0.00  0.00    -0.368 OA
BRANCH   7   8
ATOM      8  C   LIG d   1      -0.128  89.761 117.841  0.00  0.00     0.119 C 
BRANCH   8   9
ATOM      9  C   LIG d   1       1.047  90.574 118.416  0.00  0.00     0.028 C 
ATOM     10  C   LIG d   1       1.590  91.609 117.415  0.00  0.00     0.006 C 
ENDBRANCH   8   9
BRANCH   8  11
ATOM     11  C   LIG d   1       0.503  88.792 116.836  0.00  0.00     0.028 C 
ATOM     12  C   LIG d   1      -0.292  87.485 116.690  0.00  0.00     0.006 C 
ENDBRANCH   8  11
ENDBRANCH   7   8
ENDBRANCH   1   7
BRANCH   6  13
ATOM     13  N   LIG d   1      -1.648  92.893 119.146  0.00  0.00    -0.311 N 
ATOM     14  C   LIG d   1      -0.773  93.892 119.038  0.00  0.00     0.210 C 
ATOM     15  C   LIG d   1       0.037  94.182 120.305  0.00  0.00     0.109 C 
ATOM     16  O   LIG d   1      -0.615  94.586 118.022  0.00  0.00    -0.276 OA
ATOM     17  H   LIG d   1      -1.733  92.405 120.016  0.00  0.00     0.149 HD
ENDBRANCH   6  13
BRANCH   5  18
ATOM     18  N   LIG d   1      -4.284  94.211 118.343  0.00  0.00     0.381 N 
ATOM     19  H   LIG d   1      -4.601  94.538 117.452  0.00  0.00    -0.090 HD
ATOM     20  H   LIG d   1      -3.433  94.693 118.571  0.00  0.00    -0.090 HD
ATOM     21  H   LIG d   1      -4.975  94.394 119.038  0.00  0.00    -0.090 HD
ENDBRANCH   5  18
BRANCH   3  22
ATOM     22  C   LIG d   1      -5.590  90.050 116.363  0.00  0.00     0.382 C 
ATOM     23  O   LIG d   1      -6.738  90.112 116.865  0.00  0.00    -0.241 OA
ATOM     24  O   LIG d   1      -5.368  89.247 115.437  0.00  0.00    -0.241 OA
ENDBRANCH   3  22
TORSDOF 7
ENDMDL
MODEL 7
REMARK VINA RESULT:      -4.8      2.214      4.424
REMARK  7 active torsions:
REMARK  status: ('A' for Active; 'I' for Inactive)
REMARK    1  A    between atoms: C_2  and  C_3 
REMARK    2  A    between atoms: C_3  and  O_6 
REMARK    3  A    between atoms: C_3  and  C_4 
REMARK    4  A    between atoms: C_7  and  O_6 
REMARK    5  A    between atoms: C_9  and  C_10 
REMARK    6  A    between atoms: N_15  and  C_14 
REMARK    7  A    between atoms: N_20  and  C_19 
REMARK       I    between atoms: C_22  and  N_20 
ROOT
ATOM      1  C   LIG d   1      -5.479  78.523 117.472  0.00  0.00     0.161 C 
ATOM      2  C   LIG d   1      -6.808  78.710 117.886  0.00  0.00     0.016 C 
ATOM      3  C   LIG d   1      -7.881  77.902 117.446  0.00  0.00     0.038 C 
ATOM      4  C   LIG d   1      -7.674  76.750 116.673  0.00  0.00     0.028 C 
ATOM      5  C   LIG d   1      -6.412  76.813 115.818  0.00  0.00    -0.047 C 
ATOM      6  C   LIG d   1      -5.216  77.203 116.717  0.00  0.00     0.091 C 
ENDROOT
BRANCH   1   7
ATOM      7  O   LIG d   1      -4.593  78.637 118.604  0.00  0.00    -0.368 OA
BRANCH   7   8
ATOM      8  C   LIG d   1      -3.541  79.627 118.492  0.00  0.00     0.119 C 
BRANCH   8   9
ATOM      9  C   LIG d   1      -2.196  78.892 118.656  0.00  0.00     0.028 C 
ATOM     10  C   LIG d   1      -2.354  77.522 119.336  0.00  0.00     0.006 C 
ENDBRANCH   8   9
BRANCH   8  11
ATOM     11  C   LIG d   1      -3.597  80.632 119.646  0.00  0.00     0.028 C 
ATOM     12  C   LIG d   1      -2.398  81.594 119.657  0.00  0.00     0.006 C 
ENDBRANCH   8  11
ENDBRANCH   7   8
ENDBRANCH   1   7
BRANCH   6  13
ATOM     13  N   LIG d   1      -3.958  77.369 115.944  0.00  0.00    -0.311 N 
ATOM     14  C   LIG d   1      -3.064  76.395 115.781  0.00  0.00     0.210 C 
ATOM     15  C   LIG d   1      -1.826  76.784 114.966  0.00  0.00     0.109 C 
ATOM     16  O   LIG d   1      -3.194  75.237 116.205  0.00  0.00    -0.276 OA
ATOM     17  H   LIG d   1      -3.787  78.269 115.539  0.00  0.00     0.149 HD
ENDBRANCH   6  13
BRANCH   5  18
ATOM     18  N   LIG d   1      -6.245  75.498 115.172  0.00  0.00     0.381 N 
ATOM     19  H   LIG d   1      -7.005  75.331 114.543  0.00  0.00    -0.090 HD
ATOM     20  H   LIG d   1      -6.259  74.784 115.879  0.00  0.00    -0.090 HD
ATOM     21  H   LIG d   1      -5.381  75.468 114.677  0.00  0.00    -0.090 HD
ENDBRANCH   5  18
BRANCH   3  22
ATOM     22  C   LIG d   1      -9.185  78.268 117.746  0.00  0.00     0.382 C 
ATOM     23  O   LIG d   1      -9.523  79.476 117.702  0.00  0.00    -0.241 OA
ATOM     24  O   LIG d   1     -10.015  77.411 118.102  0.00  0.00    -0.241 OA
ENDBRANCH   3  22
TORSDOF 7
ENDMDL
MODEL 8
REMARK VINA RESULT:      -4.7     11.203     13.137
REMARK  7 active torsions:
REMARK  status: ('A' for Active; 'I' for Inactive)
REMARK    1  A    between atoms: C_2  and  C_3 
REMARK    2  A    between atoms: C_3  and  O_6 
REMARK    3  A    between atoms: C_3  and  C_4 
REMARK    4  A    between atoms: C_7  and  O_6 
REMARK    5  A    between atoms: C_9  and  C_10 
REMARK    6  A    between atoms: N_15  and  C_14 
REMARK    7  A    between atoms: N_20  and  C_19 
REMARK       I    between atoms: C_22  and  N_20 
ROOT
ATOM      1  C   LIG d   1       4.010  85.499 114.987  0.00  0.00     0.161 C 
ATOM      2  C   LIG d   1       3.683  86.533 114.094  0.00  0.00     0.016 C 
ATOM      3  C   LIG d   1       4.476  87.691 113.920  0.00  0.00     0.038 C 
ATOM      4  C   LIG d   1       5.736  87.824 114.521  0.00  0.00     0.028 C 
ATOM      5  C   LIG d   1       5.874  87.037 115.820  0.00  0.00    -0.047 C 
ATOM      6  C   LIG d   1       5.437  85.575 115.569  0.00  0.00     0.091 C 
ENDROOT
BRANCH   1   7
ATOM      7  O   LIG d   1       3.794  84.222 114.356  0.00  0.00    -0.368 OA
BRANCH   7   8
ATOM      8  C   LIG d   1       3.353  84.259 112.976  0.00  0.00     0.119 C 
BRANCH   8   9
ATOM      9  C   LIG d   1       2.050  83.440 112.884  0.00  0.00     0.028 C 
ATOM     10  C   LIG d   1       0.796  84.329 112.919  0.00  0.00     0.006 C 
ENDBRANCH   8   9
BRANCH   8  11
ATOM     11  C   LIG d   1       4.346  83.544 112.055  0.00  0.00     0.028 C 
ATOM     12  C   LIG d   1       5.055  82.366 112.742  0.00  0.00     0.006 C 
ENDBRANCH   8  11
ENDBRANCH   7   8
ENDBRANCH   1   7
BRANCH   6  13
ATOM     13  N   LIG d   1       5.461  84.756 116.809  0.00  0.00    -0.311 N 
ATOM     14  C   LIG d   1       6.096  83.589 116.904  0.00  0.00     0.210 C 
ATOM     15  C   LIG d   1       5.978  82.898 118.266  0.00  0.00     0.109 C 
ATOM     16  O   LIG d   1       6.772  83.075 116.000  0.00  0.00    -0.276 OA
ATOM     17  H   LIG d   1       4.964  85.113 117.601  0.00  0.00     0.149 HD
ENDBRANCH   6  13
BRANCH   5  18
ATOM     18  N   LIG d   1       7.275  87.153 116.265  0.00  0.00     0.381 N 
ATOM     19  H   LIG d   1       7.737  86.271 116.166  0.00  0.00    -0.090 HD
ATOM     20  H   LIG d   1       7.287  87.408 117.237  0.00  0.00    -0.090 HD
ATOM     21  H   LIG d   1       7.747  87.846 115.727  0.00  0.00    -0.090 HD
ENDBRANCH   5  18
BRANCH   3  22
ATOM     22  C   LIG d   1       3.990  88.749 113.167  0.00  0.00     0.382 C 
ATOM     23  O   LIG d   1       4.590  89.851 113.175  0.00  0.00    -0.241 OA
ATOM     24  O   LIG d   1       2.935  88.630 112.516  0.00  0.00    -0.241 OA
ENDBRANCH   3  22
TORSDOF 7
ENDMDL
MODEL 9
REMARK VINA RESULT:      -4.7     10.837     12.080
REMARK  7 active torsions:
REMARK  status: ('A' for Active; 'I' for Inactive)
REMARK    1  A    between atoms: C_2  and  C_3 
REMARK    2  A    between atoms: C_3  and  O_6 
REMARK    3  A    between atoms: C_3  and  C_4 
REMARK    4  A    between atoms: C_7  and  O_6 
REMARK    5  A    between atoms: C_9  and  C_10 
REMARK    6  A    between atoms: N_15  and  C_14 
REMARK    7  A    between atoms: N_20  and  C_19 
REMARK       I    between atoms: C_22  and  N_20 
ROOT
ATOM      1  C   LIG d   1       1.535  86.973 114.462  0.00  0.00     0.161 C 
ATOM      2  C   LIG d   1       0.433  86.977 115.333  0.00  0.00     0.016 C 
ATOM      3  C   LIG d   1       0.323  87.844 116.445  0.00  0.00     0.038 C 
ATOM      4  C   LIG d   1       1.246  88.875 116.675  0.00  0.00     0.028 C 
ATOM      5  C   LIG d   1       2.634  88.582 116.115  0.00  0.00    -0.047 C 
ATOM      6  C   LIG d   1       2.499  88.165 114.633  0.00  0.00     0.091 C 
ENDROOT
BRANCH   1   7
ATOM      7  O   LIG d   1       1.080  86.888 113.098  0.00  0.00    -0.368 OA
BRANCH   7   8
ATOM      8  C   LIG d   1       1.219  85.595 112.458  0.00  0.00     0.119 C 
BRANCH   8   9
ATOM      9  C   LIG d   1      -0.166  84.918 112.478  0.00  0.00     0.028 C 
ATOM     10  C   LIG d   1      -0.099  83.434 112.081  0.00  0.00     0.006 C 
ENDBRANCH   8   9
BRANCH   8  11
ATOM     11  C   LIG d   1       2.134  84.670 113.266  0.00  0.00     0.028 C 
ATOM     12  C   LIG d   1       3.498  84.446 112.593  0.00  0.00     0.006 C 
ENDBRANCH   8  11
ENDBRANCH   7   8
ENDBRANCH   1   7
BRANCH   6  13
ATOM     13  N   LIG d   1       3.803  87.780 114.032  0.00  0.00    -0.311 N 
ATOM     14  C   LIG d   1       4.579  88.628 113.359  0.00  0.00     0.210 C 
ATOM     15  C   LIG d   1       5.871  88.020 112.804  0.00  0.00     0.109 C 
ATOM     16  O   LIG d   1       4.335  89.833 113.195  0.00  0.00    -0.276 OA
ATOM     17  H   LIG d   1       4.093  86.828 114.144  0.00  0.00     0.149 HD
ENDBRANCH   6  13
BRANCH   5  18
ATOM     18  N   LIG d   1       3.455  89.793 116.304  0.00  0.00     0.381 N 
ATOM     19  H   LIG d   1       3.178  90.495 115.648  0.00  0.00    -0.090 HD
ATOM     20  H   LIG d   1       4.418  89.563 116.131  0.00  0.00    -0.090 HD
ATOM     21  H   LIG d   1       3.349  90.136 117.233  0.00  0.00    -0.090 HD
ENDBRANCH   5  18
BRANCH   3  22
ATOM     22  C   LIG d   1      -0.698  87.657 117.364  0.00  0.00     0.382 C 
ATOM     23  O   LIG d   1      -1.884  87.916 117.045  0.00  0.00    -0.241 OA
ATOM     24  O   LIG d   1      -0.444  87.274 118.522  0.00  0.00    -0.241 OA
ENDBRANCH   3  22
TORSDOF 7
ENDMDL
