MODEL 1
REMARK VINA RESULT:      -5.8      0.000      0.000
REMARK  7 active torsions:
REMARK  status: ('A' for Active; 'I' for Inactive)
REMARK    1  A    between atoms: C_2  and  C_3 
REMARK    2  A    between atoms: C_3  and  O_6 
REMARK    3  A    between atoms: C_3  and  C_4 
REMARK    4  A    between atoms: C_7  and  O_6 
REMARK    5  A    between atoms: C_9  and  C_10 
REMARK    6  A    between atoms: N_15  and  C_14 
REMARK    7  A    between atoms: N_20  and  C_19 
REMARK       I    between atoms: C_22  and  N_20 
ROOT
ATOM      1  C   LIG d   1      -3.420  75.575 115.973  0.00  0.00     0.161 C 
ATOM      2  C   LIG d   1      -3.908  76.276 114.858  0.00  0.00     0.016 C 
ATOM      3  C   LIG d   1      -3.070  76.901 113.905  0.00  0.00     0.038 C 
ATOM      4  C   LIG d   1      -1.677  76.736 113.921  0.00  0.00     0.028 C 
ATOM      5  C   LIG d   1      -1.116  76.459 115.311  0.00  0.00    -0.047 C 
ATOM      6  C   LIG d   1      -1.904  75.290 115.947  0.00  0.00     0.091 C 
ENDROOT
BRANCH   1   7
ATOM      7  O   LIG d   1      -4.158  74.348 116.139  0.00  0.00    -0.368 OA
BRANCH   7   8
ATOM      8  C   LIG d   1      -5.600  74.454 116.050  0.00  0.00     0.119 C 
BRANCH   8   9
ATOM      9  C   LIG d   1      -6.097  75.114 117.350  0.00  0.00     0.028 C 
ATOM     10  C   LIG d   1      -6.857  76.425 117.089  0.00  0.00     0.006 C 
ENDBRANCH   8   9
BRANCH   8  11
ATOM     11  C   LIG d   1      -6.259  73.071 116.019  0.00  0.00     0.028 C 
ATOM     12  C   LIG d   1      -6.661  72.571 117.415  0.00  0.00     0.006 C 
ENDBRANCH   8  11
ENDBRANCH   7   8
ENDBRANCH   1   7
BRANCH   6  13
ATOM     13  N   LIG d   1      -1.475  75.009 117.341  0.00  0.00    -0.311 N 
ATOM     14  C   LIG d   1      -1.039  73.818 117.748  0.00  0.00     0.210 C 
ATOM     15  C   LIG d   1      -0.666  73.739 119.232  0.00  0.00     0.109 C 
ATOM     16  O   LIG d   1      -0.896  72.829 117.015  0.00  0.00    -0.276 OA
ATOM     17  H   LIG d   1      -1.528  75.765 117.996  0.00  0.00     0.149 HD
ENDBRANCH   6  13
BRANCH   5  18
ATOM     18  N   LIG d   1       0.323  76.172 115.162  0.00  0.00     0.381 N 
ATOM     19  H   LIG d   1       0.529  75.266 115.535  0.00  0.00    -0.090 HD
ATOM     20  H   LIG d   1       0.846  76.854 115.682  0.00  0.00    -0.090 HD
ATOM     21  H   LIG d   1       0.580  76.208 114.200  0.00  0.00    -0.090 HD
ENDBRANCH   5  18
BRANCH   3  22
ATOM     22  C   LIG d   1      -3.624  77.733 112.944  0.00  0.00     0.382 C 
ATOM     23  O   LIG d   1      -3.129  78.867 112.737  0.00  0.00    -0.241 OA
ATOM     24  O   LIG d   1      -4.639  77.382 112.313  0.00  0.00    -0.241 OA
ENDBRANCH   3  22
TORSDOF 7
ENDMDL
MODEL 2
REMARK VINA RESULT:      -5.5      2.361      5.598
REMARK  7 active torsions:
REMARK  status: ('A' for Active; 'I' for Inactive)
REMARK    1  A    between atoms: C_2  and  C_3 
REMARK    2  A    between atoms: C_3  and  O_6 
REMARK    3  A    between atoms: C_3  and  C_4 
REMARK    4  A    between atoms: C_7  and  O_6 
REMARK    5  A    between atoms: C_9  and  C_10 
REMARK    6  A    between atoms: N_15  and  C_14 
REMARK    7  A    between atoms: N_20  and  C_19 
REMARK       I    between atoms: C_22  and  N_20 
ROOT
ATOM      1  C   LIG d   1      -3.395  74.942 116.261  0.00  0.00     0.161 C 
ATOM      2  C   LIG d   1      -4.186  73.856 116.671  0.00  0.00     0.016 C 
ATOM      3  C   LIG d   1      -5.467  73.581 116.141  0.00  0.00     0.038 C 
ATOM      4  C   LIG d   1      -5.985  74.292 115.048  0.00  0.00     0.028 C 
ATOM      5  C   LIG d   1      -5.440  75.712 114.936  0.00  0.00    -0.047 C 
ATOM      6  C   LIG d   1      -3.896  75.663 114.992  0.00  0.00     0.091 C 
ENDROOT
BRANCH   1   7
ATOM      7  O   LIG d   1      -2.030  74.515 116.088  0.00  0.00    -0.368 OA
BRANCH   7   8
ATOM      8  C   LIG d   1      -1.098  74.926 117.119  0.00  0.00     0.119 C 
BRANCH   8   9
ATOM      9  C   LIG d   1      -0.787  73.689 117.982  0.00  0.00     0.028 C 
ATOM     10  C   LIG d   1      -0.453  74.058 119.438  0.00  0.00     0.006 C 
ENDBRANCH   8   9
BRANCH   8  11
ATOM     11  C   LIG d   1      -1.736  75.939 118.075  0.00  0.00     0.028 C 
ATOM     12  C   LIG d   1      -1.160  77.354 117.915  0.00  0.00     0.006 C 
ENDBRANCH   8  11
ENDBRANCH   7   8
ENDBRANCH   1   7
BRANCH   6  13
ATOM     13  N   LIG d   1      -3.285  77.018 114.973  0.00  0.00    -0.311 N 
ATOM     14  C   LIG d   1      -2.560  77.481 113.956  0.00  0.00     0.210 C 
ATOM     15  C   LIG d   1      -2.005  78.895 114.149  0.00  0.00     0.109 C 
ATOM     16  O   LIG d   1      -2.349  76.866 112.900  0.00  0.00    -0.276 OA
ATOM     17  H   LIG d   1      -3.432  77.595 115.777  0.00  0.00     0.149 HD
ENDBRANCH   6  13
BRANCH   5  18
ATOM     18  N   LIG d   1      -5.956  76.289 113.680  0.00  0.00     0.381 N 
ATOM     19  H   LIG d   1      -5.194  76.493 113.063  0.00  0.00    -0.090 HD
ATOM     20  H   LIG d   1      -6.431  77.150 113.889  0.00  0.00    -0.090 HD
ATOM     21  H   LIG d   1      -6.584  75.651 113.244  0.00  0.00    -0.090 HD
ENDBRANCH   5  18
BRANCH   3  22
ATOM     22  C   LIG d   1      -6.262  72.611 116.731  0.00  0.00     0.382 C 
ATOM     23  O   LIG d   1      -6.447  72.621 117.972  0.00  0.00    -0.241 OA
ATOM     24  O   LIG d   1      -6.761  71.699 116.045  0.00  0.00    -0.241 OA
ENDBRANCH   3  22
TORSDOF 7
ENDMDL
MODEL 3
REMARK VINA RESULT:      -5.5      2.750      3.657
REMARK  7 active torsions:
REMARK  status: ('A' for Active; 'I' for Inactive)
REMARK    1  A    between atoms: C_2  and  C_3 
REMARK    2  A    between atoms: C_3  and  O_6 
REMARK    3  A    between atoms: C_3  and  C_4 
REMARK    4  A    between atoms: C_7  and  O_6 
REMARK    5  A    between atoms: C_9  and  C_10 
REMARK    6  A    between atoms: N_15  and  C_14 
REMARK    7  A    between atoms: N_20  and  C_19 
REMARK       I    between atoms: C_22  and  N_20 
ROOT
ATOM      1  C   LIG d   1      -4.739  75.815 118.244  0.00  0.00     0.161 C 
ATOM      2  C   LIG d   1      -5.764  76.774 118.187  0.00  0.00     0.016 C 
ATOM      3  C   LIG d   1      -5.569  78.096 117.726  0.00  0.00     0.038 C 
ATOM      4  C   LIG d   1      -4.360  78.507 117.145  0.00  0.00     0.028 C 
ATOM      5  C   LIG d   1      -3.151  77.725 117.644  0.00  0.00    -0.047 C 
ATOM      6  C   LIG d   1      -3.441  76.212 117.510  0.00  0.00     0.091 C 
ENDROOT
BRANCH   1   7
ATOM      7  O   LIG d   1      -5.225  74.550 117.753  0.00  0.00    -0.368 OA
BRANCH   7   8
ATOM      8  C   LIG d   1      -6.291  74.614 116.773  0.00  0.00     0.119 C 
BRANCH   8   9
ATOM      9  C   LIG d   1      -7.300  73.500 117.114  0.00  0.00     0.028 C 
ATOM     10  C   LIG d   1      -6.983  72.180 116.392  0.00  0.00     0.006 C 
ENDBRANCH   8   9
BRANCH   8  11
ATOM     11  C   LIG d   1      -5.778  74.281 115.369  0.00  0.00     0.028 C 
ATOM     12  C   LIG d   1      -5.563  75.530 114.501  0.00  0.00     0.006 C 
ENDBRANCH   8  11
ENDBRANCH   7   8
ENDBRANCH   1   7
BRANCH   6  13
ATOM     13  N   LIG d   1      -2.342  75.374 118.055  0.00  0.00    -0.311 N 
ATOM     14  C   LIG d   1      -1.845  74.313 117.419  0.00  0.00     0.210 C 
ATOM     15  C   LIG d   1      -0.729  73.577 118.166  0.00  0.00     0.109 C 
ATOM     16  O   LIG d   1      -2.201  73.932 116.294  0.00  0.00    -0.276 OA
ATOM     17  H   LIG d   1      -1.973  75.630 118.949  0.00  0.00     0.149 HD
ENDBRANCH   6  13
BRANCH   5  18
ATOM     18  N   LIG d   1      -1.982  78.161 116.857  0.00  0.00     0.381 N 
ATOM     19  H   LIG d   1      -1.352  77.394 116.733  0.00  0.00    -0.090 HD
ATOM     20  H   LIG d   1      -1.501  78.885 117.362  0.00  0.00    -0.090 HD
ATOM     21  H   LIG d   1      -2.277  78.505 115.970  0.00  0.00    -0.090 HD
ENDBRANCH   5  18
BRANCH   3  22
ATOM     22  C   LIG d   1      -6.578  79.034 117.881  0.00  0.00     0.382 C 
ATOM     23  O   LIG d   1      -6.459  80.174 117.369  0.00  0.00    -0.241 OA
ATOM     24  O   LIG d   1      -7.586  78.771 118.565  0.00  0.00    -0.241 OA
ENDBRANCH   3  22
TORSDOF 7
ENDMDL
MODEL 4
REMARK VINA RESULT:      -5.4      1.712      4.910
REMARK  7 active torsions:
REMARK  status: ('A' for Active; 'I' for Inactive)
REMARK    1  A    between atoms: C_2  and  C_3 
REMARK    2  A    between atoms: C_3  and  O_6 
REMARK    3  A    between atoms: C_3  and  C_4 
REMARK    4  A    between atoms: C_7  and  O_6 
REMARK    5  A    between atoms: C_9  and  C_10 
REMARK    6  A    between atoms: N_15  and  C_14 
REMARK    7  A    between atoms: N_20  and  C_19 
REMARK       I    between atoms: C_22  and  N_20 
ROOT
ATOM      1  C   LIG d   1      -2.174  74.733 115.509  0.00  0.00     0.161 C 
ATOM      2  C   LIG d   1      -1.675  74.141 116.682  0.00  0.00     0.016 C 
ATOM      3  C   LIG d   1      -0.831  74.815 117.594  0.00  0.00     0.038 C 
ATOM      4  C   LIG d   1      -0.549  76.184 117.472  0.00  0.00     0.028 C 
ATOM      5  C   LIG d   1      -0.619  76.691 116.036  0.00  0.00    -0.047 C 
ATOM      6  C   LIG d   1      -1.968  76.259 115.416  0.00  0.00     0.091 C 
ENDROOT
BRANCH   1   7
ATOM      7  O   LIG d   1      -3.568  74.405 115.352  0.00  0.00    -0.368 OA
BRANCH   7   8
ATOM      8  C   LIG d   1      -4.457  74.888 116.389  0.00  0.00     0.119 C 
BRANCH   8   9
ATOM      9  C   LIG d   1      -5.231  73.674 116.939  0.00  0.00     0.028 C 
ATOM     10  C   LIG d   1      -6.681  74.022 117.312  0.00  0.00     0.006 C 
ENDBRANCH   8   9
BRANCH   8  11
ATOM     11  C   LIG d   1      -5.526  75.823 115.815  0.00  0.00     0.028 C 
ATOM     12  C   LIG d   1      -5.583  75.792 114.280  0.00  0.00     0.006 C 
ENDBRANCH   8  11
ENDBRANCH   7   8
ENDBRANCH   1   7
BRANCH   6  13
ATOM     13  N   LIG d   1      -2.083  76.642 113.985  0.00  0.00    -0.311 N 
ATOM     14  C   LIG d   1      -2.571  77.812 113.576  0.00  0.00     0.210 C 
ATOM     15  C   LIG d   1      -2.619  77.996 112.056  0.00  0.00     0.109 C 
ATOM     16  O   LIG d   1      -2.938  78.727 114.328  0.00  0.00    -0.276 OA
ATOM     17  H   LIG d   1      -1.778  75.971 113.307  0.00  0.00     0.149 HD
ENDBRANCH   6  13
BRANCH   5  18
ATOM     18  N   LIG d   1      -0.441  78.155 116.070  0.00  0.00     0.381 N 
ATOM     19  H   LIG d   1      -1.008  78.582 115.365  0.00  0.00    -0.090 HD
ATOM     20  H   LIG d   1       0.521  78.370 115.875  0.00  0.00    -0.090 HD
ATOM     21  H   LIG d   1      -0.692  78.508 116.968  0.00  0.00    -0.090 HD
ENDBRANCH   5  18
BRANCH   3  22
ATOM     22  C   LIG d   1      -0.226  74.108 118.622  0.00  0.00     0.382 C 
ATOM     23  O   LIG d   1       0.856  74.513 119.111  0.00  0.00    -0.241 OA
ATOM     24  O   LIG d   1      -0.726  73.045 119.037  0.00  0.00    -0.241 OA
ENDBRANCH   3  22
TORSDOF 7
ENDMDL
MODEL 5
REMARK VINA RESULT:      -5.1     11.529     13.949
REMARK  7 active torsions:
REMARK  status: ('A' for Active; 'I' for Inactive)
REMARK    1  A    between atoms: C_2  and  C_3 
REMARK    2  A    between atoms: C_3  and  O_6 
REMARK    3  A    between atoms: C_3  and  C_4 
REMARK    4  A    between atoms: C_7  and  O_6 
REMARK    5  A    between atoms: C_9  and  C_10 
REMARK    6  A    between atoms: N_15  and  C_14 
REMARK    7  A    between atoms: N_20  and  C_19 
REMARK       I    between atoms: C_22  and  N_20 
ROOT
ATOM      1  C   LIG d   1       1.585  87.145 115.236  0.00  0.00     0.161 C 
ATOM      2  C   LIG d   1       0.510  87.096 116.140  0.00  0.00     0.016 C 
ATOM      3  C   LIG d   1       0.195  88.146 117.032  0.00  0.00     0.038 C 
ATOM      4  C   LIG d   1       0.846  89.387 116.976  0.00  0.00     0.028 C 
ATOM      5  C   LIG d   1       2.265  89.302 116.425  0.00  0.00    -0.047 C 
ATOM      6  C   LIG d   1       2.238  88.535 115.083  0.00  0.00     0.091 C 
ENDROOT
BRANCH   1   7
ATOM      7  O   LIG d   1       1.166  86.644 113.951  0.00  0.00    -0.368 OA
BRANCH   7   8
ATOM      8  C   LIG d   1       1.241  85.208 113.772  0.00  0.00     0.119 C 
BRANCH   8   9
ATOM      9  C   LIG d   1       2.727  84.808 113.848  0.00  0.00     0.028 C 
ATOM     10  C   LIG d   1       3.514  85.235 112.597  0.00  0.00     0.006 C 
ENDBRANCH   8   9
BRANCH   8  11
ATOM     11  C   LIG d   1       0.781  84.797 112.371  0.00  0.00     0.028 C 
ATOM     12  C   LIG d   1      -0.411  83.826 112.395  0.00  0.00     0.006 C 
ENDBRANCH   8  11
ENDBRANCH   7   8
ENDBRANCH   1   7
BRANCH   6  13
ATOM     13  N   LIG d   1       3.597  88.334 114.517  0.00  0.00    -0.311 N 
ATOM     14  C   LIG d   1       4.157  89.166 113.641  0.00  0.00     0.210 C 
ATOM     15  C   LIG d   1       5.557  88.762 113.169  0.00  0.00     0.109 C 
ATOM     16  O   LIG d   1       3.640  90.217 113.234  0.00  0.00    -0.276 OA
ATOM     17  H   LIG d   1       4.100  87.521 114.817  0.00  0.00     0.149 HD
ENDBRANCH   6  13
BRANCH   5  18
ATOM     18  N   LIG d   1       2.775  90.680 116.292  0.00  0.00     0.381 N 
ATOM     19  H   LIG d   1       2.330  91.133 115.518  0.00  0.00    -0.090 HD
ATOM     20  H   LIG d   1       3.763  90.646 116.112  0.00  0.00    -0.090 HD
ATOM     21  H   LIG d   1       2.601  91.191 117.130  0.00  0.00    -0.090 HD
ENDBRANCH   5  18
BRANCH   3  22
ATOM     22  C   LIG d   1      -0.755  87.945 118.021  0.00  0.00     0.382 C 
ATOM     23  O   LIG d   1      -1.973  88.096 117.761  0.00  0.00    -0.241 OA
ATOM     24  O   LIG d   1      -0.408  87.658 119.183  0.00  0.00    -0.241 OA
ENDBRANCH   3  22
TORSDOF 7
ENDMDL
MODEL 6
REMARK VINA RESULT:      -5.0      2.643      5.711
REMARK  7 active torsions:
REMARK  status: ('A' for Active; 'I' for Inactive)
REMARK    1  A    between atoms: C_2  and  C_3 
REMARK    2  A    between atoms: C_3  and  O_6 
REMARK    3  A    between atoms: C_3  and  C_4 
REMARK    4  A    between atoms: C_7  and  O_6 
REMARK    5  A    between atoms: C_9  and  C_10 
REMARK    6  A    between atoms: N_15  and  C_14 
REMARK    7  A    between atoms: N_20  and  C_19 
REMARK       I    between atoms: C_22  and  N_20 
ROOT
ATOM      1  C   LIG d   1      -4.345  74.422 117.082  0.00  0.00     0.161 C 
ATOM      2  C   LIG d   1      -5.303  73.423 116.845  0.00  0.00     0.016 C 
ATOM      3  C   LIG d   1      -6.694  73.673 116.797  0.00  0.00     0.038 C 
ATOM      4  C   LIG d   1      -7.214  74.975 116.833  0.00  0.00     0.028 C 
ATOM      5  C   LIG d   1      -6.322  75.964 117.577  0.00  0.00    -0.047 C 
ATOM      6  C   LIG d   1      -4.886  75.866 117.014  0.00  0.00     0.091 C 
ENDROOT
BRANCH   1   7
ATOM      7  O   LIG d   1      -3.235  74.260 116.178  0.00  0.00    -0.368 OA
BRANCH   7   8
ATOM      8  C   LIG d   1      -1.942  74.691 116.671  0.00  0.00     0.119 C 
BRANCH   8   9
ATOM      9  C   LIG d   1      -1.216  75.397 115.509  0.00  0.00     0.028 C 
ATOM     10  C   LIG d   1      -0.374  76.593 115.984  0.00  0.00     0.006 C 
ENDBRANCH   8   9
BRANCH   8  11
ATOM     11  C   LIG d   1      -1.058  73.495 117.036  0.00  0.00     0.028 C 
ATOM     12  C   LIG d   1      -0.679  73.467 118.525  0.00  0.00     0.006 C 
ENDBRANCH   8  11
ENDBRANCH   7   8
ENDBRANCH   1   7
BRANCH   6  13
ATOM     13  N   LIG d   1      -3.930  76.740 117.743  0.00  0.00    -0.311 N 
ATOM     14  C   LIG d   1      -3.623  77.976 117.353  0.00  0.00     0.210 C 
ATOM     15  C   LIG d   1      -2.600  78.697 118.237  0.00  0.00     0.109 C 
ATOM     16  O   LIG d   1      -4.124  78.555 116.378  0.00  0.00    -0.276 OA
ATOM     17  H   LIG d   1      -3.500  76.360 118.564  0.00  0.00     0.149 HD
ENDBRANCH   6  13
BRANCH   5  18
ATOM     18  N   LIG d   1      -6.915  77.305 117.419  0.00  0.00     0.381 N 
ATOM     19  H   LIG d   1      -6.214  78.004 117.562  0.00  0.00    -0.090 HD
ATOM     20  H   LIG d   1      -7.630  77.429 118.115  0.00  0.00    -0.090 HD
ATOM     21  H   LIG d   1      -7.307  77.400 116.508  0.00  0.00    -0.090 HD
ENDBRANCH   5  18
BRANCH   3  22
ATOM     22  C   LIG d   1      -7.582  72.610 116.752  0.00  0.00     0.382 C 
ATOM     23  O   LIG d   1      -7.266  71.554 116.152  0.00  0.00    -0.241 OA
ATOM     24  O   LIG d   1      -8.713  72.709 117.264  0.00  0.00    -0.241 OA
ENDBRANCH   3  22
TORSDOF 7
ENDMDL
MODEL 7
REMARK VINA RESULT:      -4.7     21.923     24.085
REMARK  7 active torsions:
REMARK  status: ('A' for Active; 'I' for Inactive)
REMARK    1  A    between atoms: C_2  and  C_3 
REMARK    2  A    between atoms: C_3  and  O_6 
REMARK    3  A    between atoms: C_3  and  C_4 
REMARK    4  A    between atoms: C_7  and  O_6 
REMARK    5  A    between atoms: C_9  and  C_10 
REMARK    6  A    between atoms: N_15  and  C_14 
REMARK    7  A    between atoms: N_20  and  C_19 
REMARK       I    between atoms: C_22  and  N_20 
ROOT
ATOM      1  C   LIG d   1     -25.088  85.139 115.324  0.00  0.00     0.161 C 
ATOM      2  C   LIG d   1     -24.192  86.202 115.120  0.00  0.00     0.016 C 
ATOM      3  C   LIG d   1     -23.077  86.123 114.254  0.00  0.00     0.038 C 
ATOM      4  C   LIG d   1     -22.867  85.020 113.413  0.00  0.00     0.028 C 
ATOM      5  C   LIG d   1     -23.460  83.724 113.955  0.00  0.00    -0.047 C 
ATOM      6  C   LIG d   1     -24.939  83.967 114.332  0.00  0.00     0.091 C 
ENDROOT
BRANCH   1   7
ATOM      7  O   LIG d   1     -26.442  85.634 115.316  0.00  0.00    -0.368 OA
BRANCH   7   8
ATOM      8  C   LIG d   1     -26.668  86.858 114.576  0.00  0.00     0.119 C 
BRANCH   8   9
ATOM      9  C   LIG d   1     -27.784  87.637 115.300  0.00  0.00     0.028 C 
ATOM     10  C   LIG d   1     -27.305  88.251 116.626  0.00  0.00     0.006 C 
ENDBRANCH   8   9
BRANCH   8  11
ATOM     11  C   LIG d   1     -27.218  86.570 113.176  0.00  0.00     0.028 C 
ATOM     12  C   LIG d   1     -26.242  86.969 112.058  0.00  0.00     0.006 C 
ENDBRANCH   8  11
ENDBRANCH   7   8
ENDBRANCH   1   7
BRANCH   6  13
ATOM     13  N   LIG d   1     -25.571  82.772 114.950  0.00  0.00    -0.311 N 
ATOM     14  C   LIG d   1     -26.170  81.813 114.245  0.00  0.00     0.210 C 
ATOM     15  C   LIG d   1     -26.774  80.679 115.080  0.00  0.00     0.109 C 
ATOM     16  O   LIG d   1     -26.231  81.778 113.007  0.00  0.00    -0.276 OA
ATOM     17  H   LIG d   1     -25.540  82.704 115.948  0.00  0.00     0.149 HD
ENDBRANCH   6  13
BRANCH   5  18
ATOM     18  N   LIG d   1     -23.290  82.688 112.919  0.00  0.00     0.381 N 
ATOM     19  H   LIG d   1     -23.103  83.120 112.036  0.00  0.00    -0.090 HD
ATOM     20  H   LIG d   1     -24.143  82.164 112.840  0.00  0.00    -0.090 HD
ATOM     21  H   LIG d   1     -22.540  82.080 113.164  0.00  0.00    -0.090 HD
ENDBRANCH   5  18
BRANCH   3  22
ATOM     22  C   LIG d   1     -22.134  87.140 114.253  0.00  0.00     0.382 C 
ATOM     23  O   LIG d   1     -21.064  87.002 113.614  0.00  0.00    -0.241 OA
ATOM     24  O   LIG d   1     -22.322  88.176 114.918  0.00  0.00    -0.241 OA
ENDBRANCH   3  22
TORSDOF 7
ENDMDL
MODEL 8
REMARK VINA RESULT:      -4.7     21.129     23.390
REMARK  7 active torsions:
REMARK  status: ('A' for Active; 'I' for Inactive)
REMARK    1  A    between atoms: C_2  and  C_3 
REMARK    2  A    between atoms: C_3  and  O_6 
REMARK    3  A    between atoms: C_3  and  C_4 
REMARK    4  A    between atoms: C_7  and  O_6 
REMARK    5  A    between atoms: C_9  and  C_10 
REMARK    6  A    between atoms: N_15  and  C_14 
REMARK    7  A    between atoms: N_20  and  C_19 
REMARK       I    between atoms: C_22  and  N_20 
ROOT
ATOM      1  C   LIG d   1     -23.787  83.692 113.733  0.00  0.00     0.161 C 
ATOM      2  C   LIG d   1     -22.876  84.713 114.050  0.00  0.00     0.016 C 
ATOM      3  C   LIG d   1     -23.202  86.088 114.007  0.00  0.00     0.038 C 
ATOM      4  C   LIG d   1     -24.514  86.533 113.787  0.00  0.00     0.028 C 
ATOM      5  C   LIG d   1     -25.354  85.560 112.966  0.00  0.00    -0.047 C 
ATOM      6  C   LIG d   1     -25.254  84.153 113.599  0.00  0.00     0.091 C 
ENDROOT
BRANCH   1   7
ATOM      7  O   LIG d   1     -23.683  82.627 114.698  0.00  0.00    -0.368 OA
BRANCH   7   8
ATOM      8  C   LIG d   1     -24.542  82.733 115.860  0.00  0.00     0.119 C 
BRANCH   8   9
ATOM      9  C   LIG d   1     -23.640  83.015 117.077  0.00  0.00     0.028 C 
ATOM     10  C   LIG d   1     -22.323  82.224 117.028  0.00  0.00     0.006 C 
ENDBRANCH   8   9
BRANCH   8  11
ATOM     11  C   LIG d   1     -25.232  81.400 116.166  0.00  0.00     0.028 C 
ATOM     12  C   LIG d   1     -24.977  80.335 115.088  0.00  0.00     0.006 C 
ENDBRANCH   8  11
ENDBRANCH   7   8
ENDBRANCH   1   7
BRANCH   6  13
ATOM     13  N   LIG d   1     -25.979  83.124 112.809  0.00  0.00    -0.311 N 
ATOM     14  C   LIG d   1     -27.218  82.723 113.089  0.00  0.00     0.210 C 
ATOM     15  C   LIG d   1     -27.771  81.637 112.161  0.00  0.00     0.109 C 
ATOM     16  O   LIG d   1     -27.923  83.187 113.997  0.00  0.00    -0.276 OA
ATOM     17  H   LIG d   1     -25.492  82.717 112.035  0.00  0.00     0.149 HD
ENDBRANCH   6  13
BRANCH   5  18
ATOM     18  N   LIG d   1     -26.733  86.082 112.931  0.00  0.00     0.381 N 
ATOM     19  H   LIG d   1     -27.382  85.331 113.059  0.00  0.00    -0.090 HD
ATOM     20  H   LIG d   1     -26.902  86.494 112.031  0.00  0.00    -0.090 HD
ATOM     21  H   LIG d   1     -26.858  86.764 113.646  0.00  0.00    -0.090 HD
ENDBRANCH   5  18
BRANCH   3  22
ATOM     22  C   LIG d   1     -22.200  87.037 114.145  0.00  0.00     0.382 C 
ATOM     23  O   LIG d   1     -22.401  88.066 114.834  0.00  0.00    -0.241 OA
ATOM     24  O   LIG d   1     -21.112  86.898 113.554  0.00  0.00    -0.241 OA
ENDBRANCH   3  22
TORSDOF 7
ENDMDL
MODEL 9
REMARK VINA RESULT:      -4.6     14.979     18.042
REMARK  7 active torsions:
REMARK  status: ('A' for Active; 'I' for Inactive)
REMARK    1  A    between atoms: C_2  and  C_3 
REMARK    2  A    between atoms: C_3  and  O_6 
REMARK    3  A    between atoms: C_3  and  C_4 
REMARK    4  A    between atoms: C_7  and  O_6 
REMARK    5  A    between atoms: C_9  and  C_10 
REMARK    6  A    between atoms: N_15  and  C_14 
REMARK    7  A    between atoms: N_20  and  C_19 
REMARK       I    between atoms: C_22  and  N_20 
ROOT
ATOM      1  C   LIG d   1     -16.598  65.255 116.900  0.00  0.00     0.161 C 
ATOM      2  C   LIG d   1     -17.534  64.515 117.642  0.00  0.00     0.016 C 
ATOM      3  C   LIG d   1     -18.679  63.913 117.071  0.00  0.00     0.038 C 
ATOM      4  C   LIG d   1     -18.887  63.883 115.684  0.00  0.00     0.028 C 
ATOM      5  C   LIG d   1     -18.234  65.048 114.948  0.00  0.00    -0.047 C 
ATOM      6  C   LIG d   1     -16.750  65.139 115.369  0.00  0.00     0.091 C 
ENDROOT
BRANCH   1   7
ATOM      7  O   LIG d   1     -15.262  64.894 117.301  0.00  0.00    -0.368 OA
BRANCH   7   8
ATOM      8  C   LIG d   1     -15.110  64.421 118.662  0.00  0.00     0.119 C 
BRANCH   8   9
ATOM      9  C   LIG d   1     -14.431  65.544 119.469  0.00  0.00     0.028 C 
ATOM     10  C   LIG d   1     -13.246  65.032 120.305  0.00  0.00     0.006 C 
ENDBRANCH   8   9
BRANCH   8  11
ATOM     11  C   LIG d   1     -14.149  63.231 118.735  0.00  0.00     0.028 C 
ATOM     12  C   LIG d   1     -14.836  61.938 119.200  0.00  0.00     0.006 C 
ENDBRANCH   8  11
ENDBRANCH   7   8
ENDBRANCH   1   7
BRANCH   6  13
ATOM     13  N   LIG d   1     -16.058  66.305 114.759  0.00  0.00    -0.311 N 
ATOM     14  C   LIG d   1     -15.440  66.256 113.580  0.00  0.00     0.210 C 
ATOM     15  C   LIG d   1     -14.773  67.564 113.145  0.00  0.00     0.109 C 
ATOM     16  O   LIG d   1     -15.408  65.262 112.839  0.00  0.00    -0.276 OA
ATOM     17  H   LIG d   1     -16.061  67.160 115.279  0.00  0.00     0.149 HD
ENDBRANCH   6  13
BRANCH   5  18
ATOM     18  N   LIG d   1     -18.412  64.818 113.502  0.00  0.00     0.381 N 
ATOM     19  H   LIG d   1     -18.326  65.684 113.008  0.00  0.00    -0.090 HD
ATOM     20  H   LIG d   1     -19.335  64.454 113.342  0.00  0.00    -0.090 HD
ATOM     21  H   LIG d   1     -17.730  64.171 113.173  0.00  0.00    -0.090 HD
ENDBRANCH   5  18
BRANCH   3  22
ATOM     22  C   LIG d   1     -19.652  63.367 117.895  0.00  0.00     0.382 C 
ATOM     23  O   LIG d   1     -20.797  63.129 117.440  0.00  0.00    -0.241 OA
ATOM     24  O   LIG d   1     -19.412  63.150 119.097  0.00  0.00    -0.241 OA
ENDBRANCH   3  22
TORSDOF 7
ENDMDL
