MODEL 1
REMARK VINA RESULT:      -5.7      0.000      0.000
REMARK  7 active torsions:
REMARK  status: ('A' for Active; 'I' for Inactive)
REMARK    1  A    between atoms: C_2  and  C_3 
REMARK    2  A    between atoms: C_3  and  O_6 
REMARK    3  A    between atoms: C_3  and  C_4 
REMARK    4  A    between atoms: C_7  and  O_6 
REMARK    5  A    between atoms: C_9  and  C_10 
REMARK    6  A    between atoms: N_15  and  C_14 
REMARK    7  A    between atoms: N_20  and  C_19 
REMARK       I    between atoms: C_22  and  N_20 
ROOT
ATOM      1  C   LIG d   1      -3.021  77.369 116.152  0.00  0.00     0.161 C 
ATOM      2  C   LIG d   1      -3.265  78.321 115.148  0.00  0.00     0.016 C 
ATOM      3  C   LIG d   1      -2.400  78.532 114.050  0.00  0.00     0.038 C 
ATOM      4  C   LIG d   1      -1.302  77.695 113.799  0.00  0.00     0.028 C 
ATOM      5  C   LIG d   1      -0.735  77.046 115.057  0.00  0.00    -0.047 C 
ATOM      6  C   LIG d   1      -1.888  76.372 115.836  0.00  0.00     0.091 C 
ENDROOT
BRANCH   1   7
ATOM      7  O   LIG d   1      -4.239  76.663 116.461  0.00  0.00    -0.368 OA
BRANCH   7   8
ATOM      8  C   LIG d   1      -5.417  77.068 115.721  0.00  0.00     0.119 C 
BRANCH   8   9
ATOM      9  C   LIG d   1      -6.484  77.495 116.747  0.00  0.00     0.028 C 
ATOM     10  C   LIG d   1      -7.701  76.555 116.754  0.00  0.00     0.006 C 
ENDBRANCH   8   9
BRANCH   8  11
ATOM     11  C   LIG d   1      -6.032  75.889 114.962  0.00  0.00     0.028 C 
ATOM     12  C   LIG d   1      -4.991  74.836 114.551  0.00  0.00     0.006 C 
ENDBRANCH   8  11
ENDBRANCH   7   8
ENDBRANCH   1   7
BRANCH   6  13
ATOM     13  N   LIG d   1      -1.433  75.785 117.124  0.00  0.00    -0.311 N 
ATOM     14  C   LIG d   1      -0.996  74.532 117.245  0.00  0.00     0.210 C 
ATOM     15  C   LIG d   1      -0.595  74.122 118.666  0.00  0.00     0.109 C 
ATOM     16  O   LIG d   1      -0.871  73.733 116.305  0.00  0.00    -0.276 OA
ATOM     17  H   LIG d   1      -1.472  76.374 117.933  0.00  0.00     0.149 HD
ENDBRANCH   6  13
BRANCH   5  18
ATOM     18  N   LIG d   1       0.311  76.096 114.636  0.00  0.00     0.381 N 
ATOM     19  H   LIG d   1       0.649  75.590 115.430  0.00  0.00    -0.090 HD
ATOM     20  H   LIG d   1       1.078  76.612 114.241  0.00  0.00    -0.090 HD
ATOM     21  H   LIG d   1      -0.055  75.462 113.960  0.00  0.00    -0.090 HD
ENDBRANCH   5  18
BRANCH   3  22
ATOM     22  C   LIG d   1      -2.607  79.615 113.210  0.00  0.00     0.382 C 
ATOM     23  O   LIG d   1      -3.386  80.536 113.555  0.00  0.00    -0.241 OA
ATOM     24  O   LIG d   1      -2.059  79.662 112.092  0.00  0.00    -0.241 OA
ENDBRANCH   3  22
TORSDOF 7
ENDMDL
MODEL 2
REMARK VINA RESULT:      -5.5      2.621      4.807
REMARK  7 active torsions:
REMARK  status: ('A' for Active; 'I' for Inactive)
REMARK    1  A    between atoms: C_2  and  C_3 
REMARK    2  A    between atoms: C_3  and  O_6 
REMARK    3  A    between atoms: C_3  and  C_4 
REMARK    4  A    between atoms: C_7  and  O_6 
REMARK    5  A    between atoms: C_9  and  C_10 
REMARK    6  A    between atoms: N_15  and  C_14 
REMARK    7  A    between atoms: N_20  and  C_19 
REMARK       I    between atoms: C_22  and  N_20 
ROOT
ATOM      1  C   LIG d   1      -2.862  74.721 115.626  0.00  0.00     0.161 C 
ATOM      2  C   LIG d   1      -1.943  75.490 114.893  0.00  0.00     0.016 C 
ATOM      3  C   LIG d   1      -2.327  76.483 113.962  0.00  0.00     0.038 C 
ATOM      4  C   LIG d   1      -3.664  76.881 113.812  0.00  0.00     0.028 C 
ATOM      5  C   LIG d   1      -4.665  75.785 114.161  0.00  0.00    -0.047 C 
ATOM      6  C   LIG d   1      -4.321  75.218 115.558  0.00  0.00     0.091 C 
ENDROOT
BRANCH   1   7
ATOM      7  O   LIG d   1      -2.431  74.622 116.998  0.00  0.00    -0.368 OA
BRANCH   7   8
ATOM      8  C   LIG d   1      -1.232  75.358 117.344  0.00  0.00     0.119 C 
BRANCH   8   9
ATOM      9  C   LIG d   1      -0.209  74.344 117.895  0.00  0.00     0.028 C 
ATOM     10  C   LIG d   1      -0.605  73.805 119.280  0.00  0.00     0.006 C 
ENDBRANCH   8   9
BRANCH   8  11
ATOM     11  C   LIG d   1      -1.491  76.337 118.493  0.00  0.00     0.028 C 
ATOM     12  C   LIG d   1      -2.307  77.564 118.056  0.00  0.00     0.006 C 
ENDBRANCH   8  11
ENDBRANCH   7   8
ENDBRANCH   1   7
BRANCH   6  13
ATOM     13  N   LIG d   1      -5.201  74.083 115.941  0.00  0.00    -0.311 N 
ATOM     14  C   LIG d   1      -6.333  74.232 116.626  0.00  0.00     0.210 C 
ATOM     15  C   LIG d   1      -7.079  72.930 116.934  0.00  0.00     0.109 C 
ATOM     16  O   LIG d   1      -6.808  75.322 116.979  0.00  0.00    -0.276 OA
ATOM     17  H   LIG d   1      -4.908  73.166 115.667  0.00  0.00     0.149 HD
ENDBRANCH   6  13
BRANCH   5  18
ATOM     18  N   LIG d   1      -6.015  76.376 114.094  0.00  0.00     0.381 N 
ATOM     19  H   LIG d   1      -6.009  77.164 113.477  0.00  0.00    -0.090 HD
ATOM     20  H   LIG d   1      -6.276  76.695 115.010  0.00  0.00    -0.090 HD
ATOM     21  H   LIG d   1      -6.669  75.697 113.771  0.00  0.00    -0.090 HD
ENDBRANCH   5  18
BRANCH   3  22
ATOM     22  C   LIG d   1      -1.371  77.061 113.140  0.00  0.00     0.382 C 
ATOM     23  O   LIG d   1      -0.891  78.183 113.430  0.00  0.00    -0.241 OA
ATOM     24  O   LIG d   1      -1.015  76.494 112.090  0.00  0.00    -0.241 OA
ENDBRANCH   3  22
TORSDOF 7
ENDMDL
MODEL 3
REMARK VINA RESULT:      -5.3      1.838      5.034
REMARK  7 active torsions:
REMARK  status: ('A' for Active; 'I' for Inactive)
REMARK    1  A    between atoms: C_2  and  C_3 
REMARK    2  A    between atoms: C_3  and  O_6 
REMARK    3  A    between atoms: C_3  and  C_4 
REMARK    4  A    between atoms: C_7  and  O_6 
REMARK    5  A    between atoms: C_9  and  C_10 
REMARK    6  A    between atoms: N_15  and  C_14 
REMARK    7  A    between atoms: N_20  and  C_19 
REMARK       I    between atoms: C_22  and  N_20 
ROOT
ATOM      1  C   LIG d   1      -2.423  75.839 115.990  0.00  0.00     0.161 C 
ATOM      2  C   LIG d   1      -1.999  74.983 117.019  0.00  0.00     0.016 C 
ATOM      3  C   LIG d   1      -0.832  75.207 117.787  0.00  0.00     0.038 C 
ATOM      4  C   LIG d   1      -0.088  76.391 117.676  0.00  0.00     0.028 C 
ATOM      5  C   LIG d   1      -0.193  77.046 116.303  0.00  0.00    -0.047 C 
ATOM      6  C   LIG d   1      -1.685  77.193 115.929  0.00  0.00     0.091 C 
ENDROOT
BRANCH   1   7
ATOM      7  O   LIG d   1      -3.846  76.048 116.084  0.00  0.00    -0.368 OA
BRANCH   7   8
ATOM      8  C   LIG d   1      -4.677  74.882 115.863  0.00  0.00     0.119 C 
BRANCH   8   9
ATOM      9  C   LIG d   1      -5.003  74.824 114.357  0.00  0.00     0.028 C 
ATOM     10  C   LIG d   1      -5.363  76.203 113.781  0.00  0.00     0.006 C 
ENDBRANCH   8   9
BRANCH   8  11
ATOM     11  C   LIG d   1      -6.031  75.021 116.565  0.00  0.00     0.028 C 
ATOM     12  C   LIG d   1      -6.718  73.668 116.809  0.00  0.00     0.006 C 
ENDBRANCH   8  11
ENDBRANCH   7   8
ENDBRANCH   1   7
BRANCH   6  13
ATOM     13  N   LIG d   1      -1.876  77.749 114.564  0.00  0.00    -0.311 N 
ATOM     14  C   LIG d   1      -2.710  78.750 114.290  0.00  0.00     0.210 C 
ATOM     15  C   LIG d   1      -2.770  79.156 112.814  0.00  0.00     0.109 C 
ATOM     16  O   LIG d   1      -3.382  79.362 115.134  0.00  0.00    -0.276 OA
ATOM     17  H   LIG d   1      -1.346  77.331 113.824  0.00  0.00     0.149 HD
ENDBRANCH   6  13
BRANCH   5  18
ATOM     18  N   LIG d   1       0.517  78.338 116.370  0.00  0.00     0.381 N 
ATOM     19  H   LIG d   1       0.961  78.526 115.494  0.00  0.00    -0.090 HD
ATOM     20  H   LIG d   1       1.228  78.282 117.078  0.00  0.00    -0.090 HD
ATOM     21  H   LIG d   1      -0.124  79.068 116.590  0.00  0.00    -0.090 HD
ENDBRANCH   5  18
BRANCH   3  22
ATOM     22  C   LIG d   1      -0.377  74.221 118.649  0.00  0.00     0.382 C 
ATOM     23  O   LIG d   1      -0.853  73.062 118.583  0.00  0.00    -0.241 OA
ATOM     24  O   LIG d   1       0.471  74.487 119.521  0.00  0.00    -0.241 OA
ENDBRANCH   3  22
TORSDOF 7
ENDMDL
MODEL 4
REMARK VINA RESULT:      -5.1      1.814      4.819
REMARK  7 active torsions:
REMARK  status: ('A' for Active; 'I' for Inactive)
REMARK    1  A    between atoms: C_2  and  C_3 
REMARK    2  A    between atoms: C_3  and  O_6 
REMARK    3  A    between atoms: C_3  and  C_4 
REMARK    4  A    between atoms: C_7  and  O_6 
REMARK    5  A    between atoms: C_9  and  C_10 
REMARK    6  A    between atoms: N_15  and  C_14 
REMARK    7  A    between atoms: N_20  and  C_19 
REMARK       I    between atoms: C_22  and  N_20 
ROOT
ATOM      1  C   LIG d   1      -3.115  75.613 116.116  0.00  0.00     0.161 C 
ATOM      2  C   LIG d   1      -2.409  75.040 117.187  0.00  0.00     0.016 C 
ATOM      3  C   LIG d   1      -1.004  74.874 117.193  0.00  0.00     0.038 C 
ATOM      4  C   LIG d   1      -0.190  75.412 116.186  0.00  0.00     0.028 C 
ATOM      5  C   LIG d   1      -0.900  75.553 114.843  0.00  0.00    -0.047 C 
ATOM      6  C   LIG d   1      -2.233  76.307 115.057  0.00  0.00     0.091 C 
ENDROOT
BRANCH   1   7
ATOM      7  O   LIG d   1      -4.107  76.529 116.620  0.00  0.00    -0.368 OA
BRANCH   7   8
ATOM      8  C   LIG d   1      -5.474  76.049 116.626  0.00  0.00     0.119 C 
BRANCH   8   9
ATOM      9  C   LIG d   1      -5.496  74.707 115.870  0.00  0.00     0.028 C 
ATOM     10  C   LIG d   1      -6.431  73.678 116.527  0.00  0.00     0.006 C 
ENDBRANCH   8   9
BRANCH   8  11
ATOM     11  C   LIG d   1      -6.394  76.979 115.830  0.00  0.00     0.028 C 
ATOM     12  C   LIG d   1      -6.826  76.379 114.482  0.00  0.00     0.006 C 
ENDBRANCH   8  11
ENDBRANCH   7   8
ENDBRANCH   1   7
BRANCH   6  13
ATOM     13  N   LIG d   1      -3.030  76.414 113.808  0.00  0.00    -0.311 N 
ATOM     14  C   LIG d   1      -3.526  77.562 113.350  0.00  0.00     0.210 C 
ATOM     15  C   LIG d   1      -4.335  77.447 112.055  0.00  0.00     0.109 C 
ATOM     16  O   LIG d   1      -3.344  78.670 113.877  0.00  0.00    -0.276 OA
ATOM     17  H   LIG d   1      -3.199  75.567 113.301  0.00  0.00     0.149 HD
ENDBRANCH   6  13
BRANCH   5  18
ATOM     18  N   LIG d   1       0.018  76.252 113.925  0.00  0.00     0.381 N 
ATOM     19  H   LIG d   1      -0.107  75.907 112.994  0.00  0.00    -0.090 HD
ATOM     20  H   LIG d   1       0.965  76.064 114.206  0.00  0.00    -0.090 HD
ATOM     21  H   LIG d   1      -0.155  77.233 113.950  0.00  0.00    -0.090 HD
ENDBRANCH   5  18
BRANCH   3  22
ATOM     22  C   LIG d   1      -0.405  74.128 118.196  0.00  0.00     0.382 C 
ATOM     23  O   LIG d   1       0.628  74.558 118.765  0.00  0.00    -0.241 OA
ATOM     24  O   LIG d   1      -0.858  73.011 118.510  0.00  0.00    -0.241 OA
ENDBRANCH   3  22
TORSDOF 7
ENDMDL
MODEL 5
REMARK VINA RESULT:      -5.0      2.558      3.993
REMARK  7 active torsions:
REMARK  status: ('A' for Active; 'I' for Inactive)
REMARK    1  A    between atoms: C_2  and  C_3 
REMARK    2  A    between atoms: C_3  and  O_6 
REMARK    3  A    between atoms: C_3  and  C_4 
REMARK    4  A    between atoms: C_7  and  O_6 
REMARK    5  A    between atoms: C_9  and  C_10 
REMARK    6  A    between atoms: N_15  and  C_14 
REMARK    7  A    between atoms: N_20  and  C_19 
REMARK       I    between atoms: C_22  and  N_20 
ROOT
ATOM      1  C   LIG d   1      -3.428  75.923 115.944  0.00  0.00     0.161 C 
ATOM      2  C   LIG d   1      -2.404  75.433 115.117  0.00  0.00     0.016 C 
ATOM      3  C   LIG d   1      -1.069  75.893 115.175  0.00  0.00     0.038 C 
ATOM      4  C   LIG d   1      -0.631  76.774 116.176  0.00  0.00     0.028 C 
ATOM      5  C   LIG d   1      -1.736  77.677 116.713  0.00  0.00    -0.047 C 
ATOM      6  C   LIG d   1      -2.946  76.803 117.117  0.00  0.00     0.091 C 
ENDROOT
BRANCH   1   7
ATOM      7  O   LIG d   1      -4.226  74.828 116.435  0.00  0.00    -0.368 OA
BRANCH   7   8
ATOM      8  C   LIG d   1      -5.419  74.517 115.675  0.00  0.00     0.119 C 
BRANCH   8   9
ATOM      9  C   LIG d   1      -5.883  75.818 114.990  0.00  0.00     0.028 C 
ATOM     10  C   LIG d   1      -7.184  76.369 115.597  0.00  0.00     0.006 C 
ENDBRANCH   8   9
BRANCH   8  11
ATOM     11  C   LIG d   1      -6.575  74.108 116.593  0.00  0.00     0.028 C 
ATOM     12  C   LIG d   1      -6.892  72.606 116.518  0.00  0.00     0.006 C 
ENDBRANCH   8  11
ENDBRANCH   7   8
ENDBRANCH   1   7
BRANCH   6  13
ATOM     13  N   LIG d   1      -4.103  77.615 117.575  0.00  0.00    -0.311 N 
ATOM     14  C   LIG d   1      -4.584  78.655 116.896  0.00  0.00     0.210 C 
ATOM     15  C   LIG d   1      -5.769  79.367 117.556  0.00  0.00     0.109 C 
ATOM     16  O   LIG d   1      -4.161  79.037 115.794  0.00  0.00    -0.276 OA
ATOM     17  H   LIG d   1      -4.527  77.356 118.444  0.00  0.00     0.149 HD
ENDBRANCH   6  13
BRANCH   5  18
ATOM     18  N   LIG d   1      -1.175  78.444 117.842  0.00  0.00     0.381 N 
ATOM     19  H   LIG d   1      -1.873  78.567 118.548  0.00  0.00    -0.090 HD
ATOM     20  H   LIG d   1      -0.897  79.351 117.512  0.00  0.00    -0.090 HD
ATOM     21  H   LIG d   1      -0.389  77.965 118.222  0.00  0.00    -0.090 HD
ENDBRANCH   5  18
BRANCH   3  22
ATOM     22  C   LIG d   1      -0.164  75.502 114.200  0.00  0.00     0.382 C 
ATOM     23  O   LIG d   1      -0.495  75.529 112.990  0.00  0.00    -0.241 OA
ATOM     24  O   LIG d   1       0.965  75.082 114.518  0.00  0.00    -0.241 OA
ENDBRANCH   3  22
TORSDOF 7
ENDMDL
MODEL 6
REMARK VINA RESULT:      -4.6      2.681      5.081
REMARK  7 active torsions:
REMARK  status: ('A' for Active; 'I' for Inactive)
REMARK    1  A    between atoms: C_2  and  C_3 
REMARK    2  A    between atoms: C_3  and  O_6 
REMARK    3  A    between atoms: C_3  and  C_4 
REMARK    4  A    between atoms: C_7  and  O_6 
REMARK    5  A    between atoms: C_9  and  C_10 
REMARK    6  A    between atoms: N_15  and  C_14 
REMARK    7  A    between atoms: N_20  and  C_19 
REMARK       I    between atoms: C_22  and  N_20 
ROOT
ATOM      1  C   LIG d   1      -2.446  75.529 115.892  0.00  0.00     0.161 C 
ATOM      2  C   LIG d   1      -1.216  75.041 115.419  0.00  0.00     0.016 C 
ATOM      3  C   LIG d   1      -0.593  75.512 114.241  0.00  0.00     0.038 C 
ATOM      4  C   LIG d   1      -1.087  76.618 113.533  0.00  0.00     0.028 C 
ATOM      5  C   LIG d   1      -2.591  76.815 113.689  0.00  0.00    -0.047 C 
ATOM      6  C   LIG d   1      -2.944  76.812 115.194  0.00  0.00     0.091 C 
ENDROOT
BRANCH   1   7
ATOM      7  O   LIG d   1      -2.376  75.730 117.318  0.00  0.00    -0.368 OA
BRANCH   7   8
ATOM      8  C   LIG d   1      -1.078  76.098 117.847  0.00  0.00     0.119 C 
BRANCH   8   9
ATOM      9  C   LIG d   1      -0.878  75.323 119.164  0.00  0.00     0.028 C 
ATOM     10  C   LIG d   1      -0.711  73.811 118.936  0.00  0.00     0.006 C 
ENDBRANCH   8   9
BRANCH   8  11
ATOM     11  C   LIG d   1      -1.034  77.578 118.236  0.00  0.00     0.028 C 
ATOM     12  C   LIG d   1      -0.268  78.439 117.220  0.00  0.00     0.006 C 
ENDBRANCH   8  11
ENDBRANCH   7   8
ENDBRANCH   1   7
BRANCH   6  13
ATOM     13  N   LIG d   1      -4.407  76.915 115.433  0.00  0.00    -0.311 N 
ATOM     14  C   LIG d   1      -5.293  76.051 114.940  0.00  0.00     0.210 C 
ATOM     15  C   LIG d   1      -6.754  76.352 115.291  0.00  0.00     0.109 C 
ATOM     16  O   LIG d   1      -5.006  75.047 114.272  0.00  0.00    -0.276 OA
ATOM     17  H   LIG d   1      -4.725  77.683 115.991  0.00  0.00     0.149 HD
ENDBRANCH   6  13
BRANCH   5  18
ATOM     18  N   LIG d   1      -2.948  78.077 113.014  0.00  0.00     0.381 N 
ATOM     19  H   LIG d   1      -3.435  77.880 112.163  0.00  0.00    -0.090 HD
ATOM     20  H   LIG d   1      -2.105  78.574 112.787  0.00  0.00    -0.090 HD
ATOM     21  H   LIG d   1      -3.519  78.633 113.611  0.00  0.00    -0.090 HD
ENDBRANCH   5  18
BRANCH   3  22
ATOM     22  C   LIG d   1       0.516  74.850 113.738  0.00  0.00     0.382 C 
ATOM     23  O   LIG d   1       0.427  74.201 112.668  0.00  0.00    -0.241 OA
ATOM     24  O   LIG d   1       1.593  74.857 114.363  0.00  0.00    -0.241 OA
ENDBRANCH   3  22
TORSDOF 7
ENDMDL
MODEL 7
REMARK VINA RESULT:      -4.5     10.196     12.555
REMARK  7 active torsions:
REMARK  status: ('A' for Active; 'I' for Inactive)
REMARK    1  A    between atoms: C_2  and  C_3 
REMARK    2  A    between atoms: C_3  and  O_6 
REMARK    3  A    between atoms: C_3  and  C_4 
REMARK    4  A    between atoms: C_7  and  O_6 
REMARK    5  A    between atoms: C_9  and  C_10 
REMARK    6  A    between atoms: N_15  and  C_14 
REMARK    7  A    between atoms: N_20  and  C_19 
REMARK       I    between atoms: C_22  and  N_20 
ROOT
ATOM      1  C   LIG d   1       4.301  86.155 114.466  0.00  0.00     0.161 C 
ATOM      2  C   LIG d   1       5.399  87.028 114.538  0.00  0.00     0.016 C 
ATOM      3  C   LIG d   1       5.459  88.260 113.846  0.00  0.00     0.038 C 
ATOM      4  C   LIG d   1       4.354  88.775 113.152  0.00  0.00     0.028 C 
ATOM      5  C   LIG d   1       3.406  87.698 112.637  0.00  0.00    -0.047 C 
ATOM      6  C   LIG d   1       3.042  86.751 113.803  0.00  0.00     0.091 C 
ENDROOT
BRANCH   1   7
ATOM      7  O   LIG d   1       3.986  85.657 115.782  0.00  0.00    -0.368 OA
BRANCH   7   8
ATOM      8  C   LIG d   1       4.275  84.258 116.020  0.00  0.00     0.119 C 
BRANCH   8   9
ATOM      9  C   LIG d   1       5.490  84.190 116.967  0.00  0.00     0.028 C 
ATOM     10  C   LIG d   1       5.529  85.368 117.955  0.00  0.00     0.006 C 
ENDBRANCH   8   9
BRANCH   8  11
ATOM     11  C   LIG d   1       4.723  83.554 114.735  0.00  0.00     0.028 C 
ATOM     12  C   LIG d   1       3.768  82.429 114.308  0.00  0.00     0.006 C 
ENDBRANCH   8  11
ENDBRANCH   7   8
ENDBRANCH   1   7
BRANCH   6  13
ATOM     13  N   LIG d   1       2.184  85.618 113.367  0.00  0.00    -0.311 N 
ATOM     14  C   LIG d   1       1.062  85.266 113.991  0.00  0.00     0.210 C 
ATOM     15  C   LIG d   1       0.339  84.057 113.389  0.00  0.00     0.109 C 
ATOM     16  O   LIG d   1       0.579  85.859 114.967  0.00  0.00    -0.276 OA
ATOM     17  H   LIG d   1       2.485  85.101 112.564  0.00  0.00     0.149 HD
ENDBRANCH   6  13
BRANCH   5  18
ATOM     18  N   LIG d   1       2.233  88.377 112.056  0.00  0.00     0.381 N 
ATOM     19  H   LIG d   1       2.526  88.990 111.321  0.00  0.00    -0.090 HD
ATOM     20  H   LIG d   1       1.790  88.929 112.769  0.00  0.00    -0.090 HD
ATOM     21  H   LIG d   1       1.591  87.704 111.700  0.00  0.00    -0.090 HD
ENDBRANCH   5  18
BRANCH   3  22
ATOM     22  C   LIG d   1       6.648  88.972 113.813  0.00  0.00     0.382 C 
ATOM     23  O   LIG d   1       7.340  89.086 114.853  0.00  0.00    -0.241 OA
ATOM     24  O   LIG d   1       7.016  89.538 112.766  0.00  0.00    -0.241 OA
ENDBRANCH   3  22
TORSDOF 7
ENDMDL
MODEL 8
REMARK VINA RESULT:      -4.4      2.245      4.511
REMARK  7 active torsions:
REMARK  status: ('A' for Active; 'I' for Inactive)
REMARK    1  A    between atoms: C_2  and  C_3 
REMARK    2  A    between atoms: C_3  and  O_6 
REMARK    3  A    between atoms: C_3  and  C_4 
REMARK    4  A    between atoms: C_7  and  O_6 
REMARK    5  A    between atoms: C_9  and  C_10 
REMARK    6  A    between atoms: N_15  and  C_14 
REMARK    7  A    between atoms: N_20  and  C_19 
REMARK       I    between atoms: C_22  and  N_20 
ROOT
ATOM      1  C   LIG d   1      -3.157  76.617 116.328  0.00  0.00     0.161 C 
ATOM      2  C   LIG d   1      -2.379  75.856 117.216  0.00  0.00     0.016 C 
ATOM      3  C   LIG d   1      -1.057  75.441 116.932  0.00  0.00     0.038 C 
ATOM      4  C   LIG d   1      -0.366  75.890 115.797  0.00  0.00     0.028 C 
ATOM      5  C   LIG d   1      -1.283  76.246 114.632  0.00  0.00    -0.047 C 
ATOM      6  C   LIG d   1      -2.382  77.210 115.133  0.00  0.00     0.091 C 
ENDROOT
BRANCH   1   7
ATOM      7  O   LIG d   1      -3.841  77.661 117.050  0.00  0.00    -0.368 OA
BRANCH   7   8
ATOM      8  C   LIG d   1      -5.276  77.729 116.864  0.00  0.00     0.119 C 
BRANCH   8   9
ATOM      9  C   LIG d   1      -5.877  78.371 118.130  0.00  0.00     0.028 C 
ATOM     10  C   LIG d   1      -6.350  79.814 117.889  0.00  0.00     0.006 C 
ENDBRANCH   8   9
BRANCH   8  11
ATOM     11  C   LIG d   1      -5.895  76.330 116.786  0.00  0.00     0.028 C 
ATOM     12  C   LIG d   1      -7.059  76.249 115.786  0.00  0.00     0.006 C 
ENDBRANCH   8  11
ENDBRANCH   7   8
ENDBRANCH   1   7
BRANCH   6  13
ATOM     13  N   LIG d   1      -3.371  77.542 114.075  0.00  0.00    -0.311 N 
ATOM     14  C   LIG d   1      -4.132  76.631 113.471  0.00  0.00     0.210 C 
ATOM     15  C   LIG d   1      -5.071  77.184 112.395  0.00  0.00     0.109 C 
ATOM     16  O   LIG d   1      -4.141  75.422 113.747  0.00  0.00    -0.276 OA
ATOM     17  H   LIG d   1      -3.451  78.505 113.812  0.00  0.00     0.149 HD
ENDBRANCH   6  13
BRANCH   5  18
ATOM     18  N   LIG d   1      -0.445  76.828 113.567  0.00  0.00     0.381 N 
ATOM     19  H   LIG d   1       0.127  76.116 113.158  0.00  0.00    -0.090 HD
ATOM     20  H   LIG d   1       0.159  77.523 113.972  0.00  0.00    -0.090 HD
ATOM     21  H   LIG d   1      -1.020  77.244 112.869  0.00  0.00    -0.090 HD
ENDBRANCH   5  18
BRANCH   3  22
ATOM     22  C   LIG d   1      -0.427  74.534 117.771  0.00  0.00     0.382 C 
ATOM     23  O   LIG d   1       0.658  74.839 118.322  0.00  0.00    -0.241 OA
ATOM     24  O   LIG d   1      -0.907  73.398 117.948  0.00  0.00    -0.241 OA
ENDBRANCH   3  22
TORSDOF 7
ENDMDL
MODEL 9
REMARK VINA RESULT:      -4.4      9.521     11.510
REMARK  7 active torsions:
REMARK  status: ('A' for Active; 'I' for Inactive)
REMARK    1  A    between atoms: C_2  and  C_3 
REMARK    2  A    between atoms: C_3  and  O_6 
REMARK    3  A    between atoms: C_3  and  C_4 
REMARK    4  A    between atoms: C_7  and  O_6 
REMARK    5  A    between atoms: C_9  and  C_10 
REMARK    6  A    between atoms: N_15  and  C_14 
REMARK    7  A    between atoms: N_20  and  C_19 
REMARK       I    between atoms: C_22  and  N_20 
ROOT
ATOM      1  C   LIG d   1       4.106  85.579 113.499  0.00  0.00     0.161 C 
ATOM      2  C   LIG d   1       4.462  86.840 112.993  0.00  0.00     0.016 C 
ATOM      3  C   LIG d   1       5.264  87.765 113.701  0.00  0.00     0.038 C 
ATOM      4  C   LIG d   1       5.892  87.428 114.909  0.00  0.00     0.028 C 
ATOM      5  C   LIG d   1       5.152  86.353 115.698  0.00  0.00    -0.047 C 
ATOM      6  C   LIG d   1       4.873  85.151 114.768  0.00  0.00     0.091 C 
ENDROOT
BRANCH   1   7
ATOM      7  O   LIG d   1       4.245  84.581 112.469  0.00  0.00    -0.368 OA
BRANCH   7   8
ATOM      8  C   LIG d   1       3.025  83.918 112.055  0.00  0.00     0.119 C 
BRANCH   8   9
ATOM      9  C   LIG d   1       1.862  84.555 112.840  0.00  0.00     0.028 C 
ATOM     10  C   LIG d   1       0.907  83.505 113.431  0.00  0.00     0.006 C 
ENDBRANCH   8   9
BRANCH   8  11
ATOM     11  C   LIG d   1       3.028  82.441 112.463  0.00  0.00     0.028 C 
ATOM     12  C   LIG d   1       4.442  81.841 112.517  0.00  0.00     0.006 C 
ENDBRANCH   8  11
ENDBRANCH   7   8
ENDBRANCH   1   7
BRANCH   6  13
ATOM     13  N   LIG d   1       4.078  84.088 115.437  0.00  0.00    -0.311 N 
ATOM     14  C   LIG d   1       4.625  83.034 116.041  0.00  0.00     0.210 C 
ATOM     15  C   LIG d   1       3.624  82.048 116.651  0.00  0.00     0.109 C 
ATOM     16  O   LIG d   1       5.844  82.839 116.157  0.00  0.00    -0.276 OA
ATOM     17  H   LIG d   1       3.082  84.184 115.418  0.00  0.00     0.149 HD
ENDBRANCH   6  13
BRANCH   5  18
ATOM     18  N   LIG d   1       5.986  86.002 116.863  0.00  0.00     0.381 N 
ATOM     19  H   LIG d   1       5.402  85.785 117.645  0.00  0.00    -0.090 HD
ATOM     20  H   LIG d   1       6.557  86.792 117.105  0.00  0.00    -0.090 HD
ATOM     21  H   LIG d   1       6.564  85.220 116.645  0.00  0.00    -0.090 HD
ENDBRANCH   5  18
BRANCH   3  22
ATOM     22  C   LIG d   1       5.411  89.057 113.220  0.00  0.00     0.382 C 
ATOM     23  O   LIG d   1       4.416  89.819 113.158  0.00  0.00    -0.241 OA
ATOM     24  O   LIG d   1       6.516  89.454 112.805  0.00  0.00    -0.241 OA
ENDBRANCH   3  22
TORSDOF 7
ENDMDL
