MODEL 1
REMARK VINA RESULT:      -5.3      0.000      0.000
REMARK  7 active torsions:
REMARK  status: ('A' for Active; 'I' for Inactive)
REMARK    1  A    between atoms: C_2  and  C_3 
REMARK    2  A    between atoms: C_3  and  O_6 
REMARK    3  A    between atoms: C_3  and  C_4 
REMARK    4  A    between atoms: C_7  and  O_6 
REMARK    5  A    between atoms: C_9  and  C_10 
REMARK    6  A    between atoms: N_15  and  C_14 
REMARK    7  A    between atoms: N_20  and  C_19 
REMARK       I    between atoms: C_22  and  N_20 
ROOT
ATOM      1  C   LIG d   1      -7.934  74.915 118.057  0.00  0.00     0.161 C 
ATOM      2  C   LIG d   1      -8.985  75.847 118.053  0.00  0.00     0.016 C 
ATOM      3  C   LIG d   1      -8.792  77.238 118.213  0.00  0.00     0.038 C 
ATOM      4  C   LIG d   1      -7.511  77.811 118.236  0.00  0.00     0.028 C 
ATOM      5  C   LIG d   1      -6.433  76.863 118.750  0.00  0.00    -0.047 C 
ATOM      6  C   LIG d   1      -6.522  75.532 117.970  0.00  0.00     0.091 C 
ENDROOT
BRANCH   1   7
ATOM      7  O   LIG d   1      -8.127  73.956 116.999  0.00  0.00    -0.368 OA
BRANCH   7   8
ATOM      8  C   LIG d   1      -8.277  72.574 117.410  0.00  0.00     0.119 C 
BRANCH   8   9
ATOM      9  C   LIG d   1      -7.353  71.723 116.517  0.00  0.00     0.028 C 
ATOM     10  C   LIG d   1      -6.549  72.577 115.522  0.00  0.00     0.006 C 
ENDBRANCH   8   9
BRANCH   8  11
ATOM     11  C   LIG d   1      -9.693  72.061 117.134  0.00  0.00     0.028 C 
ATOM     12  C   LIG d   1      -9.759  70.530 117.016  0.00  0.00     0.006 C 
ENDBRANCH   8  11
ENDBRANCH   7   8
ENDBRANCH   1   7
BRANCH   6  13
ATOM     13  N   LIG d   1      -5.557  74.517 118.468  0.00  0.00    -0.311 N 
ATOM     14  C   LIG d   1      -4.372  74.294 117.903  0.00  0.00     0.210 C 
ATOM     15  C   LIG d   1      -3.539  73.190 118.562  0.00  0.00     0.109 C 
ATOM     16  O   LIG d   1      -3.917  74.927 116.939  0.00  0.00    -0.276 OA
ATOM     17  H   LIG d   1      -5.832  73.979 119.267  0.00  0.00     0.149 HD
ENDBRANCH   6  13
BRANCH   5  18
ATOM     18  N   LIG d   1      -5.132  77.540 118.592  0.00  0.00     0.381 N 
ATOM     19  H   LIG d   1      -5.206  78.257 117.899  0.00  0.00    -0.090 HD
ATOM     20  H   LIG d   1      -4.452  76.869 118.281  0.00  0.00    -0.090 HD
ATOM     21  H   LIG d   1      -4.846  77.935 119.461  0.00  0.00    -0.090 HD
ENDBRANCH   5  18
BRANCH   3  22
ATOM     22  C   LIG d   1      -9.888  78.068 118.391  0.00  0.00     0.382 C 
ATOM     23  O   LIG d   1      -9.783  79.300 118.175  0.00  0.00    -0.241 OA
ATOM     24  O   LIG d   1     -10.968  77.608 118.806  0.00  0.00    -0.241 OA
ENDBRANCH   3  22
TORSDOF 7
ENDMDL
MODEL 2
REMARK VINA RESULT:      -5.1     15.651     17.631
REMARK  7 active torsions:
REMARK  status: ('A' for Active; 'I' for Inactive)
REMARK    1  A    between atoms: C_2  and  C_3 
REMARK    2  A    between atoms: C_3  and  O_6 
REMARK    3  A    between atoms: C_3  and  C_4 
REMARK    4  A    between atoms: C_7  and  O_6 
REMARK    5  A    between atoms: C_9  and  C_10 
REMARK    6  A    between atoms: N_15  and  C_14 
REMARK    7  A    between atoms: N_20  and  C_19 
REMARK       I    between atoms: C_22  and  N_20 
ROOT
ATOM      1  C   LIG d   1      -5.625  91.718 118.760  0.00  0.00     0.161 C 
ATOM      2  C   LIG d   1      -6.896  92.281 118.957  0.00  0.00     0.016 C 
ATOM      3  C   LIG d   1      -7.105  93.648 119.256  0.00  0.00     0.038 C 
ATOM      4  C   LIG d   1      -6.058  94.581 119.229  0.00  0.00     0.028 C 
ATOM      5  C   LIG d   1      -4.694  93.970 119.532  0.00  0.00    -0.047 C 
ATOM      6  C   LIG d   1      -4.479  92.742 118.617  0.00  0.00     0.091 C 
ENDROOT
BRANCH   1   7
ATOM      7  O   LIG d   1      -5.652  90.835 117.622  0.00  0.00    -0.368 OA
BRANCH   7   8
ATOM      8  C   LIG d   1      -5.391  91.446 116.334  0.00  0.00     0.119 C 
BRANCH   8   9
ATOM      9  C   LIG d   1      -6.741  91.577 115.602  0.00  0.00     0.028 C 
ATOM     10  C   LIG d   1      -7.444  90.221 115.421  0.00  0.00     0.006 C 
ENDBRANCH   8   9
BRANCH   8  11
ATOM     11  C   LIG d   1      -4.536  90.536 115.449  0.00  0.00     0.028 C 
ATOM     12  C   LIG d   1      -3.815  89.436 116.245  0.00  0.00     0.006 C 
ENDBRANCH   8  11
ENDBRANCH   7   8
ENDBRANCH   1   7
BRANCH   6  13
ATOM     13  N   LIG d   1      -3.205  92.035 118.907  0.00  0.00    -0.311 N 
ATOM     14  C   LIG d   1      -2.153  92.055 118.090  0.00  0.00     0.210 C 
ATOM     15  C   LIG d   1      -0.946  91.243 118.570  0.00  0.00     0.109 C 
ATOM     16  O   LIG d   1      -2.093  92.695 117.029  0.00  0.00    -0.276 OA
ATOM     17  H   LIG d   1      -3.155  91.517 119.762  0.00  0.00     0.149 HD
ENDBRANCH   6  13
BRANCH   5  18
ATOM     18  N   LIG d   1      -3.680  95.022 119.335  0.00  0.00     0.381 N 
ATOM     19  H   LIG d   1      -4.108  95.834 118.936  0.00  0.00    -0.090 HD
ATOM     20  H   LIG d   1      -2.983  94.687 118.693  0.00  0.00    -0.090 HD
ATOM     21  H   LIG d   1      -3.256  95.255 120.206  0.00  0.00    -0.090 HD
ENDBRANCH   5  18
BRANCH   3  22
ATOM     22  C   LIG d   1      -8.368  94.085 119.626  0.00  0.00     0.382 C 
ATOM     23  O   LIG d   1      -9.385  93.451 119.254  0.00  0.00    -0.241 OA
ATOM     24  O   LIG d   1      -8.505  95.131 120.288  0.00  0.00    -0.241 OA
ENDBRANCH   3  22
TORSDOF 7
ENDMDL
MODEL 3
REMARK VINA RESULT:      -5.1      1.325      2.316
REMARK  7 active torsions:
REMARK  status: ('A' for Active; 'I' for Inactive)
REMARK    1  A    between atoms: C_2  and  C_3 
REMARK    2  A    between atoms: C_3  and  O_6 
REMARK    3  A    between atoms: C_3  and  C_4 
REMARK    4  A    between atoms: C_7  and  O_6 
REMARK    5  A    between atoms: C_9  and  C_10 
REMARK    6  A    between atoms: N_15  and  C_14 
REMARK    7  A    between atoms: N_20  and  C_19 
REMARK       I    between atoms: C_22  and  N_20 
ROOT
ATOM      1  C   LIG d   1      -6.703  73.974 118.613  0.00  0.00     0.161 C 
ATOM      2  C   LIG d   1      -7.888  74.650 118.277  0.00  0.00     0.016 C 
ATOM      3  C   LIG d   1      -7.982  76.058 118.187  0.00  0.00     0.038 C 
ATOM      4  C   LIG d   1      -6.852  76.884 118.281  0.00  0.00     0.028 C 
ATOM      5  C   LIG d   1      -5.729  76.282 119.119  0.00  0.00    -0.047 C 
ATOM      6  C   LIG d   1      -5.434  74.852 118.610  0.00  0.00     0.091 C 
ENDROOT
BRANCH   1   7
ATOM      7  O   LIG d   1      -6.527  72.836 117.747  0.00  0.00    -0.368 OA
BRANCH   7   8
ATOM      8  C   LIG d   1      -7.290  72.848 116.516  0.00  0.00     0.119 C 
BRANCH   8   9
ATOM      9  C   LIG d   1      -7.934  71.457 116.357  0.00  0.00     0.028 C 
ATOM     10  C   LIG d   1      -9.458  71.489 116.557  0.00  0.00     0.006 C 
ENDBRANCH   8   9
BRANCH   8  11
ATOM     11  C   LIG d   1      -6.379  73.015 115.296  0.00  0.00     0.028 C 
ATOM     12  C   LIG d   1      -6.081  74.488 114.973  0.00  0.00     0.006 C 
ENDBRANCH   8  11
ENDBRANCH   7   8
ENDBRANCH   1   7
BRANCH   6  13
ATOM     13  N   LIG d   1      -4.406  74.160 119.430  0.00  0.00    -0.311 N 
ATOM     14  C   LIG d   1      -3.317  73.593 118.913  0.00  0.00     0.210 C 
ATOM     15  C   LIG d   1      -2.396  72.915 119.932  0.00  0.00     0.109 C 
ATOM     16  O   LIG d   1      -3.010  73.615 117.712  0.00  0.00    -0.276 OA
ATOM     17  H   LIG d   1      -4.559  74.123 120.418  0.00  0.00     0.149 HD
ENDBRANCH   6  13
BRANCH   5  18
ATOM     18  N   LIG d   1      -4.566  77.183 119.019  0.00  0.00     0.381 N 
ATOM     19  H   LIG d   1      -4.801  78.082 119.389  0.00  0.00    -0.090 HD
ATOM     20  H   LIG d   1      -4.323  77.294 118.050  0.00  0.00    -0.090 HD
ATOM     21  H   LIG d   1      -3.794  76.801 119.520  0.00  0.00    -0.090 HD
ENDBRANCH   5  18
BRANCH   3  22
ATOM     22  C   LIG d   1      -9.224  76.655 118.041  0.00  0.00     0.382 C 
ATOM     23  O   LIG d   1     -10.243  75.947 117.857  0.00  0.00    -0.241 OA
ATOM     24  O   LIG d   1      -9.333  77.896 118.046  0.00  0.00    -0.241 OA
ENDBRANCH   3  22
TORSDOF 7
ENDMDL
MODEL 4
REMARK VINA RESULT:      -5.1     14.632     17.211
REMARK  7 active torsions:
REMARK  status: ('A' for Active; 'I' for Inactive)
REMARK    1  A    between atoms: C_2  and  C_3 
REMARK    2  A    between atoms: C_3  and  O_6 
REMARK    3  A    between atoms: C_3  and  C_4 
REMARK    4  A    between atoms: C_7  and  O_6 
REMARK    5  A    between atoms: C_9  and  C_10 
REMARK    6  A    between atoms: N_15  and  C_14 
REMARK    7  A    between atoms: N_20  and  C_19 
REMARK       I    between atoms: C_22  and  N_20 
ROOT
ATOM      1  C   LIG d   1      -4.002  90.182 117.354  0.00  0.00     0.161 C 
ATOM      2  C   LIG d   1      -3.736  89.365 116.243  0.00  0.00     0.016 C 
ATOM      3  C   LIG d   1      -4.564  89.314 115.098  0.00  0.00     0.038 C 
ATOM      4  C   LIG d   1      -5.641  90.196 114.923  0.00  0.00     0.028 C 
ATOM      5  C   LIG d   1      -6.244  90.685 116.235  0.00  0.00    -0.047 C 
ATOM      6  C   LIG d   1      -5.111  91.232 117.134  0.00  0.00     0.091 C 
ENDROOT
BRANCH   1   7
ATOM      7  O   LIG d   1      -2.787  90.821 117.793  0.00  0.00    -0.368 OA
BRANCH   7   8
ATOM      8  C   LIG d   1      -2.035  91.528 116.776  0.00  0.00     0.119 C 
BRANCH   8   9
ATOM      9  C   LIG d   1      -0.595  90.981 116.800  0.00  0.00     0.028 C 
ATOM     10  C   LIG d   1      -0.369  89.975 117.942  0.00  0.00     0.006 C 
ENDBRANCH   8   9
BRANCH   8  11
ATOM     11  C   LIG d   1      -1.909  93.017 117.110  0.00  0.00     0.028 C 
ATOM     12  C   LIG d   1      -0.521  93.587 116.779  0.00  0.00     0.006 C 
ENDBRANCH   8  11
ENDBRANCH   7   8
ENDBRANCH   1   7
BRANCH   6  13
ATOM     13  N   LIG d   1      -5.603  91.654 118.472  0.00  0.00    -0.311 N 
ATOM     14  C   LIG d   1      -6.069  92.874 118.730  0.00  0.00     0.210 C 
ATOM     15  C   LIG d   1      -6.506  93.107 120.179  0.00  0.00     0.109 C 
ATOM     16  O   LIG d   1      -6.192  93.777 117.888  0.00  0.00    -0.276 OA
ATOM     17  H   LIG d   1      -5.568  90.974 119.206  0.00  0.00     0.149 HD
ENDBRANCH   6  13
BRANCH   5  18
ATOM     18  N   LIG d   1      -7.263  91.700 115.907  0.00  0.00     0.381 N 
ATOM     19  H   LIG d   1      -7.919  91.775 116.658  0.00  0.00    -0.090 HD
ATOM     20  H   LIG d   1      -7.758  91.408 115.083  0.00  0.00    -0.090 HD
ATOM     21  H   LIG d   1      -6.827  92.581 115.747  0.00  0.00    -0.090 HD
ENDBRANCH   5  18
BRANCH   3  22
ATOM     22  C   LIG d   1      -4.341  88.346 114.131  0.00  0.00     0.382 C 
ATOM     23  O   LIG d   1      -4.886  88.446 113.006  0.00  0.00    -0.241 OA
ATOM     24  O   LIG d   1      -3.637  87.350 114.385  0.00  0.00    -0.241 OA
ENDBRANCH   3  22
TORSDOF 7
ENDMDL
MODEL 5
REMARK VINA RESULT:      -5.1      3.285      5.569
REMARK  7 active torsions:
REMARK  status: ('A' for Active; 'I' for Inactive)
REMARK    1  A    between atoms: C_2  and  C_3 
REMARK    2  A    between atoms: C_3  and  O_6 
REMARK    3  A    between atoms: C_3  and  C_4 
REMARK    4  A    between atoms: C_7  and  O_6 
REMARK    5  A    between atoms: C_9  and  C_10 
REMARK    6  A    between atoms: N_15  and  C_14 
REMARK    7  A    between atoms: N_20  and  C_19 
REMARK       I    between atoms: C_22  and  N_20 
ROOT
ATOM      1  C   LIG d   1      -5.362  74.819 117.615  0.00  0.00     0.161 C 
ATOM      2  C   LIG d   1      -6.266  73.756 117.775  0.00  0.00     0.016 C 
ATOM      3  C   LIG d   1      -6.838  73.051 116.691  0.00  0.00     0.038 C 
ATOM      4  C   LIG d   1      -6.426  73.265 115.367  0.00  0.00     0.028 C 
ATOM      5  C   LIG d   1      -5.890  74.671 115.119  0.00  0.00    -0.047 C 
ATOM      6  C   LIG d   1      -4.816  74.993 116.183  0.00  0.00     0.091 C 
ENDROOT
BRANCH   1   7
ATOM      7  O   LIG d   1      -4.276  74.682 118.553  0.00  0.00    -0.368 OA
BRANCH   7   8
ATOM      8  C   LIG d   1      -3.190  73.813 118.147  0.00  0.00     0.119 C 
BRANCH   8   9
ATOM      9  C   LIG d   1      -3.080  72.688 119.194  0.00  0.00     0.028 C 
ATOM     10  C   LIG d   1      -1.625  72.406 119.602  0.00  0.00     0.006 C 
ENDBRANCH   8   9
BRANCH   8  11
ATOM     11  C   LIG d   1      -1.845  74.544 118.195  0.00  0.00     0.028 C 
ATOM     12  C   LIG d   1      -1.957  75.961 118.778  0.00  0.00     0.006 C 
ENDBRANCH   8  11
ENDBRANCH   7   8
ENDBRANCH   1   7
BRANCH   6  13
ATOM     13  N   LIG d   1      -4.299  76.382 116.064  0.00  0.00    -0.311 N 
ATOM     14  C   LIG d   1      -3.216  76.704 115.359  0.00  0.00     0.210 C 
ATOM     15  C   LIG d   1      -2.845  78.190 115.386  0.00  0.00     0.109 C 
ATOM     16  O   LIG d   1      -2.546  75.904 114.688  0.00  0.00    -0.276 OA
ATOM     17  H   LIG d   1      -4.801  77.098 116.552  0.00  0.00     0.149 HD
ENDBRANCH   6  13
BRANCH   5  18
ATOM     18  N   LIG d   1      -5.370  74.713 113.740  0.00  0.00     0.381 N 
ATOM     19  H   LIG d   1      -5.294  73.784 113.378  0.00  0.00    -0.090 HD
ATOM     20  H   LIG d   1      -4.452  75.123 113.751  0.00  0.00    -0.090 HD
ATOM     21  H   LIG d   1      -5.976  75.254 113.163  0.00  0.00    -0.090 HD
ENDBRANCH   5  18
BRANCH   3  22
ATOM     22  C   LIG d   1      -7.864  72.148 116.923  0.00  0.00     0.382 C 
ATOM     23  O   LIG d   1      -8.178  71.315 116.039  0.00  0.00    -0.241 OA
ATOM     24  O   LIG d   1      -8.509  72.184 117.988  0.00  0.00    -0.241 OA
ENDBRANCH   3  22
TORSDOF 7
ENDMDL
MODEL 6
REMARK VINA RESULT:      -5.0     15.510     18.409
REMARK  7 active torsions:
REMARK  status: ('A' for Active; 'I' for Inactive)
REMARK    1  A    between atoms: C_2  and  C_3 
REMARK    2  A    between atoms: C_3  and  O_6 
REMARK    3  A    between atoms: C_3  and  C_4 
REMARK    4  A    between atoms: C_7  and  O_6 
REMARK    5  A    between atoms: C_9  and  C_10 
REMARK    6  A    between atoms: N_15  and  C_14 
REMARK    7  A    between atoms: N_20  and  C_19 
REMARK       I    between atoms: C_22  and  N_20 
ROOT
ATOM      1  C   LIG d   1      -5.356  91.464 118.920  0.00  0.00     0.161 C 
ATOM      2  C   LIG d   1      -4.499  90.642 118.170  0.00  0.00     0.016 C 
ATOM      3  C   LIG d   1      -4.648  90.424 116.781  0.00  0.00     0.038 C 
ATOM      4  C   LIG d   1      -5.580  91.138 116.015  0.00  0.00     0.028 C 
ATOM      5  C   LIG d   1      -6.795  91.598 116.813  0.00  0.00    -0.047 C 
ATOM      6  C   LIG d   1      -6.311  92.339 118.081  0.00  0.00     0.091 C 
ENDROOT
BRANCH   1   7
ATOM      7  O   LIG d   1      -4.584  92.286 119.818  0.00  0.00    -0.368 OA
BRANCH   7   8
ATOM      8  C   LIG d   1      -4.043  93.508 119.258  0.00  0.00     0.119 C 
BRANCH   8   9
ATOM      9  C   LIG d   1      -2.507  93.412 119.333  0.00  0.00     0.028 C 
ATOM     10  C   LIG d   1      -1.867  93.152 117.959  0.00  0.00     0.006 C 
ENDBRANCH   8   9
BRANCH   8  11
ATOM     11  C   LIG d   1      -4.416  94.725 120.111  0.00  0.00     0.028 C 
ATOM     12  C   LIG d   1      -3.391  95.864 120.003  0.00  0.00     0.006 C 
ENDBRANCH   8  11
ENDBRANCH   7   8
ENDBRANCH   1   7
BRANCH   6  13
ATOM     13  N   LIG d   1      -7.436  92.749 118.962  0.00  0.00    -0.311 N 
ATOM     14  C   LIG d   1      -8.000  93.955 118.916  0.00  0.00     0.210 C 
ATOM     15  C   LIG d   1      -9.132  94.177 119.925  0.00  0.00     0.109 C 
ATOM     16  O   LIG d   1      -7.693  94.850 118.115  0.00  0.00    -0.276 OA
ATOM     17  H   LIG d   1      -7.769  92.073 119.621  0.00  0.00     0.149 HD
ENDBRANCH   6  13
BRANCH   5  18
ATOM     18  N   LIG d   1      -7.616  92.445 115.927  0.00  0.00     0.381 N 
ATOM     19  H   LIG d   1      -8.251  91.874 115.405  0.00  0.00    -0.090 HD
ATOM     20  H   LIG d   1      -7.012  92.919 115.279  0.00  0.00    -0.090 HD
ATOM     21  H   LIG d   1      -8.124  93.111 116.466  0.00  0.00    -0.090 HD
ENDBRANCH   5  18
BRANCH   3  22
ATOM     22  C   LIG d   1      -3.883  89.453 116.153  0.00  0.00     0.382 C 
ATOM     23  O   LIG d   1      -4.286  88.933 115.084  0.00  0.00    -0.241 OA
ATOM     24  O   LIG d   1      -2.818  89.058 116.664  0.00  0.00    -0.241 OA
ENDBRANCH   3  22
TORSDOF 7
ENDMDL
MODEL 7
REMARK VINA RESULT:      -5.0     14.977     17.748
REMARK  7 active torsions:
REMARK  status: ('A' for Active; 'I' for Inactive)
REMARK    1  A    between atoms: C_2  and  C_3 
REMARK    2  A    between atoms: C_3  and  O_6 
REMARK    3  A    between atoms: C_3  and  C_4 
REMARK    4  A    between atoms: C_7  and  O_6 
REMARK    5  A    between atoms: C_9  and  C_10 
REMARK    6  A    between atoms: N_15  and  C_14 
REMARK    7  A    between atoms: N_20  and  C_19 
REMARK       I    between atoms: C_22  and  N_20 
ROOT
ATOM      1  C   LIG d   1      -4.820  92.539 118.511  0.00  0.00     0.161 C 
ATOM      2  C   LIG d   1      -5.228  93.586 119.354  0.00  0.00     0.016 C 
ATOM      3  C   LIG d   1      -6.427  94.312 119.170  0.00  0.00     0.038 C 
ATOM      4  C   LIG d   1      -7.380  93.938 118.211  0.00  0.00     0.028 C 
ATOM      5  C   LIG d   1      -6.780  93.207 117.014  0.00  0.00    -0.047 C 
ATOM      6  C   LIG d   1      -5.900  92.044 117.526  0.00  0.00     0.091 C 
ENDROOT
BRANCH   1   7
ATOM      7  O   LIG d   1      -4.321  91.442 119.300  0.00  0.00    -0.368 OA
BRANCH   7   8
ATOM      8  C   LIG d   1      -2.929  91.093 119.099  0.00  0.00     0.119 C 
BRANCH   8   9
ATOM      9  C   LIG d   1      -2.312  92.164 118.180  0.00  0.00     0.028 C 
ATOM     10  C   LIG d   1      -1.643  91.556 116.936  0.00  0.00     0.006 C 
ENDBRANCH   8   9
BRANCH   8  11
ATOM     11  C   LIG d   1      -2.790  89.773 118.334  0.00  0.00     0.028 C 
ATOM     12  C   LIG d   1      -2.857  88.543 119.253  0.00  0.00     0.006 C 
ENDBRANCH   8  11
ENDBRANCH   7   8
ENDBRANCH   1   7
BRANCH   6  13
ATOM     13  N   LIG d   1      -5.208  91.329 116.422  0.00  0.00    -0.311 N 
ATOM     14  C   LIG d   1      -5.692  90.231 115.844  0.00  0.00     0.210 C 
ATOM     15  C   LIG d   1      -4.810  89.640 114.739  0.00  0.00     0.109 C 
ATOM     16  O   LIG d   1      -6.783  89.709 116.118  0.00  0.00    -0.276 OA
ATOM     17  H   LIG d   1      -4.331  91.702 116.116  0.00  0.00     0.149 HD
ENDBRANCH   6  13
BRANCH   5  18
ATOM     18  N   LIG d   1      -7.897  92.755 116.163  0.00  0.00     0.381 N 
ATOM     19  H   LIG d   1      -7.953  91.756 116.180  0.00  0.00    -0.090 HD
ATOM     20  H   LIG d   1      -7.723  93.045 115.217  0.00  0.00    -0.090 HD
ATOM     21  H   LIG d   1      -8.753  93.148 116.486  0.00  0.00    -0.090 HD
ENDBRANCH   5  18
BRANCH   3  22
ATOM     22  C   LIG d   1      -6.664  95.451 119.924  0.00  0.00     0.382 C 
ATOM     23  O   LIG d   1      -7.841  95.793 120.190  0.00  0.00    -0.241 OA
ATOM     24  O   LIG d   1      -5.717  96.165 120.305  0.00  0.00    -0.241 OA
ENDBRANCH   3  22
TORSDOF 7
ENDMDL
MODEL 8
REMARK VINA RESULT:      -4.7     14.338     16.619
REMARK  7 active torsions:
REMARK  status: ('A' for Active; 'I' for Inactive)
REMARK    1  A    between atoms: C_2  and  C_3 
REMARK    2  A    between atoms: C_3  and  O_6 
REMARK    3  A    between atoms: C_3  and  C_4 
REMARK    4  A    between atoms: C_7  and  O_6 
REMARK    5  A    between atoms: C_9  and  C_10 
REMARK    6  A    between atoms: N_15  and  C_14 
REMARK    7  A    between atoms: N_20  and  C_19 
REMARK       I    between atoms: C_22  and  N_20 
ROOT
ATOM      1  C   LIG d   1      -1.665  89.580 117.526  0.00  0.00     0.161 C 
ATOM      2  C   LIG d   1      -2.871  89.292 116.865  0.00  0.00     0.016 C 
ATOM      3  C   LIG d   1      -3.762  90.288 116.405  0.00  0.00     0.038 C 
ATOM      4  C   LIG d   1      -3.434  91.651 116.441  0.00  0.00     0.028 C 
ATOM      5  C   LIG d   1      -2.456  92.009 117.555  0.00  0.00    -0.047 C 
ATOM      6  C   LIG d   1      -1.237  91.061 117.476  0.00  0.00     0.091 C 
ENDROOT
BRANCH   1   7
ATOM      7  O   LIG d   1      -0.614  88.737 117.014  0.00  0.00    -0.368 OA
BRANCH   7   8
ATOM      8  C   LIG d   1      -0.070  87.763 117.938  0.00  0.00     0.119 C 
BRANCH   8   9
ATOM      9  C   LIG d   1      -0.887  87.856 119.242  0.00  0.00     0.028 C 
ATOM     10  C   LIG d   1      -1.014  86.498 119.952  0.00  0.00     0.006 C 
ENDBRANCH   8   9
BRANCH   8  11
ATOM     11  C   LIG d   1       1.367  88.113 118.335  0.00  0.00     0.028 C 
ATOM     12  C   LIG d   1       2.132  88.842 117.219  0.00  0.00     0.006 C 
ENDBRANCH   8  11
ENDBRANCH   7   8
ENDBRANCH   1   7
BRANCH   6  13
ATOM     13  N   LIG d   1      -0.270  91.288 118.581  0.00  0.00    -0.311 N 
ATOM     14  C   LIG d   1       0.798  92.075 118.470  0.00  0.00     0.210 C 
ATOM     15  C   LIG d   1       1.676  92.154 119.724  0.00  0.00     0.109 C 
ATOM     16  O   LIG d   1       1.085  92.741 117.464  0.00  0.00    -0.276 OA
ATOM     17  H   LIG d   1      -0.444  90.811 119.444  0.00  0.00     0.149 HD
ENDBRANCH   6  13
BRANCH   5  18
ATOM     18  N   LIG d   1      -2.095  93.430 117.391  0.00  0.00     0.381 N 
ATOM     19  H   LIG d   1      -1.099  93.528 117.387  0.00  0.00    -0.090 HD
ATOM     20  H   LIG d   1      -2.459  93.950 118.169  0.00  0.00    -0.090 HD
ATOM     21  H   LIG d   1      -2.474  93.783 116.540  0.00  0.00    -0.090 HD
ENDBRANCH   5  18
BRANCH   3  22
ATOM     22  C   LIG d   1      -5.016  89.925 115.937  0.00  0.00     0.382 C 
ATOM     23  O   LIG d   1      -5.142  89.454 114.781  0.00  0.00    -0.241 OA
ATOM     24  O   LIG d   1      -6.029  90.103 116.640  0.00  0.00    -0.241 OA
ENDBRANCH   3  22
TORSDOF 7
ENDMDL
MODEL 9
REMARK VINA RESULT:      -4.7      2.952      4.225
REMARK  7 active torsions:
REMARK  status: ('A' for Active; 'I' for Inactive)
REMARK    1  A    between atoms: C_2  and  C_3 
REMARK    2  A    between atoms: C_3  and  O_6 
REMARK    3  A    between atoms: C_3  and  C_4 
REMARK    4  A    between atoms: C_7  and  O_6 
REMARK    5  A    between atoms: C_9  and  C_10 
REMARK    6  A    between atoms: N_15  and  C_14 
REMARK    7  A    between atoms: N_20  and  C_19 
REMARK       I    between atoms: C_22  and  N_20 
ROOT
ATOM      1  C   LIG d   1      -6.901  76.929 117.200  0.00  0.00     0.161 C 
ATOM      2  C   LIG d   1      -8.197  76.388 117.172  0.00  0.00     0.016 C 
ATOM      3  C   LIG d   1      -9.304  76.986 117.818  0.00  0.00     0.038 C 
ATOM      4  C   LIG d   1      -9.219  78.254 118.412  0.00  0.00     0.028 C 
ATOM      5  C   LIG d   1      -7.817  78.602 118.901  0.00  0.00    -0.047 C 
ATOM      6  C   LIG d   1      -6.812  78.368 117.749  0.00  0.00     0.091 C 
ENDROOT
BRANCH   1   7
ATOM      7  O   LIG d   1      -6.313  76.858 115.886  0.00  0.00    -0.368 OA
BRANCH   7   8
ATOM      8  C   LIG d   1      -5.320  75.821 115.687  0.00  0.00     0.119 C 
BRANCH   8   9
ATOM      9  C   LIG d   1      -4.001  76.514 115.293  0.00  0.00     0.028 C 
ATOM     10  C   LIG d   1      -2.764  75.734 115.769  0.00  0.00     0.006 C 
ENDBRANCH   8   9
BRANCH   8  11
ATOM     11  C   LIG d   1      -5.679  74.926 114.497  0.00  0.00     0.028 C 
ATOM     12  C   LIG d   1      -5.658  75.679 113.158  0.00  0.00     0.006 C 
ENDBRANCH   8  11
ENDBRANCH   7   8
ENDBRANCH   1   7
BRANCH   6  13
ATOM     13  N   LIG d   1      -5.406  78.604 118.168  0.00  0.00    -0.311 N 
ATOM     14  C   LIG d   1      -4.568  79.400 117.506  0.00  0.00     0.210 C 
ATOM     15  C   LIG d   1      -3.157  79.488 118.097  0.00  0.00     0.109 C 
ATOM     16  O   LIG d   1      -4.868  80.068 116.505  0.00  0.00    -0.276 OA
ATOM     17  H   LIG d   1      -5.088  78.126 118.988  0.00  0.00     0.149 HD
ENDBRANCH   6  13
BRANCH   5  18
ATOM     18  N   LIG d   1      -7.843  80.000 119.371  0.00  0.00     0.381 N 
ATOM     19  H   LIG d   1      -7.679  80.028 120.358  0.00  0.00    -0.090 HD
ATOM     20  H   LIG d   1      -8.752  80.386 119.191  0.00  0.00    -0.090 HD
ATOM     21  H   LIG d   1      -7.147  80.532 118.896  0.00  0.00    -0.090 HD
ENDBRANCH   5  18
BRANCH   3  22
ATOM     22  C   LIG d   1     -10.503  76.296 117.907  0.00  0.00     0.382 C 
ATOM     23  O   LIG d   1     -10.601  75.144 117.419  0.00  0.00    -0.241 OA
ATOM     24  O   LIG d   1     -11.500  76.827 118.431  0.00  0.00    -0.241 OA
ENDBRANCH   3  22
TORSDOF 7
ENDMDL
