MODEL 1
REMARK VINA RESULT:      -5.7      0.000      0.000
REMARK  7 active torsions:
REMARK  status: ('A' for Active; 'I' for Inactive)
REMARK    1  A    between atoms: C_2  and  C_3 
REMARK    2  A    between atoms: C_3  and  O_6 
REMARK    3  A    between atoms: C_3  and  C_4 
REMARK    4  A    between atoms: C_7  and  O_6 
REMARK    5  A    between atoms: C_9  and  C_10 
REMARK    6  A    between atoms: N_15  and  C_14 
REMARK    7  A    between atoms: N_20  and  C_19 
REMARK       I    between atoms: C_22  and  N_20 
ROOT
ATOM      1  C   LIG d   1      -6.540  75.622 116.675  0.00  0.00     0.161 C 
ATOM      2  C   LIG d   1      -5.687  76.106 115.668  0.00  0.00     0.016 C 
ATOM      3  C   LIG d   1      -4.985  75.266 114.774  0.00  0.00     0.038 C 
ATOM      4  C   LIG d   1      -5.206  73.882 114.727  0.00  0.00     0.028 C 
ATOM      5  C   LIG d   1      -5.675  73.298 116.056  0.00  0.00    -0.047 C 
ATOM      6  C   LIG d   1      -6.880  74.121 116.568  0.00  0.00     0.091 C 
ENDROOT
BRANCH   1   7
ATOM      7  O   LIG d   1      -7.748  76.408 116.711  0.00  0.00    -0.368 OA
BRANCH   7   8
ATOM      8  C   LIG d   1      -8.085  76.999 117.990  0.00  0.00     0.119 C 
BRANCH   8   9
ATOM      9  C   LIG d   1      -9.544  76.619 118.306  0.00  0.00     0.028 C 
ATOM     10  C   LIG d   1      -9.713  76.074 119.735  0.00  0.00     0.006 C 
ENDBRANCH   8   9
BRANCH   8  11
ATOM     11  C   LIG d   1      -8.071  78.529 117.918  0.00  0.00     0.028 C 
ATOM     12  C   LIG d   1      -6.652  79.108 117.808  0.00  0.00     0.006 C 
ENDBRANCH   8  11
ENDBRANCH   7   8
ENDBRANCH   1   7
BRANCH   6  13
ATOM     13  N   LIG d   1      -7.348  73.669 117.904  0.00  0.00    -0.311 N 
ATOM     14  C   LIG d   1      -8.354  72.813 118.078  0.00  0.00     0.210 C 
ATOM     15  C   LIG d   1      -8.687  72.497 119.539  0.00  0.00     0.109 C 
ATOM     16  O   LIG d   1      -8.980  72.262 117.161  0.00  0.00    -0.276 OA
ATOM     17  H   LIG d   1      -6.875  74.044 118.703  0.00  0.00     0.149 HD
ENDBRANCH   6  13
BRANCH   5  18
ATOM     18  N   LIG d   1      -6.000  71.877 115.830  0.00  0.00     0.381 N 
ATOM     19  H   LIG d   1      -6.727  71.801 115.147  0.00  0.00    -0.090 HD
ATOM     20  H   LIG d   1      -6.331  71.478 116.690  0.00  0.00    -0.090 HD
ATOM     21  H   LIG d   1      -5.190  71.388 115.518  0.00  0.00    -0.090 HD
ENDBRANCH   5  18
BRANCH   3  22
ATOM     22  C   LIG d   1      -4.019  75.807 113.939  0.00  0.00     0.382 C 
ATOM     23  O   LIG d   1      -4.359  76.538 112.978  0.00  0.00    -0.241 OA
ATOM     24  O   LIG d   1      -2.815  75.536 114.108  0.00  0.00    -0.241 OA
ENDBRANCH   3  22
TORSDOF 7
ENDMDL
MODEL 2
REMARK VINA RESULT:      -5.2      3.934      6.299
REMARK  7 active torsions:
REMARK  status: ('A' for Active; 'I' for Inactive)
REMARK    1  A    between atoms: C_2  and  C_3 
REMARK    2  A    between atoms: C_3  and  O_6 
REMARK    3  A    between atoms: C_3  and  C_4 
REMARK    4  A    between atoms: C_7  and  O_6 
REMARK    5  A    between atoms: C_9  and  C_10 
REMARK    6  A    between atoms: N_15  and  C_14 
REMARK    7  A    between atoms: N_20  and  C_19 
REMARK       I    between atoms: C_22  and  N_20 
ROOT
ATOM      1  C   LIG d   1      -2.984  74.906 115.818  0.00  0.00     0.161 C 
ATOM      2  C   LIG d   1      -2.597  74.108 116.907  0.00  0.00     0.016 C 
ATOM      3  C   LIG d   1      -1.250  73.915 117.291  0.00  0.00     0.038 C 
ATOM      4  C   LIG d   1      -0.200  74.633 116.698  0.00  0.00     0.028 C 
ATOM      5  C   LIG d   1      -0.494  75.064 115.265  0.00  0.00    -0.047 C 
ATOM      6  C   LIG d   1      -1.861  75.785 115.229  0.00  0.00     0.091 C 
ENDROOT
BRANCH   1   7
ATOM      7  O   LIG d   1      -4.116  75.719 116.185  0.00  0.00    -0.368 OA
BRANCH   7   8
ATOM      8  C   LIG d   1      -5.422  75.143 115.937  0.00  0.00     0.119 C 
BRANCH   8   9
ATOM      9  C   LIG d   1      -5.457  74.693 114.464  0.00  0.00     0.028 C 
ATOM     10  C   LIG d   1      -6.026  75.777 113.532  0.00  0.00     0.006 C 
ENDBRANCH   8   9
BRANCH   8  11
ATOM     11  C   LIG d   1      -6.528  76.195 116.066  0.00  0.00     0.028 C 
ATOM     12  C   LIG d   1      -7.810  75.635 116.702  0.00  0.00     0.006 C 
ENDBRANCH   8  11
ENDBRANCH   7   8
ENDBRANCH   1   7
BRANCH   6  13
ATOM     13  N   LIG d   1      -2.264  76.166 113.850  0.00  0.00    -0.311 N 
ATOM     14  C   LIG d   1      -2.734  77.370 113.530  0.00  0.00     0.210 C 
ATOM     15  C   LIG d   1      -3.110  77.547 112.055  0.00  0.00     0.109 C 
ATOM     16  O   LIG d   1      -2.846  78.319 114.321  0.00  0.00    -0.276 OA
ATOM     17  H   LIG d   1      -2.177  75.466 113.139  0.00  0.00     0.149 HD
ENDBRANCH   6  13
BRANCH   5  18
ATOM     18  N   LIG d   1       0.623  75.918 114.819  0.00  0.00     0.381 N 
ATOM     19  H   LIG d   1       0.996  76.422 115.598  0.00  0.00    -0.090 HD
ATOM     20  H   LIG d   1       0.276  76.583 114.150  0.00  0.00    -0.090 HD
ATOM     21  H   LIG d   1       1.335  75.359 114.404  0.00  0.00    -0.090 HD
ENDBRANCH   5  18
BRANCH   3  22
ATOM     22  C   LIG d   1      -0.938  72.964 118.251  0.00  0.00     0.382 C 
ATOM     23  O   LIG d   1      -1.300  73.133 119.440  0.00  0.00    -0.241 OA
ATOM     24  O   LIG d   1      -0.261  71.962 117.952  0.00  0.00    -0.241 OA
ENDBRANCH   3  22
TORSDOF 7
ENDMDL
MODEL 3
REMARK VINA RESULT:      -4.8      3.284      6.926
REMARK  7 active torsions:
REMARK  status: ('A' for Active; 'I' for Inactive)
REMARK    1  A    between atoms: C_2  and  C_3 
REMARK    2  A    between atoms: C_3  and  O_6 
REMARK    3  A    between atoms: C_3  and  C_4 
REMARK    4  A    between atoms: C_7  and  O_6 
REMARK    5  A    between atoms: C_9  and  C_10 
REMARK    6  A    between atoms: N_15  and  C_14 
REMARK    7  A    between atoms: N_20  and  C_19 
REMARK       I    between atoms: C_22  and  N_20 
ROOT
ATOM      1  C   LIG d   1      -3.232  74.923 115.904  0.00  0.00     0.161 C 
ATOM      2  C   LIG d   1      -4.164  73.871 115.914  0.00  0.00     0.016 C 
ATOM      3  C   LIG d   1      -5.533  74.047 116.220  0.00  0.00     0.038 C 
ATOM      4  C   LIG d   1      -6.097  75.320 116.390  0.00  0.00     0.028 C 
ATOM      5  C   LIG d   1      -5.101  76.363 116.887  0.00  0.00    -0.047 C 
ATOM      6  C   LIG d   1      -3.850  76.335 115.978  0.00  0.00     0.091 C 
ENDROOT
BRANCH   1   7
ATOM      7  O   LIG d   1      -2.380  74.810 114.747  0.00  0.00    -0.368 OA
BRANCH   7   8
ATOM      8  C   LIG d   1      -0.965  75.024 114.975  0.00  0.00     0.119 C 
BRANCH   8   9
ATOM      9  C   LIG d   1      -0.423  75.839 113.784  0.00  0.00     0.028 C 
ATOM     10  C   LIG d   1      -1.545  76.491 112.960  0.00  0.00     0.006 C 
ENDBRANCH   8   9
BRANCH   8  11
ATOM     11  C   LIG d   1      -0.190  73.703 114.949  0.00  0.00     0.028 C 
ATOM     12  C   LIG d   1      -0.080  73.049 116.335  0.00  0.00     0.006 C 
ENDBRANCH   8  11
ENDBRANCH   7   8
ENDBRANCH   1   7
BRANCH   6  13
ATOM     13  N   LIG d   1      -2.790  77.266 116.444  0.00  0.00    -0.311 N 
ATOM     14  C   LIG d   1      -2.660  78.513 115.995  0.00  0.00     0.210 C 
ATOM     15  C   LIG d   1      -1.487  79.297 116.592  0.00  0.00     0.109 C 
ATOM     16  O   LIG d   1      -3.423  79.055 115.181  0.00  0.00    -0.276 OA
ATOM     17  H   LIG d   1      -2.146  76.918 117.127  0.00  0.00     0.149 HD
ENDBRANCH   6  13
BRANCH   5  18
ATOM     18  N   LIG d   1      -5.786  77.669 116.888  0.00  0.00     0.381 N 
ATOM     19  H   LIG d   1      -5.420  78.243 117.621  0.00  0.00    -0.090 HD
ATOM     20  H   LIG d   1      -6.765  77.522 117.061  0.00  0.00    -0.090 HD
ATOM     21  H   LIG d   1      -5.660  78.121 116.009  0.00  0.00    -0.090 HD
ENDBRANCH   5  18
BRANCH   3  22
ATOM     22  C   LIG d   1      -6.345  72.938 116.397  0.00  0.00     0.382 C 
ATOM     23  O   LIG d   1      -7.312  72.990 117.196  0.00  0.00    -0.241 OA
ATOM     24  O   LIG d   1      -6.098  71.872 115.803  0.00  0.00    -0.241 OA
ENDBRANCH   3  22
TORSDOF 7
ENDMDL
MODEL 4
REMARK VINA RESULT:      -4.6      3.502      5.655
REMARK  7 active torsions:
REMARK  status: ('A' for Active; 'I' for Inactive)
REMARK    1  A    between atoms: C_2  and  C_3 
REMARK    2  A    between atoms: C_3  and  O_6 
REMARK    3  A    between atoms: C_3  and  C_4 
REMARK    4  A    between atoms: C_7  and  O_6 
REMARK    5  A    between atoms: C_9  and  C_10 
REMARK    6  A    between atoms: N_15  and  C_14 
REMARK    7  A    between atoms: N_20  and  C_19 
REMARK       I    between atoms: C_22  and  N_20 
ROOT
ATOM      1  C   LIG d   1      -3.735  75.676 117.368  0.00  0.00     0.161 C 
ATOM      2  C   LIG d   1      -4.655  76.728 117.515  0.00  0.00     0.016 C 
ATOM      3  C   LIG d   1      -4.407  78.047 117.072  0.00  0.00     0.038 C 
ATOM      4  C   LIG d   1      -3.275  78.373 116.311  0.00  0.00     0.028 C 
ATOM      5  C   LIG d   1      -2.084  77.458 116.575  0.00  0.00    -0.047 C 
ATOM      6  C   LIG d   1      -2.541  75.987 116.441  0.00  0.00     0.091 C 
ENDROOT
BRANCH   1   7
ATOM      7  O   LIG d   1      -4.418  74.488 116.923  0.00  0.00    -0.368 OA
BRANCH   7   8
ATOM      8  C   LIG d   1      -5.645  74.697 116.181  0.00  0.00     0.119 C 
BRANCH   8   9
ATOM      9  C   LIG d   1      -6.652  73.624 116.639  0.00  0.00     0.028 C 
ATOM     10  C   LIG d   1      -7.864  74.230 117.366  0.00  0.00     0.006 C 
ENDBRANCH   8   9
BRANCH   8  11
ATOM     11  C   LIG d   1      -5.440  74.448 114.684  0.00  0.00     0.028 C 
ATOM     12  C   LIG d   1      -5.759  75.683 113.825  0.00  0.00     0.006 C 
ENDBRANCH   8  11
ENDBRANCH   7   8
ENDBRANCH   1   7
BRANCH   6  13
ATOM     13  N   LIG d   1      -1.456  75.025 116.767  0.00  0.00    -0.311 N 
ATOM     14  C   LIG d   1      -0.967  74.148 115.891  0.00  0.00     0.210 C 
ATOM     15  C   LIG d   1       0.134  73.234 116.438  0.00  0.00     0.109 C 
ATOM     16  O   LIG d   1      -1.318  74.063 114.705  0.00  0.00    -0.276 OA
ATOM     17  H   LIG d   1      -1.092  75.046 117.699  0.00  0.00     0.149 HD
ENDBRANCH   6  13
BRANCH   5  18
ATOM     18  N   LIG d   1      -1.021  77.822 115.619  0.00  0.00     0.381 N 
ATOM     19  H   LIG d   1      -1.211  78.723 115.228  0.00  0.00    -0.090 HD
ATOM     20  H   LIG d   1      -1.011  77.150 114.872  0.00  0.00    -0.090 HD
ATOM     21  H   LIG d   1      -0.137  77.832 116.079  0.00  0.00    -0.090 HD
ENDBRANCH   5  18
BRANCH   3  22
ATOM     22  C   LIG d   1      -5.279  79.066 117.424  0.00  0.00     0.382 C 
ATOM     23  O   LIG d   1      -6.419  78.789 117.870  0.00  0.00    -0.241 OA
ATOM     24  O   LIG d   1      -4.957  80.258 117.260  0.00  0.00    -0.241 OA
ENDBRANCH   3  22
TORSDOF 7
ENDMDL
MODEL 5
REMARK VINA RESULT:      -4.6     12.938     15.323
REMARK  7 active torsions:
REMARK  status: ('A' for Active; 'I' for Inactive)
REMARK    1  A    between atoms: C_2  and  C_3 
REMARK    2  A    between atoms: C_3  and  O_6 
REMARK    3  A    between atoms: C_3  and  C_4 
REMARK    4  A    between atoms: C_7  and  O_6 
REMARK    5  A    between atoms: C_9  and  C_10 
REMARK    6  A    between atoms: N_15  and  C_14 
REMARK    7  A    between atoms: N_20  and  C_19 
REMARK       I    between atoms: C_22  and  N_20 
ROOT
ATOM      1  C   LIG d   1       3.591  85.475 114.759  0.00  0.00     0.161 C 
ATOM      2  C   LIG d   1       3.966  86.784 114.414  0.00  0.00     0.016 C 
ATOM      3  C   LIG d   1       4.750  87.614 115.248  0.00  0.00     0.038 C 
ATOM      4  C   LIG d   1       5.342  87.135 116.426  0.00  0.00     0.028 C 
ATOM      5  C   LIG d   1       4.576  85.979 117.062  0.00  0.00    -0.047 C 
ATOM      6  C   LIG d   1       4.320  84.896 115.990  0.00  0.00     0.091 C 
ENDROOT
BRANCH   1   7
ATOM      7  O   LIG d   1       3.757  84.604 113.623  0.00  0.00    -0.368 OA
BRANCH   7   8
ATOM      8  C   LIG d   1       2.712  84.659 112.620  0.00  0.00     0.119 C 
BRANCH   8   9
ATOM      9  C   LIG d   1       1.417  85.107 113.324  0.00  0.00     0.028 C 
ATOM     10  C   LIG d   1       0.338  85.568 112.330  0.00  0.00     0.006 C 
ENDBRANCH   8   9
BRANCH   8  11
ATOM     11  C   LIG d   1       2.407  83.268 112.056  0.00  0.00     0.028 C 
ATOM     12  C   LIG d   1       2.329  82.187 113.146  0.00  0.00     0.006 C 
ENDBRANCH   8  11
ENDBRANCH   7   8
ENDBRANCH   1   7
BRANCH   6  13
ATOM     13  N   LIG d   1       3.503  83.768 116.507  0.00  0.00    -0.311 N 
ATOM     14  C   LIG d   1       3.941  82.512 116.566  0.00  0.00     0.210 C 
ATOM     15  C   LIG d   1       2.931  81.499 117.115  0.00  0.00     0.109 C 
ATOM     16  O   LIG d   1       5.082  82.145 116.246  0.00  0.00    -0.276 OA
ATOM     17  H   LIG d   1       2.575  83.982 116.818  0.00  0.00     0.149 HD
ENDBRANCH   6  13
BRANCH   5  18
ATOM     18  N   LIG d   1       5.376  85.488 118.201  0.00  0.00     0.381 N 
ATOM     19  H   LIG d   1       4.881  84.757 118.671  0.00  0.00    -0.090 HD
ATOM     20  H   LIG d   1       5.515  86.243 118.849  0.00  0.00    -0.090 HD
ATOM     21  H   LIG d   1       6.256  85.150 117.879  0.00  0.00    -0.090 HD
ENDBRANCH   5  18
BRANCH   3  22
ATOM     22  C   LIG d   1       4.915  88.953 114.926  0.00  0.00     0.382 C 
ATOM     23  O   LIG d   1       4.995  89.812 115.837  0.00  0.00    -0.241 OA
ATOM     24  O   LIG d   1       4.941  89.317 113.735  0.00  0.00    -0.241 OA
ENDBRANCH   3  22
TORSDOF 7
ENDMDL
MODEL 6
REMARK VINA RESULT:      -4.6     11.258     13.459
REMARK  7 active torsions:
REMARK  status: ('A' for Active; 'I' for Inactive)
REMARK    1  A    between atoms: C_2  and  C_3 
REMARK    2  A    between atoms: C_3  and  O_6 
REMARK    3  A    between atoms: C_3  and  C_4 
REMARK    4  A    between atoms: C_7  and  O_6 
REMARK    5  A    between atoms: C_9  and  C_10 
REMARK    6  A    between atoms: N_15  and  C_14 
REMARK    7  A    between atoms: N_20  and  C_19 
REMARK       I    between atoms: C_22  and  N_20 
ROOT
ATOM      1  C   LIG d   1     -16.529  65.905 118.343  0.00  0.00     0.161 C 
ATOM      2  C   LIG d   1     -16.561  67.309 118.385  0.00  0.00     0.016 C 
ATOM      3  C   LIG d   1     -15.547  68.092 118.983  0.00  0.00     0.038 C 
ATOM      4  C   LIG d   1     -14.351  67.527 119.449  0.00  0.00     0.028 C 
ATOM      5  C   LIG d   1     -14.497  66.072 119.883  0.00  0.00    -0.047 C 
ATOM      6  C   LIG d   1     -15.179  65.276 118.747  0.00  0.00     0.091 C 
ENDROOT
BRANCH   1   7
ATOM      7  O   LIG d   1     -16.923  65.447 117.034  0.00  0.00    -0.368 OA
BRANCH   7   8
ATOM      8  C   LIG d   1     -17.372  66.468 116.110  0.00  0.00     0.119 C 
BRANCH   8   9
ATOM      9  C   LIG d   1     -18.718  66.001 115.522  0.00  0.00     0.028 C 
ATOM     10  C   LIG d   1     -18.599  65.576 114.049  0.00  0.00     0.006 C 
ENDBRANCH   8   9
BRANCH   8  11
ATOM     11  C   LIG d   1     -16.427  66.589 114.911  0.00  0.00     0.028 C 
ATOM     12  C   LIG d   1     -15.930  68.027 114.687  0.00  0.00     0.006 C 
ENDBRANCH   8  11
ENDBRANCH   7   8
ENDBRANCH   1   7
BRANCH   6  13
ATOM     13  N   LIG d   1     -15.436  63.861 119.122  0.00  0.00    -0.311 N 
ATOM     14  C   LIG d   1     -14.555  62.881 118.932  0.00  0.00     0.210 C 
ATOM     15  C   LIG d   1     -15.029  61.492 119.371  0.00  0.00     0.109 C 
ATOM     16  O   LIG d   1     -13.414  63.035 118.470  0.00  0.00    -0.276 OA
ATOM     17  H   LIG d   1     -16.326  63.652 119.531  0.00  0.00     0.149 HD
ENDBRANCH   6  13
BRANCH   5  18
ATOM     18  N   LIG d   1     -13.150  65.569 120.214  0.00  0.00     0.381 N 
ATOM     19  H   LIG d   1     -12.963  65.716 121.186  0.00  0.00    -0.090 HD
ATOM     20  H   LIG d   1     -12.471  66.082 119.680  0.00  0.00    -0.090 HD
ATOM     21  H   LIG d   1     -13.087  64.598 120.000  0.00  0.00    -0.090 HD
ENDBRANCH   5  18
BRANCH   3  22
ATOM     22  C   LIG d   1     -15.743  69.454 119.156  0.00  0.00     0.382 C 
ATOM     23  O   LIG d   1     -16.045  69.906 120.287  0.00  0.00    -0.241 OA
ATOM     24  O   LIG d   1     -15.666  70.232 118.186  0.00  0.00    -0.241 OA
ENDBRANCH   3  22
TORSDOF 7
ENDMDL
MODEL 7
REMARK VINA RESULT:      -4.5     13.458     15.812
REMARK  7 active torsions:
REMARK  status: ('A' for Active; 'I' for Inactive)
REMARK    1  A    between atoms: C_2  and  C_3 
REMARK    2  A    between atoms: C_3  and  O_6 
REMARK    3  A    between atoms: C_3  and  C_4 
REMARK    4  A    between atoms: C_7  and  O_6 
REMARK    5  A    between atoms: C_9  and  C_10 
REMARK    6  A    between atoms: N_15  and  C_14 
REMARK    7  A    between atoms: N_20  and  C_19 
REMARK       I    between atoms: C_22  and  N_20 
ROOT
ATOM      1  C   LIG d   1       2.355  86.494 115.794  0.00  0.00     0.161 C 
ATOM      2  C   LIG d   1       3.063  86.819 114.626  0.00  0.00     0.016 C 
ATOM      3  C   LIG d   1       4.019  87.858 114.559  0.00  0.00     0.038 C 
ATOM      4  C   LIG d   1       4.445  88.549 115.704  0.00  0.00     0.028 C 
ATOM      5  C   LIG d   1       3.394  88.597 116.808  0.00  0.00    -0.047 C 
ATOM      6  C   LIG d   1       2.886  87.162 117.080  0.00  0.00     0.091 C 
ENDROOT
BRANCH   1   7
ATOM      7  O   LIG d   1       2.310  85.062 115.956  0.00  0.00    -0.368 OA
BRANCH   7   8
ATOM      8  C   LIG d   1       3.393  84.318 115.346  0.00  0.00     0.119 C 
BRANCH   8   9
ATOM      9  C   LIG d   1       2.772  83.105 114.625  0.00  0.00     0.028 C 
ATOM     10  C   LIG d   1       2.464  83.396 113.146  0.00  0.00     0.006 C 
ENDBRANCH   8   9
BRANCH   8  11
ATOM     11  C   LIG d   1       4.328  83.725 116.404  0.00  0.00     0.028 C 
ATOM     12  C   LIG d   1       5.533  84.629 116.707  0.00  0.00     0.006 C 
ENDBRANCH   8  11
ENDBRANCH   7   8
ENDBRANCH   1   7
BRANCH   6  13
ATOM     13  N   LIG d   1       1.794  87.129 118.088  0.00  0.00    -0.311 N 
ATOM     14  C   LIG d   1       0.614  87.721 117.911  0.00  0.00     0.210 C 
ATOM     15  C   LIG d   1      -0.362  87.582 119.083  0.00  0.00     0.109 C 
ATOM     16  O   LIG d   1       0.272  88.321 116.881  0.00  0.00    -0.276 OA
ATOM     17  H   LIG d   1       1.976  86.637 118.941  0.00  0.00     0.149 HD
ENDBRANCH   6  13
BRANCH   5  18
ATOM     18  N   LIG d   1       4.016  89.223 117.989  0.00  0.00     0.381 N 
ATOM     19  H   LIG d   1       4.281  88.517 118.647  0.00  0.00    -0.090 HD
ATOM     20  H   LIG d   1       3.345  89.828 118.429  0.00  0.00    -0.090 HD
ATOM     21  H   LIG d   1       4.817  89.748 117.714  0.00  0.00    -0.090 HD
ENDBRANCH   5  18
BRANCH   3  22
ATOM     22  C   LIG d   1       4.532  88.243 113.330  0.00  0.00     0.382 C 
ATOM     23  O   LIG d   1       4.959  89.411 113.166  0.00  0.00    -0.241 OA
ATOM     24  O   LIG d   1       4.532  87.450 112.369  0.00  0.00    -0.241 OA
ENDBRANCH   3  22
TORSDOF 7
ENDMDL
MODEL 8
REMARK VINA RESULT:      -4.5      2.300      5.843
REMARK  7 active torsions:
REMARK  status: ('A' for Active; 'I' for Inactive)
REMARK    1  A    between atoms: C_2  and  C_3 
REMARK    2  A    between atoms: C_3  and  O_6 
REMARK    3  A    between atoms: C_3  and  C_4 
REMARK    4  A    between atoms: C_7  and  O_6 
REMARK    5  A    between atoms: C_9  and  C_10 
REMARK    6  A    between atoms: N_15  and  C_14 
REMARK    7  A    between atoms: N_20  and  C_19 
REMARK       I    between atoms: C_22  and  N_20 
ROOT
ATOM      1  C   LIG d   1      -5.615  74.741 116.965  0.00  0.00     0.161 C 
ATOM      2  C   LIG d   1      -6.179  73.468 116.776  0.00  0.00     0.016 C 
ATOM      3  C   LIG d   1      -7.493  73.132 117.177  0.00  0.00     0.038 C 
ATOM      4  C   LIG d   1      -8.390  74.096 117.662  0.00  0.00     0.028 C 
ATOM      5  C   LIG d   1      -7.702  75.277 118.339  0.00  0.00    -0.047 C 
ATOM      6  C   LIG d   1      -6.616  75.835 117.391  0.00  0.00     0.091 C 
ENDROOT
BRANCH   1   7
ATOM      7  O   LIG d   1      -4.908  75.144 115.776  0.00  0.00    -0.368 OA
BRANCH   7   8
ATOM      8  C   LIG d   1      -3.503  75.452 115.943  0.00  0.00     0.119 C 
BRANCH   8   9
ATOM      9  C   LIG d   1      -2.968  75.930 114.579  0.00  0.00     0.028 C 
ATOM     10  C   LIG d   1      -4.096  76.225 113.577  0.00  0.00     0.006 C 
ENDBRANCH   8   9
BRANCH   8  11
ATOM     11  C   LIG d   1      -2.693  74.196 116.279  0.00  0.00     0.028 C 
ATOM     12  C   LIG d   1      -1.306  74.187 115.618  0.00  0.00     0.006 C 
ENDBRANCH   8  11
ENDBRANCH   7   8
ENDBRANCH   1   7
BRANCH   6  13
ATOM     13  N   LIG d   1      -5.838  76.940 118.010  0.00  0.00    -0.311 N 
ATOM     14  C   LIG d   1      -6.146  78.227 117.858  0.00  0.00     0.210 C 
ATOM     15  C   LIG d   1      -5.201  79.205 118.565  0.00  0.00     0.109 C 
ATOM     16  O   LIG d   1      -7.129  78.651 117.233  0.00  0.00    -0.276 OA
ATOM     17  H   LIG d   1      -5.042  76.685 118.560  0.00  0.00     0.149 HD
ENDBRANCH   6  13
BRANCH   5  18
ATOM     18  N   LIG d   1      -8.744  76.267 118.672  0.00  0.00     0.381 N 
ATOM     19  H   LIG d   1      -8.485  76.765 119.500  0.00  0.00    -0.090 HD
ATOM     20  H   LIG d   1      -9.606  75.784 118.852  0.00  0.00    -0.090 HD
ATOM     21  H   LIG d   1      -8.863  76.904 117.916  0.00  0.00    -0.090 HD
ENDBRANCH   5  18
BRANCH   3  22
ATOM     22  C   LIG d   1      -7.908  71.810 117.132  0.00  0.00     0.382 C 
ATOM     23  O   LIG d   1      -7.096  70.889 117.392  0.00  0.00    -0.241 OA
ATOM     24  O   LIG d   1      -9.071  71.524 116.792  0.00  0.00    -0.241 OA
ENDBRANCH   3  22
TORSDOF 7
ENDMDL
MODEL 9
REMARK VINA RESULT:      -4.5     11.652     14.043
REMARK  7 active torsions:
REMARK  status: ('A' for Active; 'I' for Inactive)
REMARK    1  A    between atoms: C_2  and  C_3 
REMARK    2  A    between atoms: C_3  and  O_6 
REMARK    3  A    between atoms: C_3  and  C_4 
REMARK    4  A    between atoms: C_7  and  O_6 
REMARK    5  A    between atoms: C_9  and  C_10 
REMARK    6  A    between atoms: N_15  and  C_14 
REMARK    7  A    between atoms: N_20  and  C_19 
REMARK       I    between atoms: C_22  and  N_20 
ROOT
ATOM      1  C   LIG d   1     -16.290  65.096 117.978  0.00  0.00     0.161 C 
ATOM      2  C   LIG d   1     -16.538  66.446 117.682  0.00  0.00     0.016 C 
ATOM      3  C   LIG d   1     -15.727  67.507 118.149  0.00  0.00     0.038 C 
ATOM      4  C   LIG d   1     -14.519  67.275 118.823  0.00  0.00     0.028 C 
ATOM      5  C   LIG d   1     -14.493  65.951 119.580  0.00  0.00    -0.047 C 
ATOM      6  C   LIG d   1     -14.915  64.816 118.620  0.00  0.00     0.091 C 
ENDROOT
BRANCH   1   7
ATOM      7  O   LIG d   1     -16.462  64.296 116.792  0.00  0.00    -0.368 OA
BRANCH   7   8
ATOM      8  C   LIG d   1     -17.473  64.749 115.858  0.00  0.00     0.119 C 
BRANCH   8   9
ATOM      9  C   LIG d   1     -18.392  63.551 115.553  0.00  0.00     0.028 C 
ATOM     10  C   LIG d   1     -17.695  62.201 115.791  0.00  0.00     0.006 C 
ENDBRANCH   8   9
BRANCH   8  11
ATOM     11  C   LIG d   1     -16.854  65.138 114.512  0.00  0.00     0.028 C 
ATOM     12  C   LIG d   1     -17.442  66.437 113.939  0.00  0.00     0.006 C 
ENDBRANCH   8  11
ENDBRANCH   7   8
ENDBRANCH   1   7
BRANCH   6  13
ATOM     13  N   LIG d   1     -14.997  63.498 119.302  0.00  0.00    -0.311 N 
ATOM     14  C   LIG d   1     -13.987  62.631 119.346  0.00  0.00     0.210 C 
ATOM     15  C   LIG d   1     -14.289  61.323 120.083  0.00  0.00     0.109 C 
ATOM     16  O   LIG d   1     -12.858  62.836 118.873  0.00  0.00    -0.276 OA
ATOM     17  H   LIG d   1     -15.867  63.264 119.739  0.00  0.00     0.149 HD
ENDBRANCH   6  13
BRANCH   5  18
ATOM     18  N   LIG d   1     -13.132  65.774 120.121  0.00  0.00     0.381 N 
ATOM     19  H   LIG d   1     -12.562  65.293 119.454  0.00  0.00    -0.090 HD
ATOM     20  H   LIG d   1     -13.183  65.215 120.954  0.00  0.00    -0.090 HD
ATOM     21  H   LIG d   1     -12.731  66.662 120.332  0.00  0.00    -0.090 HD
ENDBRANCH   5  18
BRANCH   3  22
ATOM     22  C   LIG d   1     -16.144  68.818 117.976  0.00  0.00     0.382 C 
ATOM     23  O   LIG d   1     -16.631  69.181 116.878  0.00  0.00    -0.241 OA
ATOM     24  O   LIG d   1     -15.998  69.653 118.889  0.00  0.00    -0.241 OA
ENDBRANCH   3  22
TORSDOF 7
ENDMDL
