MODEL 1
REMARK VINA RESULT:      -5.5      0.000      0.000
REMARK  7 active torsions:
REMARK  status: ('A' for Active; 'I' for Inactive)
REMARK    1  A    between atoms: C_2  and  C_3 
REMARK    2  A    between atoms: C_3  and  O_6 
REMARK    3  A    between atoms: C_3  and  C_4 
REMARK    4  A    between atoms: C_7  and  O_6 
REMARK    5  A    between atoms: C_9  and  C_10 
REMARK    6  A    between atoms: N_15  and  C_14 
REMARK    7  A    between atoms: N_20  and  C_19 
REMARK       I    between atoms: C_22  and  N_20 
ROOT
ATOM      1  C   LIG d   1      -4.196  90.623 116.886  0.00  0.00     0.161 C 
ATOM      2  C   LIG d   1      -5.236  90.210 116.036  0.00  0.00     0.016 C 
ATOM      3  C   LIG d   1      -6.357  91.014 115.730  0.00  0.00     0.038 C 
ATOM      4  C   LIG d   1      -6.442  92.354 116.138  0.00  0.00     0.028 C 
ATOM      5  C   LIG d   1      -5.660  92.650 117.414  0.00  0.00    -0.047 C 
ATOM      6  C   LIG d   1      -4.217  92.122 117.251  0.00  0.00     0.091 C 
ENDROOT
BRANCH   1   7
ATOM      7  O   LIG d   1      -2.924  90.264 116.313  0.00  0.00    -0.368 OA
BRANCH   7   8
ATOM      8  C   LIG d   1      -2.345  89.019 116.775  0.00  0.00     0.119 C 
BRANCH   8   9
ATOM      9  C   LIG d   1      -2.601  88.924 118.292  0.00  0.00     0.028 C 
ATOM     10  C   LIG d   1      -1.868  87.737 118.938  0.00  0.00     0.006 C 
ENDBRANCH   8   9
BRANCH   8  11
ATOM     11  C   LIG d   1      -0.821  89.022 116.621  0.00  0.00     0.028 C 
ATOM     12  C   LIG d   1      -0.209  90.423 116.779  0.00  0.00     0.006 C 
ENDBRANCH   8  11
ENDBRANCH   7   8
ENDBRANCH   1   7
BRANCH   6  13
ATOM     13  N   LIG d   1      -3.407  92.295 118.486  0.00  0.00    -0.311 N 
ATOM     14  C   LIG d   1      -2.279  93.001 118.529  0.00  0.00     0.210 C 
ATOM     15  C   LIG d   1      -1.590  93.036 119.897  0.00  0.00     0.109 C 
ATOM     16  O   LIG d   1      -1.800  93.629 117.573  0.00  0.00    -0.276 OA
ATOM     17  H   LIG d   1      -3.740  91.845 119.316  0.00  0.00     0.149 HD
ENDBRANCH   6  13
BRANCH   5  18
ATOM     18  N   LIG d   1      -5.721  94.105 117.646  0.00  0.00     0.381 N 
ATOM     19  H   LIG d   1      -4.804  94.457 117.834  0.00  0.00    -0.090 HD
ATOM     20  H   LIG d   1      -6.298  94.282 118.450  0.00  0.00    -0.090 HD
ATOM     21  H   LIG d   1      -6.103  94.562 116.848  0.00  0.00    -0.090 HD
ENDBRANCH   5  18
BRANCH   3  22
ATOM     22  C   LIG d   1      -7.429  90.466 115.042  0.00  0.00     0.382 C 
ATOM     23  O   LIG d   1      -7.894  91.053 114.036  0.00  0.00    -0.241 OA
ATOM     24  O   LIG d   1      -7.966  89.415 115.442  0.00  0.00    -0.241 OA
ENDBRANCH   3  22
TORSDOF 7
ENDMDL
MODEL 2
REMARK VINA RESULT:      -5.5     12.591     14.924
REMARK  7 active torsions:
REMARK  status: ('A' for Active; 'I' for Inactive)
REMARK    1  A    between atoms: C_2  and  C_3 
REMARK    2  A    between atoms: C_3  and  O_6 
REMARK    3  A    between atoms: C_3  and  C_4 
REMARK    4  A    between atoms: C_7  and  O_6 
REMARK    5  A    between atoms: C_9  and  C_10 
REMARK    6  A    between atoms: N_15  and  C_14 
REMARK    7  A    between atoms: N_20  and  C_19 
REMARK       I    between atoms: C_22  and  N_20 
ROOT
ATOM      1  C   LIG d   1      -2.507  77.534 116.507  0.00  0.00     0.161 C 
ATOM      2  C   LIG d   1      -2.834  78.350 115.411  0.00  0.00     0.016 C 
ATOM      3  C   LIG d   1      -2.137  78.318 114.181  0.00  0.00     0.038 C 
ATOM      4  C   LIG d   1      -1.156  77.353 113.911  0.00  0.00     0.028 C 
ATOM      5  C   LIG d   1      -0.449  76.841 115.161  0.00  0.00    -0.047 C 
ATOM      6  C   LIG d   1      -1.511  76.398 116.193  0.00  0.00     0.091 C 
ENDROOT
BRANCH   1   7
ATOM      7  O   LIG d   1      -3.710  76.998 117.093  0.00  0.00    -0.368 OA
BRANCH   7   8
ATOM      8  C   LIG d   1      -4.955  77.396 116.468  0.00  0.00     0.119 C 
BRANCH   8   9
ATOM      9  C   LIG d   1      -5.858  77.984 117.570  0.00  0.00     0.028 C 
ATOM     10  C   LIG d   1      -5.344  79.336 118.091  0.00  0.00     0.006 C 
ENDBRANCH   8   9
BRANCH   8  11
ATOM     11  C   LIG d   1      -5.717  76.185 115.923  0.00  0.00     0.028 C 
ATOM     12  C   LIG d   1      -5.163  75.689 114.578  0.00  0.00     0.006 C 
ENDBRANCH   8  11
ENDBRANCH   7   8
ENDBRANCH   1   7
BRANCH   6  13
ATOM     13  N   LIG d   1      -0.906  75.962 117.478  0.00  0.00    -0.311 N 
ATOM     14  C   LIG d   1      -0.637  74.690 117.767  0.00  0.00     0.210 C 
ATOM     15  C   LIG d   1      -0.033  74.456 119.155  0.00  0.00     0.109 C 
ATOM     16  O   LIG d   1      -0.811  73.737 116.993  0.00  0.00    -0.276 OA
ATOM     17  H   LIG d   1      -0.704  76.674 118.152  0.00  0.00     0.149 HD
ENDBRANCH   6  13
BRANCH   5  18
ATOM     18  N   LIG d   1       0.449  75.745 114.749  0.00  0.00     0.381 N 
ATOM     19  H   LIG d   1       1.163  75.616 115.436  0.00  0.00    -0.090 HD
ATOM     20  H   LIG d   1       0.888  75.994 113.880  0.00  0.00    -0.090 HD
ATOM     21  H   LIG d   1      -0.071  74.903 114.636  0.00  0.00    -0.090 HD
ENDBRANCH   5  18
BRANCH   3  22
ATOM     22  C   LIG d   1      -2.394  79.284 113.221  0.00  0.00     0.382 C 
ATOM     23  O   LIG d   1      -3.112  80.274 113.503  0.00  0.00    -0.241 OA
ATOM     24  O   LIG d   1      -1.952  79.157 112.063  0.00  0.00    -0.241 OA
ENDBRANCH   3  22
TORSDOF 7
ENDMDL
MODEL 3
REMARK VINA RESULT:      -5.4      2.283      4.713
REMARK  7 active torsions:
REMARK  status: ('A' for Active; 'I' for Inactive)
REMARK    1  A    between atoms: C_2  and  C_3 
REMARK    2  A    between atoms: C_3  and  O_6 
REMARK    3  A    between atoms: C_3  and  C_4 
REMARK    4  A    between atoms: C_7  and  O_6 
REMARK    5  A    between atoms: C_9  and  C_10 
REMARK    6  A    between atoms: N_15  and  C_14 
REMARK    7  A    between atoms: N_20  and  C_19 
REMARK       I    between atoms: C_22  and  N_20 
ROOT
ATOM      1  C   LIG d   1      -5.578  92.781 117.386  0.00  0.00     0.161 C 
ATOM      2  C   LIG d   1      -6.659  92.001 116.944  0.00  0.00     0.016 C 
ATOM      3  C   LIG d   1      -6.505  90.755 116.294  0.00  0.00     0.038 C 
ATOM      4  C   LIG d   1      -5.255  90.130 116.175  0.00  0.00     0.028 C 
ATOM      5  C   LIG d   1      -4.087  91.111 116.155  0.00  0.00    -0.047 C 
ATOM      6  C   LIG d   1      -4.212  92.064 117.365  0.00  0.00     0.091 C 
ENDROOT
BRANCH   1   7
ATOM      7  O   LIG d   1      -5.853  93.296 118.704  0.00  0.00    -0.368 OA
BRANCH   7   8
ATOM      8  C   LIG d   1      -6.010  94.733 118.807  0.00  0.00     0.119 C 
BRANCH   8   9
ATOM      9  C   LIG d   1      -5.115  95.215 119.965  0.00  0.00     0.028 C 
ATOM     10  C   LIG d   1      -3.920  96.049 119.475  0.00  0.00     0.006 C 
ENDBRANCH   8   9
BRANCH   8  11
ATOM     11  C   LIG d   1      -7.438  95.110 119.214  0.00  0.00     0.028 C 
ATOM     12  C   LIG d   1      -8.119  96.044 118.201  0.00  0.00     0.006 C 
ENDBRANCH   8  11
ENDBRANCH   7   8
ENDBRANCH   1   7
BRANCH   6  13
ATOM     13  N   LIG d   1      -3.155  93.109 117.374  0.00  0.00    -0.311 N 
ATOM     14  C   LIG d   1      -2.012  92.990 118.047  0.00  0.00     0.210 C 
ATOM     15  C   LIG d   1      -1.069  94.193 117.938  0.00  0.00     0.109 C 
ATOM     16  O   LIG d   1      -1.675  91.990 118.698  0.00  0.00    -0.276 OA
ATOM     17  H   LIG d   1      -3.332  93.942 116.846  0.00  0.00     0.149 HD
ENDBRANCH   6  13
BRANCH   5  18
ATOM     18  N   LIG d   1      -2.842  90.320 116.167  0.00  0.00     0.381 N 
ATOM     19  H   LIG d   1      -3.056  89.352 116.299  0.00  0.00    -0.090 HD
ATOM     20  H   LIG d   1      -2.271  90.625 116.936  0.00  0.00    -0.090 HD
ATOM     21  H   LIG d   1      -2.350  90.445 115.309  0.00  0.00    -0.090 HD
ENDBRANCH   5  18
BRANCH   3  22
ATOM     22  C   LIG d   1      -7.606  90.140 115.718  0.00  0.00     0.382 C 
ATOM     23  O   LIG d   1      -8.145  90.642 114.702  0.00  0.00    -0.241 OA
ATOM     24  O   LIG d   1      -8.096  89.114 116.228  0.00  0.00    -0.241 OA
ENDBRANCH   3  22
TORSDOF 7
ENDMDL
MODEL 4
REMARK VINA RESULT:      -5.2      3.060      4.720
REMARK  7 active torsions:
REMARK  status: ('A' for Active; 'I' for Inactive)
REMARK    1  A    between atoms: C_2  and  C_3 
REMARK    2  A    between atoms: C_3  and  O_6 
REMARK    3  A    between atoms: C_3  and  C_4 
REMARK    4  A    between atoms: C_7  and  O_6 
REMARK    5  A    between atoms: C_9  and  C_10 
REMARK    6  A    between atoms: N_15  and  C_14 
REMARK    7  A    between atoms: N_20  and  C_19 
REMARK       I    between atoms: C_22  and  N_20 
ROOT
ATOM      1  C   LIG d   1      -5.605  93.224 117.940  0.00  0.00     0.161 C 
ATOM      2  C   LIG d   1      -6.697  94.100 117.821  0.00  0.00     0.016 C 
ATOM      3  C   LIG d   1      -6.762  95.355 118.468  0.00  0.00     0.038 C 
ATOM      4  C   LIG d   1      -5.666  95.889 119.162  0.00  0.00     0.028 C 
ATOM      5  C   LIG d   1      -4.731  94.826 119.729  0.00  0.00    -0.047 C 
ATOM      6  C   LIG d   1      -4.353  93.837 118.602  0.00  0.00     0.091 C 
ENDROOT
BRANCH   1   7
ATOM      7  O   LIG d   1      -5.272  92.679 116.648  0.00  0.00    -0.368 OA
BRANCH   7   8
ATOM      8  C   LIG d   1      -6.255  91.794 116.057  0.00  0.00     0.119 C 
BRANCH   8   9
ATOM      9  C   LIG d   1      -5.719  90.355 116.185  0.00  0.00     0.028 C 
ATOM     10  C   LIG d   1      -4.188  90.286 116.059  0.00  0.00     0.006 C 
ENDBRANCH   8   9
BRANCH   8  11
ATOM     11  C   LIG d   1      -6.394  92.042 114.552  0.00  0.00     0.028 C 
ATOM     12  C   LIG d   1      -7.628  91.354 113.946  0.00  0.00     0.006 C 
ENDBRANCH   8  11
ENDBRANCH   7   8
ENDBRANCH   1   7
BRANCH   6  13
ATOM     13  N   LIG d   1      -3.509  92.716 119.091  0.00  0.00    -0.311 N 
ATOM     14  C   LIG d   1      -2.348  92.375 118.533  0.00  0.00     0.210 C 
ATOM     15  C   LIG d   1      -1.647  91.177 119.181  0.00  0.00     0.109 C 
ATOM     16  O   LIG d   1      -1.818  92.972 117.584  0.00  0.00    -0.276 OA
ATOM     17  H   LIG d   1      -3.848  92.199 119.878  0.00  0.00     0.149 HD
ENDBRANCH   6  13
BRANCH   5  18
ATOM     18  N   LIG d   1      -3.564  95.520 120.305  0.00  0.00     0.381 N 
ATOM     19  H   LIG d   1      -2.739  94.973 120.158  0.00  0.00    -0.090 HD
ATOM     20  H   LIG d   1      -3.703  95.622 121.295  0.00  0.00    -0.090 HD
ATOM     21  H   LIG d   1      -3.457  96.415 119.882  0.00  0.00    -0.090 HD
ENDBRANCH   5  18
BRANCH   3  22
ATOM     22  C   LIG d   1      -7.948  96.073 118.458  0.00  0.00     0.382 C 
ATOM     23  O   LIG d   1      -8.063  97.104 119.163  0.00  0.00    -0.241 OA
ATOM     24  O   LIG d   1      -8.920  95.678 117.787  0.00  0.00    -0.241 OA
ENDBRANCH   3  22
TORSDOF 7
ENDMDL
MODEL 5
REMARK VINA RESULT:      -5.1      1.715      4.698
REMARK  7 active torsions:
REMARK  status: ('A' for Active; 'I' for Inactive)
REMARK    1  A    between atoms: C_2  and  C_3 
REMARK    2  A    between atoms: C_3  and  O_6 
REMARK    3  A    between atoms: C_3  and  C_4 
REMARK    4  A    between atoms: C_7  and  O_6 
REMARK    5  A    between atoms: C_9  and  C_10 
REMARK    6  A    between atoms: N_15  and  C_14 
REMARK    7  A    between atoms: N_20  and  C_19 
REMARK       I    between atoms: C_22  and  N_20 
ROOT
ATOM      1  C   LIG d   1      -3.998  91.706 116.742  0.00  0.00     0.161 C 
ATOM      2  C   LIG d   1      -3.129  92.587 117.407  0.00  0.00     0.016 C 
ATOM      3  C   LIG d   1      -3.518  93.376 118.514  0.00  0.00     0.038 C 
ATOM      4  C   LIG d   1      -4.769  93.224 119.130  0.00  0.00     0.028 C 
ATOM      5  C   LIG d   1      -5.851  92.714 118.185  0.00  0.00    -0.047 C 
ATOM      6  C   LIG d   1      -5.335  91.445 117.469  0.00  0.00     0.091 C 
ENDROOT
BRANCH   1   7
ATOM      7  O   LIG d   1      -3.322  90.462 116.475  0.00  0.00    -0.368 OA
BRANCH   7   8
ATOM      8  C   LIG d   1      -2.275  90.093 117.405  0.00  0.00     0.119 C 
BRANCH   8   9
ATOM      9  C   LIG d   1      -1.096  89.542 116.580  0.00  0.00     0.028 C 
ATOM     10  C   LIG d   1       0.136  90.461 116.631  0.00  0.00     0.006 C 
ENDBRANCH   8   9
BRANCH   8  11
ATOM     11  C   LIG d   1      -2.714  88.935 118.307  0.00  0.00     0.028 C 
ATOM     12  C   LIG d   1      -1.635  87.850 118.452  0.00  0.00     0.006 C 
ENDBRANCH   8  11
ENDBRANCH   7   8
ENDBRANCH   1   7
BRANCH   6  13
ATOM     13  N   LIG d   1      -6.300  90.929 116.463  0.00  0.00    -0.311 N 
ATOM     14  C   LIG d   1      -6.540  91.532 115.301  0.00  0.00     0.210 C 
ATOM     15  C   LIG d   1      -7.586  90.843 114.419  0.00  0.00     0.109 C 
ATOM     16  O   LIG d   1      -5.963  92.555 114.902  0.00  0.00    -0.276 OA
ATOM     17  H   LIG d   1      -6.789  90.086 116.692  0.00  0.00     0.149 HD
ENDBRANCH   6  13
BRANCH   5  18
ATOM     18  N   LIG d   1      -7.065  92.471 118.987  0.00  0.00     0.381 N 
ATOM     19  H   LIG d   1      -7.531  91.649 118.657  0.00  0.00    -0.090 HD
ATOM     20  H   LIG d   1      -7.689  93.251 118.878  0.00  0.00    -0.090 HD
ATOM     21  H   LIG d   1      -6.823  92.361 119.947  0.00  0.00    -0.090 HD
ENDBRANCH   5  18
BRANCH   3  22
ATOM     22  C   LIG d   1      -2.664  94.358 118.992  0.00  0.00     0.382 C 
ATOM     23  O   LIG d   1      -1.572  94.576 118.412  0.00  0.00    -0.241 OA
ATOM     24  O   LIG d   1      -2.950  94.999 120.021  0.00  0.00    -0.241 OA
ENDBRANCH   3  22
TORSDOF 7
ENDMDL
MODEL 6
REMARK VINA RESULT:      -5.0      1.493      2.221
REMARK  7 active torsions:
REMARK  status: ('A' for Active; 'I' for Inactive)
REMARK    1  A    between atoms: C_2  and  C_3 
REMARK    2  A    between atoms: C_3  and  O_6 
REMARK    3  A    between atoms: C_3  and  C_4 
REMARK    4  A    between atoms: C_7  and  O_6 
REMARK    5  A    between atoms: C_9  and  C_10 
REMARK    6  A    between atoms: N_15  and  C_14 
REMARK    7  A    between atoms: N_20  and  C_19 
REMARK       I    between atoms: C_22  and  N_20 
ROOT
ATOM      1  C   LIG d   1      -2.612  90.429 117.080  0.00  0.00     0.161 C 
ATOM      2  C   LIG d   1      -3.686  90.137 116.222  0.00  0.00     0.016 C 
ATOM      3  C   LIG d   1      -4.791  91.000 116.038  0.00  0.00     0.038 C 
ATOM      4  C   LIG d   1      -4.825  92.290 116.588  0.00  0.00     0.028 C 
ATOM      5  C   LIG d   1      -4.000  92.426 117.863  0.00  0.00    -0.047 C 
ATOM      6  C   LIG d   1      -2.578  91.881 117.602  0.00  0.00     0.091 C 
ENDROOT
BRANCH   1   7
ATOM      7  O   LIG d   1      -1.367  90.100 116.433  0.00  0.00    -0.368 OA
BRANCH   7   8
ATOM      8  C   LIG d   1      -0.572  89.068 117.068  0.00  0.00     0.119 C 
BRANCH   8   9
ATOM      9  C   LIG d   1       0.899  89.310 116.677  0.00  0.00     0.028 C 
ATOM     10  C   LIG d   1       1.224  90.804 116.512  0.00  0.00     0.006 C 
ENDBRANCH   8   9
BRANCH   8  11
ATOM     11  C   LIG d   1      -0.916  87.682 116.515  0.00  0.00     0.028 C 
ATOM     12  C   LIG d   1       0.277  87.005 115.821  0.00  0.00     0.006 C 
ENDBRANCH   8  11
ENDBRANCH   7   8
ENDBRANCH   1   7
BRANCH   6  13
ATOM     13  N   LIG d   1      -1.730  91.900 118.823  0.00  0.00    -0.311 N 
ATOM     14  C   LIG d   1      -0.682  92.707 118.975  0.00  0.00     0.210 C 
ATOM     15  C   LIG d   1       0.067  92.551 120.303  0.00  0.00     0.109 C 
ATOM     16  O   LIG d   1      -0.321  93.561 118.151  0.00  0.00    -0.276 OA
ATOM     17  H   LIG d   1      -1.971  91.261 119.555  0.00  0.00     0.149 HD
ENDBRANCH   6  13
BRANCH   5  18
ATOM     18  N   LIG d   1      -4.012  93.850 118.251  0.00  0.00     0.381 N 
ATOM     19  H   LIG d   1      -3.076  94.204 118.266  0.00  0.00    -0.090 HD
ATOM     20  H   LIG d   1      -4.395  93.931 119.176  0.00  0.00    -0.090 HD
ATOM     21  H   LIG d   1      -4.563  94.374 117.607  0.00  0.00    -0.090 HD
ENDBRANCH   5  18
BRANCH   3  22
ATOM     22  C   LIG d   1      -5.897  90.557 115.328  0.00  0.00     0.382 C 
ATOM     23  O   LIG d   1      -6.307  91.207 114.336  0.00  0.00    -0.241 OA
ATOM     24  O   LIG d   1      -6.517  89.540 115.694  0.00  0.00    -0.241 OA
ENDBRANCH   3  22
TORSDOF 7
ENDMDL
MODEL 7
REMARK VINA RESULT:      -5.0      5.239      7.828
REMARK  7 active torsions:
REMARK  status: ('A' for Active; 'I' for Inactive)
REMARK    1  A    between atoms: C_2  and  C_3 
REMARK    2  A    between atoms: C_3  and  O_6 
REMARK    3  A    between atoms: C_3  and  C_4 
REMARK    4  A    between atoms: C_7  and  O_6 
REMARK    5  A    between atoms: C_9  and  C_10 
REMARK    6  A    between atoms: N_15  and  C_14 
REMARK    7  A    between atoms: N_20  and  C_19 
REMARK       I    between atoms: C_22  and  N_20 
ROOT
ATOM      1  C   LIG d   1       2.126  87.810 115.289  0.00  0.00     0.161 C 
ATOM      2  C   LIG d   1       0.861  87.628 115.872  0.00  0.00     0.016 C 
ATOM      3  C   LIG d   1       0.206  88.621 116.637  0.00  0.00     0.038 C 
ATOM      4  C   LIG d   1       0.709  89.926 116.745  0.00  0.00     0.028 C 
ATOM      5  C   LIG d   1       2.225  90.005 116.595  0.00  0.00    -0.047 C 
ATOM      6  C   LIG d   1       2.640  89.265 115.303  0.00  0.00     0.091 C 
ENDROOT
BRANCH   1   7
ATOM      7  O   LIG d   1       2.123  87.292 113.944  0.00  0.00    -0.368 OA
BRANCH   7   8
ATOM      8  C   LIG d   1       2.561  85.920 113.789  0.00  0.00     0.119 C 
BRANCH   8   9
ATOM      9  C   LIG d   1       4.039  85.952 113.355  0.00  0.00     0.028 C 
ATOM     10  C   LIG d   1       4.253  86.751 112.058  0.00  0.00     0.006 C 
ENDBRANCH   8   9
BRANCH   8  11
ATOM     11  C   LIG d   1       1.818  85.224 112.645  0.00  0.00     0.028 C 
ATOM     12  C   LIG d   1       0.324  85.583 112.600  0.00  0.00     0.006 C 
ENDBRANCH   8  11
ENDBRANCH   7   8
ENDBRANCH   1   7
BRANCH   6  13
ATOM     13  N   LIG d   1       4.115  89.222 115.124  0.00  0.00    -0.311 N 
ATOM     14  C   LIG d   1       4.739  89.724 114.060  0.00  0.00     0.210 C 
ATOM     15  C   LIG d   1       6.262  89.556 114.065  0.00  0.00     0.109 C 
ATOM     16  O   LIG d   1       4.180  90.319 113.127  0.00  0.00    -0.276 OA
ATOM     17  H   LIG d   1       4.650  88.784 115.848  0.00  0.00     0.149 HD
ENDBRANCH   6  13
BRANCH   5  18
ATOM     18  N   LIG d   1       2.598  91.432 116.590  0.00  0.00     0.381 N 
ATOM     19  H   LIG d   1       2.957  91.691 117.487  0.00  0.00    -0.090 HD
ATOM     20  H   LIG d   1       1.777  91.982 116.408  0.00  0.00    -0.090 HD
ATOM     21  H   LIG d   1       3.284  91.602 115.888  0.00  0.00    -0.090 HD
ENDBRANCH   5  18
BRANCH   3  22
ATOM     22  C   LIG d   1      -0.947  88.299 117.337  0.00  0.00     0.382 C 
ATOM     23  O   LIG d   1      -2.064  88.365 116.770  0.00  0.00    -0.241 OA
ATOM     24  O   LIG d   1      -0.888  87.987 118.542  0.00  0.00    -0.241 OA
ENDBRANCH   3  22
TORSDOF 7
ENDMDL
MODEL 8
REMARK VINA RESULT:      -5.0      2.300      4.123
REMARK  7 active torsions:
REMARK  status: ('A' for Active; 'I' for Inactive)
REMARK    1  A    between atoms: C_2  and  C_3 
REMARK    2  A    between atoms: C_3  and  O_6 
REMARK    3  A    between atoms: C_3  and  C_4 
REMARK    4  A    between atoms: C_7  and  O_6 
REMARK    5  A    between atoms: C_9  and  C_10 
REMARK    6  A    between atoms: N_15  and  C_14 
REMARK    7  A    between atoms: N_20  and  C_19 
REMARK       I    between atoms: C_22  and  N_20 
ROOT
ATOM      1  C   LIG d   1      -3.156  92.320 117.638  0.00  0.00     0.161 C 
ATOM      2  C   LIG d   1      -4.392  92.522 117.001  0.00  0.00     0.016 C 
ATOM      3  C   LIG d   1      -5.036  91.533 116.223  0.00  0.00     0.038 C 
ATOM      4  C   LIG d   1      -4.558  90.217 116.152  0.00  0.00     0.028 C 
ATOM      5  C   LIG d   1      -3.052  90.107 116.364  0.00  0.00    -0.047 C 
ATOM      6  C   LIG d   1      -2.673  90.855 117.663  0.00  0.00     0.091 C 
ENDROOT
BRANCH   1   7
ATOM      7  O   LIG d   1      -3.201  92.856 118.975  0.00  0.00    -0.368 OA
BRANCH   7   8
ATOM      8  C   LIG d   1      -2.395  94.035 119.217  0.00  0.00     0.119 C 
BRANCH   8   9
ATOM      9  C   LIG d   1      -3.355  95.232 119.353  0.00  0.00     0.028 C 
ATOM     10  C   LIG d   1      -4.693  94.841 120.002  0.00  0.00     0.006 C 
ENDBRANCH   8   9
BRANCH   8  11
ATOM     11  C   LIG d   1      -1.508  94.361 118.012  0.00  0.00     0.028 C 
ATOM     12  C   LIG d   1      -0.008  94.303 118.343  0.00  0.00     0.006 C 
ENDBRANCH   8  11
ENDBRANCH   7   8
ENDBRANCH   1   7
BRANCH   6  13
ATOM     13  N   LIG d   1      -1.206  90.869 117.902  0.00  0.00    -0.311 N 
ATOM     14  C   LIG d   1      -0.640  90.411 119.017  0.00  0.00     0.210 C 
ATOM     15  C   LIG d   1       0.886  90.537 119.067  0.00  0.00     0.109 C 
ATOM     16  O   LIG d   1      -1.254  89.883 119.956  0.00  0.00    -0.276 OA
ATOM     17  H   LIG d   1      -0.630  91.251 117.178  0.00  0.00     0.149 HD
ENDBRANCH   6  13
BRANCH   5  18
ATOM     18  N   LIG d   1      -2.710  88.673 116.402  0.00  0.00     0.381 N 
ATOM     19  H   LIG d   1      -2.873  88.310 117.320  0.00  0.00    -0.090 HD
ATOM     20  H   LIG d   1      -1.734  88.565 116.189  0.00  0.00    -0.090 HD
ATOM     21  H   LIG d   1      -3.259  88.174 115.737  0.00  0.00    -0.090 HD
ENDBRANCH   5  18
BRANCH   3  22
ATOM     22  C   LIG d   1      -6.153  91.870 115.472  0.00  0.00     0.382 C 
ATOM     23  O   LIG d   1      -6.013  92.425 114.355  0.00  0.00    -0.241 OA
ATOM     24  O   LIG d   1      -7.298  91.666 115.917  0.00  0.00    -0.241 OA
ENDBRANCH   3  22
TORSDOF 7
ENDMDL
MODEL 9
REMARK VINA RESULT:      -4.9      9.489     11.181
REMARK  7 active torsions:
REMARK  status: ('A' for Active; 'I' for Inactive)
REMARK    1  A    between atoms: C_2  and  C_3 
REMARK    2  A    between atoms: C_3  and  O_6 
REMARK    3  A    between atoms: C_3  and  C_4 
REMARK    4  A    between atoms: C_7  and  O_6 
REMARK    5  A    between atoms: C_9  and  C_10 
REMARK    6  A    between atoms: N_15  and  C_14 
REMARK    7  A    between atoms: N_20  and  C_19 
REMARK       I    between atoms: C_22  and  N_20 
ROOT
ATOM      1  C   LIG d   1       4.499  86.130 115.274  0.00  0.00     0.161 C 
ATOM      2  C   LIG d   1       3.979  87.020 114.320  0.00  0.00     0.016 C 
ATOM      3  C   LIG d   1       4.611  88.233 113.962  0.00  0.00     0.038 C 
ATOM      4  C   LIG d   1       5.891  88.568 114.427  0.00  0.00     0.028 C 
ATOM      5  C   LIG d   1       6.228  87.943 115.777  0.00  0.00    -0.047 C 
ATOM      6  C   LIG d   1       5.950  86.424 115.710  0.00  0.00     0.091 C 
ENDROOT
BRANCH   1   7
ATOM      7  O   LIG d   1       4.385  84.776 114.793  0.00  0.00    -0.368 OA
BRANCH   7   8
ATOM      8  C   LIG d   1       3.661  84.600 113.550  0.00  0.00     0.119 C 
BRANCH   8   9
ATOM      9  C   LIG d   1       2.430  83.723 113.852  0.00  0.00     0.028 C 
ATOM     10  C   LIG d   1       1.106  84.481 113.655  0.00  0.00     0.006 C 
ENDBRANCH   8   9
BRANCH   8  11
ATOM     11  C   LIG d   1       4.484  83.807 112.532  0.00  0.00     0.028 C 
ATOM     12  C   LIG d   1       4.406  82.288 112.756  0.00  0.00     0.006 C 
ENDBRANCH   8  11
ENDBRANCH   7   8
ENDBRANCH   1   7
BRANCH   6  13
ATOM     13  N   LIG d   1       6.173  85.749 117.016  0.00  0.00    -0.311 N 
ATOM     14  C   LIG d   1       7.287  85.085 117.316  0.00  0.00     0.210 C 
ATOM     15  C   LIG d   1       7.304  84.446 118.709  0.00  0.00     0.109 C 
ATOM     16  O   LIG d   1       8.276  84.991 116.574  0.00  0.00    -0.276 OA
ATOM     17  H   LIG d   1       5.433  85.802 117.689  0.00  0.00     0.149 HD
ENDBRANCH   6  13
BRANCH   5  18
ATOM     18  N   LIG d   1       7.637  88.260 116.076  0.00  0.00     0.381 N 
ATOM     19  H   LIG d   1       8.226  87.516 115.759  0.00  0.00    -0.090 HD
ATOM     20  H   LIG d   1       7.747  88.347 117.071  0.00  0.00    -0.090 HD
ATOM     21  H   LIG d   1       7.897  89.112 115.630  0.00  0.00    -0.090 HD
ENDBRANCH   5  18
BRANCH   3  22
ATOM     22  C   LIG d   1       3.942  89.145 113.160  0.00  0.00     0.382 C 
ATOM     23  O   LIG d   1       4.442  90.276 112.946  0.00  0.00    -0.241 OA
ATOM     24  O   LIG d   1       2.825  88.868 112.684  0.00  0.00    -0.241 OA
ENDBRANCH   3  22
TORSDOF 7
ENDMDL
