MODEL 1
REMARK VINA RESULT:      -5.9      0.000      0.000
REMARK  7 active torsions:
REMARK  status: ('A' for Active; 'I' for Inactive)
REMARK    1  A    between atoms: C_2  and  C_3 
REMARK    2  A    between atoms: C_3  and  O_6 
REMARK    3  A    between atoms: C_3  and  C_4 
REMARK    4  A    between atoms: C_7  and  O_6 
REMARK    5  A    between atoms: C_9  and  C_10 
REMARK    6  A    between atoms: N_15  and  C_14 
REMARK    7  A    between atoms: N_20  and  C_19 
REMARK       I    between atoms: C_22  and  N_20 
ROOT
ATOM      1  C   LIG d   1      -7.662  76.633 117.733  0.00  0.00     0.161 C 
ATOM      2  C   LIG d   1      -8.968  77.032 118.062  0.00  0.00     0.016 C 
ATOM      3  C   LIG d   1      -9.319  78.366 118.372  0.00  0.00     0.038 C 
ATOM      4  C   LIG d   1      -8.412  79.425 118.224  0.00  0.00     0.028 C 
ATOM      5  C   LIG d   1      -6.955  79.001 118.382  0.00  0.00    -0.047 C 
ATOM      6  C   LIG d   1      -6.681  77.792 117.459  0.00  0.00     0.091 C 
ENDROOT
BRANCH   1   7
ATOM      7  O   LIG d   1      -7.695  75.729 116.611  0.00  0.00    -0.368 OA
BRANCH   7   8
ATOM      8  C   LIG d   1      -7.484  74.328 116.915  0.00  0.00     0.119 C 
BRANCH   8   9
ATOM      9  C   LIG d   1      -6.362  73.817 115.990  0.00  0.00     0.028 C 
ATOM     10  C   LIG d   1      -5.974  74.847 114.915  0.00  0.00     0.006 C 
ENDBRANCH   8   9
BRANCH   8  11
ATOM     11  C   LIG d   1      -8.716  73.489 116.559  0.00  0.00     0.028 C 
ATOM     12  C   LIG d   1      -8.362  72.041 116.184  0.00  0.00     0.006 C 
ENDBRANCH   8  11
ENDBRANCH   7   8
ENDBRANCH   1   7
BRANCH   6  13
ATOM     13  N   LIG d   1      -5.302  77.261 117.614  0.00  0.00    -0.311 N 
ATOM     14  C   LIG d   1      -4.295  77.588 116.806  0.00  0.00     0.210 C 
ATOM     15  C   LIG d   1      -2.959  76.912 117.131  0.00  0.00     0.109 C 
ATOM     16  O   LIG d   1      -4.374  78.399 115.870  0.00  0.00    -0.276 OA
ATOM     17  H   LIG d   1      -5.142  76.621 118.367  0.00  0.00     0.149 HD
ENDBRANCH   6  13
BRANCH   5  18
ATOM     18  N   LIG d   1      -6.114  80.171 118.068  0.00  0.00     0.381 N 
ATOM     19  H   LIG d   1      -5.681  80.511 118.903  0.00  0.00    -0.090 HD
ATOM     20  H   LIG d   1      -6.697  80.900 117.696  0.00  0.00    -0.090 HD
ATOM     21  H   LIG d   1      -5.417  79.921 117.402  0.00  0.00    -0.090 HD
ENDBRANCH   5  18
BRANCH   3  22
ATOM     22  C   LIG d   1     -10.582  78.645 118.873  0.00  0.00     0.382 C 
ATOM     23  O   LIG d   1     -10.961  79.835 118.989  0.00  0.00    -0.241 OA
ATOM     24  O   LIG d   1     -11.329  77.724 119.251  0.00  0.00    -0.241 OA
ENDBRANCH   3  22
TORSDOF 7
ENDMDL
MODEL 2
REMARK VINA RESULT:      -5.8      2.431      5.542
REMARK  7 active torsions:
REMARK  status: ('A' for Active; 'I' for Inactive)
REMARK    1  A    between atoms: C_2  and  C_3 
REMARK    2  A    between atoms: C_3  and  O_6 
REMARK    3  A    between atoms: C_3  and  C_4 
REMARK    4  A    between atoms: C_7  and  O_6 
REMARK    5  A    between atoms: C_9  and  C_10 
REMARK    6  A    between atoms: N_15  and  C_14 
REMARK    7  A    between atoms: N_20  and  C_19 
REMARK       I    between atoms: C_22  and  N_20 
ROOT
ATOM      1  C   LIG d   1      -5.297  75.654 116.892  0.00  0.00     0.161 C 
ATOM      2  C   LIG d   1      -4.172  74.883 116.552  0.00  0.00     0.016 C 
ATOM      3  C   LIG d   1      -2.847  75.259 116.870  0.00  0.00     0.038 C 
ATOM      4  C   LIG d   1      -2.565  76.364 117.686  0.00  0.00     0.028 C 
ATOM      5  C   LIG d   1      -3.634  77.450 117.627  0.00  0.00    -0.047 C 
ATOM      6  C   LIG d   1      -5.017  76.806 117.879  0.00  0.00     0.091 C 
ENDROOT
BRANCH   1   7
ATOM      7  O   LIG d   1      -6.339  74.799 117.402  0.00  0.00    -0.368 OA
BRANCH   7   8
ATOM      8  C   LIG d   1      -7.237  74.231 116.417  0.00  0.00     0.119 C 
BRANCH   8   9
ATOM      9  C   LIG d   1      -8.676  74.442 116.927  0.00  0.00     0.028 C 
ATOM     10  C   LIG d   1      -8.999  75.925 117.177  0.00  0.00     0.006 C 
ENDBRANCH   8   9
BRANCH   8  11
ATOM     11  C   LIG d   1      -7.063  72.713 116.312  0.00  0.00     0.028 C 
ATOM     12  C   LIG d   1      -8.401  71.967 116.194  0.00  0.00     0.006 C 
ENDBRANCH   8  11
ENDBRANCH   7   8
ENDBRANCH   1   7
BRANCH   6  13
ATOM     13  N   LIG d   1      -6.129  77.784 117.755  0.00  0.00    -0.311 N 
ATOM     14  C   LIG d   1      -6.624  78.466 118.787  0.00  0.00     0.210 C 
ATOM     15  C   LIG d   1      -7.782  79.408 118.443  0.00  0.00     0.109 C 
ATOM     16  O   LIG d   1      -6.193  78.403 119.948  0.00  0.00    -0.276 OA
ATOM     17  H   LIG d   1      -6.517  77.920 116.842  0.00  0.00     0.149 HD
ENDBRANCH   6  13
BRANCH   5  18
ATOM     18  N   LIG d   1      -3.283  78.476 118.626  0.00  0.00     0.381 N 
ATOM     19  H   LIG d   1      -2.354  78.318 118.962  0.00  0.00    -0.090 HD
ATOM     20  H   LIG d   1      -3.916  78.404 119.403  0.00  0.00    -0.090 HD
ATOM     21  H   LIG d   1      -3.347  79.384 118.219  0.00  0.00    -0.090 HD
ENDBRANCH   5  18
BRANCH   3  22
ATOM     22  C   LIG d   1      -1.784  74.547 116.334  0.00  0.00     0.382 C 
ATOM     23  O   LIG d   1      -0.779  74.295 117.042  0.00  0.00    -0.241 OA
ATOM     24  O   LIG d   1      -1.799  74.192 115.141  0.00  0.00    -0.241 OA
ENDBRANCH   3  22
TORSDOF 7
ENDMDL
MODEL 3
REMARK VINA RESULT:      -5.8      2.674      4.645
REMARK  7 active torsions:
REMARK  status: ('A' for Active; 'I' for Inactive)
REMARK    1  A    between atoms: C_2  and  C_3 
REMARK    2  A    between atoms: C_3  and  O_6 
REMARK    3  A    between atoms: C_3  and  C_4 
REMARK    4  A    between atoms: C_7  and  O_6 
REMARK    5  A    between atoms: C_9  and  C_10 
REMARK    6  A    between atoms: N_15  and  C_14 
REMARK    7  A    between atoms: N_20  and  C_19 
REMARK       I    between atoms: C_22  and  N_20 
ROOT
ATOM      1  C   LIG d   1      -5.736  75.394 117.436  0.00  0.00     0.161 C 
ATOM      2  C   LIG d   1      -6.170  74.140 116.975  0.00  0.00     0.016 C 
ATOM      3  C   LIG d   1      -7.524  73.836 116.705  0.00  0.00     0.038 C 
ATOM      4  C   LIG d   1      -8.524  74.820 116.734  0.00  0.00     0.028 C 
ATOM      5  C   LIG d   1      -8.212  75.974 117.681  0.00  0.00    -0.047 C 
ATOM      6  C   LIG d   1      -6.797  76.512 117.367  0.00  0.00     0.091 C 
ENDROOT
BRANCH   1   7
ATOM      7  O   LIG d   1      -4.545  75.790 116.727  0.00  0.00    -0.368 OA
BRANCH   7   8
ATOM      8  C   LIG d   1      -4.243  75.043 115.522  0.00  0.00     0.119 C 
BRANCH   8   9
ATOM      9  C   LIG d   1      -2.752  74.658 115.578  0.00  0.00     0.028 C 
ATOM     10  C   LIG d   1      -2.112  74.985 116.938  0.00  0.00     0.006 C 
ENDBRANCH   8   9
BRANCH   8  11
ATOM     11  C   LIG d   1      -4.390  75.917 114.273  0.00  0.00     0.028 C 
ATOM     12  C   LIG d   1      -5.797  75.846 113.658  0.00  0.00     0.006 C 
ENDBRANCH   8  11
ENDBRANCH   7   8
ENDBRANCH   1   7
BRANCH   6  13
ATOM     13  N   LIG d   1      -6.379  77.587 118.303  0.00  0.00    -0.311 N 
ATOM     14  C   LIG d   1      -5.899  78.763 117.902  0.00  0.00     0.210 C 
ATOM     15  C   LIG d   1      -5.509  79.722 119.031  0.00  0.00     0.109 C 
ATOM     16  O   LIG d   1      -5.789  79.115 116.717  0.00  0.00    -0.276 OA
ATOM     17  H   LIG d   1      -6.464  77.398 119.283  0.00  0.00     0.149 HD
ENDBRANCH   6  13
BRANCH   5  18
ATOM     18  N   LIG d   1      -9.268  76.989 117.509  0.00  0.00     0.381 N 
ATOM     19  H   LIG d   1      -9.690  77.192 118.394  0.00  0.00    -0.090 HD
ATOM     20  H   LIG d   1      -9.976  76.622 116.899  0.00  0.00    -0.090 HD
ATOM     21  H   LIG d   1      -8.881  77.821 117.119  0.00  0.00    -0.090 HD
ENDBRANCH   5  18
BRANCH   3  22
ATOM     22  C   LIG d   1      -7.896  72.527 116.441  0.00  0.00     0.382 C 
ATOM     23  O   LIG d   1      -7.018  71.639 116.320  0.00  0.00    -0.241 OA
ATOM     24  O   LIG d   1      -9.094  72.231 116.278  0.00  0.00    -0.241 OA
ENDBRANCH   3  22
TORSDOF 7
ENDMDL
MODEL 4
REMARK VINA RESULT:      -5.8      2.674      3.879
REMARK  7 active torsions:
REMARK  status: ('A' for Active; 'I' for Inactive)
REMARK    1  A    between atoms: C_2  and  C_3 
REMARK    2  A    between atoms: C_3  and  O_6 
REMARK    3  A    between atoms: C_3  and  C_4 
REMARK    4  A    between atoms: C_7  and  O_6 
REMARK    5  A    between atoms: C_9  and  C_10 
REMARK    6  A    between atoms: N_15  and  C_14 
REMARK    7  A    between atoms: N_20  and  C_19 
REMARK       I    between atoms: C_22  and  N_20 
ROOT
ATOM      1  C   LIG d   1      -4.507  76.005 117.515  0.00  0.00     0.161 C 
ATOM      2  C   LIG d   1      -5.558  76.919 117.696  0.00  0.00     0.016 C 
ATOM      3  C   LIG d   1      -5.499  78.267 117.272  0.00  0.00     0.038 C 
ATOM      4  C   LIG d   1      -4.437  78.754 116.496  0.00  0.00     0.028 C 
ATOM      5  C   LIG d   1      -3.128  78.006 116.723  0.00  0.00    -0.047 C 
ATOM      6  C   LIG d   1      -3.385  76.489 116.572  0.00  0.00     0.091 C 
ENDROOT
BRANCH   1   7
ATOM      7  O   LIG d   1      -5.031  74.741 117.062  0.00  0.00    -0.368 OA
BRANCH   7   8
ATOM      8  C   LIG d   1      -6.230  74.803 116.250  0.00  0.00     0.119 C 
BRANCH   8   9
ATOM      9  C   LIG d   1      -7.204  73.734 116.782  0.00  0.00     0.028 C 
ATOM     10  C   LIG d   1      -7.195  72.455 115.929  0.00  0.00     0.006 C 
ENDBRANCH   8   9
BRANCH   8  11
ATOM     11  C   LIG d   1      -5.942  74.403 114.800  0.00  0.00     0.028 C 
ATOM     12  C   LIG d   1      -5.667  75.612 113.892  0.00  0.00     0.006 C 
ENDBRANCH   8  11
ENDBRANCH   7   8
ENDBRANCH   1   7
BRANCH   6  13
ATOM     13  N   LIG d   1      -2.174  75.677 116.862  0.00  0.00    -0.311 N 
ATOM     14  C   LIG d   1      -1.705  74.740 116.039  0.00  0.00     0.210 C 
ATOM     15  C   LIG d   1      -0.456  74.007 116.538  0.00  0.00     0.109 C 
ATOM     16  O   LIG d   1      -2.187  74.469 114.929  0.00  0.00    -0.276 OA
ATOM     17  H   LIG d   1      -1.702  75.854 117.727  0.00  0.00     0.149 HD
ENDBRANCH   6  13
BRANCH   5  18
ATOM     18  N   LIG d   1      -2.144  78.525 115.755  0.00  0.00     0.381 N 
ATOM     19  H   LIG d   1      -2.535  78.510 114.834  0.00  0.00    -0.090 HD
ATOM     20  H   LIG d   1      -1.334  77.929 115.763  0.00  0.00    -0.090 HD
ATOM     21  H   LIG d   1      -1.883  79.455 115.998  0.00  0.00    -0.090 HD
ENDBRANCH   5  18
BRANCH   3  22
ATOM     22  C   LIG d   1      -6.494  79.153 117.658  0.00  0.00     0.382 C 
ATOM     23  O   LIG d   1      -7.451  78.752 118.363  0.00  0.00    -0.241 OA
ATOM     24  O   LIG d   1      -6.469  80.337 117.273  0.00  0.00    -0.241 OA
ENDBRANCH   3  22
TORSDOF 7
ENDMDL
MODEL 5
REMARK VINA RESULT:      -5.6      4.428      6.610
REMARK  7 active torsions:
REMARK  status: ('A' for Active; 'I' for Inactive)
REMARK    1  A    between atoms: C_2  and  C_3 
REMARK    2  A    between atoms: C_3  and  O_6 
REMARK    3  A    between atoms: C_3  and  C_4 
REMARK    4  A    between atoms: C_7  and  O_6 
REMARK    5  A    between atoms: C_9  and  C_10 
REMARK    6  A    between atoms: N_15  and  C_14 
REMARK    7  A    between atoms: N_20  and  C_19 
REMARK       I    between atoms: C_22  and  N_20 
ROOT
ATOM      1  C   LIG d   1      -2.926  77.594 115.818  0.00  0.00     0.161 C 
ATOM      2  C   LIG d   1      -3.129  78.554 114.812  0.00  0.00     0.016 C 
ATOM      3  C   LIG d   1      -2.331  78.644 113.649  0.00  0.00     0.038 C 
ATOM      4  C   LIG d   1      -1.362  77.678 113.339  0.00  0.00     0.028 C 
ATOM      5  C   LIG d   1      -0.783  76.984 114.567  0.00  0.00    -0.047 C 
ATOM      6  C   LIG d   1      -1.945  76.463 115.443  0.00  0.00     0.091 C 
ENDROOT
BRANCH   1   7
ATOM      7  O   LIG d   1      -4.192  77.043 116.231  0.00  0.00    -0.368 OA
BRANCH   7   8
ATOM      8  C   LIG d   1      -4.602  75.822 115.567  0.00  0.00     0.119 C 
BRANCH   8   9
ATOM      9  C   LIG d   1      -5.867  76.143 114.748  0.00  0.00     0.028 C 
ATOM     10  C   LIG d   1      -5.602  76.134 113.233  0.00  0.00     0.006 C 
ENDBRANCH   8   9
BRANCH   8  11
ATOM     11  C   LIG d   1      -5.034  74.756 116.579  0.00  0.00     0.028 C 
ATOM     12  C   LIG d   1      -6.244  73.937 116.102  0.00  0.00     0.006 C 
ENDBRANCH   8  11
ENDBRANCH   7   8
ENDBRANCH   1   7
BRANCH   6  13
ATOM     13  N   LIG d   1      -1.468  75.844 116.708  0.00  0.00    -0.311 N 
ATOM     14  C   LIG d   1      -1.189  74.548 116.830  0.00  0.00     0.210 C 
ATOM     15  C   LIG d   1      -0.731  74.113 118.225  0.00  0.00     0.109 C 
ATOM     16  O   LIG d   1      -1.247  73.722 115.906  0.00  0.00    -0.276 OA
ATOM     17  H   LIG d   1      -1.363  76.448 117.500  0.00  0.00     0.149 HD
ENDBRANCH   6  13
BRANCH   5  18
ATOM     18  N   LIG d   1       0.110  75.909 114.092  0.00  0.00     0.381 N 
ATOM     19  H   LIG d   1       0.265  76.008 113.109  0.00  0.00    -0.090 HD
ATOM     20  H   LIG d   1      -0.335  75.023 114.254  0.00  0.00    -0.090 HD
ATOM     21  H   LIG d   1       0.978  75.948 114.579  0.00  0.00    -0.090 HD
ENDBRANCH   5  18
BRANCH   3  22
ATOM     22  C   LIG d   1      -2.471  79.732 112.802  0.00  0.00     0.382 C 
ATOM     23  O   LIG d   1      -1.521  80.072 112.055  0.00  0.00    -0.241 OA
ATOM     24  O   LIG d   1      -3.518  80.406 112.807  0.00  0.00    -0.241 OA
ENDBRANCH   3  22
TORSDOF 7
ENDMDL
MODEL 6
REMARK VINA RESULT:      -5.4      3.845      6.457
REMARK  7 active torsions:
REMARK  status: ('A' for Active; 'I' for Inactive)
REMARK    1  A    between atoms: C_2  and  C_3 
REMARK    2  A    between atoms: C_3  and  O_6 
REMARK    3  A    between atoms: C_3  and  C_4 
REMARK    4  A    between atoms: C_7  and  O_6 
REMARK    5  A    between atoms: C_9  and  C_10 
REMARK    6  A    between atoms: N_15  and  C_14 
REMARK    7  A    between atoms: N_20  and  C_19 
REMARK       I    between atoms: C_22  and  N_20 
ROOT
ATOM      1  C   LIG d   1      -3.439  75.137 115.702  0.00  0.00     0.161 C 
ATOM      2  C   LIG d   1      -2.744  76.212 115.122  0.00  0.00     0.016 C 
ATOM      3  C   LIG d   1      -3.165  77.558 115.227  0.00  0.00     0.038 C 
ATOM      4  C   LIG d   1      -4.233  77.938 116.053  0.00  0.00     0.028 C 
ATOM      5  C   LIG d   1      -5.267  76.835 116.252  0.00  0.00    -0.047 C 
ATOM      6  C   LIG d   1      -4.544  75.544 116.699  0.00  0.00     0.091 C 
ENDROOT
BRANCH   1   7
ATOM      7  O   LIG d   1      -2.507  74.234 116.329  0.00  0.00    -0.368 OA
BRANCH   7   8
ATOM      8  C   LIG d   1      -1.247  74.811 116.753  0.00  0.00     0.119 C 
BRANCH   8   9
ATOM      9  C   LIG d   1      -0.126  73.847 116.319  0.00  0.00     0.028 C 
ATOM     10  C   LIG d   1      -0.084  73.644 114.795  0.00  0.00     0.006 C 
ENDBRANCH   8   9
BRANCH   8  11
ATOM     11  C   LIG d   1      -1.153  74.882 118.280  0.00  0.00     0.028 C 
ATOM     12  C   LIG d   1      -1.596  76.242 118.842  0.00  0.00     0.006 C 
ENDBRANCH   8  11
ENDBRANCH   7   8
ENDBRANCH   1   7
BRANCH   6  13
ATOM     13  N   LIG d   1      -5.473  74.392 116.834  0.00  0.00    -0.311 N 
ATOM     14  C   LIG d   1      -6.187  73.902 115.822  0.00  0.00     0.210 C 
ATOM     15  C   LIG d   1      -7.098  72.725 116.183  0.00  0.00     0.109 C 
ATOM     16  O   LIG d   1      -6.127  74.310 114.652  0.00  0.00    -0.276 OA
ATOM     17  H   LIG d   1      -5.559  73.980 117.743  0.00  0.00     0.149 HD
ENDBRANCH   6  13
BRANCH   5  18
ATOM     18  N   LIG d   1      -6.250  77.319 117.240  0.00  0.00     0.381 N 
ATOM     19  H   LIG d   1      -6.314  78.316 117.194  0.00  0.00    -0.090 HD
ATOM     20  H   LIG d   1      -5.938  77.065 118.160  0.00  0.00    -0.090 HD
ATOM     21  H   LIG d   1      -7.142  76.913 117.060  0.00  0.00    -0.090 HD
ENDBRANCH   5  18
BRANCH   3  22
ATOM     22  C   LIG d   1      -2.537  78.535 114.470  0.00  0.00     0.382 C 
ATOM     23  O   LIG d   1      -1.287  78.640 114.493  0.00  0.00    -0.241 OA
ATOM     24  O   LIG d   1      -3.208  79.341 113.798  0.00  0.00    -0.241 OA
ENDBRANCH   3  22
TORSDOF 7
ENDMDL
MODEL 7
REMARK VINA RESULT:      -5.3     13.745     16.505
REMARK  7 active torsions:
REMARK  status: ('A' for Active; 'I' for Inactive)
REMARK    1  A    between atoms: C_2  and  C_3 
REMARK    2  A    between atoms: C_3  and  O_6 
REMARK    3  A    between atoms: C_3  and  C_4 
REMARK    4  A    between atoms: C_7  and  O_6 
REMARK    5  A    between atoms: C_9  and  C_10 
REMARK    6  A    between atoms: N_15  and  C_14 
REMARK    7  A    between atoms: N_20  and  C_19 
REMARK       I    between atoms: C_22  and  N_20 
ROOT
ATOM      1  C   LIG d   1      -5.684  92.700 117.127  0.00  0.00     0.161 C 
ATOM      2  C   LIG d   1      -6.478  92.186 116.089  0.00  0.00     0.016 C 
ATOM      3  C   LIG d   1      -6.204  90.966 115.429  0.00  0.00     0.038 C 
ATOM      4  C   LIG d   1      -5.195  90.096 115.869  0.00  0.00     0.028 C 
ATOM      5  C   LIG d   1      -4.054  90.807 116.589  0.00  0.00    -0.047 C 
ATOM      6  C   LIG d   1      -4.644  91.711 117.695  0.00  0.00     0.091 C 
ENDROOT
BRANCH   1   7
ATOM      7  O   LIG d   1      -6.526  93.203 118.183  0.00  0.00    -0.368 OA
BRANCH   7   8
ATOM      8  C   LIG d   1      -6.564  94.643 118.337  0.00  0.00     0.119 C 
BRANCH   8   9
ATOM      9  C   LIG d   1      -5.842  94.988 119.654  0.00  0.00     0.028 C 
ATOM     10  C   LIG d   1      -4.598  95.863 119.429  0.00  0.00     0.006 C 
ENDBRANCH   8   9
BRANCH   8  11
ATOM     11  C   LIG d   1      -7.999  95.146 118.517  0.00  0.00     0.028 C 
ATOM     12  C   LIG d   1      -8.160  96.631 118.154  0.00  0.00     0.006 C 
ENDBRANCH   8  11
ENDBRANCH   7   8
ENDBRANCH   1   7
BRANCH   6  13
ATOM     13  N   LIG d   1      -3.601  92.507 118.393  0.00  0.00    -0.311 N 
ATOM     14  C   LIG d   1      -3.037  92.132 119.540  0.00  0.00     0.210 C 
ATOM     15  C   LIG d   1      -1.998  93.109 120.100  0.00  0.00     0.109 C 
ATOM     16  O   LIG d   1      -3.276  91.068 120.130  0.00  0.00    -0.276 OA
ATOM     17  H   LIG d   1      -3.325  93.371 117.967  0.00  0.00     0.149 HD
ENDBRANCH   6  13
BRANCH   5  18
ATOM     18  N   LIG d   1      -3.144  89.771 117.113  0.00  0.00     0.381 N 
ATOM     19  H   LIG d   1      -2.800  89.209 116.360  0.00  0.00    -0.090 HD
ATOM     20  H   LIG d   1      -3.655  89.177 117.742  0.00  0.00    -0.090 HD
ATOM     21  H   LIG d   1      -2.382  90.198 117.593  0.00  0.00    -0.090 HD
ENDBRANCH   5  18
BRANCH   3  22
ATOM     22  C   LIG d   1      -6.918  90.624 114.291  0.00  0.00     0.382 C 
ATOM     23  O   LIG d   1      -6.674  89.546 113.698  0.00  0.00    -0.241 OA
ATOM     24  O   LIG d   1      -7.773  91.400 113.825  0.00  0.00    -0.241 OA
ENDBRANCH   3  22
TORSDOF 7
ENDMDL
MODEL 8
REMARK VINA RESULT:      -5.3     14.638     16.625
REMARK  7 active torsions:
REMARK  status: ('A' for Active; 'I' for Inactive)
REMARK    1  A    between atoms: C_2  and  C_3 
REMARK    2  A    between atoms: C_3  and  O_6 
REMARK    3  A    between atoms: C_3  and  C_4 
REMARK    4  A    between atoms: C_7  and  O_6 
REMARK    5  A    between atoms: C_9  and  C_10 
REMARK    6  A    between atoms: N_15  and  C_14 
REMARK    7  A    between atoms: N_20  and  C_19 
REMARK       I    between atoms: C_22  and  N_20 
ROOT
ATOM      1  C   LIG d   1      -5.552  93.057 117.955  0.00  0.00     0.161 C 
ATOM      2  C   LIG d   1      -6.741  93.789 117.797  0.00  0.00     0.016 C 
ATOM      3  C   LIG d   1      -6.963  95.051 118.394  0.00  0.00     0.038 C 
ATOM      4  C   LIG d   1      -5.945  95.741 119.070  0.00  0.00     0.028 C 
ATOM      5  C   LIG d   1      -4.894  94.821 119.682  0.00  0.00    -0.047 C 
ATOM      6  C   LIG d   1      -4.389  93.843 118.597  0.00  0.00     0.091 C 
ENDROOT
BRANCH   1   7
ATOM      7  O   LIG d   1      -5.144  92.507 116.686  0.00  0.00    -0.368 OA
BRANCH   7   8
ATOM      8  C   LIG d   1      -5.993  91.467 116.140  0.00  0.00     0.119 C 
BRANCH   8   9
ATOM      9  C   LIG d   1      -5.085  90.282 115.759  0.00  0.00     0.028 C 
ATOM     10  C   LIG d   1      -3.867  90.153 116.689  0.00  0.00     0.006 C 
ENDBRANCH   8   9
BRANCH   8  11
ATOM     11  C   LIG d   1      -6.648  91.914 114.830  0.00  0.00     0.028 C 
ATOM     12  C   LIG d   1      -6.939  90.741 113.880  0.00  0.00     0.006 C 
ENDBRANCH   8  11
ENDBRANCH   7   8
ENDBRANCH   1   7
BRANCH   6  13
ATOM     13  N   LIG d   1      -3.419  92.853 119.133  0.00  0.00    -0.311 N 
ATOM     14  C   LIG d   1      -2.182  92.710 118.662  0.00  0.00     0.210 C 
ATOM     15  C   LIG d   1      -1.353  91.617 119.344  0.00  0.00     0.109 C 
ATOM     16  O   LIG d   1      -1.681  93.407 117.767  0.00  0.00    -0.276 OA
ATOM     17  H   LIG d   1      -3.732  92.267 119.882  0.00  0.00     0.149 HD
ENDBRANCH   6  13
BRANCH   5  18
ATOM     18  N   LIG d   1      -3.824  95.673 120.235  0.00  0.00     0.381 N 
ATOM     19  H   LIG d   1      -4.203  96.558 120.508  0.00  0.00    -0.090 HD
ATOM     20  H   LIG d   1      -3.134  95.832 119.522  0.00  0.00    -0.090 HD
ATOM     21  H   LIG d   1      -3.404  95.227 121.020  0.00  0.00    -0.090 HD
ENDBRANCH   5  18
BRANCH   3  22
ATOM     22  C   LIG d   1      -8.227  95.619 118.350  0.00  0.00     0.382 C 
ATOM     23  O   LIG d   1      -8.363  96.821 118.018  0.00  0.00    -0.241 OA
ATOM     24  O   LIG d   1      -9.228  94.957 118.682  0.00  0.00    -0.241 OA
ENDBRANCH   3  22
TORSDOF 7
ENDMDL
MODEL 9
REMARK VINA RESULT:      -5.1     13.056     15.290
REMARK  7 active torsions:
REMARK  status: ('A' for Active; 'I' for Inactive)
REMARK    1  A    between atoms: C_2  and  C_3 
REMARK    2  A    between atoms: C_3  and  O_6 
REMARK    3  A    between atoms: C_3  and  C_4 
REMARK    4  A    between atoms: C_7  and  O_6 
REMARK    5  A    between atoms: C_9  and  C_10 
REMARK    6  A    between atoms: N_15  and  C_14 
REMARK    7  A    between atoms: N_20  and  C_19 
REMARK       I    between atoms: C_22  and  N_20 
ROOT
ATOM      1  C   LIG d   1      -3.861  91.038 117.512  0.00  0.00     0.161 C 
ATOM      2  C   LIG d   1      -4.795  90.266 116.801  0.00  0.00     0.016 C 
ATOM      3  C   LIG d   1      -6.064  90.749 116.406  0.00  0.00     0.038 C 
ATOM      4  C   LIG d   1      -6.427  92.095 116.565  0.00  0.00     0.028 C 
ATOM      5  C   LIG d   1      -5.718  92.781 117.727  0.00  0.00    -0.047 C 
ATOM      6  C   LIG d   1      -4.196  92.542 117.597  0.00  0.00     0.091 C 
ENDROOT
BRANCH   1   7
ATOM      7  O   LIG d   1      -2.545  90.849 116.956  0.00  0.00    -0.368 OA
BRANCH   7   8
ATOM      8  C   LIG d   1      -1.526  90.382 117.874  0.00  0.00     0.119 C 
BRANCH   8   9
ATOM      9  C   LIG d   1      -0.201  90.300 117.092  0.00  0.00     0.028 C 
ATOM     10  C   LIG d   1       0.321  91.685 116.674  0.00  0.00     0.006 C 
ENDBRANCH   8   9
BRANCH   8  11
ATOM     11  C   LIG d   1      -1.810  88.952 118.342  0.00  0.00     0.028 C 
ATOM     12  C   LIG d   1      -1.749  87.927 117.198  0.00  0.00     0.006 C 
ENDBRANCH   8  11
ENDBRANCH   7   8
ENDBRANCH   1   7
BRANCH   6  13
ATOM     13  N   LIG d   1      -3.434  93.109 118.741  0.00  0.00    -0.311 N 
ATOM     14  C   LIG d   1      -2.389  93.922 118.594  0.00  0.00     0.210 C 
ATOM     15  C   LIG d   1      -1.735  94.376 119.903  0.00  0.00     0.109 C 
ATOM     16  O   LIG d   1      -1.963  94.336 117.506  0.00  0.00    -0.276 OA
ATOM     17  H   LIG d   1      -3.732  92.849 119.661  0.00  0.00     0.149 HD
ENDBRANCH   6  13
BRANCH   5  18
ATOM     18  N   LIG d   1      -6.084  94.209 117.693  0.00  0.00     0.381 N 
ATOM     19  H   LIG d   1      -6.290  94.529 118.618  0.00  0.00    -0.090 HD
ATOM     20  H   LIG d   1      -6.910  94.319 117.130  0.00  0.00    -0.090 HD
ATOM     21  H   LIG d   1      -5.337  94.743 117.307  0.00  0.00    -0.090 HD
ENDBRANCH   5  18
BRANCH   3  22
ATOM     22  C   LIG d   1      -6.999  89.871 115.880  0.00  0.00     0.382 C 
ATOM     23  O   LIG d   1      -7.132  89.767 114.637  0.00  0.00    -0.241 OA
ATOM     24  O   LIG d   1      -7.743  89.215 116.633  0.00  0.00    -0.241 OA
ENDBRANCH   3  22
TORSDOF 7
ENDMDL
