MODEL 1
REMARK VINA RESULT:      -6.0      0.000      0.000
REMARK  7 active torsions:
REMARK  status: ('A' for Active; 'I' for Inactive)
REMARK    1  A    between atoms: C_2  and  C_3 
REMARK    2  A    between atoms: C_3  and  O_6 
REMARK    3  A    between atoms: C_3  and  C_4 
REMARK    4  A    between atoms: C_7  and  O_6 
REMARK    5  A    between atoms: C_9  and  C_10 
REMARK    6  A    between atoms: N_15  and  C_14 
REMARK    7  A    between atoms: N_20  and  C_19 
REMARK       I    between atoms: C_22  and  N_20 
ROOT
ATOM      1  C   LIG d   1      -7.581  76.089 117.649  0.00  0.00     0.161 C 
ATOM      2  C   LIG d   1      -8.891  76.399 118.049  0.00  0.00     0.016 C 
ATOM      3  C   LIG d   1      -9.338  77.718 118.296  0.00  0.00     0.038 C 
ATOM      4  C   LIG d   1      -8.540  78.836 118.011  0.00  0.00     0.028 C 
ATOM      5  C   LIG d   1      -7.044  78.548 118.086  0.00  0.00    -0.047 C 
ATOM      6  C   LIG d   1      -6.729  77.304 117.225  0.00  0.00     0.091 C 
ENDROOT
BRANCH   1   7
ATOM      7  O   LIG d   1      -7.613  75.107 116.594  0.00  0.00    -0.368 OA
BRANCH   7   8
ATOM      8  C   LIG d   1      -6.921  73.862 116.861  0.00  0.00     0.119 C 
BRANCH   8   9
ATOM      9  C   LIG d   1      -6.435  73.304 115.509  0.00  0.00     0.028 C 
ATOM     10  C   LIG d   1      -5.586  74.320 114.726  0.00  0.00     0.006 C 
ENDBRANCH   8   9
BRANCH   8  11
ATOM     11  C   LIG d   1      -7.876  72.802 117.417  0.00  0.00     0.028 C 
ATOM     12  C   LIG d   1      -8.380  71.829 116.339  0.00  0.00     0.006 C 
ENDBRANCH   8  11
ENDBRANCH   7   8
ENDBRANCH   1   7
BRANCH   6  13
ATOM     13  N   LIG d   1      -5.301  76.902 117.310  0.00  0.00    -0.311 N 
ATOM     14  C   LIG d   1      -4.378  77.287 116.431  0.00  0.00     0.210 C 
ATOM     15  C   LIG d   1      -2.969  76.744 116.692  0.00  0.00     0.109 C 
ATOM     16  O   LIG d   1      -4.585  78.052 115.477  0.00  0.00    -0.276 OA
ATOM     17  H   LIG d   1      -5.038  76.307 118.072  0.00  0.00     0.149 HD
ENDBRANCH   6  13
BRANCH   5  18
ATOM     18  N   LIG d   1      -6.334  79.759 117.634  0.00  0.00     0.381 N 
ATOM     19  H   LIG d   1      -6.930  80.299 117.038  0.00  0.00    -0.090 HD
ATOM     20  H   LIG d   1      -5.525  79.483 117.105  0.00  0.00    -0.090 HD
ATOM     21  H   LIG d   1      -6.055  80.305 118.419  0.00  0.00    -0.090 HD
ENDBRANCH   5  18
BRANCH   3  22
ATOM     22  C   LIG d   1     -10.582  77.926 118.872  0.00  0.00     0.382 C 
ATOM     23  O   LIG d   1     -10.748  78.870 119.682  0.00  0.00    -0.241 OA
ATOM     24  O   LIG d   1     -11.528  77.155 118.626  0.00  0.00    -0.241 OA
ENDBRANCH   3  22
TORSDOF 7
ENDMDL
MODEL 2
REMARK VINA RESULT:      -5.7     14.054     16.744
REMARK  7 active torsions:
REMARK  status: ('A' for Active; 'I' for Inactive)
REMARK    1  A    between atoms: C_2  and  C_3 
REMARK    2  A    between atoms: C_3  and  O_6 
REMARK    3  A    between atoms: C_3  and  C_4 
REMARK    4  A    between atoms: C_7  and  O_6 
REMARK    5  A    between atoms: C_9  and  C_10 
REMARK    6  A    between atoms: N_15  and  C_14 
REMARK    7  A    between atoms: N_20  and  C_19 
REMARK       I    between atoms: C_22  and  N_20 
ROOT
ATOM      1  C   LIG d   1      -5.868  92.394 118.409  0.00  0.00     0.161 C 
ATOM      2  C   LIG d   1      -6.749  91.529 117.739  0.00  0.00     0.016 C 
ATOM      3  C   LIG d   1      -6.323  90.538 116.825  0.00  0.00     0.038 C 
ATOM      4  C   LIG d   1      -4.965  90.242 116.632  0.00  0.00     0.028 C 
ATOM      5  C   LIG d   1      -4.043  91.426 116.904  0.00  0.00    -0.047 C 
ATOM      6  C   LIG d   1      -4.377  92.012 118.295  0.00  0.00     0.091 C 
ENDROOT
BRANCH   1   7
ATOM      7  O   LIG d   1      -6.252  92.507 119.793  0.00  0.00    -0.368 OA
BRANCH   7   8
ATOM      8  C   LIG d   1      -6.820  93.777 120.195  0.00  0.00     0.119 C 
BRANCH   8   9
ATOM      9  C   LIG d   1      -8.345  93.588 120.305  0.00  0.00     0.028 C 
ATOM     10  C   LIG d   1      -9.097  94.167 119.094  0.00  0.00     0.006 C 
ENDBRANCH   8   9
BRANCH   8  11
ATOM     11  C   LIG d   1      -6.620  94.844 119.115  0.00  0.00     0.028 C 
ATOM     12  C   LIG d   1      -5.766  96.028 119.597  0.00  0.00     0.006 C 
ENDBRANCH   8  11
ENDBRANCH   7   8
ENDBRANCH   1   7
BRANCH   6  13
ATOM     13  N   LIG d   1      -3.577  93.226 118.605  0.00  0.00    -0.311 N 
ATOM     14  C   LIG d   1      -2.421  93.193 119.266  0.00  0.00     0.210 C 
ATOM     15  C   LIG d   1      -1.769  94.560 119.498  0.00  0.00     0.109 C 
ATOM     16  O   LIG d   1      -1.857  92.158 119.654  0.00  0.00    -0.276 OA
ATOM     17  H   LIG d   1      -3.945  94.105 118.300  0.00  0.00     0.149 HD
ENDBRANCH   6  13
BRANCH   5  18
ATOM     18  N   LIG d   1      -2.653  90.941 116.800  0.00  0.00     0.381 N 
ATOM     19  H   LIG d   1      -2.025  91.719 116.771  0.00  0.00    -0.090 HD
ATOM     20  H   LIG d   1      -2.553  90.423 115.945  0.00  0.00    -0.090 HD
ATOM     21  H   LIG d   1      -2.436  90.358 117.578  0.00  0.00    -0.090 HD
ENDBRANCH   5  18
BRANCH   3  22
ATOM     22  C   LIG d   1      -7.260  89.858 116.062  0.00  0.00     0.382 C 
ATOM     23  O   LIG d   1      -7.577  90.289 114.927  0.00  0.00    -0.241 OA
ATOM     24  O   LIG d   1      -7.825  88.843 116.512  0.00  0.00    -0.241 OA
ENDBRANCH   3  22
TORSDOF 7
ENDMDL
MODEL 3
REMARK VINA RESULT:      -5.6      2.264      5.106
REMARK  7 active torsions:
REMARK  status: ('A' for Active; 'I' for Inactive)
REMARK    1  A    between atoms: C_2  and  C_3 
REMARK    2  A    between atoms: C_3  and  O_6 
REMARK    3  A    between atoms: C_3  and  C_4 
REMARK    4  A    between atoms: C_7  and  O_6 
REMARK    5  A    between atoms: C_9  and  C_10 
REMARK    6  A    between atoms: N_15  and  C_14 
REMARK    7  A    between atoms: N_20  and  C_19 
REMARK       I    between atoms: C_22  and  N_20 
ROOT
ATOM      1  C   LIG d   1      -5.480  76.081 116.065  0.00  0.00     0.161 C 
ATOM      2  C   LIG d   1      -5.890  74.792 115.687  0.00  0.00     0.016 C 
ATOM      3  C   LIG d   1      -7.091  74.195 116.135  0.00  0.00     0.038 C 
ATOM      4  C   LIG d   1      -8.043  74.911 116.877  0.00  0.00     0.028 C 
ATOM      5  C   LIG d   1      -7.441  76.043 117.702  0.00  0.00    -0.047 C 
ATOM      6  C   LIG d   1      -6.558  76.918 116.784  0.00  0.00     0.091 C 
ENDROOT
BRANCH   1   7
ATOM      7  O   LIG d   1      -4.978  76.791 114.915  0.00  0.00    -0.368 OA
BRANCH   7   8
ATOM      8  C   LIG d   1      -3.537  76.889 114.806  0.00  0.00     0.119 C 
BRANCH   8   9
ATOM      9  C   LIG d   1      -3.207  78.301 114.284  0.00  0.00     0.028 C 
ATOM     10  C   LIG d   1      -3.360  79.379 115.371  0.00  0.00     0.006 C 
ENDBRANCH   8   9
BRANCH   8  11
ATOM     11  C   LIG d   1      -2.992  75.928 113.745  0.00  0.00     0.028 C 
ATOM     12  C   LIG d   1      -1.456  75.908 113.692  0.00  0.00     0.006 C 
ENDBRANCH   8  11
ENDBRANCH   7   8
ENDBRANCH   1   7
BRANCH   6  13
ATOM     13  N   LIG d   1      -5.864  78.001 117.530  0.00  0.00    -0.311 N 
ATOM     14  C   LIG d   1      -6.362  79.228 117.674  0.00  0.00     0.210 C 
ATOM     15  C   LIG d   1      -5.476  80.197 118.462  0.00  0.00     0.109 C 
ATOM     16  O   LIG d   1      -7.469  79.596 117.251  0.00  0.00    -0.276 OA
ATOM     17  H   LIG d   1      -4.974  77.779 117.932  0.00  0.00     0.149 HD
ENDBRANCH   6  13
BRANCH   5  18
ATOM     18  N   LIG d   1      -8.557  76.789 118.314  0.00  0.00     0.381 N 
ATOM     19  H   LIG d   1      -8.908  77.466 117.666  0.00  0.00    -0.090 HD
ATOM     20  H   LIG d   1      -8.216  77.276 119.125  0.00  0.00    -0.090 HD
ATOM     21  H   LIG d   1      -9.284  76.161 118.577  0.00  0.00    -0.090 HD
ENDBRANCH   5  18
BRANCH   3  22
ATOM     22  C   LIG d   1      -7.331  72.855 115.874  0.00  0.00     0.382 C 
ATOM     23  O   LIG d   1      -8.452  72.356 116.137  0.00  0.00    -0.241 OA
ATOM     24  O   LIG d   1      -6.427  72.128 115.421  0.00  0.00    -0.241 OA
ENDBRANCH   3  22
TORSDOF 7
ENDMDL
MODEL 4
REMARK VINA RESULT:      -5.5      3.317      6.094
REMARK  7 active torsions:
REMARK  status: ('A' for Active; 'I' for Inactive)
REMARK    1  A    between atoms: C_2  and  C_3 
REMARK    2  A    between atoms: C_3  and  O_6 
REMARK    3  A    between atoms: C_3  and  C_4 
REMARK    4  A    between atoms: C_7  and  O_6 
REMARK    5  A    between atoms: C_9  and  C_10 
REMARK    6  A    between atoms: N_15  and  C_14 
REMARK    7  A    between atoms: N_20  and  C_19 
REMARK       I    between atoms: C_22  and  N_20 
ROOT
ATOM      1  C   LIG d   1      -3.465  77.175 116.500  0.00  0.00     0.161 C 
ATOM      2  C   LIG d   1      -3.778  77.942 115.365  0.00  0.00     0.016 C 
ATOM      3  C   LIG d   1      -2.906  78.092 114.263  0.00  0.00     0.038 C 
ATOM      4  C   LIG d   1      -1.715  77.358 114.154  0.00  0.00     0.028 C 
ATOM      5  C   LIG d   1      -1.122  76.961 115.501  0.00  0.00    -0.047 C 
ATOM      6  C   LIG d   1      -2.218  76.278 116.351  0.00  0.00     0.091 C 
ENDROOT
BRANCH   1   7
ATOM      7  O   LIG d   1      -4.607  76.386 116.887  0.00  0.00    -0.368 OA
BRANCH   7   8
ATOM      8  C   LIG d   1      -5.455  75.921 115.809  0.00  0.00     0.119 C 
BRANCH   8   9
ATOM      9  C   LIG d   1      -6.915  76.030 116.288  0.00  0.00     0.028 C 
ATOM     10  C   LIG d   1      -7.084  77.045 117.431  0.00  0.00     0.006 C 
ENDBRANCH   8   9
BRANCH   8  11
ATOM     11  C   LIG d   1      -5.231  74.432 115.526  0.00  0.00     0.028 C 
ATOM     12  C   LIG d   1      -6.520  73.603 115.642  0.00  0.00     0.006 C 
ENDBRANCH   8  11
ENDBRANCH   7   8
ENDBRANCH   1   7
BRANCH   6  13
ATOM     13  N   LIG d   1      -1.745  75.934 117.717  0.00  0.00    -0.311 N 
ATOM     14  C   LIG d   1      -1.178  74.769 118.024  0.00  0.00     0.210 C 
ATOM     15  C   LIG d   1      -0.781  74.612 119.496  0.00  0.00     0.109 C 
ATOM     16  O   LIG d   1      -0.936  73.864 117.212  0.00  0.00    -0.276 OA
ATOM     17  H   LIG d   1      -1.873  76.624 118.431  0.00  0.00     0.149 HD
ENDBRANCH   6  13
BRANCH   5  18
ATOM     18  N   LIG d   1       0.036  76.086 115.239  0.00  0.00     0.381 N 
ATOM     19  H   LIG d   1      -0.244  75.317 114.664  0.00  0.00    -0.090 HD
ATOM     20  H   LIG d   1       0.372  75.721 116.113  0.00  0.00    -0.090 HD
ATOM     21  H   LIG d   1       0.758  76.603 114.787  0.00  0.00    -0.090 HD
ENDBRANCH   5  18
BRANCH   3  22
ATOM     22  C   LIG d   1      -3.203  79.015 113.272  0.00  0.00     0.382 C 
ATOM     23  O   LIG d   1      -3.133  80.243 113.518  0.00  0.00    -0.241 OA
ATOM     24  O   LIG d   1      -3.584  78.636 112.148  0.00  0.00    -0.241 OA
ENDBRANCH   3  22
TORSDOF 7
ENDMDL
MODEL 5
REMARK VINA RESULT:      -5.4      2.194      5.626
REMARK  7 active torsions:
REMARK  status: ('A' for Active; 'I' for Inactive)
REMARK    1  A    between atoms: C_2  and  C_3 
REMARK    2  A    between atoms: C_3  and  O_6 
REMARK    3  A    between atoms: C_3  and  C_4 
REMARK    4  A    between atoms: C_7  and  O_6 
REMARK    5  A    between atoms: C_9  and  C_10 
REMARK    6  A    between atoms: N_15  and  C_14 
REMARK    7  A    between atoms: N_20  and  C_19 
REMARK       I    between atoms: C_22  and  N_20 
ROOT
ATOM      1  C   LIG d   1      -5.290  76.519 115.083  0.00  0.00     0.161 C 
ATOM      2  C   LIG d   1      -4.130  75.986 114.497  0.00  0.00     0.016 C 
ATOM      3  C   LIG d   1      -2.836  76.156 115.040  0.00  0.00     0.038 C 
ATOM      4  C   LIG d   1      -2.630  76.745 116.297  0.00  0.00     0.028 C 
ATOM      5  C   LIG d   1      -3.717  77.742 116.683  0.00  0.00    -0.047 C 
ATOM      6  C   LIG d   1      -5.099  77.069 116.512  0.00  0.00     0.091 C 
ENDROOT
BRANCH   1   7
ATOM      7  O   LIG d   1      -6.343  75.535 115.062  0.00  0.00    -0.368 OA
BRANCH   7   8
ATOM      8  C   LIG d   1      -6.300  74.532 116.107  0.00  0.00     0.119 C 
BRANCH   8   9
ATOM      9  C   LIG d   1      -6.129  73.161 115.426  0.00  0.00     0.028 C 
ATOM     10  C   LIG d   1      -7.183  72.141 115.888  0.00  0.00     0.006 C 
ENDBRANCH   8   9
BRANCH   8  11
ATOM     11  C   LIG d   1      -7.634  74.450 116.856  0.00  0.00     0.028 C 
ATOM     12  C   LIG d   1      -8.664  75.473 116.352  0.00  0.00     0.006 C 
ENDBRANCH   8  11
ENDBRANCH   7   8
ENDBRANCH   1   7
BRANCH   6  13
ATOM     13  N   LIG d   1      -6.222  78.002 116.789  0.00  0.00    -0.311 N 
ATOM     14  C   LIG d   1      -6.827  78.090 117.972  0.00  0.00     0.210 C 
ATOM     15  C   LIG d   1      -7.975  79.102 118.037  0.00  0.00     0.109 C 
ATOM     16  O   LIG d   1      -6.502  77.449 118.982  0.00  0.00    -0.276 OA
ATOM     17  H   LIG d   1      -6.530  78.582 116.033  0.00  0.00     0.149 HD
ENDBRANCH   6  13
BRANCH   5  18
ATOM     18  N   LIG d   1      -3.453  78.175 118.068  0.00  0.00     0.381 N 
ATOM     19  H   LIG d   1      -3.216  77.383 118.631  0.00  0.00    -0.090 HD
ATOM     20  H   LIG d   1      -4.287  78.590 118.444  0.00  0.00    -0.090 HD
ATOM     21  H   LIG d   1      -2.708  78.837 118.082  0.00  0.00    -0.090 HD
ENDBRANCH   5  18
BRANCH   3  22
ATOM     22  C   LIG d   1      -1.726  75.768 114.305  0.00  0.00     0.382 C 
ATOM     23  O   LIG d   1      -0.729  75.275 114.887  0.00  0.00    -0.241 OA
ATOM     24  O   LIG d   1      -1.690  75.946 113.073  0.00  0.00    -0.241 OA
ENDBRANCH   3  22
TORSDOF 7
ENDMDL
MODEL 6
REMARK VINA RESULT:      -5.2      2.070      5.100
REMARK  7 active torsions:
REMARK  status: ('A' for Active; 'I' for Inactive)
REMARK    1  A    between atoms: C_2  and  C_3 
REMARK    2  A    between atoms: C_3  and  O_6 
REMARK    3  A    between atoms: C_3  and  C_4 
REMARK    4  A    between atoms: C_7  and  O_6 
REMARK    5  A    between atoms: C_9  and  C_10 
REMARK    6  A    between atoms: N_15  and  C_14 
REMARK    7  A    between atoms: N_20  and  C_19 
REMARK       I    between atoms: C_22  and  N_20 
ROOT
ATOM      1  C   LIG d   1      -7.516  76.035 117.581  0.00  0.00     0.161 C 
ATOM      2  C   LIG d   1      -7.760  74.679 117.308  0.00  0.00     0.016 C 
ATOM      3  C   LIG d   1      -7.064  73.947 116.318  0.00  0.00     0.038 C 
ATOM      4  C   LIG d   1      -5.965  74.487 115.633  0.00  0.00     0.028 C 
ATOM      5  C   LIG d   1      -6.009  76.006 115.517  0.00  0.00    -0.047 C 
ATOM      6  C   LIG d   1      -6.245  76.610 116.921  0.00  0.00     0.091 C 
ENDROOT
BRANCH   1   7
ATOM      7  O   LIG d   1      -7.480  76.248 119.006  0.00  0.00    -0.368 OA
BRANCH   7   8
ATOM      8  C   LIG d   1      -8.558  77.043 119.559  0.00  0.00     0.119 C 
BRANCH   8   9
ATOM      9  C   LIG d   1      -9.510  77.401 118.401  0.00  0.00     0.028 C 
ATOM     10  C   LIG d   1     -10.974  77.048 118.715  0.00  0.00     0.006 C 
ENDBRANCH   8   9
BRANCH   8  11
ATOM     11  C   LIG d   1      -8.045  78.384 120.092  0.00  0.00     0.028 C 
ATOM     12  C   LIG d   1      -8.730  79.589 119.430  0.00  0.00     0.006 C 
ENDBRANCH   8  11
ENDBRANCH   7   8
ENDBRANCH   1   7
BRANCH   6  13
ATOM     13  N   LIG d   1      -6.386  78.089 116.886  0.00  0.00    -0.311 N 
ATOM     14  C   LIG d   1      -5.491  78.923 117.411  0.00  0.00     0.210 C 
ATOM     15  C   LIG d   1      -5.839  80.410 117.284  0.00  0.00     0.109 C 
ATOM     16  O   LIG d   1      -4.425  78.575 117.942  0.00  0.00    -0.276 OA
ATOM     17  H   LIG d   1      -7.206  78.459 116.446  0.00  0.00     0.149 HD
ENDBRANCH   6  13
BRANCH   5  18
ATOM     18  N   LIG d   1      -4.740  76.444 114.906  0.00  0.00     0.381 N 
ATOM     19  H   LIG d   1      -4.197  76.948 115.577  0.00  0.00    -0.090 HD
ATOM     20  H   LIG d   1      -4.945  77.061 114.139  0.00  0.00    -0.090 HD
ATOM     21  H   LIG d   1      -4.229  75.654 114.579  0.00  0.00    -0.090 HD
ENDBRANCH   5  18
BRANCH   3  22
ATOM     22  C   LIG d   1      -7.492  72.673 115.977  0.00  0.00     0.382 C 
ATOM     23  O   LIG d   1      -6.727  71.901 115.350  0.00  0.00    -0.241 OA
ATOM     24  O   LIG d   1      -8.650  72.302 116.248  0.00  0.00    -0.241 OA
ENDBRANCH   3  22
TORSDOF 7
ENDMDL
MODEL 7
REMARK VINA RESULT:      -5.2     13.730     15.898
REMARK  7 active torsions:
REMARK  status: ('A' for Active; 'I' for Inactive)
REMARK    1  A    between atoms: C_2  and  C_3 
REMARK    2  A    between atoms: C_3  and  O_6 
REMARK    3  A    between atoms: C_3  and  C_4 
REMARK    4  A    between atoms: C_7  and  O_6 
REMARK    5  A    between atoms: C_9  and  C_10 
REMARK    6  A    between atoms: N_15  and  C_14 
REMARK    7  A    between atoms: N_20  and  C_19 
REMARK       I    between atoms: C_22  and  N_20 
ROOT
ATOM      1  C   LIG d   1      -6.551  92.067 117.267  0.00  0.00     0.161 C 
ATOM      2  C   LIG d   1      -7.564  93.016 117.481  0.00  0.00     0.016 C 
ATOM      3  C   LIG d   1      -7.449  94.084 118.400  0.00  0.00     0.038 C 
ATOM      4  C   LIG d   1      -6.244  94.366 119.062  0.00  0.00     0.028 C 
ATOM      5  C   LIG d   1      -5.359  93.140 119.256  0.00  0.00    -0.047 C 
ATOM      6  C   LIG d   1      -5.188  92.423 117.897  0.00  0.00     0.091 C 
ENDROOT
BRANCH   1   7
ATOM      7  O   LIG d   1      -6.401  91.824 115.854  0.00  0.00    -0.368 OA
BRANCH   7   8
ATOM      8  C   LIG d   1      -7.059  90.641 115.338  0.00  0.00     0.119 C 
BRANCH   8   9
ATOM      9  C   LIG d   1      -7.321  89.699 116.530  0.00  0.00     0.028 C 
ATOM     10  C   LIG d   1      -8.517  88.763 116.286  0.00  0.00     0.006 C 
ENDBRANCH   8   9
BRANCH   8  11
ATOM     11  C   LIG d   1      -6.139  89.857 114.397  0.00  0.00     0.028 C 
ATOM     12  C   LIG d   1      -4.916  89.265 115.116  0.00  0.00     0.006 C 
ENDBRANCH   8  11
ENDBRANCH   7   8
ENDBRANCH   1   7
BRANCH   6  13
ATOM     13  N   LIG d   1      -4.405  91.166 118.014  0.00  0.00    -0.311 N 
ATOM     14  C   LIG d   1      -3.081  91.111 117.872  0.00  0.00     0.210 C 
ATOM     15  C   LIG d   1      -2.474  89.711 118.011  0.00  0.00     0.109 C 
ATOM     16  O   LIG d   1      -2.350  92.093 117.676  0.00  0.00    -0.276 OA
ATOM     17  H   LIG d   1      -4.915  90.326 118.203  0.00  0.00     0.149 HD
ENDBRANCH   6  13
BRANCH   5  18
ATOM     18  N   LIG d   1      -4.081  93.599 119.832  0.00  0.00     0.381 N 
ATOM     19  H   LIG d   1      -3.996  94.590 119.720  0.00  0.00    -0.090 HD
ATOM     20  H   LIG d   1      -3.325  93.160 119.338  0.00  0.00    -0.090 HD
ATOM     21  H   LIG d   1      -4.038  93.362 120.799  0.00  0.00    -0.090 HD
ENDBRANCH   5  18
BRANCH   3  22
ATOM     22  C   LIG d   1      -8.559  94.860 118.695  0.00  0.00     0.382 C 
ATOM     23  O   LIG d   1      -9.581  94.329 119.192  0.00  0.00    -0.241 OA
ATOM     24  O   LIG d   1      -8.568  96.077 118.430  0.00  0.00    -0.241 OA
ENDBRANCH   3  22
TORSDOF 7
ENDMDL
MODEL 8
REMARK VINA RESULT:      -5.0      1.818      2.394
REMARK  7 active torsions:
REMARK  status: ('A' for Active; 'I' for Inactive)
REMARK    1  A    between atoms: C_2  and  C_3 
REMARK    2  A    between atoms: C_3  and  O_6 
REMARK    3  A    between atoms: C_3  and  C_4 
REMARK    4  A    between atoms: C_7  and  O_6 
REMARK    5  A    between atoms: C_9  and  C_10 
REMARK    6  A    between atoms: N_15  and  C_14 
REMARK    7  A    between atoms: N_20  and  C_19 
REMARK       I    between atoms: C_22  and  N_20 
ROOT
ATOM      1  C   LIG d   1      -6.337  77.856 117.191  0.00  0.00     0.161 C 
ATOM      2  C   LIG d   1      -7.631  77.942 117.732  0.00  0.00     0.016 C 
ATOM      3  C   LIG d   1      -8.212  79.154 118.171  0.00  0.00     0.038 C 
ATOM      4  C   LIG d   1      -7.590  80.394 117.959  0.00  0.00     0.028 C 
ATOM      5  C   LIG d   1      -6.070  80.303 117.877  0.00  0.00    -0.047 C 
ATOM      6  C   LIG d   1      -5.687  79.214 116.850  0.00  0.00     0.091 C 
ENDROOT
BRANCH   1   7
ATOM      7  O   LIG d   1      -6.347  77.000 116.032  0.00  0.00    -0.368 OA
BRANCH   7   8
ATOM      8  C   LIG d   1      -5.774  75.681 116.209  0.00  0.00     0.119 C 
BRANCH   8   9
ATOM      9  C   LIG d   1      -4.529  75.592 115.305  0.00  0.00     0.028 C 
ATOM     10  C   LIG d   1      -3.218  75.619 116.108  0.00  0.00     0.006 C 
ENDBRANCH   8   9
BRANCH   8  11
ATOM     11  C   LIG d   1      -6.722  74.589 115.703  0.00  0.00     0.028 C 
ATOM     12  C   LIG d   1      -7.867  74.293 116.683  0.00  0.00     0.006 C 
ENDBRANCH   8  11
ENDBRANCH   7   8
ENDBRANCH   1   7
BRANCH   6  13
ATOM     13  N   LIG d   1      -4.218  79.002 116.770  0.00  0.00    -0.311 N 
ATOM     14  C   LIG d   1      -3.432  79.641 115.905  0.00  0.00     0.210 C 
ATOM     15  C   LIG d   1      -1.950  79.259 115.976  0.00  0.00     0.109 C 
ATOM     16  O   LIG d   1      -3.815  80.510 115.109  0.00  0.00    -0.276 OA
ATOM     17  H   LIG d   1      -3.819  78.336 117.401  0.00  0.00     0.149 HD
ENDBRANCH   6  13
BRANCH   5  18
ATOM     18  N   LIG d   1      -5.563  81.641 117.517  0.00  0.00     0.381 N 
ATOM     19  H   LIG d   1      -6.261  82.141 117.002  0.00  0.00    -0.090 HD
ATOM     20  H   LIG d   1      -4.754  81.535 116.931  0.00  0.00    -0.090 HD
ATOM     21  H   LIG d   1      -5.321  82.147 118.341  0.00  0.00    -0.090 HD
ENDBRANCH   5  18
BRANCH   3  22
ATOM     22  C   LIG d   1      -9.411  79.129 118.867  0.00  0.00     0.382 C 
ATOM     23  O   LIG d   1     -10.493  78.996 118.246  0.00  0.00    -0.241 OA
ATOM     24  O   LIG d   1      -9.427  79.281 120.103  0.00  0.00    -0.241 OA
ENDBRANCH   3  22
TORSDOF 7
ENDMDL
MODEL 9
REMARK VINA RESULT:      -4.9     14.509     16.671
REMARK  7 active torsions:
REMARK  status: ('A' for Active; 'I' for Inactive)
REMARK    1  A    between atoms: C_2  and  C_3 
REMARK    2  A    between atoms: C_3  and  O_6 
REMARK    3  A    between atoms: C_3  and  C_4 
REMARK    4  A    between atoms: C_7  and  O_6 
REMARK    5  A    between atoms: C_9  and  C_10 
REMARK    6  A    between atoms: N_15  and  C_14 
REMARK    7  A    between atoms: N_20  and  C_19 
REMARK       I    between atoms: C_22  and  N_20 
ROOT
ATOM      1  C   LIG d   1      -5.930  92.230 119.348  0.00  0.00     0.161 C 
ATOM      2  C   LIG d   1      -7.221  92.781 119.305  0.00  0.00     0.016 C 
ATOM      3  C   LIG d   1      -7.476  94.171 119.342  0.00  0.00     0.038 C 
ATOM      4  C   LIG d   1      -6.441  95.116 119.273  0.00  0.00     0.028 C 
ATOM      5  C   LIG d   1      -5.115  94.604 119.825  0.00  0.00    -0.047 C 
ATOM      6  C   LIG d   1      -4.786  93.248 119.161  0.00  0.00     0.091 C 
ENDROOT
BRANCH   1   7
ATOM      7  O   LIG d   1      -5.819  91.168 118.380  0.00  0.00    -0.368 OA
BRANCH   7   8
ATOM      8  C   LIG d   1      -5.558  91.575 117.014  0.00  0.00     0.119 C 
BRANCH   8   9
ATOM      9  C   LIG d   1      -6.820  91.261 116.188  0.00  0.00     0.028 C 
ATOM     10  C   LIG d   1      -7.262  89.795 116.326  0.00  0.00     0.006 C 
ENDBRANCH   8   9
BRANCH   8  11
ATOM     11  C   LIG d   1      -4.443  90.734 116.386  0.00  0.00     0.028 C 
ATOM     12  C   LIG d   1      -3.722  89.841 117.408  0.00  0.00     0.006 C 
ENDBRANCH   8  11
ENDBRANCH   7   8
ENDBRANCH   1   7
BRANCH   6  13
ATOM     13  N   LIG d   1      -3.546  92.636 119.706  0.00  0.00    -0.311 N 
ATOM     14  C   LIG d   1      -2.356  92.742 119.117  0.00  0.00     0.210 C 
ATOM     15  C   LIG d   1      -1.212  92.019 119.835  0.00  0.00     0.109 C 
ATOM     16  O   LIG d   1      -2.133  93.394 118.086  0.00  0.00    -0.276 OA
ATOM     17  H   LIG d   1      -3.630  92.116 120.557  0.00  0.00     0.149 HD
ENDBRANCH   6  13
BRANCH   5  18
ATOM     18  N   LIG d   1      -4.095  95.638 119.565  0.00  0.00     0.381 N 
ATOM     19  H   LIG d   1      -3.738  95.536 118.636  0.00  0.00    -0.090 HD
ATOM     20  H   LIG d   1      -3.335  95.514 120.211  0.00  0.00    -0.090 HD
ATOM     21  H   LIG d   1      -4.492  96.545 119.679  0.00  0.00    -0.090 HD
ENDBRANCH   5  18
BRANCH   3  22
ATOM     22  C   LIG d   1      -8.776  94.628 119.490  0.00  0.00     0.382 C 
ATOM     23  O   LIG d   1      -8.989  95.827 119.792  0.00  0.00    -0.241 OA
ATOM     24  O   LIG d   1      -9.738  93.846 119.370  0.00  0.00    -0.241 OA
ENDBRANCH   3  22
TORSDOF 7
ENDMDL
