MODEL 1
REMARK VINA RESULT:      -5.9      0.000      0.000
REMARK  7 active torsions:
REMARK  status: ('A' for Active; 'I' for Inactive)
REMARK    1  A    between atoms: C_2  and  C_3 
REMARK    2  A    between atoms: C_3  and  O_6 
REMARK    3  A    between atoms: C_3  and  C_4 
REMARK    4  A    between atoms: C_7  and  O_6 
REMARK    5  A    between atoms: C_9  and  C_10 
REMARK    6  A    between atoms: N_15  and  C_14 
REMARK    7  A    between atoms: N_20  and  C_19 
REMARK       I    between atoms: C_22  and  N_20 
ROOT
ATOM      1  C   LIG d   1      -7.821  75.939 117.620  0.00  0.00     0.161 C 
ATOM      2  C   LIG d   1      -8.868  76.736 118.111  0.00  0.00     0.016 C 
ATOM      3  C   LIG d   1      -8.771  78.138 118.269  0.00  0.00     0.038 C 
ATOM      4  C   LIG d   1      -7.665  78.862 117.801  0.00  0.00     0.028 C 
ATOM      5  C   LIG d   1      -6.378  78.043 117.761  0.00  0.00    -0.047 C 
ATOM      6  C   LIG d   1      -6.646  76.724 117.000  0.00  0.00     0.091 C 
ENDROOT
BRANCH   1   7
ATOM      7  O   LIG d   1      -8.337  74.982 116.674  0.00  0.00    -0.368 OA
BRANCH   7   8
ATOM      8  C   LIG d   1      -8.398  73.607 117.127  0.00  0.00     0.119 C 
BRANCH   8   9
ATOM      9  C   LIG d   1      -7.565  72.759 116.146  0.00  0.00     0.028 C 
ATOM     10  C   LIG d   1      -8.143  71.347 115.954  0.00  0.00     0.006 C 
ENDBRANCH   8   9
BRANCH   8  11
ATOM     11  C   LIG d   1      -9.822  73.051 117.035  0.00  0.00     0.028 C 
ATOM     12  C   LIG d   1     -10.892  74.155 117.022  0.00  0.00     0.006 C 
ENDBRANCH   8  11
ENDBRANCH   7   8
ENDBRANCH   1   7
BRANCH   6  13
ATOM     13  N   LIG d   1      -5.462  75.827 116.988  0.00  0.00    -0.311 N 
ATOM     14  C   LIG d   1      -4.577  75.794 115.993  0.00  0.00     0.210 C 
ATOM     15  C   LIG d   1      -3.441  74.782 116.170  0.00  0.00     0.109 C 
ATOM     16  O   LIG d   1      -4.607  76.530 114.995  0.00  0.00    -0.276 OA
ATOM     17  H   LIG d   1      -5.343  75.218 117.774  0.00  0.00     0.149 HD
ENDBRANCH   6  13
BRANCH   5  18
ATOM     18  N   LIG d   1      -5.340  78.876 117.126  0.00  0.00     0.381 N 
ATOM     19  H   LIG d   1      -5.172  78.556 116.193  0.00  0.00    -0.090 HD
ATOM     20  H   LIG d   1      -4.486  78.786 117.649  0.00  0.00    -0.090 HD
ATOM     21  H   LIG d   1      -5.629  79.829 117.111  0.00  0.00    -0.090 HD
ENDBRANCH   5  18
BRANCH   3  22
ATOM     22  C   LIG d   1      -9.773  78.825 118.937  0.00  0.00     0.382 C 
ATOM     23  O   LIG d   1     -10.213  78.388 120.028  0.00  0.00    -0.241 OA
ATOM     24  O   LIG d   1     -10.273  79.852 118.441  0.00  0.00    -0.241 OA
ENDBRANCH   3  22
TORSDOF 7
ENDMDL
MODEL 2
REMARK VINA RESULT:      -5.7      1.777      4.921
REMARK  7 active torsions:
REMARK  status: ('A' for Active; 'I' for Inactive)
REMARK    1  A    between atoms: C_2  and  C_3 
REMARK    2  A    between atoms: C_3  and  O_6 
REMARK    3  A    between atoms: C_3  and  C_4 
REMARK    4  A    between atoms: C_7  and  O_6 
REMARK    5  A    between atoms: C_9  and  C_10 
REMARK    6  A    between atoms: N_15  and  C_14 
REMARK    7  A    between atoms: N_20  and  C_19 
REMARK       I    between atoms: C_22  and  N_20 
ROOT
ATOM      1  C   LIG d   1      -6.592  75.549 116.226  0.00  0.00     0.161 C 
ATOM      2  C   LIG d   1      -5.371  74.929 115.917  0.00  0.00     0.016 C 
ATOM      3  C   LIG d   1      -4.227  75.005 116.745  0.00  0.00     0.038 C 
ATOM      4  C   LIG d   1      -4.274  75.586 118.021  0.00  0.00     0.028 C 
ATOM      5  C   LIG d   1      -5.344  76.663 118.158  0.00  0.00    -0.047 C 
ATOM      6  C   LIG d   1      -6.695  76.094 117.666  0.00  0.00     0.091 C 
ENDROOT
BRANCH   1   7
ATOM      7  O   LIG d   1      -7.682  74.647 115.953  0.00  0.00    -0.368 OA
BRANCH   7   8
ATOM      8  C   LIG d   1      -7.752  73.462 116.785  0.00  0.00     0.119 C 
BRANCH   8   9
ATOM      9  C   LIG d   1      -7.859  72.244 115.848  0.00  0.00     0.028 C 
ATOM     10  C   LIG d   1      -8.662  71.091 116.473  0.00  0.00     0.006 C 
ENDBRANCH   8   9
BRANCH   8  11
ATOM     11  C   LIG d   1      -9.035  73.444 117.621  0.00  0.00     0.028 C 
ATOM     12  C   LIG d   1     -10.130  74.360 117.053  0.00  0.00     0.006 C 
ENDBRANCH   8  11
ENDBRANCH   7   8
ENDBRANCH   1   7
BRANCH   6  13
ATOM     13  N   LIG d   1      -7.779  77.110 117.687  0.00  0.00    -0.311 N 
ATOM     14  C   LIG d   1      -8.604  77.281 118.719  0.00  0.00     0.210 C 
ATOM     15  C   LIG d   1      -9.664  78.369 118.526  0.00  0.00     0.109 C 
ATOM     16  O   LIG d   1      -8.537  76.657 119.789  0.00  0.00    -0.276 OA
ATOM     17  H   LIG d   1      -7.885  77.681 116.872  0.00  0.00     0.149 HD
ENDBRANCH   6  13
BRANCH   5  18
ATOM     18  N   LIG d   1      -5.374  77.085 119.571  0.00  0.00     0.381 N 
ATOM     19  H   LIG d   1      -5.830  77.972 119.650  0.00  0.00    -0.090 HD
ATOM     20  H   LIG d   1      -4.431  77.184 119.901  0.00  0.00    -0.090 HD
ATOM     21  H   LIG d   1      -5.856  76.406 120.119  0.00  0.00    -0.090 HD
ENDBRANCH   5  18
BRANCH   3  22
ATOM     22  C   LIG d   1      -3.010  74.532 116.281  0.00  0.00     0.382 C 
ATOM     23  O   LIG d   1      -2.278  73.841 117.031  0.00  0.00    -0.241 OA
ATOM     24  O   LIG d   1      -2.613  74.823 115.137  0.00  0.00    -0.241 OA
ENDBRANCH   3  22
TORSDOF 7
ENDMDL
MODEL 3
REMARK VINA RESULT:      -5.2     15.639     18.007
REMARK  7 active torsions:
REMARK  status: ('A' for Active; 'I' for Inactive)
REMARK    1  A    between atoms: C_2  and  C_3 
REMARK    2  A    between atoms: C_3  and  O_6 
REMARK    3  A    between atoms: C_3  and  C_4 
REMARK    4  A    between atoms: C_7  and  O_6 
REMARK    5  A    between atoms: C_9  and  C_10 
REMARK    6  A    between atoms: N_15  and  C_14 
REMARK    7  A    between atoms: N_20  and  C_19 
REMARK       I    between atoms: C_22  and  N_20 
ROOT
ATOM      1  C   LIG d   1     -22.879  83.960 115.782  0.00  0.00     0.161 C 
ATOM      2  C   LIG d   1     -22.453  85.268 115.498  0.00  0.00     0.016 C 
ATOM      3  C   LIG d   1     -22.617  85.883 114.235  0.00  0.00     0.038 C 
ATOM      4  C   LIG d   1     -23.360  85.281 113.209  0.00  0.00     0.028 C 
ATOM      5  C   LIG d   1     -23.374  83.758 113.284  0.00  0.00    -0.047 C 
ATOM      6  C   LIG d   1     -23.791  83.329 114.709  0.00  0.00     0.091 C 
ENDROOT
BRANCH   1   7
ATOM      7  O   LIG d   1     -23.524  83.926 117.071  0.00  0.00    -0.368 OA
BRANCH   7   8
ATOM      8  C   LIG d   1     -22.802  83.247 118.128  0.00  0.00     0.119 C 
BRANCH   8   9
ATOM      9  C   LIG d   1     -22.272  84.326 119.093  0.00  0.00     0.028 C 
ATOM     10  C   LIG d   1     -23.169  85.575 119.125  0.00  0.00     0.006 C 
ENDBRANCH   8   9
BRANCH   8  11
ATOM     11  C   LIG d   1     -21.556  82.540 117.586  0.00  0.00     0.028 C 
ATOM     12  C   LIG d   1     -20.508  82.263 118.675  0.00  0.00     0.006 C 
ENDBRANCH   8  11
ENDBRANCH   7   8
ENDBRANCH   1   7
BRANCH   6  13
ATOM     13  N   LIG d   1     -23.748  81.855 114.893  0.00  0.00    -0.311 N 
ATOM     14  C   LIG d   1     -24.708  81.164 115.507  0.00  0.00     0.210 C 
ATOM     15  C   LIG d   1     -24.456  79.657 115.606  0.00  0.00     0.109 C 
ATOM     16  O   LIG d   1     -25.758  81.653 115.950  0.00  0.00    -0.276 OA
ATOM     17  H   LIG d   1     -22.946  81.374 114.536  0.00  0.00     0.149 HD
ENDBRANCH   6  13
BRANCH   5  18
ATOM     18  N   LIG d   1     -24.295  83.268 112.240  0.00  0.00     0.381 N 
ATOM     19  H   LIG d   1     -25.030  83.932 112.099  0.00  0.00    -0.090 HD
ATOM     20  H   LIG d   1     -24.704  82.404 112.548  0.00  0.00    -0.090 HD
ATOM     21  H   LIG d   1     -23.799  83.125 111.388  0.00  0.00    -0.090 HD
ENDBRANCH   5  18
BRANCH   3  22
ATOM     22  C   LIG d   1     -22.000  87.097 113.977  0.00  0.00     0.382 C 
ATOM     23  O   LIG d   1     -22.496  88.160 114.423  0.00  0.00    -0.241 OA
ATOM     24  O   LIG d   1     -20.979  87.148 113.266  0.00  0.00    -0.241 OA
ENDBRANCH   3  22
TORSDOF 7
ENDMDL
MODEL 4
REMARK VINA RESULT:      -5.2     12.128     14.623
REMARK  7 active torsions:
REMARK  status: ('A' for Active; 'I' for Inactive)
REMARK    1  A    between atoms: C_2  and  C_3 
REMARK    2  A    between atoms: C_3  and  O_6 
REMARK    3  A    between atoms: C_3  and  C_4 
REMARK    4  A    between atoms: C_7  and  O_6 
REMARK    5  A    between atoms: C_9  and  C_10 
REMARK    6  A    between atoms: N_15  and  C_14 
REMARK    7  A    between atoms: N_20  and  C_19 
REMARK       I    between atoms: C_22  and  N_20 
ROOT
ATOM      1  C   LIG d   1     -15.113  66.007 116.303  0.00  0.00     0.161 C 
ATOM      2  C   LIG d   1     -15.445  66.289 114.967  0.00  0.00     0.016 C 
ATOM      3  C   LIG d   1     -16.152  65.392 114.135  0.00  0.00     0.038 C 
ATOM      4  C   LIG d   1     -16.711  64.205 114.630  0.00  0.00     0.028 C 
ATOM      5  C   LIG d   1     -15.969  63.644 115.839  0.00  0.00    -0.047 C 
ATOM      6  C   LIG d   1     -15.810  64.764 116.893  0.00  0.00     0.091 C 
ENDROOT
BRANCH   1   7
ATOM      7  O   LIG d   1     -15.368  67.163 117.125  0.00  0.00    -0.368 OA
BRANCH   7   8
ATOM      8  C   LIG d   1     -16.606  67.869 116.865  0.00  0.00     0.119 C 
BRANCH   8   9
ATOM      9  C   LIG d   1     -16.414  69.325 117.331  0.00  0.00     0.028 C 
ATOM     10  C   LIG d   1     -16.994  69.573 118.734  0.00  0.00     0.006 C 
ENDBRANCH   8   9
BRANCH   8  11
ATOM     11  C   LIG d   1     -17.752  67.318 117.717  0.00  0.00     0.028 C 
ATOM     12  C   LIG d   1     -18.889  66.720 116.873  0.00  0.00     0.006 C 
ENDBRANCH   8  11
ENDBRANCH   7   8
ENDBRANCH   1   7
BRANCH   6  13
ATOM     13  N   LIG d   1     -15.021  64.323 118.073  0.00  0.00    -0.311 N 
ATOM     14  C   LIG d   1     -15.575  63.892 119.206  0.00  0.00     0.210 C 
ATOM     15  C   LIG d   1     -14.580  63.505 120.305  0.00  0.00     0.109 C 
ATOM     16  O   LIG d   1     -16.794  63.763 119.393  0.00  0.00    -0.276 OA
ATOM     17  H   LIG d   1     -14.024  64.365 117.997  0.00  0.00     0.149 HD
ENDBRANCH   6  13
BRANCH   5  18
ATOM     18  N   LIG d   1     -16.737  62.487 116.336  0.00  0.00     0.381 N 
ATOM     19  H   LIG d   1     -17.717  62.678 116.271  0.00  0.00    -0.090 HD
ATOM     20  H   LIG d   1     -16.508  62.336 117.302  0.00  0.00    -0.090 HD
ATOM     21  H   LIG d   1     -16.513  61.675 115.803  0.00  0.00    -0.090 HD
ENDBRANCH   5  18
BRANCH   3  22
ATOM     22  C   LIG d   1     -16.272  65.661 112.780  0.00  0.00     0.382 C 
ATOM     23  O   LIG d   1     -16.987  64.928 112.056  0.00  0.00    -0.241 OA
ATOM     24  O   LIG d   1     -15.638  66.602 112.264  0.00  0.00    -0.241 OA
ENDBRANCH   3  22
TORSDOF 7
ENDMDL
MODEL 5
REMARK VINA RESULT:      -5.2     13.443     15.536
REMARK  7 active torsions:
REMARK  status: ('A' for Active; 'I' for Inactive)
REMARK    1  A    between atoms: C_2  and  C_3 
REMARK    2  A    between atoms: C_3  and  O_6 
REMARK    3  A    between atoms: C_3  and  C_4 
REMARK    4  A    between atoms: C_7  and  O_6 
REMARK    5  A    between atoms: C_9  and  C_10 
REMARK    6  A    between atoms: N_15  and  C_14 
REMARK    7  A    between atoms: N_20  and  C_19 
REMARK       I    between atoms: C_22  and  N_20 
ROOT
ATOM      1  C   LIG d   1       2.574  87.444 115.689  0.00  0.00     0.161 C 
ATOM      2  C   LIG d   1       2.476  88.511 116.598  0.00  0.00     0.016 C 
ATOM      3  C   LIG d   1       3.237  89.698 116.489  0.00  0.00     0.038 C 
ATOM      4  C   LIG d   1       4.043  89.963 115.371  0.00  0.00     0.028 C 
ATOM      5  C   LIG d   1       4.558  88.702 114.685  0.00  0.00    -0.047 C 
ATOM      6  C   LIG d   1       3.365  87.761 114.403  0.00  0.00     0.091 C 
ENDROOT
BRANCH   1   7
ATOM      7  O   LIG d   1       1.257  86.960 115.361  0.00  0.00    -0.368 OA
BRANCH   7   8
ATOM      8  C   LIG d   1       1.024  85.547 115.581  0.00  0.00     0.119 C 
BRANCH   8   9
ATOM      9  C   LIG d   1      -0.349  85.203 114.973  0.00  0.00     0.028 C 
ATOM     10  C   LIG d   1      -0.233  84.609 113.559  0.00  0.00     0.006 C 
ENDBRANCH   8   9
BRANCH   8  11
ATOM     11  C   LIG d   1       0.898  85.229 117.074  0.00  0.00     0.028 C 
ATOM     12  C   LIG d   1      -0.188  84.183 117.371  0.00  0.00     0.006 C 
ENDBRANCH   8  11
ENDBRANCH   7   8
ENDBRANCH   1   7
BRANCH   6  13
ATOM     13  N   LIG d   1       3.792  86.467 113.808  0.00  0.00    -0.311 N 
ATOM     14  C   LIG d   1       3.231  85.939 112.723  0.00  0.00     0.210 C 
ATOM     15  C   LIG d   1       3.808  84.588 112.288  0.00  0.00     0.109 C 
ATOM     16  O   LIG d   1       2.330  86.475 112.060  0.00  0.00    -0.276 OA
ATOM     17  H   LIG d   1       4.538  85.979 114.265  0.00  0.00     0.149 HD
ENDBRANCH   6  13
BRANCH   5  18
ATOM     18  N   LIG d   1       5.267  89.120 113.460  0.00  0.00     0.381 N 
ATOM     19  H   LIG d   1       6.233  88.870 113.526  0.00  0.00    -0.090 HD
ATOM     20  H   LIG d   1       5.205  90.120 113.374  0.00  0.00    -0.090 HD
ATOM     21  H   LIG d   1       4.856  88.685 112.663  0.00  0.00    -0.090 HD
ENDBRANCH   5  18
BRANCH   3  22
ATOM     22  C   LIG d   1       3.227  90.619 117.526  0.00  0.00     0.382 C 
ATOM     23  O   LIG d   1       2.709  90.316 118.628  0.00  0.00    -0.241 OA
ATOM     24  O   LIG d   1       3.689  91.763 117.359  0.00  0.00    -0.241 OA
ENDBRANCH   3  22
TORSDOF 7
ENDMDL
MODEL 6
REMARK VINA RESULT:      -5.1      3.884      6.425
REMARK  7 active torsions:
REMARK  status: ('A' for Active; 'I' for Inactive)
REMARK    1  A    between atoms: C_2  and  C_3 
REMARK    2  A    between atoms: C_3  and  O_6 
REMARK    3  A    between atoms: C_3  and  C_4 
REMARK    4  A    between atoms: C_7  and  O_6 
REMARK    5  A    between atoms: C_9  and  C_10 
REMARK    6  A    between atoms: N_15  and  C_14 
REMARK    7  A    between atoms: N_20  and  C_19 
REMARK       I    between atoms: C_22  and  N_20 
ROOT
ATOM      1  C   LIG d   1      -2.970  76.044 115.125  0.00  0.00     0.161 C 
ATOM      2  C   LIG d   1      -2.922  75.113 116.177  0.00  0.00     0.016 C 
ATOM      3  C   LIG d   1      -1.885  75.076 117.137  0.00  0.00     0.038 C 
ATOM      4  C   LIG d   1      -0.898  76.071 117.201  0.00  0.00     0.028 C 
ATOM      5  C   LIG d   1      -0.622  76.737 115.857  0.00  0.00    -0.047 C 
ATOM      6  C   LIG d   1      -1.961  77.205 115.244  0.00  0.00     0.091 C 
ENDROOT
BRANCH   1   7
ATOM      7  O   LIG d   1      -4.310  76.556 114.987  0.00  0.00    -0.368 OA
BRANCH   7   8
ATOM      8  C   LIG d   1      -5.265  76.120 115.985  0.00  0.00     0.119 C 
BRANCH   8   9
ATOM      9  C   LIG d   1      -6.418  75.414 115.246  0.00  0.00     0.028 C 
ATOM     10  C   LIG d   1      -6.802  74.076 115.900  0.00  0.00     0.006 C 
ENDBRANCH   8   9
BRANCH   8  11
ATOM     11  C   LIG d   1      -5.910  77.313 116.697  0.00  0.00     0.028 C 
ATOM     12  C   LIG d   1      -4.877  78.269 117.314  0.00  0.00     0.006 C 
ENDBRANCH   8  11
ENDBRANCH   7   8
ENDBRANCH   1   7
BRANCH   6  13
ATOM     13  N   LIG d   1      -1.790  77.793 113.889  0.00  0.00    -0.311 N 
ATOM     14  C   LIG d   1      -2.377  78.924 113.502  0.00  0.00     0.210 C 
ATOM     15  C   LIG d   1      -2.083  79.342 112.057  0.00  0.00     0.109 C 
ATOM     16  O   LIG d   1      -3.086  79.638 114.227  0.00  0.00    -0.276 OA
ATOM     17  H   LIG d   1      -1.206  77.295 113.247  0.00  0.00     0.149 HD
ENDBRANCH   6  13
BRANCH   5  18
ATOM     18  N   LIG d   1       0.324  77.844 116.094  0.00  0.00     0.381 N 
ATOM     19  H   LIG d   1       1.003  77.569 116.775  0.00  0.00    -0.090 HD
ATOM     20  H   LIG d   1      -0.183  78.633 116.454  0.00  0.00    -0.090 HD
ATOM     21  H   LIG d   1       0.779  78.092 115.243  0.00  0.00    -0.090 HD
ENDBRANCH   5  18
BRANCH   3  22
ATOM     22  C   LIG d   1      -1.806  74.013 118.024  0.00  0.00     0.382 C 
ATOM     23  O   LIG d   1      -0.751  73.814 118.672  0.00  0.00    -0.241 OA
ATOM     24  O   LIG d   1      -2.762  73.224 118.150  0.00  0.00    -0.241 OA
ENDBRANCH   3  22
TORSDOF 7
ENDMDL
MODEL 7
REMARK VINA RESULT:      -5.1     12.304     15.169
REMARK  7 active torsions:
REMARK  status: ('A' for Active; 'I' for Inactive)
REMARK    1  A    between atoms: C_2  and  C_3 
REMARK    2  A    between atoms: C_3  and  O_6 
REMARK    3  A    between atoms: C_3  and  C_4 
REMARK    4  A    between atoms: C_7  and  O_6 
REMARK    5  A    between atoms: C_9  and  C_10 
REMARK    6  A    between atoms: N_15  and  C_14 
REMARK    7  A    between atoms: N_20  and  C_19 
REMARK       I    between atoms: C_22  and  N_20 
ROOT
ATOM      1  C   LIG d   1     -15.566  64.977 115.765  0.00  0.00     0.161 C 
ATOM      2  C   LIG d   1     -16.381  65.138 114.633  0.00  0.00     0.016 C 
ATOM      3  C   LIG d   1     -17.576  64.411 114.424  0.00  0.00     0.038 C 
ATOM      4  C   LIG d   1     -18.119  63.578 115.414  0.00  0.00     0.028 C 
ATOM      5  C   LIG d   1     -17.073  63.001 116.361  0.00  0.00    -0.047 C 
ATOM      6  C   LIG d   1     -16.200  64.154 116.907  0.00  0.00     0.091 C 
ENDROOT
BRANCH   1   7
ATOM      7  O   LIG d   1     -15.145  66.267 116.251  0.00  0.00    -0.368 OA
BRANCH   7   8
ATOM      8  C   LIG d   1     -16.201  67.161 116.681  0.00  0.00     0.119 C 
BRANCH   8   9
ATOM      9  C   LIG d   1     -15.944  68.530 116.022  0.00  0.00     0.028 C 
ATOM     10  C   LIG d   1     -15.168  68.409 114.699  0.00  0.00     0.006 C 
ENDBRANCH   8   9
BRANCH   8  11
ATOM     11  C   LIG d   1     -16.133  67.419 118.189  0.00  0.00     0.028 C 
ATOM     12  C   LIG d   1     -14.718  67.243 118.761  0.00  0.00     0.006 C 
ENDBRANCH   8  11
ENDBRANCH   7   8
ENDBRANCH   1   7
BRANCH   6  13
ATOM     13  N   LIG d   1     -15.097  63.668 117.776  0.00  0.00    -0.311 N 
ATOM     14  C   LIG d   1     -15.182  63.610 119.104  0.00  0.00     0.210 C 
ATOM     15  C   LIG d   1     -13.923  63.097 119.811  0.00  0.00     0.109 C 
ATOM     16  O   LIG d   1     -16.191  63.906 119.762  0.00  0.00    -0.276 OA
ATOM     17  H   LIG d   1     -14.253  63.378 117.323  0.00  0.00     0.149 HD
ENDBRANCH   6  13
BRANCH   5  18
ATOM     18  N   LIG d   1     -17.789  62.266 117.421  0.00  0.00     0.381 N 
ATOM     19  H   LIG d   1     -18.602  61.827 117.039  0.00  0.00    -0.090 HD
ATOM     20  H   LIG d   1     -18.084  62.919 118.126  0.00  0.00    -0.090 HD
ATOM     21  H   LIG d   1     -17.190  61.580 117.824  0.00  0.00    -0.090 HD
ENDBRANCH   5  18
BRANCH   3  22
ATOM     22  C   LIG d   1     -18.220  64.484 113.199  0.00  0.00     0.382 C 
ATOM     23  O   LIG d   1     -17.559  64.387 112.136  0.00  0.00    -0.241 OA
ATOM     24  O   LIG d   1     -19.447  64.691 113.141  0.00  0.00    -0.241 OA
ENDBRANCH   3  22
TORSDOF 7
ENDMDL
MODEL 8
REMARK VINA RESULT:      -5.1      2.087      5.422
REMARK  7 active torsions:
REMARK  status: ('A' for Active; 'I' for Inactive)
REMARK    1  A    between atoms: C_2  and  C_3 
REMARK    2  A    between atoms: C_3  and  O_6 
REMARK    3  A    between atoms: C_3  and  C_4 
REMARK    4  A    between atoms: C_7  and  O_6 
REMARK    5  A    between atoms: C_9  and  C_10 
REMARK    6  A    between atoms: N_15  and  C_14 
REMARK    7  A    between atoms: N_20  and  C_19 
REMARK       I    between atoms: C_22  and  N_20 
ROOT
ATOM      1  C   LIG d   1      -5.988  75.263 116.368  0.00  0.00     0.161 C 
ATOM      2  C   LIG d   1      -6.700  74.088 116.073  0.00  0.00     0.016 C 
ATOM      3  C   LIG d   1      -7.960  73.779 116.635  0.00  0.00     0.038 C 
ATOM      4  C   LIG d   1      -8.667  74.702 117.420  0.00  0.00     0.028 C 
ATOM      5  C   LIG d   1      -7.767  75.691 118.152  0.00  0.00    -0.047 C 
ATOM      6  C   LIG d   1      -6.794  76.332 117.135  0.00  0.00     0.091 C 
ENDROOT
BRANCH   1   7
ATOM      7  O   LIG d   1      -5.442  75.821 115.156  0.00  0.00    -0.368 OA
BRANCH   7   8
ATOM      8  C   LIG d   1      -3.998  75.823 115.050  0.00  0.00     0.119 C 
BRANCH   8   9
ATOM      9  C   LIG d   1      -3.449  74.917 116.170  0.00  0.00     0.028 C 
ATOM     10  C   LIG d   1      -2.021  74.427 115.881  0.00  0.00     0.006 C 
ENDBRANCH   8   9
BRANCH   8  11
ATOM     11  C   LIG d   1      -3.420  77.213 115.334  0.00  0.00     0.028 C 
ATOM     12  C   LIG d   1      -2.535  77.735 114.191  0.00  0.00     0.006 C 
ENDBRANCH   8  11
ENDBRANCH   7   8
ENDBRANCH   1   7
BRANCH   6  13
ATOM     13  N   LIG d   1      -5.821  77.250 117.782  0.00  0.00    -0.311 N 
ATOM     14  C   LIG d   1      -5.980  78.572 117.828  0.00  0.00     0.210 C 
ATOM     15  C   LIG d   1      -4.849  79.335 118.526  0.00  0.00     0.109 C 
ATOM     16  O   LIG d   1      -6.965  79.182 117.386  0.00  0.00    -0.276 OA
ATOM     17  H   LIG d   1      -5.008  76.836 118.194  0.00  0.00     0.149 HD
ENDBRANCH   6  13
BRANCH   5  18
ATOM     18  N   LIG d   1      -8.637  76.677 118.819  0.00  0.00     0.381 N 
ATOM     19  H   LIG d   1      -9.559  76.631 118.434  0.00  0.00    -0.090 HD
ATOM     20  H   LIG d   1      -8.272  77.599 118.654  0.00  0.00    -0.090 HD
ATOM     21  H   LIG d   1      -8.670  76.496 119.799  0.00  0.00    -0.090 HD
ENDBRANCH   5  18
BRANCH   3  22
ATOM     22  C   LIG d   1      -8.507  72.519 116.446  0.00  0.00     0.382 C 
ATOM     23  O   LIG d   1      -7.861  71.643 115.823  0.00  0.00    -0.241 OA
ATOM     24  O   LIG d   1      -9.655  72.262 116.853  0.00  0.00    -0.241 OA
ENDBRANCH   3  22
TORSDOF 7
ENDMDL
MODEL 9
REMARK VINA RESULT:      -5.0     11.572     13.977
REMARK  7 active torsions:
REMARK  status: ('A' for Active; 'I' for Inactive)
REMARK    1  A    between atoms: C_2  and  C_3 
REMARK    2  A    between atoms: C_3  and  O_6 
REMARK    3  A    between atoms: C_3  and  C_4 
REMARK    4  A    between atoms: C_7  and  O_6 
REMARK    5  A    between atoms: C_9  and  C_10 
REMARK    6  A    between atoms: N_15  and  C_14 
REMARK    7  A    between atoms: N_20  and  C_19 
REMARK       I    between atoms: C_22  and  N_20 
ROOT
ATOM      1  C   LIG d   1     -16.230  65.736 115.713  0.00  0.00     0.161 C 
ATOM      2  C   LIG d   1     -15.684  66.307 114.551  0.00  0.00     0.016 C 
ATOM      3  C   LIG d   1     -15.460  67.694 114.396  0.00  0.00     0.038 C 
ATOM      4  C   LIG d   1     -15.628  68.595 115.458  0.00  0.00     0.028 C 
ATOM      5  C   LIG d   1     -16.655  68.134 116.487  0.00  0.00    -0.047 C 
ATOM      6  C   LIG d   1     -16.316  66.690 116.922  0.00  0.00     0.091 C 
ENDROOT
BRANCH   1   7
ATOM      7  O   LIG d   1     -15.497  64.546 116.064  0.00  0.00    -0.368 OA
BRANCH   7   8
ATOM      8  C   LIG d   1     -16.213  63.294 115.929  0.00  0.00     0.119 C 
BRANCH   8   9
ATOM      9  C   LIG d   1     -17.460  63.564 115.064  0.00  0.00     0.028 C 
ATOM     10  C   LIG d   1     -17.383  62.874 113.692  0.00  0.00     0.006 C 
ENDBRANCH   8   9
BRANCH   8  11
ATOM     11  C   LIG d   1     -16.752  62.812 117.279  0.00  0.00     0.028 C 
ATOM     12  C   LIG d   1     -15.697  62.866 118.395  0.00  0.00     0.006 C 
ENDBRANCH   8  11
ENDBRANCH   7   8
ENDBRANCH   1   7
BRANCH   6  13
ATOM     13  N   LIG d   1     -17.320  66.132 117.865  0.00  0.00    -0.311 N 
ATOM     14  C   LIG d   1     -17.194  66.192 119.190  0.00  0.00     0.210 C 
ATOM     15  C   LIG d   1     -18.333  65.537 119.978  0.00  0.00     0.109 C 
ATOM     16  O   LIG d   1     -16.264  66.753 119.787  0.00  0.00    -0.276 OA
ATOM     17  H   LIG d   1     -18.122  65.687 117.466  0.00  0.00     0.149 HD
ENDBRANCH   6  13
BRANCH   5  18
ATOM     18  N   LIG d   1     -16.629  69.097 117.604  0.00  0.00     0.381 N 
ATOM     19  H   LIG d   1     -16.412  68.620 118.457  0.00  0.00    -0.090 HD
ATOM     20  H   LIG d   1     -17.539  69.511 117.698  0.00  0.00    -0.090 HD
ATOM     21  H   LIG d   1     -15.950  69.805 117.429  0.00  0.00    -0.090 HD
ENDBRANCH   5  18
BRANCH   3  22
ATOM     22  C   LIG d   1     -15.101  68.198 113.155  0.00  0.00     0.382 C 
ATOM     23  O   LIG d   1     -14.524  69.309 113.073  0.00  0.00    -0.241 OA
ATOM     24  O   LIG d   1     -15.388  67.577 112.114  0.00  0.00    -0.241 OA
ENDBRANCH   3  22
TORSDOF 7
ENDMDL
