MODEL 1
REMARK VINA RESULT:      -5.7      0.000      0.000
REMARK  7 active torsions:
REMARK  status: ('A' for Active; 'I' for Inactive)
REMARK    1  A    between atoms: C_2  and  C_3 
REMARK    2  A    between atoms: C_3  and  O_6 
REMARK    3  A    between atoms: C_3  and  C_4 
REMARK    4  A    between atoms: C_7  and  O_6 
REMARK    5  A    between atoms: C_9  and  C_10 
REMARK    6  A    between atoms: N_15  and  C_14 
REMARK    7  A    between atoms: N_20  and  C_19 
REMARK       I    between atoms: C_22  and  N_20 
ROOT
ATOM      1  C   LIG d   1      -7.594  75.163 116.242  0.00  0.00     0.161 C 
ATOM      2  C   LIG d   1      -6.455  75.008 115.434  0.00  0.00     0.016 C 
ATOM      3  C   LIG d   1      -5.406  75.954 115.379  0.00  0.00     0.038 C 
ATOM      4  C   LIG d   1      -5.352  77.054 116.248  0.00  0.00     0.028 C 
ATOM      5  C   LIG d   1      -6.726  77.518 116.723  0.00  0.00    -0.047 C 
ATOM      6  C   LIG d   1      -7.501  76.302 117.279  0.00  0.00     0.091 C 
ENDROOT
BRANCH   1   7
ATOM      7  O   LIG d   1      -7.905  73.916 116.893  0.00  0.00    -0.368 OA
BRANCH   7   8
ATOM      8  C   LIG d   1      -8.741  72.998 116.147  0.00  0.00     0.119 C 
BRANCH   8   9
ATOM      9  C   LIG d   1     -10.090  72.896 116.886  0.00  0.00     0.028 C 
ATOM     10  C   LIG d   1     -11.054  74.032 116.506  0.00  0.00     0.006 C 
ENDBRANCH   8   9
BRANCH   8  11
ATOM     11  C   LIG d   1      -8.163  71.580 116.162  0.00  0.00     0.028 C 
ATOM     12  C   LIG d   1      -8.944  70.627 117.080  0.00  0.00     0.006 C 
ENDBRANCH   8  11
ENDBRANCH   7   8
ENDBRANCH   1   7
BRANCH   6  13
ATOM     13  N   LIG d   1      -8.887  76.652 117.687  0.00  0.00    -0.311 N 
ATOM     14  C   LIG d   1      -9.222  76.983 118.933  0.00  0.00     0.210 C 
ATOM     15  C   LIG d   1     -10.709  77.289 119.143  0.00  0.00     0.109 C 
ATOM     16  O   LIG d   1      -8.424  77.084 119.877  0.00  0.00    -0.276 OA
ATOM     17  H   LIG d   1      -9.592  76.626 116.977  0.00  0.00     0.149 HD
ENDBRANCH   6  13
BRANCH   5  18
ATOM     18  N   LIG d   1      -6.515  78.578 117.727  0.00  0.00     0.381 N 
ATOM     19  H   LIG d   1      -6.198  79.413 117.276  0.00  0.00    -0.090 HD
ATOM     20  H   LIG d   1      -5.806  78.279 118.372  0.00  0.00    -0.090 HD
ATOM     21  H   LIG d   1      -7.365  78.758 118.215  0.00  0.00    -0.090 HD
ENDBRANCH   5  18
BRANCH   3  22
ATOM     22  C   LIG d   1      -4.414  75.825 114.419  0.00  0.00     0.382 C 
ATOM     23  O   LIG d   1      -4.517  76.431 113.326  0.00  0.00    -0.241 OA
ATOM     24  O   LIG d   1      -3.439  75.075 114.615  0.00  0.00    -0.241 OA
ENDBRANCH   3  22
TORSDOF 7
ENDMDL
MODEL 2
REMARK VINA RESULT:      -5.6      1.685      4.880
REMARK  7 active torsions:
REMARK  status: ('A' for Active; 'I' for Inactive)
REMARK    1  A    between atoms: C_2  and  C_3 
REMARK    2  A    between atoms: C_3  and  O_6 
REMARK    3  A    between atoms: C_3  and  C_4 
REMARK    4  A    between atoms: C_7  and  O_6 
REMARK    5  A    between atoms: C_9  and  C_10 
REMARK    6  A    between atoms: N_15  and  C_14 
REMARK    7  A    between atoms: N_20  and  C_19 
REMARK       I    between atoms: C_22  and  N_20 
ROOT
ATOM      1  C   LIG d   1      -8.016  75.358 117.392  0.00  0.00     0.161 C 
ATOM      2  C   LIG d   1      -9.300  75.669 117.873  0.00  0.00     0.016 C 
ATOM      3  C   LIG d   1      -9.699  76.974 118.240  0.00  0.00     0.038 C 
ATOM      4  C   LIG d   1      -8.883  78.092 118.007  0.00  0.00     0.028 C 
ATOM      5  C   LIG d   1      -7.394  77.763 117.994  0.00  0.00    -0.047 C 
ATOM      6  C   LIG d   1      -7.150  76.582 117.027  0.00  0.00     0.091 C 
ENDROOT
BRANCH   1   7
ATOM      7  O   LIG d   1      -8.119  74.463 116.268  0.00  0.00    -0.368 OA
BRANCH   7   8
ATOM      8  C   LIG d   1      -8.151  73.048 116.580  0.00  0.00     0.119 C 
BRANCH   8   9
ATOM      9  C   LIG d   1      -7.211  72.334 115.590  0.00  0.00     0.028 C 
ATOM     10  C   LIG d   1      -6.144  73.277 115.010  0.00  0.00     0.006 C 
ENDBRANCH   8   9
BRANCH   8  11
ATOM     11  C   LIG d   1      -9.539  72.453 116.323  0.00  0.00     0.028 C 
ATOM     12  C   LIG d   1      -9.649  70.986 116.769  0.00  0.00     0.006 C 
ENDBRANCH   8  11
ENDBRANCH   7   8
ENDBRANCH   1   7
BRANCH   6  13
ATOM     13  N   LIG d   1      -5.730  76.141 117.018  0.00  0.00    -0.311 N 
ATOM     14  C   LIG d   1      -4.828  76.591 116.148  0.00  0.00     0.210 C 
ATOM     15  C   LIG d   1      -3.427  75.992 116.301  0.00  0.00     0.109 C 
ATOM     16  O   LIG d   1      -5.047  77.454 115.285  0.00  0.00    -0.276 OA
ATOM     17  H   LIG d   1      -5.459  75.465 117.705  0.00  0.00     0.149 HD
ENDBRANCH   6  13
BRANCH   5  18
ATOM     18  N   LIG d   1      -6.670  78.988 117.605  0.00  0.00     0.381 N 
ATOM     19  H   LIG d   1      -6.204  79.373 118.401  0.00  0.00    -0.090 HD
ATOM     20  H   LIG d   1      -7.333  79.664 117.269  0.00  0.00    -0.090 HD
ATOM     21  H   LIG d   1      -6.007  78.780 116.891  0.00  0.00    -0.090 HD
ENDBRANCH   5  18
BRANCH   3  22
ATOM     22  C   LIG d   1     -10.911  77.167 118.884  0.00  0.00     0.382 C 
ATOM     23  O   LIG d   1     -11.946  76.603 118.454  0.00  0.00    -0.241 OA
ATOM     24  O   LIG d   1     -10.992  77.933 119.862  0.00  0.00    -0.241 OA
ENDBRANCH   3  22
TORSDOF 7
ENDMDL
MODEL 3
REMARK VINA RESULT:      -5.3      2.665      6.308
REMARK  7 active torsions:
REMARK  status: ('A' for Active; 'I' for Inactive)
REMARK    1  A    between atoms: C_2  and  C_3 
REMARK    2  A    between atoms: C_3  and  O_6 
REMARK    3  A    between atoms: C_3  and  C_4 
REMARK    4  A    between atoms: C_7  and  O_6 
REMARK    5  A    between atoms: C_9  and  C_10 
REMARK    6  A    between atoms: N_15  and  C_14 
REMARK    7  A    between atoms: N_20  and  C_19 
REMARK       I    between atoms: C_22  and  N_20 
ROOT
ATOM      1  C   LIG d   1      -7.102  75.682 116.582  0.00  0.00     0.161 C 
ATOM      2  C   LIG d   1      -8.468  75.713 116.912  0.00  0.00     0.016 C 
ATOM      3  C   LIG d   1      -9.300  74.570 116.891  0.00  0.00     0.038 C 
ATOM      4  C   LIG d   1      -8.785  73.282 116.684  0.00  0.00     0.028 C 
ATOM      5  C   LIG d   1      -7.507  73.267 115.852  0.00  0.00    -0.047 C 
ATOM      6  C   LIG d   1      -6.499  74.267 116.462  0.00  0.00     0.091 C 
ENDROOT
BRANCH   1   7
ATOM      7  O   LIG d   1      -6.353  76.467 117.530  0.00  0.00    -0.368 OA
BRANCH   7   8
ATOM      8  C   LIG d   1      -6.078  77.837 117.146  0.00  0.00     0.119 C 
BRANCH   8   9
ATOM      9  C   LIG d   1      -4.548  78.012 117.118  0.00  0.00     0.028 C 
ATOM     10  C   LIG d   1      -3.975  77.940 115.692  0.00  0.00     0.006 C 
ENDBRANCH   8   9
BRANCH   8  11
ATOM     11  C   LIG d   1      -6.580  78.824 118.205  0.00  0.00     0.028 C 
ATOM     12  C   LIG d   1      -8.000  79.335 117.918  0.00  0.00     0.006 C 
ENDBRANCH   8  11
ENDBRANCH   7   8
ENDBRANCH   1   7
BRANCH   6  13
ATOM     13  N   LIG d   1      -5.253  74.376 115.660  0.00  0.00    -0.311 N 
ATOM     14  C   LIG d   1      -4.036  74.172 116.163  0.00  0.00     0.210 C 
ATOM     15  C   LIG d   1      -2.886  74.355 115.168  0.00  0.00     0.109 C 
ATOM     16  O   LIG d   1      -3.803  73.825 117.330  0.00  0.00    -0.276 OA
ATOM     17  H   LIG d   1      -5.352  74.623 114.694  0.00  0.00     0.149 HD
ENDBRANCH   6  13
BRANCH   5  18
ATOM     18  N   LIG d   1      -7.005  71.880 115.831  0.00  0.00     0.381 N 
ATOM     19  H   LIG d   1      -7.729  71.253 116.122  0.00  0.00    -0.090 HD
ATOM     20  H   LIG d   1      -6.241  71.801 116.479  0.00  0.00    -0.090 HD
ATOM     21  H   LIG d   1      -6.699  71.642 114.914  0.00  0.00    -0.090 HD
ENDBRANCH   5  18
BRANCH   3  22
ATOM     22  C   LIG d   1     -10.671  74.715 117.040  0.00  0.00     0.382 C 
ATOM     23  O   LIG d   1     -11.137  75.752 117.571  0.00  0.00    -0.241 OA
ATOM     24  O   LIG d   1     -11.444  73.804 116.690  0.00  0.00    -0.241 OA
ENDBRANCH   3  22
TORSDOF 7
ENDMDL
MODEL 4
REMARK VINA RESULT:      -5.3      2.339      4.493
REMARK  7 active torsions:
REMARK  status: ('A' for Active; 'I' for Inactive)
REMARK    1  A    between atoms: C_2  and  C_3 
REMARK    2  A    between atoms: C_3  and  O_6 
REMARK    3  A    between atoms: C_3  and  C_4 
REMARK    4  A    between atoms: C_7  and  O_6 
REMARK    5  A    between atoms: C_9  and  C_10 
REMARK    6  A    between atoms: N_15  and  C_14 
REMARK    7  A    between atoms: N_20  and  C_19 
REMARK       I    between atoms: C_22  and  N_20 
ROOT
ATOM      1  C   LIG d   1      -7.346  76.222 116.709  0.00  0.00     0.161 C 
ATOM      2  C   LIG d   1      -6.771  77.469 117.005  0.00  0.00     0.016 C 
ATOM      3  C   LIG d   1      -7.422  78.465 117.768  0.00  0.00     0.038 C 
ATOM      4  C   LIG d   1      -8.641  78.221 118.420  0.00  0.00     0.028 C 
ATOM      5  C   LIG d   1      -9.492  77.157 117.735  0.00  0.00    -0.047 C 
ATOM      6  C   LIG d   1      -8.628  75.896 117.504  0.00  0.00     0.091 C 
ENDROOT
BRANCH   1   7
ATOM      7  O   LIG d   1      -6.368  75.178 116.886  0.00  0.00    -0.368 OA
BRANCH   7   8
ATOM      8  C   LIG d   1      -5.340  75.089 115.869  0.00  0.00     0.119 C 
BRANCH   8   9
ATOM      9  C   LIG d   1      -5.882  74.190 114.741  0.00  0.00     0.028 C 
ATOM     10  C   LIG d   1      -6.538  72.907 115.276  0.00  0.00     0.006 C 
ENDBRANCH   8   9
BRANCH   8  11
ATOM     11  C   LIG d   1      -4.095  74.371 116.397  0.00  0.00     0.028 C 
ATOM     12  C   LIG d   1      -2.938  74.362 115.386  0.00  0.00     0.006 C 
ENDBRANCH   8  11
ENDBRANCH   7   8
ENDBRANCH   1   7
BRANCH   6  13
ATOM     13  N   LIG d   1      -9.360  74.836 116.763  0.00  0.00    -0.311 N 
ATOM     14  C   LIG d   1      -9.563  73.611 117.245  0.00  0.00     0.210 C 
ATOM     15  C   LIG d   1     -10.323  72.665 116.310  0.00  0.00     0.109 C 
ATOM     16  O   LIG d   1      -9.213  73.227 118.372  0.00  0.00    -0.276 OA
ATOM     17  H   LIG d   1      -9.705  75.071 115.853  0.00  0.00     0.149 HD
ENDBRANCH   6  13
BRANCH   5  18
ATOM     18  N   LIG d   1     -10.665  76.905 118.592  0.00  0.00     0.381 N 
ATOM     19  H   LIG d   1     -10.394  76.362 119.387  0.00  0.00    -0.090 HD
ATOM     20  H   LIG d   1     -11.344  76.380 118.069  0.00  0.00    -0.090 HD
ATOM     21  H   LIG d   1     -11.062  77.769 118.890  0.00  0.00    -0.090 HD
ENDBRANCH   5  18
BRANCH   3  22
ATOM     22  C   LIG d   1      -6.873  79.735 117.853  0.00  0.00     0.382 C 
ATOM     23  O   LIG d   1      -7.400  80.689 117.233  0.00  0.00    -0.241 OA
ATOM     24  O   LIG d   1      -5.830  79.930 118.507  0.00  0.00    -0.241 OA
ENDBRANCH   3  22
TORSDOF 7
ENDMDL
MODEL 5
REMARK VINA RESULT:      -5.2      2.191      5.285
REMARK  7 active torsions:
REMARK  status: ('A' for Active; 'I' for Inactive)
REMARK    1  A    between atoms: C_2  and  C_3 
REMARK    2  A    between atoms: C_3  and  O_6 
REMARK    3  A    between atoms: C_3  and  C_4 
REMARK    4  A    between atoms: C_7  and  O_6 
REMARK    5  A    between atoms: C_9  and  C_10 
REMARK    6  A    between atoms: N_15  and  C_14 
REMARK    7  A    between atoms: N_20  and  C_19 
REMARK       I    between atoms: C_22  and  N_20 
ROOT
ATOM      1  C   LIG d   1      -5.885  74.584 116.343  0.00  0.00     0.161 C 
ATOM      2  C   LIG d   1      -6.713  73.495 116.022  0.00  0.00     0.016 C 
ATOM      3  C   LIG d   1      -8.094  73.454 116.320  0.00  0.00     0.038 C 
ATOM      4  C   LIG d   1      -8.776  74.569 116.829  0.00  0.00     0.028 C 
ATOM      5  C   LIG d   1      -7.886  75.508 117.635  0.00  0.00    -0.047 C 
ATOM      6  C   LIG d   1      -6.633  75.854 116.798  0.00  0.00     0.091 C 
ENDROOT
BRANCH   1   7
ATOM      7  O   LIG d   1      -5.019  74.884 115.231  0.00  0.00    -0.368 OA
BRANCH   7   8
ATOM      8  C   LIG d   1      -3.653  74.413 115.341  0.00  0.00     0.119 C 
BRANCH   8   9
ATOM      9  C   LIG d   1      -3.441  73.944 116.794  0.00  0.00     0.028 C 
ATOM     10  C   LIG d   1      -2.037  73.359 117.022  0.00  0.00     0.006 C 
ENDBRANCH   8   9
BRANCH   8  11
ATOM     11  C   LIG d   1      -2.652  75.552 115.132  0.00  0.00     0.028 C 
ATOM     12  C   LIG d   1      -3.323  76.861 114.687  0.00  0.00     0.006 C 
ENDBRANCH   8  11
ENDBRANCH   7   8
ENDBRANCH   1   7
BRANCH   6  13
ATOM     13  N   LIG d   1      -5.668  76.701 117.545  0.00  0.00    -0.311 N 
ATOM     14  C   LIG d   1      -5.656  78.032 117.478  0.00  0.00     0.210 C 
ATOM     15  C   LIG d   1      -4.565  78.711 118.312  0.00  0.00     0.109 C 
ATOM     16  O   LIG d   1      -6.465  78.715 116.833  0.00  0.00    -0.276 OA
ATOM     17  H   LIG d   1      -4.996  76.230 118.119  0.00  0.00     0.149 HD
ENDBRANCH   6  13
BRANCH   5  18
ATOM     18  N   LIG d   1      -8.691  76.693 117.988  0.00  0.00     0.381 N 
ATOM     19  H   LIG d   1      -8.162  77.524 117.818  0.00  0.00    -0.090 HD
ATOM     20  H   LIG d   1      -8.914  76.655 118.967  0.00  0.00    -0.090 HD
ATOM     21  H   LIG d   1      -9.529  76.708 117.449  0.00  0.00    -0.090 HD
ENDBRANCH   5  18
BRANCH   3  22
ATOM     22  C   LIG d   1      -8.799  72.272 116.147  0.00  0.00     0.382 C 
ATOM     23  O   LIG d   1     -10.054  72.283 116.166  0.00  0.00    -0.241 OA
ATOM     24  O   LIG d   1      -8.197  71.190 116.016  0.00  0.00    -0.241 OA
ENDBRANCH   3  22
TORSDOF 7
ENDMDL
MODEL 6
REMARK VINA RESULT:      -5.0      2.434      5.439
REMARK  7 active torsions:
REMARK  status: ('A' for Active; 'I' for Inactive)
REMARK    1  A    between atoms: C_2  and  C_3 
REMARK    2  A    between atoms: C_3  and  O_6 
REMARK    3  A    between atoms: C_3  and  C_4 
REMARK    4  A    between atoms: C_7  and  O_6 
REMARK    5  A    between atoms: C_9  and  C_10 
REMARK    6  A    between atoms: N_15  and  C_14 
REMARK    7  A    between atoms: N_20  and  C_19 
REMARK       I    between atoms: C_22  and  N_20 
ROOT
ATOM      1  C   LIG d   1      -6.785  77.265 117.061  0.00  0.00     0.161 C 
ATOM      2  C   LIG d   1      -7.678  76.185 116.964  0.00  0.00     0.016 C 
ATOM      3  C   LIG d   1      -8.992  76.212 117.486  0.00  0.00     0.038 C 
ATOM      4  C   LIG d   1      -9.556  77.383 118.013  0.00  0.00     0.028 C 
ATOM      5  C   LIG d   1      -8.525  78.348 118.588  0.00  0.00    -0.047 C 
ATOM      6  C   LIG d   1      -7.421  78.589 117.533  0.00  0.00     0.091 C 
ENDROOT
BRANCH   1   7
ATOM      7  O   LIG d   1      -6.108  77.455 115.803  0.00  0.00    -0.368 OA
BRANCH   7   8
ATOM      8  C   LIG d   1      -5.000  76.561 115.534  0.00  0.00     0.119 C 
BRANCH   8   9
ATOM      9  C   LIG d   1      -3.753  77.431 115.287  0.00  0.00     0.028 C 
ATOM     10  C   LIG d   1      -2.959  76.981 114.050  0.00  0.00     0.006 C 
ENDBRANCH   8   9
BRANCH   8  11
ATOM     11  C   LIG d   1      -5.215  75.782 114.233  0.00  0.00     0.028 C 
ATOM     12  C   LIG d   1      -5.571  74.306 114.474  0.00  0.00     0.006 C 
ENDBRANCH   8  11
ENDBRANCH   7   8
ENDBRANCH   1   7
BRANCH   6  13
ATOM     13  N   LIG d   1      -6.327  79.456 118.046  0.00  0.00    -0.311 N 
ATOM     14  C   LIG d   1      -6.132  80.708 117.637  0.00  0.00     0.210 C 
ATOM     15  C   LIG d   1      -4.936  81.418 118.278  0.00  0.00     0.109 C 
ATOM     16  O   LIG d   1      -6.855  81.310 116.829  0.00  0.00    -0.276 OA
ATOM     17  H   LIG d   1      -5.712  79.058 118.728  0.00  0.00     0.149 HD
ENDBRANCH   6  13
BRANCH   5  18
ATOM     18  N   LIG d   1      -9.235  79.581 118.975  0.00  0.00     0.381 N 
ATOM     19  H   LIG d   1      -9.951  79.784 118.306  0.00  0.00    -0.090 HD
ATOM     20  H   LIG d   1      -8.582  80.345 118.979  0.00  0.00    -0.090 HD
ATOM     21  H   LIG d   1      -9.637  79.474 119.880  0.00  0.00    -0.090 HD
ENDBRANCH   5  18
BRANCH   3  22
ATOM     22  C   LIG d   1      -9.741  75.046 117.522  0.00  0.00     0.382 C 
ATOM     23  O   LIG d   1      -9.207  73.968 117.877  0.00  0.00    -0.241 OA
ATOM     24  O   LIG d   1     -10.933  75.050 117.160  0.00  0.00    -0.241 OA
ENDBRANCH   3  22
TORSDOF 7
ENDMDL
MODEL 7
REMARK VINA RESULT:      -5.0      2.224      5.247
REMARK  7 active torsions:
REMARK  status: ('A' for Active; 'I' for Inactive)
REMARK    1  A    between atoms: C_2  and  C_3 
REMARK    2  A    between atoms: C_3  and  O_6 
REMARK    3  A    between atoms: C_3  and  C_4 
REMARK    4  A    between atoms: C_7  and  O_6 
REMARK    5  A    between atoms: C_9  and  C_10 
REMARK    6  A    between atoms: N_15  and  C_14 
REMARK    7  A    between atoms: N_20  and  C_19 
REMARK       I    between atoms: C_22  and  N_20 
ROOT
ATOM      1  C   LIG d   1      -7.264  76.697 118.400  0.00  0.00     0.161 C 
ATOM      2  C   LIG d   1      -8.607  76.329 118.586  0.00  0.00     0.016 C 
ATOM      3  C   LIG d   1      -9.683  77.242 118.499  0.00  0.00     0.038 C 
ATOM      4  C   LIG d   1      -9.500  78.565 118.068  0.00  0.00     0.028 C 
ATOM      5  C   LIG d   1      -8.106  79.109 118.358  0.00  0.00    -0.047 C 
ATOM      6  C   LIG d   1      -7.055  78.112 117.820  0.00  0.00     0.091 C 
ENDROOT
BRANCH   1   7
ATOM      7  O   LIG d   1      -6.598  75.716 117.580  0.00  0.00    -0.368 OA
BRANCH   7   8
ATOM      8  C   LIG d   1      -7.235  75.402 116.317  0.00  0.00     0.119 C 
BRANCH   8   9
ATOM      9  C   LIG d   1      -7.176  73.873 116.137  0.00  0.00     0.028 C 
ATOM     10  C   LIG d   1      -8.480  73.181 116.567  0.00  0.00     0.006 C 
ENDBRANCH   8   9
BRANCH   8  11
ATOM     11  C   LIG d   1      -6.448  75.981 115.137  0.00  0.00     0.028 C 
ATOM     12  C   LIG d   1      -5.816  74.894 114.253  0.00  0.00     0.006 C 
ENDBRANCH   8  11
ENDBRANCH   7   8
ENDBRANCH   1   7
BRANCH   6  13
ATOM     13  N   LIG d   1      -5.664  78.527 118.137  0.00  0.00    -0.311 N 
ATOM     14  C   LIG d   1      -4.874  79.164 117.274  0.00  0.00     0.210 C 
ATOM     15  C   LIG d   1      -3.470  79.482 117.796  0.00  0.00     0.109 C 
ATOM     16  O   LIG d   1      -5.215  79.524 116.137  0.00  0.00    -0.276 OA
ATOM     17  H   LIG d   1      -5.317  78.302 119.049  0.00  0.00     0.149 HD
ENDBRANCH   6  13
BRANCH   5  18
ATOM     18  N   LIG d   1      -8.009  80.443 117.735  0.00  0.00     0.381 N 
ATOM     19  H   LIG d   1      -7.419  80.398 116.929  0.00  0.00    -0.090 HD
ATOM     20  H   LIG d   1      -7.596  81.080 118.393  0.00  0.00    -0.090 HD
ATOM     21  H   LIG d   1      -8.916  80.764 117.475  0.00  0.00    -0.090 HD
ENDBRANCH   5  18
BRANCH   3  22
ATOM     22  C   LIG d   1     -10.954  76.845 118.884  0.00  0.00     0.382 C 
ATOM     23  O   LIG d   1     -11.311  76.960 120.082  0.00  0.00    -0.241 OA
ATOM     24  O   LIG d   1     -11.733  76.332 118.059  0.00  0.00    -0.241 OA
ENDBRANCH   3  22
TORSDOF 7
ENDMDL
MODEL 8
REMARK VINA RESULT:      -4.9      2.068      5.395
REMARK  7 active torsions:
REMARK  status: ('A' for Active; 'I' for Inactive)
REMARK    1  A    between atoms: C_2  and  C_3 
REMARK    2  A    between atoms: C_3  and  O_6 
REMARK    3  A    between atoms: C_3  and  C_4 
REMARK    4  A    between atoms: C_7  and  O_6 
REMARK    5  A    between atoms: C_9  and  C_10 
REMARK    6  A    between atoms: N_15  and  C_14 
REMARK    7  A    between atoms: N_20  and  C_19 
REMARK       I    between atoms: C_22  and  N_20 
ROOT
ATOM      1  C   LIG d   1      -7.553  75.826 117.383  0.00  0.00     0.161 C 
ATOM      2  C   LIG d   1      -8.425  74.725 117.414  0.00  0.00     0.016 C 
ATOM      3  C   LIG d   1      -8.247  73.568 116.620  0.00  0.00     0.038 C 
ATOM      4  C   LIG d   1      -7.093  73.370 115.848  0.00  0.00     0.028 C 
ATOM      5  C   LIG d   1      -6.435  74.669 115.397  0.00  0.00    -0.047 C 
ATOM      6  C   LIG d   1      -6.229  75.581 116.629  0.00  0.00     0.091 C 
ENDROOT
BRANCH   1   7
ATOM      7  O   LIG d   1      -7.289  76.278 118.726  0.00  0.00    -0.368 OA
BRANCH   7   8
ATOM      8  C   LIG d   1      -7.945  77.506 119.125  0.00  0.00     0.119 C 
BRANCH   8   9
ATOM      9  C   LIG d   1      -9.212  77.119 119.912  0.00  0.00     0.028 C 
ATOM     10  C   LIG d   1     -10.499  77.350 119.102  0.00  0.00     0.006 C 
ENDBRANCH   8   9
BRANCH   8  11
ATOM     11  C   LIG d   1      -8.446  78.291 117.910  0.00  0.00     0.028 C 
ATOM     12  C   LIG d   1      -7.890  79.723 117.855  0.00  0.00     0.006 C 
ENDBRANCH   8  11
ENDBRANCH   7   8
ENDBRANCH   1   7
BRANCH   6  13
ATOM     13  N   LIG d   1      -5.667  76.907 116.265  0.00  0.00    -0.311 N 
ATOM     14  C   LIG d   1      -4.364  77.184 116.291  0.00  0.00     0.210 C 
ATOM     15  C   LIG d   1      -3.999  78.619 115.898  0.00  0.00     0.109 C 
ATOM     16  O   LIG d   1      -3.473  76.368 116.572  0.00  0.00    -0.276 OA
ATOM     17  H   LIG d   1      -6.316  77.619 115.994  0.00  0.00     0.149 HD
ENDBRANCH   6  13
BRANCH   5  18
ATOM     18  N   LIG d   1      -5.172  74.318 114.721  0.00  0.00     0.381 N 
ATOM     19  H   LIG d   1      -4.475  75.007 114.924  0.00  0.00    -0.090 HD
ATOM     20  H   LIG d   1      -5.326  74.310 113.728  0.00  0.00    -0.090 HD
ATOM     21  H   LIG d   1      -4.861  73.421 115.024  0.00  0.00    -0.090 HD
ENDBRANCH   5  18
BRANCH   3  22
ATOM     22  C   LIG d   1      -9.250  72.612 116.564  0.00  0.00     0.382 C 
ATOM     23  O   LIG d   1     -10.417  72.906 116.919  0.00  0.00    -0.241 OA
ATOM     24  O   LIG d   1      -8.993  71.448 116.205  0.00  0.00    -0.241 OA
ENDBRANCH   3  22
TORSDOF 7
ENDMDL
MODEL 9
REMARK VINA RESULT:      -4.7     11.748     13.977
REMARK  7 active torsions:
REMARK  status: ('A' for Active; 'I' for Inactive)
REMARK    1  A    between atoms: C_2  and  C_3 
REMARK    2  A    between atoms: C_3  and  O_6 
REMARK    3  A    between atoms: C_3  and  C_4 
REMARK    4  A    between atoms: C_7  and  O_6 
REMARK    5  A    between atoms: C_9  and  C_10 
REMARK    6  A    between atoms: N_15  and  C_14 
REMARK    7  A    between atoms: N_20  and  C_19 
REMARK       I    between atoms: C_22  and  N_20 
ROOT
ATOM      1  C   LIG d   1     -14.928  64.854 117.103  0.00  0.00     0.161 C 
ATOM      2  C   LIG d   1     -14.846  66.034 116.345  0.00  0.00     0.016 C 
ATOM      3  C   LIG d   1     -15.598  66.258 115.169  0.00  0.00     0.038 C 
ATOM      4  C   LIG d   1     -16.602  65.371 114.751  0.00  0.00     0.028 C 
ATOM      5  C   LIG d   1     -16.366  63.933 115.202  0.00  0.00    -0.047 C 
ATOM      6  C   LIG d   1     -16.098  63.923 116.725  0.00  0.00     0.091 C 
ENDROOT
BRANCH   1   7
ATOM      7  O   LIG d   1     -14.978  65.178 118.507  0.00  0.00    -0.368 OA
BRANCH   7   8
ATOM      8  C   LIG d   1     -15.427  66.515 118.837  0.00  0.00     0.119 C 
BRANCH   8   9
ATOM      9  C   LIG d   1     -14.746  66.918 120.160  0.00  0.00     0.028 C 
ATOM     10  C   LIG d   1     -13.241  67.184 119.988  0.00  0.00     0.006 C 
ENDBRANCH   8   9
BRANCH   8  11
ATOM     11  C   LIG d   1     -16.930  66.542 119.129  0.00  0.00     0.028 C 
ATOM     12  C   LIG d   1     -17.719  67.382 118.112  0.00  0.00     0.006 C 
ENDBRANCH   8  11
ENDBRANCH   7   8
ENDBRANCH   1   7
BRANCH   6  13
ATOM     13  N   LIG d   1     -15.775  62.565 117.234  0.00  0.00    -0.311 N 
ATOM     14  C   LIG d   1     -16.460  61.963 118.205  0.00  0.00     0.210 C 
ATOM     15  C   LIG d   1     -15.947  60.573 118.593  0.00  0.00     0.109 C 
ATOM     16  O   LIG d   1     -17.463  62.436 118.761  0.00  0.00    -0.276 OA
ATOM     17  H   LIG d   1     -14.995  62.095 116.818  0.00  0.00     0.149 HD
ENDBRANCH   6  13
BRANCH   5  18
ATOM     18  N   LIG d   1     -17.553  63.146 114.819  0.00  0.00     0.381 N 
ATOM     19  H   LIG d   1     -17.695  62.406 115.476  0.00  0.00    -0.090 HD
ATOM     20  H   LIG d   1     -17.394  62.738 113.914  0.00  0.00    -0.090 HD
ATOM     21  H   LIG d   1     -18.357  63.733 114.789  0.00  0.00    -0.090 HD
ENDBRANCH   5  18
BRANCH   3  22
ATOM     22  C   LIG d   1     -15.320  67.360 114.374  0.00  0.00     0.382 C 
ATOM     23  O   LIG d   1     -15.680  68.504 114.742  0.00  0.00    -0.241 OA
ATOM     24  O   LIG d   1     -14.754  67.219 113.274  0.00  0.00    -0.241 OA
ENDBRANCH   3  22
TORSDOF 7
ENDMDL
