MODEL 1
REMARK VINA RESULT:      -6.0      0.000      0.000
REMARK  7 active torsions:
REMARK  status: ('A' for Active; 'I' for Inactive)
REMARK    1  A    between atoms: C_2  and  C_3 
REMARK    2  A    between atoms: C_3  and  O_6 
REMARK    3  A    between atoms: C_3  and  C_4 
REMARK    4  A    between atoms: C_7  and  O_6 
REMARK    5  A    between atoms: C_9  and  C_10 
REMARK    6  A    between atoms: N_15  and  C_14 
REMARK    7  A    between atoms: N_20  and  C_19 
REMARK       I    between atoms: C_22  and  N_20 
ROOT
ATOM      1  C   LIG d   1      -7.964  75.304 117.658  0.00  0.00     0.161 C 
ATOM      2  C   LIG d   1      -9.313  75.529 117.979  0.00  0.00     0.016 C 
ATOM      3  C   LIG d   1      -9.820  76.790 118.369  0.00  0.00     0.038 C 
ATOM      4  C   LIG d   1      -9.037  77.953 118.318  0.00  0.00     0.028 C 
ATOM      5  C   LIG d   1      -7.545  77.685 118.485  0.00  0.00    -0.047 C 
ATOM      6  C   LIG d   1      -7.117  76.583 117.489  0.00  0.00     0.091 C 
ENDROOT
BRANCH   1   7
ATOM      7  O   LIG d   1      -7.873  74.484 116.477  0.00  0.00    -0.368 OA
BRANCH   7   8
ATOM      8  C   LIG d   1      -7.693  73.063 116.700  0.00  0.00     0.119 C 
BRANCH   8   9
ATOM      9  C   LIG d   1      -6.471  72.616 115.874  0.00  0.00     0.028 C 
ATOM     10  C   LIG d   1      -5.821  73.782 115.110  0.00  0.00     0.006 C 
ENDBRANCH   8   9
BRANCH   8  11
ATOM     11  C   LIG d   1      -8.873  72.259 116.146  0.00  0.00     0.028 C 
ATOM     12  C   LIG d   1      -9.059  70.909 116.856  0.00  0.00     0.006 C 
ENDBRANCH   8  11
ENDBRANCH   7   8
ENDBRANCH   1   7
BRANCH   6  13
ATOM     13  N   LIG d   1      -5.689  76.202 117.645  0.00  0.00    -0.311 N 
ATOM     14  C   LIG d   1      -4.702  76.753 116.941  0.00  0.00     0.210 C 
ATOM     15  C   LIG d   1      -3.306  76.200 117.243  0.00  0.00     0.109 C 
ATOM     16  O   LIG d   1      -4.847  77.669 116.118  0.00  0.00    -0.276 OA
ATOM     17  H   LIG d   1      -5.478  75.487 118.314  0.00  0.00     0.149 HD
ENDBRANCH   6  13
BRANCH   5  18
ATOM     18  N   LIG d   1      -6.837  78.962 118.274  0.00  0.00     0.381 N 
ATOM     19  H   LIG d   1      -7.395  79.719 118.614  0.00  0.00    -0.090 HD
ATOM     20  H   LIG d   1      -6.693  79.095 117.288  0.00  0.00    -0.090 HD
ATOM     21  H   LIG d   1      -5.960  78.948 118.747  0.00  0.00    -0.090 HD
ENDBRANCH   5  18
BRANCH   3  22
ATOM     22  C   LIG d   1     -11.115  76.889 118.854  0.00  0.00     0.382 C 
ATOM     23  O   LIG d   1     -12.041  76.244 118.306  0.00  0.00    -0.241 OA
ATOM     24  O   LIG d   1     -11.377  77.651 119.804  0.00  0.00    -0.241 OA
ENDBRANCH   3  22
TORSDOF 7
ENDMDL
MODEL 2
REMARK VINA RESULT:      -5.9      2.243      5.425
REMARK  7 active torsions:
REMARK  status: ('A' for Active; 'I' for Inactive)
REMARK    1  A    between atoms: C_2  and  C_3 
REMARK    2  A    between atoms: C_3  and  O_6 
REMARK    3  A    between atoms: C_3  and  C_4 
REMARK    4  A    between atoms: C_7  and  O_6 
REMARK    5  A    between atoms: C_9  and  C_10 
REMARK    6  A    between atoms: N_15  and  C_14 
REMARK    7  A    between atoms: N_20  and  C_19 
REMARK       I    between atoms: C_22  and  N_20 
ROOT
ATOM      1  C   LIG d   1      -5.806  74.836 116.306  0.00  0.00     0.161 C 
ATOM      2  C   LIG d   1      -4.581  74.401 115.774  0.00  0.00     0.016 C 
ATOM      3  C   LIG d   1      -3.363  75.096 115.955  0.00  0.00     0.038 C 
ATOM      4  C   LIG d   1      -3.261  76.200 116.814  0.00  0.00     0.028 C 
ATOM      5  C   LIG d   1      -4.567  76.971 116.969  0.00  0.00    -0.047 C 
ATOM      6  C   LIG d   1      -5.694  75.978 117.337  0.00  0.00     0.091 C 
ENDROOT
BRANCH   1   7
ATOM      7  O   LIG d   1      -6.518  73.718 116.872  0.00  0.00    -0.368 OA
BRANCH   7   8
ATOM      8  C   LIG d   1      -7.640  73.221 116.102  0.00  0.00     0.119 C 
BRANCH   8   9
ATOM      9  C   LIG d   1      -8.926  73.579 116.873  0.00  0.00     0.028 C 
ATOM     10  C   LIG d   1      -9.706  74.729 116.213  0.00  0.00     0.006 C 
ENDBRANCH   8   9
BRANCH   8  11
ATOM     11  C   LIG d   1      -7.628  71.692 116.022  0.00  0.00     0.028 C 
ATOM     12  C   LIG d   1      -8.806  71.046 116.767  0.00  0.00     0.006 C 
ENDBRANCH   8  11
ENDBRANCH   7   8
ENDBRANCH   1   7
BRANCH   6  13
ATOM     13  N   LIG d   1      -7.023  76.637 117.425  0.00  0.00    -0.311 N 
ATOM     14  C   LIG d   1      -7.536  77.104 118.562  0.00  0.00     0.210 C 
ATOM     15  C   LIG d   1      -8.929  77.729 118.435  0.00  0.00     0.109 C 
ATOM     16  O   LIG d   1      -6.957  77.089 119.659  0.00  0.00    -0.276 OA
ATOM     17  H   LIG d   1      -7.549  76.720 116.577  0.00  0.00     0.149 HD
ENDBRANCH   6  13
BRANCH   5  18
ATOM     18  N   LIG d   1      -4.354  78.009 117.994  0.00  0.00     0.381 N 
ATOM     19  H   LIG d   1      -4.164  78.887 117.553  0.00  0.00    -0.090 HD
ATOM     20  H   LIG d   1      -3.556  77.757 118.550  0.00  0.00    -0.090 HD
ATOM     21  H   LIG d   1      -5.160  78.088 118.573  0.00  0.00    -0.090 HD
ENDBRANCH   5  18
BRANCH   3  22
ATOM     22  C   LIG d   1      -2.239  74.709 115.241  0.00  0.00     0.382 C 
ATOM     23  O   LIG d   1      -1.425  73.898 115.744  0.00  0.00    -0.241 OA
ATOM     24  O   LIG d   1      -2.005  75.196 114.119  0.00  0.00    -0.241 OA
ENDBRANCH   3  22
TORSDOF 7
ENDMDL
MODEL 3
REMARK VINA RESULT:      -5.3      4.117      6.950
REMARK  7 active torsions:
REMARK  status: ('A' for Active; 'I' for Inactive)
REMARK    1  A    between atoms: C_2  and  C_3 
REMARK    2  A    between atoms: C_3  and  O_6 
REMARK    3  A    between atoms: C_3  and  C_4 
REMARK    4  A    between atoms: C_7  and  O_6 
REMARK    5  A    between atoms: C_9  and  C_10 
REMARK    6  A    between atoms: N_15  and  C_14 
REMARK    7  A    between atoms: N_20  and  C_19 
REMARK       I    between atoms: C_22  and  N_20 
ROOT
ATOM      1  C   LIG d   1      -3.013  76.766 116.242  0.00  0.00     0.161 C 
ATOM      2  C   LIG d   1      -3.309  77.769 115.303  0.00  0.00     0.016 C 
ATOM      3  C   LIG d   1      -2.389  78.219 114.329  0.00  0.00     0.038 C 
ATOM      4  C   LIG d   1      -1.153  77.586 114.128  0.00  0.00     0.028 C 
ATOM      5  C   LIG d   1      -0.611  76.904 115.380  0.00  0.00    -0.047 C 
ATOM      6  C   LIG d   1      -1.709  75.988 115.967  0.00  0.00     0.091 C 
ENDROOT
BRANCH   1   7
ATOM      7  O   LIG d   1      -4.126  75.857 116.352  0.00  0.00    -0.368 OA
BRANCH   7   8
ATOM      8  C   LIG d   1      -5.326  76.227 115.630  0.00  0.00     0.119 C 
BRANCH   8   9
ATOM      9  C   LIG d   1      -6.491  76.229 116.638  0.00  0.00     0.028 C 
ATOM     10  C   LIG d   1      -7.788  75.660 116.037  0.00  0.00     0.006 C 
ENDBRANCH   8   9
BRANCH   8  11
ATOM     11  C   LIG d   1      -5.695  75.170 114.584  0.00  0.00     0.028 C 
ATOM     12  C   LIG d   1      -5.520  75.672 113.142  0.00  0.00     0.006 C 
ENDBRANCH   8  11
ENDBRANCH   7   8
ENDBRANCH   1   7
BRANCH   6  13
ATOM     13  N   LIG d   1      -1.292  75.346 117.241  0.00  0.00    -0.311 N 
ATOM     14  C   LIG d   1      -0.738  74.136 117.305  0.00  0.00     0.210 C 
ATOM     15  C   LIG d   1      -0.401  73.654 118.720  0.00  0.00     0.109 C 
ATOM     16  O   LIG d   1      -0.465  73.430 116.323  0.00  0.00    -0.276 OA
ATOM     17  H   LIG d   1      -1.448  75.862 118.084  0.00  0.00     0.149 HD
ENDBRANCH   6  13
BRANCH   5  18
ATOM     18  N   LIG d   1       0.609  76.170 114.995  0.00  0.00     0.381 N 
ATOM     19  H   LIG d   1       0.484  75.192 115.164  0.00  0.00    -0.090 HD
ATOM     20  H   LIG d   1       1.374  76.492 115.562  0.00  0.00    -0.090 HD
ATOM     21  H   LIG d   1       0.811  76.326 114.032  0.00  0.00    -0.090 HD
ENDBRANCH   5  18
BRANCH   3  22
ATOM     22  C   LIG d   1      -2.686  79.340 113.569  0.00  0.00     0.382 C 
ATOM     23  O   LIG d   1      -2.455  79.340 112.335  0.00  0.00    -0.241 OA
ATOM     24  O   LIG d   1      -3.140  80.366 114.108  0.00  0.00    -0.241 OA
ENDBRANCH   3  22
TORSDOF 7
ENDMDL
MODEL 4
REMARK VINA RESULT:      -5.2      2.666      5.980
REMARK  7 active torsions:
REMARK  status: ('A' for Active; 'I' for Inactive)
REMARK    1  A    between atoms: C_2  and  C_3 
REMARK    2  A    between atoms: C_3  and  O_6 
REMARK    3  A    between atoms: C_3  and  C_4 
REMARK    4  A    between atoms: C_7  and  O_6 
REMARK    5  A    between atoms: C_9  and  C_10 
REMARK    6  A    between atoms: N_15  and  C_14 
REMARK    7  A    between atoms: N_20  and  C_19 
REMARK       I    between atoms: C_22  and  N_20 
ROOT
ATOM      1  C   LIG d   1      -4.656  75.416 116.169  0.00  0.00     0.161 C 
ATOM      2  C   LIG d   1      -3.561  74.637 115.759  0.00  0.00     0.016 C 
ATOM      3  C   LIG d   1      -2.247  74.826 116.244  0.00  0.00     0.038 C 
ATOM      4  C   LIG d   1      -1.964  75.714 117.292  0.00  0.00     0.028 C 
ATOM      5  C   LIG d   1      -2.947  76.876 117.383  0.00  0.00    -0.047 C 
ATOM      6  C   LIG d   1      -4.388  76.315 117.393  0.00  0.00     0.091 C 
ENDROOT
BRANCH   1   7
ATOM      7  O   LIG d   1      -5.796  74.567 116.411  0.00  0.00    -0.368 OA
BRANCH   7   8
ATOM      8  C   LIG d   1      -6.721  74.411 115.307  0.00  0.00     0.119 C 
BRANCH   8   9
ATOM      9  C   LIG d   1      -6.868  75.787 114.629  0.00  0.00     0.028 C 
ATOM     10  C   LIG d   1      -6.306  75.799 113.197  0.00  0.00     0.006 C 
ENDBRANCH   8   9
BRANCH   8  11
ATOM     11  C   LIG d   1      -8.124  74.051 115.802  0.00  0.00     0.028 C 
ATOM     12  C   LIG d   1      -8.257  72.569 116.189  0.00  0.00     0.006 C 
ENDBRANCH   8  11
ENDBRANCH   7   8
ENDBRANCH   1   7
BRANCH   6  13
ATOM     13  N   LIG d   1      -5.414  77.390 117.396  0.00  0.00    -0.311 N 
ATOM     14  C   LIG d   1      -6.479  77.385 118.196  0.00  0.00     0.210 C 
ATOM     15  C   LIG d   1      -7.424  78.578 118.023  0.00  0.00     0.109 C 
ATOM     16  O   LIG d   1      -6.713  76.522 119.056  0.00  0.00    -0.276 OA
ATOM     17  H   LIG d   1      -5.286  78.145 116.751  0.00  0.00     0.149 HD
ENDBRANCH   6  13
BRANCH   5  18
ATOM     18  N   LIG d   1      -2.618  77.645 118.598  0.00  0.00     0.381 N 
ATOM     19  H   LIG d   1      -3.197  77.345 119.357  0.00  0.00    -0.090 HD
ATOM     20  H   LIG d   1      -2.802  78.618 118.427  0.00  0.00    -0.090 HD
ATOM     21  H   LIG d   1      -1.658  77.517 118.833  0.00  0.00    -0.090 HD
ENDBRANCH   5  18
BRANCH   3  22
ATOM     22  C   LIG d   1      -1.192  74.150 115.651  0.00  0.00     0.382 C 
ATOM     23  O   LIG d   1      -0.427  73.443 116.351  0.00  0.00    -0.241 OA
ATOM     24  O   LIG d   1      -0.967  74.273 114.432  0.00  0.00    -0.241 OA
ENDBRANCH   3  22
TORSDOF 7
ENDMDL
MODEL 5
REMARK VINA RESULT:      -5.2      2.639      4.790
REMARK  7 active torsions:
REMARK  status: ('A' for Active; 'I' for Inactive)
REMARK    1  A    between atoms: C_2  and  C_3 
REMARK    2  A    between atoms: C_3  and  O_6 
REMARK    3  A    between atoms: C_3  and  C_4 
REMARK    4  A    between atoms: C_7  and  O_6 
REMARK    5  A    between atoms: C_9  and  C_10 
REMARK    6  A    between atoms: N_15  and  C_14 
REMARK    7  A    between atoms: N_20  and  C_19 
REMARK       I    between atoms: C_22  and  N_20 
ROOT
ATOM      1  C   LIG d   1      -5.445  75.040 116.059  0.00  0.00     0.161 C 
ATOM      2  C   LIG d   1      -6.180  73.885 115.742  0.00  0.00     0.016 C 
ATOM      3  C   LIG d   1      -7.486  73.638 116.223  0.00  0.00     0.038 C 
ATOM      4  C   LIG d   1      -8.210  74.606 116.936  0.00  0.00     0.028 C 
ATOM      5  C   LIG d   1      -7.324  75.579 117.706  0.00  0.00    -0.047 C 
ATOM      6  C   LIG d   1      -6.260  76.157 116.744  0.00  0.00     0.091 C 
ENDROOT
BRANCH   1   7
ATOM      7  O   LIG d   1      -4.797  75.547 114.876  0.00  0.00    -0.368 OA
BRANCH   7   8
ATOM      8  C   LIG d   1      -3.419  75.144 114.681  0.00  0.00     0.119 C 
BRANCH   8   9
ATOM      9  C   LIG d   1      -2.818  74.866 116.073  0.00  0.00     0.028 C 
ATOM     10  C   LIG d   1      -1.373  74.346 115.994  0.00  0.00     0.006 C 
ENDBRANCH   8   9
BRANCH   8  11
ATOM     11  C   LIG d   1      -2.582  76.286 114.098  0.00  0.00     0.028 C 
ATOM     12  C   LIG d   1      -2.891  77.644 114.748  0.00  0.00     0.006 C 
ENDBRANCH   8  11
ENDBRANCH   7   8
ENDBRANCH   1   7
BRANCH   6  13
ATOM     13  N   LIG d   1      -5.299  77.055 117.436  0.00  0.00    -0.311 N 
ATOM     14  C   LIG d   1      -5.485  78.368 117.565  0.00  0.00     0.210 C 
ATOM     15  C   LIG d   1      -4.362  79.111 118.296  0.00  0.00     0.109 C 
ATOM     16  O   LIG d   1      -6.489  78.982 117.173  0.00  0.00    -0.276 OA
ATOM     17  H   LIG d   1      -4.472  76.635 117.812  0.00  0.00     0.149 HD
ENDBRANCH   6  13
BRANCH   5  18
ATOM     18  N   LIG d   1      -8.199  76.613 118.289  0.00  0.00     0.381 N 
ATOM     19  H   LIG d   1      -7.803  76.951 119.143  0.00  0.00    -0.090 HD
ATOM     20  H   LIG d   1      -9.093  76.203 118.496  0.00  0.00    -0.090 HD
ATOM     21  H   LIG d   1      -8.312  77.366 117.646  0.00  0.00    -0.090 HD
ENDBRANCH   5  18
BRANCH   3  22
ATOM     22  C   LIG d   1      -8.067  72.394 116.026  0.00  0.00     0.382 C 
ATOM     23  O   LIG d   1      -7.345  71.394 115.801  0.00  0.00    -0.241 OA
ATOM     24  O   LIG d   1      -9.306  72.269 116.025  0.00  0.00    -0.241 OA
ENDBRANCH   3  22
TORSDOF 7
ENDMDL
MODEL 6
REMARK VINA RESULT:      -5.2      2.009      4.397
REMARK  7 active torsions:
REMARK  status: ('A' for Active; 'I' for Inactive)
REMARK    1  A    between atoms: C_2  and  C_3 
REMARK    2  A    between atoms: C_3  and  O_6 
REMARK    3  A    between atoms: C_3  and  C_4 
REMARK    4  A    between atoms: C_7  and  O_6 
REMARK    5  A    between atoms: C_9  and  C_10 
REMARK    6  A    between atoms: N_15  and  C_14 
REMARK    7  A    between atoms: N_20  and  C_19 
REMARK       I    between atoms: C_22  and  N_20 
ROOT
ATOM      1  C   LIG d   1      -7.515  77.086 117.252  0.00  0.00     0.161 C 
ATOM      2  C   LIG d   1      -8.638  77.333 118.059  0.00  0.00     0.016 C 
ATOM      3  C   LIG d   1      -9.732  76.443 118.163  0.00  0.00     0.038 C 
ATOM      4  C   LIG d   1      -9.709  75.168 117.580  0.00  0.00     0.028 C 
ATOM      5  C   LIG d   1      -8.816  75.082 116.346  0.00  0.00    -0.047 C 
ATOM      6  C   LIG d   1      -7.421  75.649 116.696  0.00  0.00     0.091 C 
ENDROOT
BRANCH   1   7
ATOM      7  O   LIG d   1      -6.313  77.423 117.972  0.00  0.00    -0.368 OA
BRANCH   7   8
ATOM      8  C   LIG d   1      -5.563  78.555 117.465  0.00  0.00     0.119 C 
BRANCH   8   9
ATOM      9  C   LIG d   1      -4.186  78.032 117.012  0.00  0.00     0.028 C 
ATOM     10  C   LIG d   1      -3.781  76.739 117.739  0.00  0.00     0.006 C 
ENDBRANCH   8   9
BRANCH   8  11
ATOM     11  C   LIG d   1      -5.267  79.569 118.574  0.00  0.00     0.028 C 
ATOM     12  C   LIG d   1      -5.876  79.167 119.927  0.00  0.00     0.006 C 
ENDBRANCH   8  11
ENDBRANCH   7   8
ENDBRANCH   1   7
BRANCH   6  13
ATOM     13  N   LIG d   1      -6.511  75.680 115.522  0.00  0.00    -0.311 N 
ATOM     14  C   LIG d   1      -5.663  74.696 115.225  0.00  0.00     0.210 C 
ATOM     15  C   LIG d   1      -4.802  74.938 113.982  0.00  0.00     0.109 C 
ATOM     16  O   LIG d   1      -5.566  73.633 115.855  0.00  0.00    -0.276 OA
ATOM     17  H   LIG d   1      -6.547  76.493 114.938  0.00  0.00     0.149 HD
ENDBRANCH   6  13
BRANCH   5  18
ATOM     18  N   LIG d   1      -8.776  73.669 115.923  0.00  0.00     0.381 N 
ATOM     19  H   LIG d   1      -8.434  73.101 116.672  0.00  0.00    -0.090 HD
ATOM     20  H   LIG d   1      -8.145  73.580 115.146  0.00  0.00    -0.090 HD
ATOM     21  H   LIG d   1      -9.687  73.367 115.656  0.00  0.00    -0.090 HD
ENDBRANCH   5  18
BRANCH   3  22
ATOM     22  C   LIG d   1     -10.883  76.844 118.824  0.00  0.00     0.382 C 
ATOM     23  O   LIG d   1     -10.799  77.542 119.863  0.00  0.00    -0.241 OA
ATOM     24  O   LIG d   1     -12.004  76.481 118.419  0.00  0.00    -0.241 OA
ENDBRANCH   3  22
TORSDOF 7
ENDMDL
MODEL 7
REMARK VINA RESULT:      -5.2      1.971      4.842
REMARK  7 active torsions:
REMARK  status: ('A' for Active; 'I' for Inactive)
REMARK    1  A    between atoms: C_2  and  C_3 
REMARK    2  A    between atoms: C_3  and  O_6 
REMARK    3  A    between atoms: C_3  and  C_4 
REMARK    4  A    between atoms: C_7  and  O_6 
REMARK    5  A    between atoms: C_9  and  C_10 
REMARK    6  A    between atoms: N_15  and  C_14 
REMARK    7  A    between atoms: N_20  and  C_19 
REMARK       I    between atoms: C_22  and  N_20 
ROOT
ATOM      1  C   LIG d   1      -7.468  75.808 116.989  0.00  0.00     0.161 C 
ATOM      2  C   LIG d   1      -8.133  74.584 116.806  0.00  0.00     0.016 C 
ATOM      3  C   LIG d   1      -7.486  73.403 116.375  0.00  0.00     0.038 C 
ATOM      4  C   LIG d   1      -6.091  73.329 116.241  0.00  0.00     0.028 C 
ATOM      5  C   LIG d   1      -5.440  74.672 115.928  0.00  0.00    -0.047 C 
ATOM      6  C   LIG d   1      -5.928  75.718 116.956  0.00  0.00     0.091 C 
ENDROOT
BRANCH   1   7
ATOM      7  O   LIG d   1      -7.908  76.424 118.216  0.00  0.00    -0.368 OA
BRANCH   7   8
ATOM      8  C   LIG d   1      -8.830  77.533 118.077  0.00  0.00     0.119 C 
BRANCH   8   9
ATOM      9  C   LIG d   1      -8.122  78.794 118.609  0.00  0.00     0.028 C 
ATOM     10  C   LIG d   1      -7.460  78.561 119.978  0.00  0.00     0.006 C 
ENDBRANCH   8   9
BRANCH   8  11
ATOM     11  C   LIG d   1     -10.060  77.350 118.972  0.00  0.00     0.028 C 
ATOM     12  C   LIG d   1     -11.023  76.272 118.449  0.00  0.00     0.006 C 
ENDBRANCH   8  11
ENDBRANCH   7   8
ENDBRANCH   1   7
BRANCH   6  13
ATOM     13  N   LIG d   1      -5.405  77.080 116.671  0.00  0.00    -0.311 N 
ATOM     14  C   LIG d   1      -4.686  77.786 117.542  0.00  0.00     0.210 C 
ATOM     15  C   LIG d   1      -4.262  79.175 117.055  0.00  0.00     0.109 C 
ATOM     16  O   LIG d   1      -4.332  77.381 118.660  0.00  0.00    -0.276 OA
ATOM     17  H   LIG d   1      -5.618  77.472 115.775  0.00  0.00     0.149 HD
ENDBRANCH   6  13
BRANCH   5  18
ATOM     18  N   LIG d   1      -3.979  74.475 115.953  0.00  0.00     0.381 N 
ATOM     19  H   LIG d   1      -3.532  75.182 115.403  0.00  0.00    -0.090 HD
ATOM     20  H   LIG d   1      -3.764  73.580 115.550  0.00  0.00    -0.090 HD
ATOM     21  H   LIG d   1      -3.645  74.514 116.891  0.00  0.00    -0.090 HD
ENDBRANCH   5  18
BRANCH   3  22
ATOM     22  C   LIG d   1      -8.240  72.291 116.033  0.00  0.00     0.382 C 
ATOM     23  O   LIG d   1      -9.471  72.410 115.822  0.00  0.00    -0.241 OA
ATOM     24  O   LIG d   1      -7.714  71.164 115.976  0.00  0.00    -0.241 OA
ENDBRANCH   3  22
TORSDOF 7
ENDMDL
MODEL 8
REMARK VINA RESULT:      -4.8     13.054     16.648
REMARK  7 active torsions:
REMARK  status: ('A' for Active; 'I' for Inactive)
REMARK    1  A    between atoms: C_2  and  C_3 
REMARK    2  A    between atoms: C_3  and  O_6 
REMARK    3  A    between atoms: C_3  and  C_4 
REMARK    4  A    between atoms: C_7  and  O_6 
REMARK    5  A    between atoms: C_9  and  C_10 
REMARK    6  A    between atoms: N_15  and  C_14 
REMARK    7  A    between atoms: N_20  and  C_19 
REMARK       I    between atoms: C_22  and  N_20 
ROOT
ATOM      1  C   LIG d   1       3.846  86.888 115.509  0.00  0.00     0.161 C 
ATOM      2  C   LIG d   1       4.208  88.140 114.987  0.00  0.00     0.016 C 
ATOM      3  C   LIG d   1       4.169  88.449 113.607  0.00  0.00     0.038 C 
ATOM      4  C   LIG d   1       3.616  87.567 112.666  0.00  0.00     0.028 C 
ATOM      5  C   LIG d   1       3.706  86.103 113.082  0.00  0.00    -0.047 C 
ATOM      6  C   LIG d   1       3.136  85.951 114.510  0.00  0.00     0.091 C 
ENDROOT
BRANCH   1   7
ATOM      7  O   LIG d   1       3.038  87.066 116.690  0.00  0.00    -0.368 OA
BRANCH   7   8
ATOM      8  C   LIG d   1       1.645  87.395 116.466  0.00  0.00     0.119 C 
BRANCH   8   9
ATOM      9  C   LIG d   1       1.422  88.833 116.973  0.00  0.00     0.028 C 
ATOM     10  C   LIG d   1       2.300  89.169 118.190  0.00  0.00     0.006 C 
ENDBRANCH   8   9
BRANCH   8  11
ATOM     11  C   LIG d   1       0.721  86.518 117.315  0.00  0.00     0.028 C 
ATOM     12  C   LIG d   1       1.485  85.456 118.123  0.00  0.00     0.006 C 
ENDBRANCH   8  11
ENDBRANCH   7   8
ENDBRANCH   1   7
BRANCH   6  13
ATOM     13  N   LIG d   1       3.263  84.563 115.027  0.00  0.00    -0.311 N 
ATOM     14  C   LIG d   1       2.284  83.662 114.957  0.00  0.00     0.210 C 
ATOM     15  C   LIG d   1       2.617  82.297 115.567  0.00  0.00     0.109 C 
ATOM     16  O   LIG d   1       1.184  83.854 114.418  0.00  0.00    -0.276 OA
ATOM     17  H   LIG d   1       4.134  84.312 115.451  0.00  0.00     0.149 HD
ENDBRANCH   6  13
BRANCH   5  18
ATOM     18  N   LIG d   1       2.973  85.309 112.078  0.00  0.00     0.381 N 
ATOM     19  H   LIG d   1       3.431  85.376 111.192  0.00  0.00    -0.090 HD
ATOM     20  H   LIG d   1       2.045  85.684 111.982  0.00  0.00    -0.090 HD
ATOM     21  H   LIG d   1       2.926  84.356 112.365  0.00  0.00    -0.090 HD
ENDBRANCH   5  18
BRANCH   3  22
ATOM     22  C   LIG d   1       4.722  89.636 113.153  0.00  0.00     0.382 C 
ATOM     23  O   LIG d   1       4.038  90.687 113.152  0.00  0.00    -0.241 OA
ATOM     24  O   LIG d   1       5.883  89.659 112.702  0.00  0.00    -0.241 OA
ENDBRANCH   3  22
TORSDOF 7
ENDMDL
MODEL 9
REMARK VINA RESULT:      -4.6      3.242      6.402
REMARK  7 active torsions:
REMARK  status: ('A' for Active; 'I' for Inactive)
REMARK    1  A    between atoms: C_2  and  C_3 
REMARK    2  A    between atoms: C_3  and  O_6 
REMARK    3  A    between atoms: C_3  and  C_4 
REMARK    4  A    between atoms: C_7  and  O_6 
REMARK    5  A    between atoms: C_9  and  C_10 
REMARK    6  A    between atoms: N_15  and  C_14 
REMARK    7  A    between atoms: N_20  and  C_19 
REMARK       I    between atoms: C_22  and  N_20 
ROOT
ATOM      1  C   LIG d   1      -4.188  76.120 116.237  0.00  0.00     0.161 C 
ATOM      2  C   LIG d   1      -3.269  75.154 115.794  0.00  0.00     0.016 C 
ATOM      3  C   LIG d   1      -1.991  74.974 116.370  0.00  0.00     0.038 C 
ATOM      4  C   LIG d   1      -1.601  75.651 117.536  0.00  0.00     0.028 C 
ATOM      5  C   LIG d   1      -2.298  76.996 117.717  0.00  0.00    -0.047 C 
ATOM      6  C   LIG d   1      -3.824  76.792 117.577  0.00  0.00     0.091 C 
ENDROOT
BRANCH   1   7
ATOM      7  O   LIG d   1      -5.507  75.543 116.307  0.00  0.00    -0.368 OA
BRANCH   7   8
ATOM      8  C   LIG d   1      -6.427  75.923 115.254  0.00  0.00     0.119 C 
BRANCH   8   9
ATOM      9  C   LIG d   1      -7.837  75.480 115.689  0.00  0.00     0.028 C 
ATOM     10  C   LIG d   1      -7.951  73.955 115.847  0.00  0.00     0.006 C 
ENDBRANCH   8   9
BRANCH   8  11
ATOM     11  C   LIG d   1      -6.141  75.154 113.961  0.00  0.00     0.028 C 
ATOM     12  C   LIG d   1      -6.077  76.068 112.727  0.00  0.00     0.006 C 
ENDBRANCH   8  11
ENDBRANCH   7   8
ENDBRANCH   1   7
BRANCH   6  13
ATOM     13  N   LIG d   1      -4.576  78.072 117.657  0.00  0.00    -0.311 N 
ATOM     14  C   LIG d   1      -5.088  78.552 118.789  0.00  0.00     0.210 C 
ATOM     15  C   LIG d   1      -5.844  79.877 118.647  0.00  0.00     0.109 C 
ATOM     16  O   LIG d   1      -4.960  78.022 119.904  0.00  0.00    -0.276 OA
ATOM     17  H   LIG d   1      -4.701  78.582 116.805  0.00  0.00     0.149 HD
ENDBRANCH   6  13
BRANCH   5  18
ATOM     18  N   LIG d   1      -1.904  77.528 119.035  0.00  0.00     0.381 N 
ATOM     19  H   LIG d   1      -2.598  77.292 119.716  0.00  0.00    -0.090 HD
ATOM     20  H   LIG d   1      -1.847  78.530 118.977  0.00  0.00    -0.090 HD
ATOM     21  H   LIG d   1      -1.022  77.153 119.304  0.00  0.00    -0.090 HD
ENDBRANCH   5  18
BRANCH   3  22
ATOM     22  C   LIG d   1      -1.072  74.137 115.757  0.00  0.00     0.382 C 
ATOM     23  O   LIG d   1      -0.991  74.105 114.505  0.00  0.00    -0.241 OA
ATOM     24  O   LIG d   1      -0.353  73.381 116.437  0.00  0.00    -0.241 OA
ENDBRANCH   3  22
TORSDOF 7
ENDMDL
