MODEL 1
REMARK VINA RESULT:      -5.4      0.000      0.000
REMARK  7 active torsions:
REMARK  status: ('A' for Active; 'I' for Inactive)
REMARK    1  A    between atoms: C_2  and  C_3 
REMARK    2  A    between atoms: C_3  and  O_6 
REMARK    3  A    between atoms: C_3  and  C_4 
REMARK    4  A    between atoms: C_7  and  O_6 
REMARK    5  A    between atoms: C_9  and  C_10 
REMARK    6  A    between atoms: N_15  and  C_14 
REMARK    7  A    between atoms: N_20  and  C_19 
REMARK       I    between atoms: C_22  and  N_20 
ROOT
ATOM      1  C   LIG d   1      -5.007  90.764 116.925  0.00  0.00     0.161 C 
ATOM      2  C   LIG d   1      -3.766  90.109 116.995  0.00  0.00     0.016 C 
ATOM      3  C   LIG d   1      -2.661  90.609 117.721  0.00  0.00     0.038 C 
ATOM      4  C   LIG d   1      -2.770  91.730 118.557  0.00  0.00     0.028 C 
ATOM      5  C   LIG d   1      -3.856  92.707 118.121  0.00  0.00    -0.047 C 
ATOM      6  C   LIG d   1      -5.178  91.931 117.920  0.00  0.00     0.091 C 
ENDROOT
BRANCH   1   7
ATOM      7  O   LIG d   1      -6.074  89.809 117.085  0.00  0.00    -0.368 OA
BRANCH   7   8
ATOM      8  C   LIG d   1      -7.191  89.943 116.173  0.00  0.00     0.119 C 
BRANCH   8   9
ATOM      9  C   LIG d   1      -8.095  88.709 116.363  0.00  0.00     0.028 C 
ATOM     10  C   LIG d   1      -8.985  88.439 115.138  0.00  0.00     0.006 C 
ENDBRANCH   8   9
BRANCH   8  11
ATOM     11  C   LIG d   1      -6.729  89.886 114.714  0.00  0.00     0.028 C 
ATOM     12  C   LIG d   1      -6.869  91.235 113.991  0.00  0.00     0.006 C 
ENDBRANCH   8  11
ENDBRANCH   7   8
ENDBRANCH   1   7
BRANCH   6  13
ATOM     13  N   LIG d   1      -6.273  92.798 117.413  0.00  0.00    -0.311 N 
ATOM     14  C   LIG d   1      -7.181  93.371 118.202  0.00  0.00     0.210 C 
ATOM     15  C   LIG d   1      -8.235  94.209 117.472  0.00  0.00     0.109 C 
ATOM     16  O   LIG d   1      -7.193  93.290 119.439  0.00  0.00    -0.276 OA
ATOM     17  H   LIG d   1      -6.319  92.943 116.423  0.00  0.00     0.149 HD
ENDBRANCH   6  13
BRANCH   5  18
ATOM     18  N   LIG d   1      -3.953  93.756 119.154  0.00  0.00     0.381 N 
ATOM     19  H   LIG d   1      -3.350  94.519 118.920  0.00  0.00    -0.090 HD
ATOM     20  H   LIG d   1      -3.651  93.375 120.034  0.00  0.00    -0.090 HD
ATOM     21  H   LIG d   1      -4.893  94.076 119.228  0.00  0.00    -0.090 HD
ENDBRANCH   5  18
BRANCH   3  22
ATOM     22  C   LIG d   1      -1.419  90.007 117.584  0.00  0.00     0.382 C 
ATOM     23  O   LIG d   1      -0.417  90.502 118.153  0.00  0.00    -0.241 OA
ATOM     24  O   LIG d   1      -1.281  89.001 116.863  0.00  0.00    -0.241 OA
ENDBRANCH   3  22
TORSDOF 7
ENDMDL
MODEL 2
REMARK VINA RESULT:      -5.2     11.739     13.630
REMARK  7 active torsions:
REMARK  status: ('A' for Active; 'I' for Inactive)
REMARK    1  A    between atoms: C_2  and  C_3 
REMARK    2  A    between atoms: C_3  and  O_6 
REMARK    3  A    between atoms: C_3  and  C_4 
REMARK    4  A    between atoms: C_7  and  O_6 
REMARK    5  A    between atoms: C_9  and  C_10 
REMARK    6  A    between atoms: N_15  and  C_14 
REMARK    7  A    between atoms: N_20  and  C_19 
REMARK       I    between atoms: C_22  and  N_20 
ROOT
ATOM      1  C   LIG d   1      -2.519  79.172 116.083  0.00  0.00     0.161 C 
ATOM      2  C   LIG d   1      -2.704  80.112 115.056  0.00  0.00     0.016 C 
ATOM      3  C   LIG d   1      -2.512  79.816 113.687  0.00  0.00     0.038 C 
ATOM      4  C   LIG d   1      -2.267  78.510 113.238  0.00  0.00     0.028 C 
ATOM      5  C   LIG d   1      -1.576  77.632 114.276  0.00  0.00    -0.047 C 
ATOM      6  C   LIG d   1      -2.361  77.713 115.605  0.00  0.00     0.091 C 
ENDROOT
BRANCH   1   7
ATOM      7  O   LIG d   1      -3.596  79.272 117.036  0.00  0.00    -0.368 OA
BRANCH   7   8
ATOM      8  C   LIG d   1      -4.014  80.614 117.387  0.00  0.00     0.119 C 
BRANCH   8   9
ATOM      9  C   LIG d   1      -3.299  80.994 118.699  0.00  0.00     0.028 C 
ATOM     10  C   LIG d   1      -2.102  81.930 118.465  0.00  0.00     0.006 C 
ENDBRANCH   8   9
BRANCH   8  11
ATOM     11  C   LIG d   1      -5.510  80.665 117.711  0.00  0.00     0.028 C 
ATOM     12  C   LIG d   1      -5.891  81.876 118.577  0.00  0.00     0.006 C 
ENDBRANCH   8  11
ENDBRANCH   7   8
ENDBRANCH   1   7
BRANCH   6  13
ATOM     13  N   LIG d   1      -1.705  76.950 116.698  0.00  0.00    -0.311 N 
ATOM     14  C   LIG d   1      -1.868  75.640 116.878  0.00  0.00     0.210 C 
ATOM     15  C   LIG d   1      -1.117  75.054 118.078  0.00  0.00     0.109 C 
ATOM     16  O   LIG d   1      -2.538  74.903 116.139  0.00  0.00    -0.276 OA
ATOM     17  H   LIG d   1      -1.119  77.465 117.326  0.00  0.00     0.149 HD
ENDBRANCH   6  13
BRANCH   5  18
ATOM     18  N   LIG d   1      -1.507  76.264 113.728  0.00  0.00     0.381 N 
ATOM     19  H   LIG d   1      -2.320  76.079 113.175  0.00  0.00    -0.090 HD
ATOM     20  H   LIG d   1      -1.489  75.609 114.490  0.00  0.00    -0.090 HD
ATOM     21  H   LIG d   1      -0.687  76.161 113.171  0.00  0.00    -0.090 HD
ENDBRANCH   5  18
BRANCH   3  22
ATOM     22  C   LIG d   1      -2.525  80.842 112.754  0.00  0.00     0.382 C 
ATOM     23  O   LIG d   1      -1.507  81.067 112.055  0.00  0.00    -0.241 OA
ATOM     24  O   LIG d   1      -3.526  81.573 112.633  0.00  0.00    -0.241 OA
ENDBRANCH   3  22
TORSDOF 7
ENDMDL
MODEL 3
REMARK VINA RESULT:      -5.2     10.174     12.036
REMARK  7 active torsions:
REMARK  status: ('A' for Active; 'I' for Inactive)
REMARK    1  A    between atoms: C_2  and  C_3 
REMARK    2  A    between atoms: C_3  and  O_6 
REMARK    3  A    between atoms: C_3  and  C_4 
REMARK    4  A    between atoms: C_7  and  O_6 
REMARK    5  A    between atoms: C_9  and  C_10 
REMARK    6  A    between atoms: N_15  and  C_14 
REMARK    7  A    between atoms: N_20  and  C_19 
REMARK       I    between atoms: C_22  and  N_20 
ROOT
ATOM      1  C   LIG d   1      -2.123  80.970 115.401  0.00  0.00     0.161 C 
ATOM      2  C   LIG d   1      -1.964  82.361 115.286  0.00  0.00     0.016 C 
ATOM      3  C   LIG d   1      -1.323  82.983 114.190  0.00  0.00     0.038 C 
ATOM      4  C   LIG d   1      -0.929  82.261 113.054  0.00  0.00     0.028 C 
ATOM      5  C   LIG d   1      -0.615  80.797 113.346  0.00  0.00    -0.047 C 
ATOM      6  C   LIG d   1      -1.799  80.174 114.119  0.00  0.00     0.091 C 
ENDROOT
BRANCH   1   7
ATOM      7  O   LIG d   1      -3.457  80.667 115.855  0.00  0.00    -0.368 OA
BRANCH   7   8
ATOM      8  C   LIG d   1      -3.575  80.206 117.223  0.00  0.00     0.119 C 
BRANCH   8   9
ATOM      9  C   LIG d   1      -4.624  79.077 117.242  0.00  0.00     0.028 C 
ATOM     10  C   LIG d   1      -5.806  79.390 118.175  0.00  0.00     0.006 C 
ENDBRANCH   8   9
BRANCH   8  11
ATOM     11  C   LIG d   1      -4.140  81.300 118.134  0.00  0.00     0.028 C 
ATOM     12  C   LIG d   1      -3.108  81.828 119.142  0.00  0.00     0.006 C 
ENDBRANCH   8  11
ENDBRANCH   7   8
ENDBRANCH   1   7
BRANCH   6  13
ATOM     13  N   LIG d   1      -1.538  78.767 114.518  0.00  0.00    -0.311 N 
ATOM     14  C   LIG d   1      -1.959  77.716 113.816  0.00  0.00     0.210 C 
ATOM     15  C   LIG d   1      -1.599  76.352 114.415  0.00  0.00     0.109 C 
ATOM     16  O   LIG d   1      -2.568  77.783 112.738  0.00  0.00    -0.276 OA
ATOM     17  H   LIG d   1      -1.023  78.620 115.364  0.00  0.00     0.149 HD
ENDBRANCH   6  13
BRANCH   5  18
ATOM     18  N   LIG d   1      -0.353  80.132 112.055  0.00  0.00     0.381 N 
ATOM     19  H   LIG d   1      -0.171  80.819 111.351  0.00  0.00    -0.090 HD
ATOM     20  H   LIG d   1      -1.170  79.613 111.786  0.00  0.00    -0.090 HD
ATOM     21  H   LIG d   1       0.427  79.518 112.141  0.00  0.00    -0.090 HD
ENDBRANCH   5  18
BRANCH   3  22
ATOM     22  C   LIG d   1      -1.034  84.338 114.242  0.00  0.00     0.382 C 
ATOM     23  O   LIG d   1       0.131  84.722 114.505  0.00  0.00    -0.241 OA
ATOM     24  O   LIG d   1      -1.934  85.183 114.072  0.00  0.00    -0.241 OA
ENDBRANCH   3  22
TORSDOF 7
ENDMDL
MODEL 4
REMARK VINA RESULT:      -5.2     10.644     12.862
REMARK  7 active torsions:
REMARK  status: ('A' for Active; 'I' for Inactive)
REMARK    1  A    between atoms: C_2  and  C_3 
REMARK    2  A    between atoms: C_3  and  O_6 
REMARK    3  A    between atoms: C_3  and  C_4 
REMARK    4  A    between atoms: C_7  and  O_6 
REMARK    5  A    between atoms: C_9  and  C_10 
REMARK    6  A    between atoms: N_15  and  C_14 
REMARK    7  A    between atoms: N_20  and  C_19 
REMARK       I    between atoms: C_22  and  N_20 
ROOT
ATOM      1  C   LIG d   1      -5.582  79.135 117.735  0.00  0.00     0.161 C 
ATOM      2  C   LIG d   1      -6.850  78.533 117.792  0.00  0.00     0.016 C 
ATOM      3  C   LIG d   1      -8.046  79.257 118.001  0.00  0.00     0.038 C 
ATOM      4  C   LIG d   1      -8.071  80.660 118.016  0.00  0.00     0.028 C 
ATOM      5  C   LIG d   1      -6.755  81.284 118.466  0.00  0.00    -0.047 C 
ATOM      6  C   LIG d   1      -5.601  80.675 117.638  0.00  0.00     0.091 C 
ENDROOT
BRANCH   1   7
ATOM      7  O   LIG d   1      -4.823  78.574 116.645  0.00  0.00    -0.368 OA
BRANCH   7   8
ATOM      8  C   LIG d   1      -3.956  77.462 116.979  0.00  0.00     0.119 C 
BRANCH   8   9
ATOM      9  C   LIG d   1      -2.549  78.033 117.237  0.00  0.00     0.028 C 
ATOM     10  C   LIG d   1      -2.208  78.098 118.736  0.00  0.00     0.006 C 
ENDBRANCH   8   9
BRANCH   8  11
ATOM     11  C   LIG d   1      -3.794  76.506 115.793  0.00  0.00     0.028 C 
ATOM     12  C   LIG d   1      -2.422  75.816 115.767  0.00  0.00     0.006 C 
ENDBRANCH   8  11
ENDBRANCH   7   8
ENDBRANCH   1   7
BRANCH   6  13
ATOM     13  N   LIG d   1      -4.268  81.169 118.073  0.00  0.00    -0.311 N 
ATOM     14  C   LIG d   1      -3.325  81.578 117.226  0.00  0.00     0.210 C 
ATOM     15  C   LIG d   1      -2.017  82.030 117.882  0.00  0.00     0.109 C 
ATOM     16  O   LIG d   1      -3.460  81.639 115.994  0.00  0.00    -0.276 OA
ATOM     17  H   LIG d   1      -4.086  81.183 119.057  0.00  0.00     0.149 HD
ENDBRANCH   6  13
BRANCH   5  18
ATOM     18  N   LIG d   1      -6.875  82.745 118.303  0.00  0.00     0.381 N 
ATOM     19  H   LIG d   1      -7.807  83.035 118.524  0.00  0.00    -0.090 HD
ATOM     20  H   LIG d   1      -6.690  82.981 117.344  0.00  0.00    -0.090 HD
ATOM     21  H   LIG d   1      -6.226  83.210 118.898  0.00  0.00    -0.090 HD
ENDBRANCH   5  18
BRANCH   3  22
ATOM     22  C   LIG d   1      -9.230  78.575 118.237  0.00  0.00     0.382 C 
ATOM     23  O   LIG d   1      -9.292  77.338 118.034  0.00  0.00    -0.241 OA
ATOM     24  O   LIG d   1     -10.249  79.187 118.608  0.00  0.00    -0.241 OA
ENDBRANCH   3  22
TORSDOF 7
ENDMDL
MODEL 5
REMARK VINA RESULT:      -5.1     25.786     28.769
REMARK  7 active torsions:
REMARK  status: ('A' for Active; 'I' for Inactive)
REMARK    1  A    between atoms: C_2  and  C_3 
REMARK    2  A    between atoms: C_3  and  O_6 
REMARK    3  A    between atoms: C_3  and  C_4 
REMARK    4  A    between atoms: C_7  and  O_6 
REMARK    5  A    between atoms: C_9  and  C_10 
REMARK    6  A    between atoms: N_15  and  C_14 
REMARK    7  A    between atoms: N_20  and  C_19 
REMARK       I    between atoms: C_22  and  N_20 
ROOT
ATOM      1  C   LIG d   1     -16.241  65.252 116.788  0.00  0.00     0.161 C 
ATOM      2  C   LIG d   1     -15.835  65.901 115.611  0.00  0.00     0.016 C 
ATOM      3  C   LIG d   1     -16.171  65.445 114.315  0.00  0.00     0.038 C 
ATOM      4  C   LIG d   1     -17.070  64.387 114.111  0.00  0.00     0.028 C 
ATOM      5  C   LIG d   1     -17.103  63.390 115.265  0.00  0.00    -0.047 C 
ATOM      6  C   LIG d   1     -17.313  64.160 116.588  0.00  0.00     0.091 C 
ENDROOT
BRANCH   1   7
ATOM      7  O   LIG d   1     -16.690  66.224 117.752  0.00  0.00    -0.368 OA
BRANCH   7   8
ATOM      8  C   LIG d   1     -15.760  67.291 118.062  0.00  0.00     0.119 C 
BRANCH   8   9
ATOM      9  C   LIG d   1     -15.557  67.300 119.590  0.00  0.00     0.028 C 
ATOM     10  C   LIG d   1     -14.086  67.096 119.987  0.00  0.00     0.006 C 
ENDBRANCH   8   9
BRANCH   8  11
ATOM     11  C   LIG d   1     -16.353  68.663 117.724  0.00  0.00     0.028 C 
ATOM     12  C   LIG d   1     -16.590  69.532 118.969  0.00  0.00     0.006 C 
ENDBRANCH   8  11
ENDBRANCH   7   8
ENDBRANCH   1   7
BRANCH   6  13
ATOM     13  N   LIG d   1     -17.274  63.268 117.776  0.00  0.00    -0.311 N 
ATOM     14  C   LIG d   1     -18.360  62.715 118.314  0.00  0.00     0.210 C 
ATOM     15  C   LIG d   1     -18.099  61.844 119.547  0.00  0.00     0.109 C 
ATOM     16  O   LIG d   1     -19.511  62.837 117.868  0.00  0.00    -0.276 OA
ATOM     17  H   LIG d   1     -16.377  63.090 118.183  0.00  0.00     0.149 HD
ENDBRANCH   6  13
BRANCH   5  18
ATOM     18  N   LIG d   1     -18.177  62.419 114.983  0.00  0.00     0.381 N 
ATOM     19  H   LIG d   1     -19.062  62.809 115.238  0.00  0.00    -0.090 HD
ATOM     20  H   LIG d   1     -18.024  61.595 115.538  0.00  0.00    -0.090 HD
ATOM     21  H   LIG d   1     -18.177  62.181 114.016  0.00  0.00    -0.090 HD
ENDBRANCH   5  18
BRANCH   3  22
ATOM     22  C   LIG d   1     -15.575  66.026 113.206  0.00  0.00     0.382 C 
ATOM     23  O   LIG d   1     -14.765  66.972 113.353  0.00  0.00    -0.241 OA
ATOM     24  O   LIG d   1     -15.870  65.644 112.058  0.00  0.00    -0.241 OA
ENDBRANCH   3  22
TORSDOF 7
ENDMDL
MODEL 6
REMARK VINA RESULT:      -5.1      4.351      7.933
REMARK  7 active torsions:
REMARK  status: ('A' for Active; 'I' for Inactive)
REMARK    1  A    between atoms: C_2  and  C_3 
REMARK    2  A    between atoms: C_3  and  O_6 
REMARK    3  A    between atoms: C_3  and  C_4 
REMARK    4  A    between atoms: C_7  and  O_6 
REMARK    5  A    between atoms: C_9  and  C_10 
REMARK    6  A    between atoms: N_15  and  C_14 
REMARK    7  A    between atoms: N_20  and  C_19 
REMARK       I    between atoms: C_22  and  N_20 
ROOT
ATOM      1  C   LIG d   1       0.605  89.402 116.868  0.00  0.00     0.161 C 
ATOM      2  C   LIG d   1      -0.771  89.119 116.901  0.00  0.00     0.016 C 
ATOM      3  C   LIG d   1      -1.718  89.943 117.551  0.00  0.00     0.038 C 
ATOM      4  C   LIG d   1      -1.372  91.192 118.088  0.00  0.00     0.028 C 
ATOM      5  C   LIG d   1       0.088  91.281 118.520  0.00  0.00    -0.047 C 
ATOM      6  C   LIG d   1       0.987  90.816 117.351  0.00  0.00     0.091 C 
ENDROOT
BRANCH   1   7
ATOM      7  O   LIG d   1       1.119  89.170 115.541  0.00  0.00    -0.368 OA
BRANCH   7   8
ATOM      8  C   LIG d   1       2.138  88.146 115.423  0.00  0.00     0.119 C 
BRANCH   8   9
ATOM      9  C   LIG d   1       2.991  88.483 114.184  0.00  0.00     0.028 C 
ATOM     10  C   LIG d   1       4.054  89.555 114.478  0.00  0.00     0.006 C 
ENDBRANCH   8   9
BRANCH   8  11
ATOM     11  C   LIG d   1       1.520  86.776 115.129  0.00  0.00     0.028 C 
ATOM     12  C   LIG d   1       2.231  85.631 115.867  0.00  0.00     0.006 C 
ENDBRANCH   8  11
ENDBRANCH   7   8
ENDBRANCH   1   7
BRANCH   6  13
ATOM     13  N   LIG d   1       2.427  90.792 117.719  0.00  0.00    -0.311 N 
ATOM     14  C   LIG d   1       3.243  91.832 117.554  0.00  0.00     0.210 C 
ATOM     15  C   LIG d   1       4.694  91.589 117.979  0.00  0.00     0.109 C 
ATOM     16  O   LIG d   1       2.895  92.943 117.126  0.00  0.00    -0.276 OA
ATOM     17  H   LIG d   1       2.786  89.940 118.102  0.00  0.00     0.149 HD
ENDBRANCH   6  13
BRANCH   5  18
ATOM     18  N   LIG d   1       0.347  92.674 118.930  0.00  0.00     0.381 N 
ATOM     19  H   LIG d   1      -0.496  93.088 119.276  0.00  0.00    -0.090 HD
ATOM     20  H   LIG d   1       0.649  93.198 118.128  0.00  0.00    -0.090 HD
ATOM     21  H   LIG d   1       1.051  92.697 119.635  0.00  0.00    -0.090 HD
ENDBRANCH   5  18
BRANCH   3  22
ATOM     22  C   LIG d   1      -3.023  89.499 117.705  0.00  0.00     0.382 C 
ATOM     23  O   LIG d   1      -3.366  88.913 118.760  0.00  0.00    -0.241 OA
ATOM     24  O   LIG d   1      -3.851  89.639 116.785  0.00  0.00    -0.241 OA
ENDBRANCH   3  22
TORSDOF 7
ENDMDL
MODEL 7
REMARK VINA RESULT:      -4.9      8.027     10.675
REMARK  7 active torsions:
REMARK  status: ('A' for Active; 'I' for Inactive)
REMARK    1  A    between atoms: C_2  and  C_3 
REMARK    2  A    between atoms: C_3  and  O_6 
REMARK    3  A    between atoms: C_3  and  C_4 
REMARK    4  A    between atoms: C_7  and  O_6 
REMARK    5  A    between atoms: C_9  and  C_10 
REMARK    6  A    between atoms: N_15  and  C_14 
REMARK    7  A    between atoms: N_20  and  C_19 
REMARK       I    between atoms: C_22  and  N_20 
ROOT
ATOM      1  C   LIG d   1       4.295  89.965 115.207  0.00  0.00     0.161 C 
ATOM      2  C   LIG d   1       3.506  89.184 114.346  0.00  0.00     0.016 C 
ATOM      3  C   LIG d   1       3.634  87.780 114.233  0.00  0.00     0.038 C 
ATOM      4  C   LIG d   1       4.461  87.039 115.091  0.00  0.00     0.028 C 
ATOM      5  C   LIG d   1       5.645  87.837 115.628  0.00  0.00    -0.047 C 
ATOM      6  C   LIG d   1       5.125  89.162 116.231  0.00  0.00     0.091 C 
ENDROOT
BRANCH   1   7
ATOM      7  O   LIG d   1       3.468  90.934 115.882  0.00  0.00    -0.368 OA
BRANCH   7   8
ATOM      8  C   LIG d   1       2.850  90.494 117.117  0.00  0.00     0.119 C 
BRANCH   8   9
ATOM      9  C   LIG d   1       1.325  90.487 116.894  0.00  0.00     0.028 C 
ATOM     10  C   LIG d   1       0.758  89.064 116.758  0.00  0.00     0.006 C 
ENDBRANCH   8   9
BRANCH   8  11
ATOM     11  C   LIG d   1       3.090  91.497 118.249  0.00  0.00     0.028 C 
ATOM     12  C   LIG d   1       3.635  92.843 117.746  0.00  0.00     0.006 C 
ENDBRANCH   8  11
ENDBRANCH   7   8
ENDBRANCH   1   7
BRANCH   6  13
ATOM     13  N   LIG d   1       6.227  90.040 116.704  0.00  0.00    -0.311 N 
ATOM     14  C   LIG d   1       6.617  90.106 117.975  0.00  0.00     0.210 C 
ATOM     15  C   LIG d   1       7.758  91.091 118.251  0.00  0.00     0.109 C 
ATOM     16  O   LIG d   1       6.149  89.419 118.895  0.00  0.00    -0.276 OA
ATOM     17  H   LIG d   1       6.683  90.609 116.018  0.00  0.00     0.149 HD
ENDBRANCH   6  13
BRANCH   5  18
ATOM     18  N   LIG d   1       6.343  86.989 116.613  0.00  0.00     0.381 N 
ATOM     19  H   LIG d   1       7.017  87.534 117.112  0.00  0.00    -0.090 HD
ATOM     20  H   LIG d   1       6.829  86.257 116.125  0.00  0.00    -0.090 HD
ATOM     21  H   LIG d   1       5.686  86.595 117.250  0.00  0.00    -0.090 HD
ENDBRANCH   5  18
BRANCH   3  22
ATOM     22  C   LIG d   1       2.958  87.107 113.227  0.00  0.00     0.382 C 
ATOM     23  O   LIG d   1       1.747  86.815 113.372  0.00  0.00    -0.241 OA
ATOM     24  O   LIG d   1       3.556  86.750 112.194  0.00  0.00    -0.241 OA
ENDBRANCH   3  22
TORSDOF 7
ENDMDL
MODEL 8
REMARK VINA RESULT:      -4.9      6.179      8.740
REMARK  7 active torsions:
REMARK  status: ('A' for Active; 'I' for Inactive)
REMARK    1  A    between atoms: C_2  and  C_3 
REMARK    2  A    between atoms: C_3  and  O_6 
REMARK    3  A    between atoms: C_3  and  C_4 
REMARK    4  A    between atoms: C_7  and  O_6 
REMARK    5  A    between atoms: C_9  and  C_10 
REMARK    6  A    between atoms: N_15  and  C_14 
REMARK    7  A    between atoms: N_20  and  C_19 
REMARK       I    between atoms: C_22  and  N_20 
ROOT
ATOM      1  C   LIG d   1       2.526  90.003 117.043  0.00  0.00     0.161 C 
ATOM      2  C   LIG d   1       2.435  89.336 115.810  0.00  0.00     0.016 C 
ATOM      3  C   LIG d   1       3.561  88.971 115.037  0.00  0.00     0.038 C 
ATOM      4  C   LIG d   1       4.870  89.115 115.521  0.00  0.00     0.028 C 
ATOM      5  C   LIG d   1       5.020  90.241 116.538  0.00  0.00    -0.047 C 
ATOM      6  C   LIG d   1       3.948  90.070 117.638  0.00  0.00     0.091 C 
ENDROOT
BRANCH   1   7
ATOM      7  O   LIG d   1       1.614  89.410 117.988  0.00  0.00    -0.368 OA
BRANCH   7   8
ATOM      8  C   LIG d   1       0.629  90.301 118.568  0.00  0.00     0.119 C 
BRANCH   8   9
ATOM      9  C   LIG d   1      -0.710  89.540 118.617  0.00  0.00     0.028 C 
ATOM     10  C   LIG d   1      -1.377  89.436 117.235  0.00  0.00     0.006 C 
ENDBRANCH   8   9
BRANCH   8  11
ATOM     11  C   LIG d   1       0.375  91.513 117.667  0.00  0.00     0.028 C 
ATOM     12  C   LIG d   1       0.112  92.802 118.462  0.00  0.00     0.006 C 
ENDBRANCH   8  11
ENDBRANCH   7   8
ENDBRANCH   1   7
BRANCH   6  13
ATOM     13  N   LIG d   1       3.970  91.178 118.629  0.00  0.00    -0.311 N 
ATOM     14  C   LIG d   1       3.801  92.457 118.301  0.00  0.00     0.210 C 
ATOM     15  C   LIG d   1       3.879  93.441 119.472  0.00  0.00     0.109 C 
ATOM     16  O   LIG d   1       3.561  92.868 117.155  0.00  0.00    -0.276 OA
ATOM     17  H   LIG d   1       4.127  90.931 119.586  0.00  0.00     0.149 HD
ENDBRANCH   6  13
BRANCH   5  18
ATOM     18  N   LIG d   1       6.398  90.190 117.060  0.00  0.00     0.381 N 
ATOM     19  H   LIG d   1       6.778  91.115 117.105  0.00  0.00    -0.090 HD
ATOM     20  H   LIG d   1       6.964  89.648 116.432  0.00  0.00    -0.090 HD
ATOM     21  H   LIG d   1       6.405  89.776 117.966  0.00  0.00    -0.090 HD
ENDBRANCH   5  18
BRANCH   3  22
ATOM     22  C   LIG d   1       3.384  88.491 113.749  0.00  0.00     0.382 C 
ATOM     23  O   LIG d   1       2.268  88.599 113.187  0.00  0.00    -0.241 OA
ATOM     24  O   LIG d   1       4.315  87.912 113.157  0.00  0.00    -0.241 OA
ENDBRANCH   3  22
TORSDOF 7
ENDMDL
MODEL 9
REMARK VINA RESULT:      -4.8     11.199     12.886
REMARK  7 active torsions:
REMARK  status: ('A' for Active; 'I' for Inactive)
REMARK    1  A    between atoms: C_2  and  C_3 
REMARK    2  A    between atoms: C_3  and  O_6 
REMARK    3  A    between atoms: C_3  and  C_4 
REMARK    4  A    between atoms: C_7  and  O_6 
REMARK    5  A    between atoms: C_9  and  C_10 
REMARK    6  A    between atoms: N_15  and  C_14 
REMARK    7  A    between atoms: N_20  and  C_19 
REMARK       I    between atoms: C_22  and  N_20 
ROOT
ATOM      1  C   LIG d   1      -2.121  79.577 114.980  0.00  0.00     0.161 C 
ATOM      2  C   LIG d   1      -2.375  78.501 114.113  0.00  0.00     0.016 C 
ATOM      3  C   LIG d   1      -2.747  77.212 114.560  0.00  0.00     0.038 C 
ATOM      4  C   LIG d   1      -3.038  76.950 115.907  0.00  0.00     0.028 C 
ATOM      5  C   LIG d   1      -2.307  77.873 116.876  0.00  0.00    -0.047 C 
ATOM      6  C   LIG d   1      -2.541  79.339 116.446  0.00  0.00     0.091 C 
ENDROOT
BRANCH   1   7
ATOM      7  O   LIG d   1      -2.740  80.774 114.469  0.00  0.00    -0.368 OA
BRANCH   7   8
ATOM      8  C   LIG d   1      -1.840  81.787 113.956  0.00  0.00     0.119 C 
BRANCH   8   9
ATOM      9  C   LIG d   1      -0.408  81.228 114.056  0.00  0.00     0.028 C 
ATOM     10  C   LIG d   1       0.258  81.069 112.679  0.00  0.00     0.006 C 
ENDBRANCH   8   9
BRANCH   8  11
ATOM     11  C   LIG d   1      -1.850  83.039 114.839  0.00  0.00     0.028 C 
ATOM     12  C   LIG d   1      -1.010  84.186 114.256  0.00  0.00     0.006 C 
ENDBRANCH   8  11
ENDBRANCH   7   8
ENDBRANCH   1   7
BRANCH   6  13
ATOM     13  N   LIG d   1      -1.792  80.305 117.291  0.00  0.00    -0.311 N 
ATOM     14  C   LIG d   1      -2.373  81.300 117.959  0.00  0.00     0.210 C 
ATOM     15  C   LIG d   1      -1.414  82.192 118.754  0.00  0.00     0.109 C 
ATOM     16  O   LIG d   1      -3.595  81.508 117.995  0.00  0.00    -0.276 OA
ATOM     17  H   LIG d   1      -0.799  80.190 117.343  0.00  0.00     0.149 HD
ENDBRANCH   6  13
BRANCH   5  18
ATOM     18  N   LIG d   1      -2.807  77.582 118.232  0.00  0.00     0.381 N 
ATOM     19  H   LIG d   1      -3.470  76.834 118.195  0.00  0.00    -0.090 HD
ATOM     20  H   LIG d   1      -3.271  78.398 118.590  0.00  0.00    -0.090 HD
ATOM     21  H   LIG d   1      -2.049  77.334 118.829  0.00  0.00    -0.090 HD
ENDBRANCH   5  18
BRANCH   3  22
ATOM     22  C   LIG d   1      -2.791  76.159 113.659  0.00  0.00     0.382 C 
ATOM     23  O   LIG d   1      -3.897  75.701 113.285  0.00  0.00    -0.241 OA
ATOM     24  O   LIG d   1      -1.739  75.632 113.251  0.00  0.00    -0.241 OA
ENDBRANCH   3  22
TORSDOF 7
ENDMDL
