MODEL 1
REMARK VINA RESULT:      -5.8      0.000      0.000
REMARK  7 active torsions:
REMARK  status: ('A' for Active; 'I' for Inactive)
REMARK    1  A    between atoms: C_2  and  C_3 
REMARK    2  A    between atoms: C_3  and  O_6 
REMARK    3  A    between atoms: C_3  and  C_4 
REMARK    4  A    between atoms: C_7  and  O_6 
REMARK    5  A    between atoms: C_9  and  C_10 
REMARK    6  A    between atoms: N_15  and  C_14 
REMARK    7  A    between atoms: N_20  and  C_19 
REMARK       I    between atoms: C_22  and  N_20 
ROOT
ATOM      1  C   LIG d   1      -8.104  75.789 117.854  0.00  0.00     0.161 C 
ATOM      2  C   LIG d   1      -9.465  75.839 118.196  0.00  0.00     0.016 C 
ATOM      3  C   LIG d   1     -10.131  77.030 118.569  0.00  0.00     0.038 C 
ATOM      4  C   LIG d   1      -9.511  78.285 118.480  0.00  0.00     0.028 C 
ATOM      5  C   LIG d   1      -7.994  78.223 118.625  0.00  0.00    -0.047 C 
ATOM      6  C   LIG d   1      -7.439  77.166 117.644  0.00  0.00     0.091 C 
ENDROOT
BRANCH   1   7
ATOM      7  O   LIG d   1      -7.923  74.962 116.688  0.00  0.00    -0.368 OA
BRANCH   7   8
ATOM      8  C   LIG d   1      -7.406  73.629 116.926  0.00  0.00     0.119 C 
BRANCH   8   9
ATOM      9  C   LIG d   1      -6.510  73.259 115.728  0.00  0.00     0.028 C 
ATOM     10  C   LIG d   1      -5.734  74.469 115.180  0.00  0.00     0.006 C 
ENDBRANCH   8   9
BRANCH   8  11
ATOM     11  C   LIG d   1      -8.530  72.588 116.928  0.00  0.00     0.028 C 
ATOM     12  C   LIG d   1      -8.013  71.153 116.738  0.00  0.00     0.006 C 
ENDBRANCH   8  11
ENDBRANCH   7   8
ENDBRANCH   1   7
BRANCH   6  13
ATOM     13  N   LIG d   1      -5.970  76.981 117.780  0.00  0.00    -0.311 N 
ATOM     14  C   LIG d   1      -5.077  77.639 117.043  0.00  0.00     0.210 C 
ATOM     15  C   LIG d   1      -3.615  77.285 117.331  0.00  0.00     0.109 C 
ATOM     16  O   LIG d   1      -5.356  78.505 116.200  0.00  0.00    -0.276 OA
ATOM     17  H   LIG d   1      -5.655  76.320 118.463  0.00  0.00     0.149 HD
ENDBRANCH   6  13
BRANCH   5  18
ATOM     18  N   LIG d   1      -7.467  79.578 118.375  0.00  0.00     0.381 N 
ATOM     19  H   LIG d   1      -6.925  79.881 119.160  0.00  0.00    -0.090 HD
ATOM     20  H   LIG d   1      -8.238  80.211 118.261  0.00  0.00    -0.090 HD
ATOM     21  H   LIG d   1      -6.903  79.578 117.554  0.00  0.00    -0.090 HD
ENDBRANCH   5  18
BRANCH   3  22
ATOM     22  C   LIG d   1     -11.420  76.966 119.077  0.00  0.00     0.382 C 
ATOM     23  O   LIG d   1     -12.371  76.627 118.332  0.00  0.00    -0.241 OA
ATOM     24  O   LIG d   1     -11.650  77.287 120.258  0.00  0.00    -0.241 OA
ENDBRANCH   3  22
TORSDOF 7
ENDMDL
MODEL 2
REMARK VINA RESULT:      -5.7      2.073      4.990
REMARK  7 active torsions:
REMARK  status: ('A' for Active; 'I' for Inactive)
REMARK    1  A    between atoms: C_2  and  C_3 
REMARK    2  A    between atoms: C_3  and  O_6 
REMARK    3  A    between atoms: C_3  and  C_4 
REMARK    4  A    between atoms: C_7  and  O_6 
REMARK    5  A    between atoms: C_9  and  C_10 
REMARK    6  A    between atoms: N_15  and  C_14 
REMARK    7  A    between atoms: N_20  and  C_19 
REMARK       I    between atoms: C_22  and  N_20 
ROOT
ATOM      1  C   LIG d   1      -7.598  75.533 117.566  0.00  0.00     0.161 C 
ATOM      2  C   LIG d   1      -8.236  74.282 117.522  0.00  0.00     0.016 C 
ATOM      3  C   LIG d   1      -7.792  73.211 116.713  0.00  0.00     0.038 C 
ATOM      4  C   LIG d   1      -6.584  73.268 116.004  0.00  0.00     0.028 C 
ATOM      5  C   LIG d   1      -6.172  74.686 115.622  0.00  0.00    -0.047 C 
ATOM      6  C   LIG d   1      -6.214  75.578 116.884  0.00  0.00     0.091 C 
ENDROOT
BRANCH   1   7
ATOM      7  O   LIG d   1      -7.498  75.982 118.932  0.00  0.00    -0.368 OA
BRANCH   7   8
ATOM      8  C   LIG d   1      -8.314  77.125 119.289  0.00  0.00     0.119 C 
BRANCH   8   9
ATOM      9  C   LIG d   1      -9.592  76.589 119.962  0.00  0.00     0.028 C 
ATOM     10  C   LIG d   1     -10.839  76.769 119.079  0.00  0.00     0.006 C 
ENDBRANCH   8   9
BRANCH   8  11
ATOM     11  C   LIG d   1      -8.795  77.876 118.044  0.00  0.00     0.028 C 
ATOM     12  C   LIG d   1      -8.407  79.363 118.059  0.00  0.00     0.006 C 
ENDBRANCH   8  11
ENDBRANCH   7   8
ENDBRANCH   1   7
BRANCH   6  13
ATOM     13  N   LIG d   1      -5.907  77.000 116.584  0.00  0.00    -0.311 N 
ATOM     14  C   LIG d   1      -4.984  77.705 117.237  0.00  0.00     0.210 C 
ATOM     15  C   LIG d   1      -4.840  79.160 116.783  0.00  0.00     0.109 C 
ATOM     16  O   LIG d   1      -4.249  77.253 118.128  0.00  0.00    -0.276 OA
ATOM     17  H   LIG d   1      -6.435  77.437 115.854  0.00  0.00     0.149 HD
ENDBRANCH   6  13
BRANCH   5  18
ATOM     18  N   LIG d   1      -4.832  74.612 115.011  0.00  0.00     0.381 N 
ATOM     19  H   LIG d   1      -4.379  73.764 115.288  0.00  0.00    -0.090 HD
ATOM     20  H   LIG d   1      -4.281  75.385 115.341  0.00  0.00    -0.090 HD
ATOM     21  H   LIG d   1      -4.907  74.648 114.019  0.00  0.00    -0.090 HD
ENDBRANCH   5  18
BRANCH   3  22
ATOM     22  C   LIG d   1      -8.583  72.079 116.577  0.00  0.00     0.382 C 
ATOM     23  O   LIG d   1      -9.810  72.138 116.831  0.00  0.00    -0.241 OA
ATOM     24  O   LIG d   1      -8.076  70.991 116.246  0.00  0.00    -0.241 OA
ENDBRANCH   3  22
TORSDOF 7
ENDMDL
MODEL 3
REMARK VINA RESULT:      -5.3      3.813      7.210
REMARK  7 active torsions:
REMARK  status: ('A' for Active; 'I' for Inactive)
REMARK    1  A    between atoms: C_2  and  C_3 
REMARK    2  A    between atoms: C_3  and  O_6 
REMARK    3  A    between atoms: C_3  and  C_4 
REMARK    4  A    between atoms: C_7  and  O_6 
REMARK    5  A    between atoms: C_9  and  C_10 
REMARK    6  A    between atoms: N_15  and  C_14 
REMARK    7  A    between atoms: N_20  and  C_19 
REMARK       I    between atoms: C_22  and  N_20 
ROOT
ATOM      1  C   LIG d   1      -3.459  74.158 115.882  0.00  0.00     0.161 C 
ATOM      2  C   LIG d   1      -2.469  75.004 115.356  0.00  0.00     0.016 C 
ATOM      3  C   LIG d   1      -2.758  76.159 114.593  0.00  0.00     0.038 C 
ATOM      4  C   LIG d   1      -4.069  76.633 114.433  0.00  0.00     0.028 C 
ATOM      5  C   LIG d   1      -5.124  75.536 114.519  0.00  0.00    -0.047 C 
ATOM      6  C   LIG d   1      -4.894  74.719 115.811  0.00  0.00     0.091 C 
ENDROOT
BRANCH   1   7
ATOM      7  O   LIG d   1      -3.126  73.802 117.239  0.00  0.00    -0.368 OA
BRANCH   7   8
ATOM      8  C   LIG d   1      -2.117  74.617 117.882  0.00  0.00     0.119 C 
BRANCH   8   9
ATOM      9  C   LIG d   1      -1.113  73.664 118.559  0.00  0.00     0.028 C 
ATOM     10  C   LIG d   1      -1.711  72.958 119.787  0.00  0.00     0.006 C 
ENDBRANCH   8   9
BRANCH   8  11
ATOM     11  C   LIG d   1      -2.716  75.449 119.020  0.00  0.00     0.028 C 
ATOM     12  C   LIG d   1      -3.103  76.870 118.580  0.00  0.00     0.006 C 
ENDBRANCH   8  11
ENDBRANCH   7   8
ENDBRANCH   1   7
BRANCH   6  13
ATOM     13  N   LIG d   1      -5.832  73.572 115.932  0.00  0.00    -0.311 N 
ATOM     14  C   LIG d   1      -7.027  73.661 116.513  0.00  0.00     0.210 C 
ATOM     15  C   LIG d   1      -7.827  72.355 116.548  0.00  0.00     0.109 C 
ATOM     16  O   LIG d   1      -7.514  74.704 116.974  0.00  0.00    -0.276 OA
ATOM     17  H   LIG d   1      -5.530  72.695 115.556  0.00  0.00     0.149 HD
ENDBRANCH   6  13
BRANCH   5  18
ATOM     18  N   LIG d   1      -6.447  76.186 114.474  0.00  0.00     0.381 N 
ATOM     19  H   LIG d   1      -7.160  75.519 114.694  0.00  0.00    -0.090 HD
ATOM     20  H   LIG d   1      -6.611  76.525 113.542  0.00  0.00    -0.090 HD
ATOM     21  H   LIG d   1      -6.478  76.942 115.121  0.00  0.00    -0.090 HD
ENDBRANCH   5  18
BRANCH   3  22
ATOM     22  C   LIG d   1      -1.731  76.832 113.949  0.00  0.00     0.382 C 
ATOM     23  O   LIG d   1      -1.333  77.938 114.388  0.00  0.00    -0.241 OA
ATOM     24  O   LIG d   1      -1.228  76.368 112.908  0.00  0.00    -0.241 OA
ENDBRANCH   3  22
TORSDOF 7
ENDMDL
MODEL 4
REMARK VINA RESULT:      -5.2      1.203      2.214
REMARK  7 active torsions:
REMARK  status: ('A' for Active; 'I' for Inactive)
REMARK    1  A    between atoms: C_2  and  C_3 
REMARK    2  A    between atoms: C_3  and  O_6 
REMARK    3  A    between atoms: C_3  and  C_4 
REMARK    4  A    between atoms: C_7  and  O_6 
REMARK    5  A    between atoms: C_9  and  C_10 
REMARK    6  A    between atoms: N_15  and  C_14 
REMARK    7  A    between atoms: N_20  and  C_19 
REMARK       I    between atoms: C_22  and  N_20 
ROOT
ATOM      1  C   LIG d   1      -6.673  76.282 118.245  0.00  0.00     0.161 C 
ATOM      2  C   LIG d   1      -8.037  76.024 118.464  0.00  0.00     0.016 C 
ATOM      3  C   LIG d   1      -9.038  77.020 118.394  0.00  0.00     0.038 C 
ATOM      4  C   LIG d   1      -8.760  78.321 117.950  0.00  0.00     0.028 C 
ATOM      5  C   LIG d   1      -7.320  78.754 118.205  0.00  0.00    -0.047 C 
ATOM      6  C   LIG d   1      -6.365  77.672 117.650  0.00  0.00     0.091 C 
ENDROOT
BRANCH   1   7
ATOM      7  O   LIG d   1      -6.107  75.246 117.418  0.00  0.00    -0.368 OA
BRANCH   7   8
ATOM      8  C   LIG d   1      -6.844  74.917 116.215  0.00  0.00     0.119 C 
BRANCH   8   9
ATOM      9  C   LIG d   1      -6.839  73.382 116.076  0.00  0.00     0.028 C 
ATOM     10  C   LIG d   1      -8.014  72.722 116.816  0.00  0.00     0.006 C 
ENDBRANCH   8   9
BRANCH   8  11
ATOM     11  C   LIG d   1      -6.131  75.440 114.964  0.00  0.00     0.028 C 
ATOM     12  C   LIG d   1      -4.607  75.254 115.025  0.00  0.00     0.006 C 
ENDBRANCH   8  11
ENDBRANCH   7   8
ENDBRANCH   1   7
BRANCH   6  13
ATOM     13  N   LIG d   1      -4.938  77.976 117.933  0.00  0.00    -0.311 N 
ATOM     14  C   LIG d   1      -4.131  78.582 117.064  0.00  0.00     0.210 C 
ATOM     15  C   LIG d   1      -2.692  78.782 117.549  0.00  0.00     0.109 C 
ATOM     16  O   LIG d   1      -4.479  79.002 115.950  0.00  0.00    -0.276 OA
ATOM     17  H   LIG d   1      -4.581  77.698 118.826  0.00  0.00     0.149 HD
ENDBRANCH   6  13
BRANCH   5  18
ATOM     18  N   LIG d   1      -7.131  80.072 117.570  0.00  0.00     0.381 N 
ATOM     19  H   LIG d   1      -7.299  80.797 118.239  0.00  0.00    -0.090 HD
ATOM     20  H   LIG d   1      -7.797  80.172 116.824  0.00  0.00    -0.090 HD
ATOM     21  H   LIG d   1      -6.205  80.149 117.212  0.00  0.00    -0.090 HD
ENDBRANCH   5  18
BRANCH   3  22
ATOM     22  C   LIG d   1     -10.328  76.728 118.811  0.00  0.00     0.382 C 
ATOM     23  O   LIG d   1     -10.571  76.565 120.031  0.00  0.00    -0.241 OA
ATOM     24  O   LIG d   1     -11.242  76.581 117.978  0.00  0.00    -0.241 OA
ENDBRANCH   3  22
TORSDOF 7
ENDMDL
MODEL 5
REMARK VINA RESULT:      -5.1      2.456      6.426
REMARK  7 active torsions:
REMARK  status: ('A' for Active; 'I' for Inactive)
REMARK    1  A    between atoms: C_2  and  C_3 
REMARK    2  A    between atoms: C_3  and  O_6 
REMARK    3  A    between atoms: C_3  and  C_4 
REMARK    4  A    between atoms: C_7  and  O_6 
REMARK    5  A    between atoms: C_9  and  C_10 
REMARK    6  A    between atoms: N_15  and  C_14 
REMARK    7  A    between atoms: N_20  and  C_19 
REMARK       I    between atoms: C_22  and  N_20 
ROOT
ATOM      1  C   LIG d   1      -6.603  76.993 117.066  0.00  0.00     0.161 C 
ATOM      2  C   LIG d   1      -5.491  76.437 116.411  0.00  0.00     0.016 C 
ATOM      3  C   LIG d   1      -5.406  75.074 116.044  0.00  0.00     0.038 C 
ATOM      4  C   LIG d   1      -6.497  74.202 116.173  0.00  0.00     0.028 C 
ATOM      5  C   LIG d   1      -7.459  74.596 117.289  0.00  0.00    -0.047 C 
ATOM      6  C   LIG d   1      -7.847  76.082 117.116  0.00  0.00     0.091 C 
ENDROOT
BRANCH   1   7
ATOM      7  O   LIG d   1      -6.935  78.263 116.472  0.00  0.00    -0.368 OA
BRANCH   7   8
ATOM      8  C   LIG d   1      -6.599  79.439 117.250  0.00  0.00     0.119 C 
BRANCH   8   9
ATOM      9  C   LIG d   1      -5.974  78.955 118.573  0.00  0.00     0.028 C 
ATOM     10  C   LIG d   1      -4.660  79.683 118.902  0.00  0.00     0.006 C 
ENDBRANCH   8   9
BRANCH   8  11
ATOM     11  C   LIG d   1      -7.854  80.217 117.654  0.00  0.00     0.028 C 
ATOM     12  C   LIG d   1      -7.613  81.732 117.742  0.00  0.00     0.006 C 
ENDBRANCH   8  11
ENDBRANCH   7   8
ENDBRANCH   1   7
BRANCH   6  13
ATOM     13  N   LIG d   1      -8.720  76.572 118.214  0.00  0.00    -0.311 N 
ATOM     14  C   LIG d   1     -10.047  76.454 118.205  0.00  0.00     0.210 C 
ATOM     15  C   LIG d   1     -10.757  77.044 119.427  0.00  0.00     0.109 C 
ATOM     16  O   LIG d   1     -10.700  75.887 117.316  0.00  0.00    -0.276 OA
ATOM     17  H   LIG d   1      -8.270  77.017 118.990  0.00  0.00     0.149 HD
ENDBRANCH   6  13
BRANCH   5  18
ATOM     18  N   LIG d   1      -8.617  73.685 117.223  0.00  0.00     0.381 N 
ATOM     19  H   LIG d   1      -8.353  72.777 117.552  0.00  0.00    -0.090 HD
ATOM     20  H   LIG d   1      -8.909  73.600 116.265  0.00  0.00    -0.090 HD
ATOM     21  H   LIG d   1      -9.365  74.042 117.775  0.00  0.00    -0.090 HD
ENDBRANCH   5  18
BRANCH   3  22
ATOM     22  C   LIG d   1      -4.205  74.562 115.578  0.00  0.00     0.382 C 
ATOM     23  O   LIG d   1      -3.877  74.727 114.379  0.00  0.00    -0.241 OA
ATOM     24  O   LIG d   1      -3.467  73.898 116.330  0.00  0.00    -0.241 OA
ENDBRANCH   3  22
TORSDOF 7
ENDMDL
MODEL 6
REMARK VINA RESULT:      -5.0      2.308      4.745
REMARK  7 active torsions:
REMARK  status: ('A' for Active; 'I' for Inactive)
REMARK    1  A    between atoms: C_2  and  C_3 
REMARK    2  A    between atoms: C_3  and  O_6 
REMARK    3  A    between atoms: C_3  and  C_4 
REMARK    4  A    between atoms: C_7  and  O_6 
REMARK    5  A    between atoms: C_9  and  C_10 
REMARK    6  A    between atoms: N_15  and  C_14 
REMARK    7  A    between atoms: N_20  and  C_19 
REMARK       I    between atoms: C_22  and  N_20 
ROOT
ATOM      1  C   LIG d   1      -7.143  76.983 116.888  0.00  0.00     0.161 C 
ATOM      2  C   LIG d   1      -8.485  76.894 117.295  0.00  0.00     0.016 C 
ATOM      3  C   LIG d   1      -9.185  75.671 117.405  0.00  0.00     0.038 C 
ATOM      4  C   LIG d   1      -8.541  74.433 117.261  0.00  0.00     0.028 C 
ATOM      5  C   LIG d   1      -7.314  74.490 116.357  0.00  0.00    -0.047 C 
ATOM      6  C   LIG d   1      -6.393  75.636 116.833  0.00  0.00     0.091 C 
ENDROOT
BRANCH   1   7
ATOM      7  O   LIG d   1      -6.437  77.915 117.731  0.00  0.00    -0.368 OA
BRANCH   7   8
ATOM      8  C   LIG d   1      -6.229  79.240 117.181  0.00  0.00     0.119 C 
BRANCH   8   9
ATOM      9  C   LIG d   1      -4.720  79.394 116.906  0.00  0.00     0.028 C 
ATOM     10  C   LIG d   1      -3.861  79.036 118.130  0.00  0.00     0.006 C 
ENDBRANCH   8   9
BRANCH   8  11
ATOM     11  C   LIG d   1      -6.568  80.327 118.205  0.00  0.00     0.028 C 
ATOM     12  C   LIG d   1      -7.026  81.640 117.550  0.00  0.00     0.006 C 
ENDBRANCH   8  11
ENDBRANCH   7   8
ENDBRANCH   1   7
BRANCH   6  13
ATOM     13  N   LIG d   1      -5.210  75.815 115.952  0.00  0.00    -0.311 N 
ATOM     14  C   LIG d   1      -4.028  75.246 116.187  0.00  0.00     0.210 C 
ATOM     15  C   LIG d   1      -2.937  75.578 115.164  0.00  0.00     0.109 C 
ATOM     16  O   LIG d   1      -3.790  74.473 117.126  0.00  0.00    -0.276 OA
ATOM     17  H   LIG d   1      -5.323  76.402 115.149  0.00  0.00     0.149 HD
ENDBRANCH   6  13
BRANCH   5  18
ATOM     18  N   LIG d   1      -6.664  73.167 116.405  0.00  0.00     0.381 N 
ATOM     19  H   LIG d   1      -5.931  73.125 115.725  0.00  0.00    -0.090 HD
ATOM     20  H   LIG d   1      -7.344  72.462 116.180  0.00  0.00    -0.090 HD
ATOM     21  H   LIG d   1      -6.292  73.002 117.315  0.00  0.00    -0.090 HD
ENDBRANCH   5  18
BRANCH   3  22
ATOM     22  C   LIG d   1     -10.554  75.680 117.624  0.00  0.00     0.382 C 
ATOM     23  O   LIG d   1     -11.251  74.698 117.275  0.00  0.00    -0.241 OA
ATOM     24  O   LIG d   1     -11.106  76.677 118.127  0.00  0.00    -0.241 OA
ENDBRANCH   3  22
TORSDOF 7
ENDMDL
MODEL 7
REMARK VINA RESULT:      -4.9      2.524      5.692
REMARK  7 active torsions:
REMARK  status: ('A' for Active; 'I' for Inactive)
REMARK    1  A    between atoms: C_2  and  C_3 
REMARK    2  A    between atoms: C_3  and  O_6 
REMARK    3  A    between atoms: C_3  and  C_4 
REMARK    4  A    between atoms: C_7  and  O_6 
REMARK    5  A    between atoms: C_9  and  C_10 
REMARK    6  A    between atoms: N_15  and  C_14 
REMARK    7  A    between atoms: N_20  and  C_19 
REMARK       I    between atoms: C_22  and  N_20 
ROOT
ATOM      1  C   LIG d   1      -7.894  78.406 118.050  0.00  0.00     0.161 C 
ATOM      2  C   LIG d   1      -7.498  77.162 117.532  0.00  0.00     0.016 C 
ATOM      3  C   LIG d   1      -8.323  76.014 117.549  0.00  0.00     0.038 C 
ATOM      4  C   LIG d   1      -9.665  76.071 117.952  0.00  0.00     0.028 C 
ATOM      5  C   LIG d   1      -9.950  77.186 118.953  0.00  0.00    -0.047 C 
ATOM      6  C   LIG d   1      -9.395  78.516 118.393  0.00  0.00     0.091 C 
ENDROOT
BRANCH   1   7
ATOM      7  O   LIG d   1      -7.510  79.458 117.143  0.00  0.00    -0.368 OA
BRANCH   7   8
ATOM      8  C   LIG d   1      -6.369  80.258 117.542  0.00  0.00     0.119 C 
BRANCH   8   9
ATOM      9  C   LIG d   1      -5.105  79.567 116.994  0.00  0.00     0.028 C 
ATOM     10  C   LIG d   1      -4.157  79.105 118.113  0.00  0.00     0.006 C 
ENDBRANCH   8   9
BRANCH   8  11
ATOM     11  C   LIG d   1      -6.199  80.267 119.064  0.00  0.00     0.028 C 
ATOM     12  C   LIG d   1      -6.366  81.667 119.674  0.00  0.00     0.006 C 
ENDBRANCH   8  11
ENDBRANCH   7   8
ENDBRANCH   1   7
BRANCH   6  13
ATOM     13  N   LIG d   1      -9.557  79.644 119.347  0.00  0.00    -0.311 N 
ATOM     14  C   LIG d   1     -10.051  80.831 119.001  0.00  0.00     0.210 C 
ATOM     15  C   LIG d   1     -10.114  81.861 120.134  0.00  0.00     0.109 C 
ATOM     16  O   LIG d   1     -10.474  81.120 117.872  0.00  0.00    -0.276 OA
ATOM     17  H   LIG d   1      -9.268  79.487 120.293  0.00  0.00     0.149 HD
ENDBRANCH   6  13
BRANCH   5  18
ATOM     18  N   LIG d   1     -11.407  77.219 119.181  0.00  0.00     0.381 N 
ATOM     19  H   LIG d   1     -11.803  76.324 118.972  0.00  0.00    -0.090 HD
ATOM     20  H   LIG d   1     -11.818  77.898 118.564  0.00  0.00    -0.090 HD
ATOM     21  H   LIG d   1     -11.598  77.461 120.128  0.00  0.00    -0.090 HD
ENDBRANCH   5  18
BRANCH   3  22
ATOM     22  C   LIG d   1      -7.793  74.782 117.196  0.00  0.00     0.382 C 
ATOM     23  O   LIG d   1      -6.774  74.723 116.468  0.00  0.00    -0.241 OA
ATOM     24  O   LIG d   1      -8.348  73.728 117.561  0.00  0.00    -0.241 OA
ENDBRANCH   3  22
TORSDOF 7
ENDMDL
MODEL 8
REMARK VINA RESULT:      -4.9      2.512      6.831
REMARK  7 active torsions:
REMARK  status: ('A' for Active; 'I' for Inactive)
REMARK    1  A    between atoms: C_2  and  C_3 
REMARK    2  A    between atoms: C_3  and  O_6 
REMARK    3  A    between atoms: C_3  and  C_4 
REMARK    4  A    between atoms: C_7  and  O_6 
REMARK    5  A    between atoms: C_9  and  C_10 
REMARK    6  A    between atoms: N_15  and  C_14 
REMARK    7  A    between atoms: N_20  and  C_19 
REMARK       I    between atoms: C_22  and  N_20 
ROOT
ATOM      1  C   LIG d   1      -5.322  77.220 116.541  0.00  0.00     0.161 C 
ATOM      2  C   LIG d   1      -4.351  77.287 115.527  0.00  0.00     0.016 C 
ATOM      3  C   LIG d   1      -3.983  76.180 114.729  0.00  0.00     0.038 C 
ATOM      4  C   LIG d   1      -4.672  74.960 114.789  0.00  0.00     0.028 C 
ATOM      5  C   LIG d   1      -5.318  74.696 116.145  0.00  0.00    -0.047 C 
ATOM      6  C   LIG d   1      -6.163  75.927 116.546  0.00  0.00     0.091 C 
ENDROOT
BRANCH   1   7
ATOM      7  O   LIG d   1      -6.180  78.376 116.473  0.00  0.00    -0.368 OA
BRANCH   7   8
ATOM      8  C   LIG d   1      -5.735  79.544 117.204  0.00  0.00     0.119 C 
BRANCH   8   9
ATOM      9  C   LIG d   1      -5.172  79.059 118.554  0.00  0.00     0.028 C 
ATOM     10  C   LIG d   1      -4.015  79.938 119.058  0.00  0.00     0.006 C 
ENDBRANCH   8   9
BRANCH   8  11
ATOM     11  C   LIG d   1      -6.911  80.459 117.561  0.00  0.00     0.028 C 
ATOM     12  C   LIG d   1      -8.167  79.680 117.980  0.00  0.00     0.006 C 
ENDBRANCH   8  11
ENDBRANCH   7   8
ENDBRANCH   1   7
BRANCH   6  13
ATOM     13  N   LIG d   1      -6.762  75.786 117.899  0.00  0.00    -0.311 N 
ATOM     14  C   LIG d   1      -8.067  75.910 118.140  0.00  0.00     0.210 C 
ATOM     15  C   LIG d   1      -8.472  75.747 119.608  0.00  0.00     0.109 C 
ATOM     16  O   LIG d   1      -8.930  76.107 117.272  0.00  0.00    -0.276 OA
ATOM     17  H   LIG d   1      -6.137  75.594 118.657  0.00  0.00     0.149 HD
ENDBRANCH   6  13
BRANCH   5  18
ATOM     18  N   LIG d   1      -6.117  73.461 116.025  0.00  0.00     0.381 N 
ATOM     19  H   LIG d   1      -5.770  72.770 116.660  0.00  0.00    -0.090 HD
ATOM     20  H   LIG d   1      -6.025  73.104 115.090  0.00  0.00    -0.090 HD
ATOM     21  H   LIG d   1      -7.074  73.653 116.222  0.00  0.00    -0.090 HD
ENDBRANCH   5  18
BRANCH   3  22
ATOM     22  C   LIG d   1      -2.886  76.276 113.885  0.00  0.00     0.382 C 
ATOM     23  O   LIG d   1      -1.781  75.798 114.237  0.00  0.00    -0.241 OA
ATOM     24  O   LIG d   1      -2.978  76.874 112.796  0.00  0.00    -0.241 OA
ENDBRANCH   3  22
TORSDOF 7
ENDMDL
MODEL 9
REMARK VINA RESULT:      -4.9      2.136      4.931
REMARK  7 active torsions:
REMARK  status: ('A' for Active; 'I' for Inactive)
REMARK    1  A    between atoms: C_2  and  C_3 
REMARK    2  A    between atoms: C_3  and  O_6 
REMARK    3  A    between atoms: C_3  and  C_4 
REMARK    4  A    between atoms: C_7  and  O_6 
REMARK    5  A    between atoms: C_9  and  C_10 
REMARK    6  A    between atoms: N_15  and  C_14 
REMARK    7  A    between atoms: N_20  and  C_19 
REMARK       I    between atoms: C_22  and  N_20 
ROOT
ATOM      1  C   LIG d   1      -7.203  77.738 116.968  0.00  0.00     0.161 C 
ATOM      2  C   LIG d   1      -6.941  76.883 115.885  0.00  0.00     0.016 C 
ATOM      3  C   LIG d   1      -5.636  76.569 115.439  0.00  0.00     0.038 C 
ATOM      4  C   LIG d   1      -4.494  76.973 116.146  0.00  0.00     0.028 C 
ATOM      5  C   LIG d   1      -4.700  78.252 116.950  0.00  0.00    -0.047 C 
ATOM      6  C   LIG d   1      -5.968  78.099 117.820  0.00  0.00     0.091 C 
ENDROOT
BRANCH   1   7
ATOM      7  O   LIG d   1      -8.237  77.172 117.798  0.00  0.00    -0.368 OA
BRANCH   7   8
ATOM      8  C   LIG d   1      -8.833  75.940 117.323  0.00  0.00     0.119 C 
BRANCH   8   9
ATOM      9  C   LIG d   1     -10.343  76.012 117.621  0.00  0.00     0.028 C 
ATOM     10  C   LIG d   1     -10.660  76.896 118.839  0.00  0.00     0.006 C 
ENDBRANCH   8   9
BRANCH   8  11
ATOM     11  C   LIG d   1      -8.320  74.732 118.112  0.00  0.00     0.028 C 
ATOM     12  C   LIG d   1      -8.349  73.431 117.296  0.00  0.00     0.006 C 
ENDBRANCH   8  11
ENDBRANCH   7   8
ENDBRANCH   1   7
BRANCH   6  13
ATOM     13  N   LIG d   1      -6.290  79.338 118.576  0.00  0.00    -0.311 N 
ATOM     14  C   LIG d   1      -6.479  80.522 117.996  0.00  0.00     0.210 C 
ATOM     15  C   LIG d   1      -6.781  81.673 118.960  0.00  0.00     0.109 C 
ATOM     16  O   LIG d   1      -6.457  80.722 116.772  0.00  0.00    -0.276 OA
ATOM     17  H   LIG d   1      -6.358  79.260 119.572  0.00  0.00     0.149 HD
ENDBRANCH   6  13
BRANCH   5  18
ATOM     18  N   LIG d   1      -3.478  78.481 117.744  0.00  0.00     0.381 N 
ATOM     19  H   LIG d   1      -3.712  78.943 118.600  0.00  0.00    -0.090 HD
ATOM     20  H   LIG d   1      -2.859  79.078 117.223  0.00  0.00    -0.090 HD
ATOM     21  H   LIG d   1      -3.030  77.613 117.938  0.00  0.00    -0.090 HD
ENDBRANCH   5  18
BRANCH   3  22
ATOM     22  C   LIG d   1      -5.464  75.876 114.250  0.00  0.00     0.382 C 
ATOM     23  O   LIG d   1      -5.059  74.689 114.270  0.00  0.00    -0.241 OA
ATOM     24  O   LIG d   1      -5.667  76.437 113.157  0.00  0.00    -0.241 OA
ENDBRANCH   3  22
TORSDOF 7
ENDMDL
