MODEL 1
REMARK VINA RESULT:      -5.6      0.000      0.000
REMARK  7 active torsions:
REMARK  status: ('A' for Active; 'I' for Inactive)
REMARK    1  A    between atoms: C_2  and  C_3 
REMARK    2  A    between atoms: C_3  and  O_6 
REMARK    3  A    between atoms: C_3  and  C_4 
REMARK    4  A    between atoms: C_7  and  O_6 
REMARK    5  A    between atoms: C_9  and  C_10 
REMARK    6  A    between atoms: N_15  and  C_14 
REMARK    7  A    between atoms: N_20  and  C_19 
REMARK       I    between atoms: C_22  and  N_20 
ROOT
ATOM      1  C   LIG d   1     -14.797  66.564 116.032  0.00  0.00     0.161 C 
ATOM      2  C   LIG d   1     -14.549  67.685 115.222  0.00  0.00     0.016 C 
ATOM      3  C   LIG d   1     -14.775  67.701 113.826  0.00  0.00     0.038 C 
ATOM      4  C   LIG d   1     -15.409  66.639 113.165  0.00  0.00     0.028 C 
ATOM      5  C   LIG d   1     -15.214  65.293 113.855  0.00  0.00    -0.047 C 
ATOM      6  C   LIG d   1     -15.593  65.434 115.347  0.00  0.00     0.091 C 
ENDROOT
BRANCH   1   7
ATOM      7  O   LIG d   1     -15.454  66.975 117.247  0.00  0.00    -0.368 OA
BRANCH   7   8
ATOM      8  C   LIG d   1     -14.695  66.808 118.470  0.00  0.00     0.119 C 
BRANCH   8   9
ATOM      9  C   LIG d   1     -15.625  66.145 119.505  0.00  0.00     0.028 C 
ATOM     10  C   LIG d   1     -17.068  66.671 119.419  0.00  0.00     0.006 C 
ENDBRANCH   8   9
BRANCH   8  11
ATOM     11  C   LIG d   1     -14.312  68.161 119.077  0.00  0.00     0.028 C 
ATOM     12  C   LIG d   1     -12.791  68.357 119.183  0.00  0.00     0.006 C 
ENDBRANCH   8  11
ENDBRANCH   7   8
ENDBRANCH   1   7
BRANCH   6  13
ATOM     13  N   LIG d   1     -15.351  64.184 116.114  0.00  0.00    -0.311 N 
ATOM     14  C   LIG d   1     -16.271  63.607 116.885  0.00  0.00     0.210 C 
ATOM     15  C   LIG d   1     -15.808  62.336 117.604  0.00  0.00     0.109 C 
ATOM     16  O   LIG d   1     -17.437  64.009 117.016  0.00  0.00    -0.276 OA
ATOM     17  H   LIG d   1     -14.441  63.773 116.041  0.00  0.00     0.149 HD
ENDBRANCH   6  13
BRANCH   5  18
ATOM     18  N   LIG d   1     -16.039  64.301 113.140  0.00  0.00     0.381 N 
ATOM     19  H   LIG d   1     -15.450  63.615 112.713  0.00  0.00    -0.090 HD
ATOM     20  H   LIG d   1     -16.555  64.769 112.416  0.00  0.00    -0.090 HD
ATOM     21  H   LIG d   1     -16.669  63.861 113.774  0.00  0.00    -0.090 HD
ENDBRANCH   5  18
BRANCH   3  22
ATOM     22  C   LIG d   1     -14.326  68.773 113.070  0.00  0.00     0.382 C 
ATOM     23  O   LIG d   1     -13.240  69.332 113.357  0.00  0.00    -0.241 OA
ATOM     24  O   LIG d   1     -15.016  69.217 112.133  0.00  0.00    -0.241 OA
ENDBRANCH   3  22
TORSDOF 7
ENDMDL
MODEL 2
REMARK VINA RESULT:      -5.6     13.083     15.635
REMARK  7 active torsions:
REMARK  status: ('A' for Active; 'I' for Inactive)
REMARK    1  A    between atoms: C_2  and  C_3 
REMARK    2  A    between atoms: C_3  and  O_6 
REMARK    3  A    between atoms: C_3  and  C_4 
REMARK    4  A    between atoms: C_7  and  O_6 
REMARK    5  A    between atoms: C_9  and  C_10 
REMARK    6  A    between atoms: N_15  and  C_14 
REMARK    7  A    between atoms: N_20  and  C_19 
REMARK       I    between atoms: C_22  and  N_20 
ROOT
ATOM      1  C   LIG d   1      -2.792  73.715 116.219  0.00  0.00     0.161 C 
ATOM      2  C   LIG d   1      -3.257  74.564 117.237  0.00  0.00     0.016 C 
ATOM      3  C   LIG d   1      -2.455  75.551 117.854  0.00  0.00     0.038 C 
ATOM      4  C   LIG d   1      -1.169  75.859 117.388  0.00  0.00     0.028 C 
ATOM      5  C   LIG d   1      -0.478  74.688 116.697  0.00  0.00    -0.047 C 
ATOM      6  C   LIG d   1      -1.426  74.111 115.621  0.00  0.00     0.091 C 
ENDROOT
BRANCH   1   7
ATOM      7  O   LIG d   1      -3.783  73.611 115.178  0.00  0.00    -0.368 OA
BRANCH   7   8
ATOM      8  C   LIG d   1      -5.119  74.055 115.523  0.00  0.00     0.119 C 
BRANCH   8   9
ATOM      9  C   LIG d   1      -6.073  72.864 115.307  0.00  0.00     0.028 C 
ATOM     10  C   LIG d   1      -7.076  72.699 116.461  0.00  0.00     0.006 C 
ENDBRANCH   8   9
BRANCH   8  11
ATOM     11  C   LIG d   1      -5.608  75.145 114.566  0.00  0.00     0.028 C 
ATOM     12  C   LIG d   1      -6.516  76.178 115.252  0.00  0.00     0.006 C 
ENDBRANCH   8  11
ENDBRANCH   7   8
ENDBRANCH   1   7
BRANCH   6  13
ATOM     13  N   LIG d   1      -0.861  72.908 114.955  0.00  0.00    -0.311 N 
ATOM     14  C   LIG d   1      -0.217  72.950 113.790  0.00  0.00     0.210 C 
ATOM     15  C   LIG d   1       0.267  71.593 113.269  0.00  0.00     0.109 C 
ATOM     16  O   LIG d   1       0.027  73.986 113.153  0.00  0.00    -0.276 OA
ATOM     17  H   LIG d   1      -0.987  72.029 115.417  0.00  0.00     0.149 HD
ENDBRANCH   6  13
BRANCH   5  18
ATOM     18  N   LIG d   1       0.794  75.186 116.140  0.00  0.00     0.381 N 
ATOM     19  H   LIG d   1       1.208  74.484 115.561  0.00  0.00    -0.090 HD
ATOM     20  H   LIG d   1       1.425  75.383 116.897  0.00  0.00    -0.090 HD
ATOM     21  H   LIG d   1       0.633  76.013 115.609  0.00  0.00    -0.090 HD
ENDBRANCH   5  18
BRANCH   3  22
ATOM     22  C   LIG d   1      -2.925  76.215 118.977  0.00  0.00     0.382 C 
ATOM     23  O   LIG d   1      -2.125  76.568 119.877  0.00  0.00    -0.241 OA
ATOM     24  O   LIG d   1      -4.144  76.426 119.123  0.00  0.00    -0.241 OA
ENDBRANCH   3  22
TORSDOF 7
ENDMDL
MODEL 3
REMARK VINA RESULT:      -5.6     11.344     14.095
REMARK  7 active torsions:
REMARK  status: ('A' for Active; 'I' for Inactive)
REMARK    1  A    between atoms: C_2  and  C_3 
REMARK    2  A    between atoms: C_3  and  O_6 
REMARK    3  A    between atoms: C_3  and  C_4 
REMARK    4  A    between atoms: C_7  and  O_6 
REMARK    5  A    between atoms: C_9  and  C_10 
REMARK    6  A    between atoms: N_15  and  C_14 
REMARK    7  A    between atoms: N_20  and  C_19 
REMARK       I    between atoms: C_22  and  N_20 
ROOT
ATOM      1  C   LIG d   1      -6.840  75.909 117.241  0.00  0.00     0.161 C 
ATOM      2  C   LIG d   1      -8.025  76.461 117.754  0.00  0.00     0.016 C 
ATOM      3  C   LIG d   1      -8.200  77.844 117.994  0.00  0.00     0.038 C 
ATOM      4  C   LIG d   1      -7.247  78.792 117.592  0.00  0.00     0.028 C 
ATOM      5  C   LIG d   1      -5.828  78.237 117.534  0.00  0.00    -0.047 C 
ATOM      6  C   LIG d   1      -5.830  76.940 116.694  0.00  0.00     0.091 C 
ENDROOT
BRANCH   1   7
ATOM      7  O   LIG d   1      -7.153  74.930 116.231  0.00  0.00    -0.368 OA
BRANCH   7   8
ATOM      8  C   LIG d   1      -7.234  73.555 116.680  0.00  0.00     0.119 C 
BRANCH   8   9
ATOM      9  C   LIG d   1      -6.232  72.735 115.845  0.00  0.00     0.028 C 
ATOM     10  C   LIG d   1      -5.647  73.542 114.673  0.00  0.00     0.006 C 
ENDBRANCH   8   9
BRANCH   8  11
ATOM     11  C   LIG d   1      -8.607  72.949 116.375  0.00  0.00     0.028 C 
ATOM     12  C   LIG d   1      -8.541  71.443 116.077  0.00  0.00     0.006 C 
ENDBRANCH   8  11
ENDBRANCH   7   8
ENDBRANCH   1   7
BRANCH   6  13
ATOM     13  N   LIG d   1      -4.496  76.286 116.656  0.00  0.00    -0.311 N 
ATOM     14  C   LIG d   1      -3.616  76.472 115.674  0.00  0.00     0.210 C 
ATOM     15  C   LIG d   1      -2.308  75.688 115.820  0.00  0.00     0.109 C 
ATOM     16  O   LIG d   1      -3.781  77.237 114.712  0.00  0.00    -0.276 OA
ATOM     17  H   LIG d   1      -4.267  75.673 117.414  0.00  0.00     0.149 HD
ENDBRANCH   6  13
BRANCH   5  18
ATOM     18  N   LIG d   1      -4.961  79.289 116.971  0.00  0.00     0.381 N 
ATOM     19  H   LIG d   1      -5.047  79.302 115.974  0.00  0.00    -0.090 HD
ATOM     20  H   LIG d   1      -4.005  79.082 117.203  0.00  0.00    -0.090 HD
ATOM     21  H   LIG d   1      -5.216  80.177 117.344  0.00  0.00    -0.090 HD
ENDBRANCH   5  18
BRANCH   3  22
ATOM     22  C   LIG d   1      -9.322  78.286 118.678  0.00  0.00     0.382 C 
ATOM     23  O   LIG d   1      -9.551  77.873 119.840  0.00  0.00    -0.241 OA
ATOM     24  O   LIG d   1     -10.131  79.059 118.131  0.00  0.00    -0.241 OA
ENDBRANCH   3  22
TORSDOF 7
ENDMDL
MODEL 4
REMARK VINA RESULT:      -5.6     10.870     13.561
REMARK  7 active torsions:
REMARK  status: ('A' for Active; 'I' for Inactive)
REMARK    1  A    between atoms: C_2  and  C_3 
REMARK    2  A    between atoms: C_3  and  O_6 
REMARK    3  A    between atoms: C_3  and  C_4 
REMARK    4  A    between atoms: C_7  and  O_6 
REMARK    5  A    between atoms: C_9  and  C_10 
REMARK    6  A    between atoms: N_15  and  C_14 
REMARK    7  A    between atoms: N_20  and  C_19 
REMARK       I    between atoms: C_22  and  N_20 
ROOT
ATOM      1  C   LIG d   1      -6.852  75.358 116.789  0.00  0.00     0.161 C 
ATOM      2  C   LIG d   1      -7.700  74.245 116.668  0.00  0.00     0.016 C 
ATOM      3  C   LIG d   1      -7.230  72.925 116.480  0.00  0.00     0.038 C 
ATOM      4  C   LIG d   1      -5.866  72.606 116.553  0.00  0.00     0.028 C 
ATOM      5  C   LIG d   1      -4.952  73.766 116.170  0.00  0.00    -0.047 C 
ATOM      6  C   LIG d   1      -5.360  75.016 116.983  0.00  0.00     0.091 C 
ENDROOT
BRANCH   1   7
ATOM      7  O   LIG d   1      -7.313  76.209 117.857  0.00  0.00    -0.368 OA
BRANCH   7   8
ATOM      8  C   LIG d   1      -7.681  77.560 117.482  0.00  0.00     0.119 C 
BRANCH   8   9
ATOM      9  C   LIG d   1      -6.834  78.524 118.335  0.00  0.00     0.028 C 
ATOM     10  C   LIG d   1      -6.114  79.583 117.483  0.00  0.00     0.006 C 
ENDBRANCH   8   9
BRANCH   8  11
ATOM     11  C   LIG d   1      -9.136  77.864 117.850  0.00  0.00     0.028 C 
ATOM     12  C   LIG d   1      -9.314  78.216 119.335  0.00  0.00     0.006 C 
ENDBRANCH   8  11
ENDBRANCH   7   8
ENDBRANCH   1   7
BRANCH   6  13
ATOM     13  N   LIG d   1      -4.571  76.218 116.608  0.00  0.00    -0.311 N 
ATOM     14  C   LIG d   1      -3.482  76.614 117.264  0.00  0.00     0.210 C 
ATOM     15  C   LIG d   1      -2.830  77.891 116.724  0.00  0.00     0.109 C 
ATOM     16  O   LIG d   1      -2.976  76.012 118.223  0.00  0.00    -0.276 OA
ATOM     17  H   LIG d   1      -4.893  76.748 115.822  0.00  0.00     0.149 HD
ENDBRANCH   6  13
BRANCH   5  18
ATOM     18  N   LIG d   1      -3.562  73.340 116.423  0.00  0.00     0.381 N 
ATOM     19  H   LIG d   1      -2.943  73.821 115.802  0.00  0.00    -0.090 HD
ATOM     20  H   LIG d   1      -3.486  72.354 116.243  0.00  0.00    -0.090 HD
ATOM     21  H   LIG d   1      -3.313  73.533 117.368  0.00  0.00    -0.090 HD
ENDBRANCH   5  18
BRANCH   3  22
ATOM     22  C   LIG d   1      -8.127  71.912 116.177  0.00  0.00     0.382 C 
ATOM     23  O   LIG d   1      -7.709  70.816 115.732  0.00  0.00    -0.241 OA
ATOM     24  O   LIG d   1      -9.353  72.096 116.301  0.00  0.00    -0.241 OA
ENDBRANCH   3  22
TORSDOF 7
ENDMDL
MODEL 5
REMARK VINA RESULT:      -5.5     10.857     13.505
REMARK  7 active torsions:
REMARK  status: ('A' for Active; 'I' for Inactive)
REMARK    1  A    between atoms: C_2  and  C_3 
REMARK    2  A    between atoms: C_3  and  O_6 
REMARK    3  A    between atoms: C_3  and  C_4 
REMARK    4  A    between atoms: C_7  and  O_6 
REMARK    5  A    between atoms: C_9  and  C_10 
REMARK    6  A    between atoms: N_15  and  C_14 
REMARK    7  A    between atoms: N_20  and  C_19 
REMARK       I    between atoms: C_22  and  N_20 
ROOT
ATOM      1  C   LIG d   1      -6.198  75.625 115.903  0.00  0.00     0.161 C 
ATOM      2  C   LIG d   1      -7.142  74.586 115.970  0.00  0.00     0.016 C 
ATOM      3  C   LIG d   1      -6.797  73.235 116.203  0.00  0.00     0.038 C 
ATOM      4  C   LIG d   1      -5.489  72.851 116.536  0.00  0.00     0.028 C 
ATOM      5  C   LIG d   1      -4.422  73.789 115.983  0.00  0.00    -0.047 C 
ATOM      6  C   LIG d   1      -4.780  75.241 116.374  0.00  0.00     0.091 C 
ENDROOT
BRANCH   1   7
ATOM      7  O   LIG d   1      -6.678  76.769 116.636  0.00  0.00    -0.368 OA
BRANCH   7   8
ATOM      8  C   LIG d   1      -7.465  76.484 117.819  0.00  0.00     0.119 C 
BRANCH   8   9
ATOM      9  C   LIG d   1      -8.750  77.329 117.734  0.00  0.00     0.028 C 
ATOM     10  C   LIG d   1      -8.486  78.826 117.970  0.00  0.00     0.006 C 
ENDBRANCH   8   9
BRANCH   8  11
ATOM     11  C   LIG d   1      -6.752  76.957 119.089  0.00  0.00     0.028 C 
ATOM     12  C   LIG d   1      -5.978  75.830 119.792  0.00  0.00     0.006 C 
ENDBRANCH   8  11
ENDBRANCH   7   8
ENDBRANCH   1   7
BRANCH   6  13
ATOM     13  N   LIG d   1      -3.832  76.232 115.801  0.00  0.00    -0.311 N 
ATOM     14  C   LIG d   1      -3.807  76.562 114.511  0.00  0.00     0.210 C 
ATOM     15  C   LIG d   1      -2.738  77.589 114.126  0.00  0.00     0.109 C 
ATOM     16  O   LIG d   1      -4.590  76.125 113.654  0.00  0.00    -0.276 OA
ATOM     17  H   LIG d   1      -3.182  76.659 116.431  0.00  0.00     0.149 HD
ENDBRANCH   6  13
BRANCH   5  18
ATOM     18  N   LIG d   1      -3.121  73.350 116.520  0.00  0.00     0.381 N 
ATOM     19  H   LIG d   1      -3.234  72.494 117.026  0.00  0.00    -0.090 HD
ATOM     20  H   LIG d   1      -2.778  74.049 117.155  0.00  0.00    -0.090 HD
ATOM     21  H   LIG d   1      -2.471  73.220 115.776  0.00  0.00    -0.090 HD
ENDBRANCH   5  18
BRANCH   3  22
ATOM     22  C   LIG d   1      -7.759  72.246 116.064  0.00  0.00     0.382 C 
ATOM     23  O   LIG d   1      -7.459  71.151 115.530  0.00  0.00    -0.241 OA
ATOM     24  O   LIG d   1      -8.933  72.452 116.424  0.00  0.00    -0.241 OA
ENDBRANCH   3  22
TORSDOF 7
ENDMDL
MODEL 6
REMARK VINA RESULT:      -5.4     11.491     14.307
REMARK  7 active torsions:
REMARK  status: ('A' for Active; 'I' for Inactive)
REMARK    1  A    between atoms: C_2  and  C_3 
REMARK    2  A    between atoms: C_3  and  O_6 
REMARK    3  A    between atoms: C_3  and  C_4 
REMARK    4  A    between atoms: C_7  and  O_6 
REMARK    5  A    between atoms: C_9  and  C_10 
REMARK    6  A    between atoms: N_15  and  C_14 
REMARK    7  A    between atoms: N_20  and  C_19 
REMARK       I    between atoms: C_22  and  N_20 
ROOT
ATOM      1  C   LIG d   1      -4.802  74.337 116.480  0.00  0.00     0.161 C 
ATOM      2  C   LIG d   1      -5.567  73.219 116.108  0.00  0.00     0.016 C 
ATOM      3  C   LIG d   1      -6.978  73.176 116.199  0.00  0.00     0.038 C 
ATOM      4  C   LIG d   1      -7.734  74.310 116.528  0.00  0.00     0.028 C 
ATOM      5  C   LIG d   1      -6.980  75.310 117.398  0.00  0.00    -0.047 C 
ATOM      6  C   LIG d   1      -5.618  75.622 116.736  0.00  0.00     0.091 C 
ENDROOT
BRANCH   1   7
ATOM      7  O   LIG d   1      -3.781  74.580 115.492  0.00  0.00    -0.368 OA
BRANCH   7   8
ATOM      8  C   LIG d   1      -2.429  74.720 115.995  0.00  0.00     0.119 C 
BRANCH   8   9
ATOM      9  C   LIG d   1      -1.711  75.756 115.109  0.00  0.00     0.028 C 
ATOM     10  C   LIG d   1      -2.684  76.769 114.483  0.00  0.00     0.006 C 
ENDBRANCH   8   9
BRANCH   8  11
ATOM     11  C   LIG d   1      -1.635  73.422 115.827  0.00  0.00     0.028 C 
ATOM     12  C   LIG d   1      -0.428  73.335 116.774  0.00  0.00     0.006 C 
ENDBRANCH   8  11
ENDBRANCH   7   8
ENDBRANCH   1   7
BRANCH   6  13
ATOM     13  N   LIG d   1      -4.780  76.528 117.564  0.00  0.00    -0.311 N 
ATOM     14  C   LIG d   1      -4.741  77.848 117.396  0.00  0.00     0.210 C 
ATOM     15  C   LIG d   1      -3.796  78.594 118.343  0.00  0.00     0.109 C 
ATOM     16  O   LIG d   1      -5.424  78.477 116.573  0.00  0.00    -0.276 OA
ATOM     17  H   LIG d   1      -4.217  76.105 118.277  0.00  0.00     0.149 HD
ENDBRANCH   6  13
BRANCH   5  18
ATOM     18  N   LIG d   1      -7.835  76.502 117.550  0.00  0.00     0.381 N 
ATOM     19  H   LIG d   1      -8.165  76.564 118.492  0.00  0.00    -0.090 HD
ATOM     20  H   LIG d   1      -8.629  76.412 116.942  0.00  0.00    -0.090 HD
ATOM     21  H   LIG d   1      -7.320  77.323 117.317  0.00  0.00    -0.090 HD
ENDBRANCH   5  18
BRANCH   3  22
ATOM     22  C   LIG d   1      -7.643  71.976 115.997  0.00  0.00     0.382 C 
ATOM     23  O   LIG d   1      -7.054  71.019 115.438  0.00  0.00    -0.241 OA
ATOM     24  O   LIG d   1      -8.838  71.853 116.327  0.00  0.00    -0.241 OA
ENDBRANCH   3  22
TORSDOF 7
ENDMDL
MODEL 7
REMARK VINA RESULT:      -5.3     12.183     14.706
REMARK  7 active torsions:
REMARK  status: ('A' for Active; 'I' for Inactive)
REMARK    1  A    between atoms: C_2  and  C_3 
REMARK    2  A    between atoms: C_3  and  O_6 
REMARK    3  A    between atoms: C_3  and  C_4 
REMARK    4  A    between atoms: C_7  and  O_6 
REMARK    5  A    between atoms: C_9  and  C_10 
REMARK    6  A    between atoms: N_15  and  C_14 
REMARK    7  A    between atoms: N_20  and  C_19 
REMARK       I    between atoms: C_22  and  N_20 
ROOT
ATOM      1  C   LIG d   1      -4.736  75.399 117.699  0.00  0.00     0.161 C 
ATOM      2  C   LIG d   1      -5.637  76.475 117.635  0.00  0.00     0.016 C 
ATOM      3  C   LIG d   1      -5.298  77.744 117.112  0.00  0.00     0.038 C 
ATOM      4  C   LIG d   1      -4.070  77.979 116.475  0.00  0.00     0.028 C 
ATOM      5  C   LIG d   1      -2.948  77.072 116.968  0.00  0.00    -0.047 C 
ATOM      6  C   LIG d   1      -3.427  75.604 116.908  0.00  0.00     0.091 C 
ENDROOT
BRANCH   1   7
ATOM      7  O   LIG d   1      -5.391  74.187 117.279  0.00  0.00    -0.368 OA
BRANCH   7   8
ATOM      8  C   LIG d   1      -6.463  74.343 116.316  0.00  0.00     0.119 C 
BRANCH   8   9
ATOM      9  C   LIG d   1      -7.428  73.156 116.502  0.00  0.00     0.028 C 
ATOM     10  C   LIG d   1      -6.971  71.902 115.737  0.00  0.00     0.006 C 
ENDBRANCH   8   9
BRANCH   8  11
ATOM     11  C   LIG d   1      -5.945  74.223 114.880  0.00  0.00     0.028 C 
ATOM     12  C   LIG d   1      -6.031  75.546 114.103  0.00  0.00     0.006 C 
ENDBRANCH   8  11
ENDBRANCH   7   8
ENDBRANCH   1   7
BRANCH   6  13
ATOM     13  N   LIG d   1      -2.419  74.656 117.452  0.00  0.00    -0.311 N 
ATOM     14  C   LIG d   1      -1.959  73.607 116.774  0.00  0.00     0.210 C 
ATOM     15  C   LIG d   1      -0.939  72.747 117.528  0.00  0.00     0.109 C 
ATOM     16  O   LIG d   1      -2.273  73.324 115.608  0.00  0.00    -0.276 OA
ATOM     17  H   LIG d   1      -2.086  74.828 118.381  0.00  0.00     0.149 HD
ENDBRANCH   6  13
BRANCH   5  18
ATOM     18  N   LIG d   1      -1.764  77.330 116.126  0.00  0.00     0.381 N 
ATOM     19  H   LIG d   1      -1.439  76.471 115.728  0.00  0.00    -0.090 HD
ATOM     20  H   LIG d   1      -1.033  77.708 116.701  0.00  0.00    -0.090 HD
ATOM     21  H   LIG d   1      -1.995  77.974 115.402  0.00  0.00    -0.090 HD
ENDBRANCH   5  18
BRANCH   3  22
ATOM     22  C   LIG d   1      -6.177  78.806 117.260  0.00  0.00     0.382 C 
ATOM     23  O   LIG d   1      -7.269  78.637 117.855  0.00  0.00    -0.241 OA
ATOM     24  O   LIG d   1      -5.913  79.918 116.767  0.00  0.00    -0.241 OA
ENDBRANCH   3  22
TORSDOF 7
ENDMDL
MODEL 8
REMARK VINA RESULT:      -5.2     25.691     28.044
REMARK  7 active torsions:
REMARK  status: ('A' for Active; 'I' for Inactive)
REMARK    1  A    between atoms: C_2  and  C_3 
REMARK    2  A    between atoms: C_3  and  O_6 
REMARK    3  A    between atoms: C_3  and  C_4 
REMARK    4  A    between atoms: C_7  and  O_6 
REMARK    5  A    between atoms: C_9  and  C_10 
REMARK    6  A    between atoms: N_15  and  C_14 
REMARK    7  A    between atoms: N_20  and  C_19 
REMARK       I    between atoms: C_22  and  N_20 
ROOT
ATOM      1  C   LIG d   1      -3.668  90.968 117.206  0.00  0.00     0.161 C 
ATOM      2  C   LIG d   1      -4.628  90.435 116.330  0.00  0.00     0.016 C 
ATOM      3  C   LIG d   1      -5.839  91.090 116.010  0.00  0.00     0.038 C 
ATOM      4  C   LIG d   1      -6.106  92.401 116.431  0.00  0.00     0.028 C 
ATOM      5  C   LIG d   1      -5.394  92.779 117.725  0.00  0.00    -0.047 C 
ATOM      6  C   LIG d   1      -3.891  92.447 117.587  0.00  0.00     0.091 C 
ENDROOT
BRANCH   1   7
ATOM      7  O   LIG d   1      -2.348  90.786 116.655  0.00  0.00    -0.368 OA
BRANCH   7   8
ATOM      8  C   LIG d   1      -1.421  90.019 117.461  0.00  0.00     0.119 C 
BRANCH   8   9
ATOM      9  C   LIG d   1      -0.026  90.161 116.823  0.00  0.00     0.028 C 
ATOM     10  C   LIG d   1       0.431  91.626 116.730  0.00  0.00     0.006 C 
ENDBRANCH   8   9
BRANCH   8  11
ATOM     11  C   LIG d   1      -1.741  88.522 117.407  0.00  0.00     0.028 C 
ATOM     12  C   LIG d   1      -2.122  87.944 118.779  0.00  0.00     0.006 C 
ENDBRANCH   8  11
ENDBRANCH   7   8
ENDBRANCH   1   7
BRANCH   6  13
ATOM     13  N   LIG d   1      -3.135  92.707 118.840  0.00  0.00    -0.311 N 
ATOM     14  C   LIG d   1      -2.138  93.587 118.925  0.00  0.00     0.210 C 
ATOM     15  C   LIG d   1      -1.480  93.686 120.305  0.00  0.00     0.109 C 
ATOM     16  O   LIG d   1      -1.758  94.317 117.998  0.00  0.00    -0.276 OA
ATOM     17  H   LIG d   1      -3.399  92.181 119.649  0.00  0.00     0.149 HD
ENDBRANCH   6  13
BRANCH   5  18
ATOM     18  N   LIG d   1      -5.649  94.211 117.973  0.00  0.00     0.381 N 
ATOM     19  H   LIG d   1      -6.547  94.462 117.609  0.00  0.00    -0.090 HD
ATOM     20  H   LIG d   1      -4.952  94.753 117.494  0.00  0.00    -0.090 HD
ATOM     21  H   LIG d   1      -5.614  94.399 118.950  0.00  0.00    -0.090 HD
ENDBRANCH   5  18
BRANCH   3  22
ATOM     22  C   LIG d   1      -6.817  90.416 115.294  0.00  0.00     0.382 C 
ATOM     23  O   LIG d   1      -7.130  90.804 114.143  0.00  0.00    -0.241 OA
ATOM     24  O   LIG d   1      -7.421  89.452 115.802  0.00  0.00    -0.241 OA
ENDBRANCH   3  22
TORSDOF 7
ENDMDL
MODEL 9
REMARK VINA RESULT:      -5.1     25.674     28.213
REMARK  7 active torsions:
REMARK  status: ('A' for Active; 'I' for Inactive)
REMARK    1  A    between atoms: C_2  and  C_3 
REMARK    2  A    between atoms: C_3  and  O_6 
REMARK    3  A    between atoms: C_3  and  C_4 
REMARK    4  A    between atoms: C_7  and  O_6 
REMARK    5  A    between atoms: C_9  and  C_10 
REMARK    6  A    between atoms: N_15  and  C_14 
REMARK    7  A    between atoms: N_20  and  C_19 
REMARK       I    between atoms: C_22  and  N_20 
ROOT
ATOM      1  C   LIG d   1       1.679  87.597 115.214  0.00  0.00     0.161 C 
ATOM      2  C   LIG d   1       0.484  87.654 115.949  0.00  0.00     0.016 C 
ATOM      3  C   LIG d   1       0.101  88.771 116.727  0.00  0.00     0.038 C 
ATOM      4  C   LIG d   1       0.821  89.974 116.701  0.00  0.00     0.028 C 
ATOM      5  C   LIG d   1       2.298  89.789 116.372  0.00  0.00    -0.047 C 
ATOM      6  C   LIG d   1       2.424  88.942 115.085  0.00  0.00     0.091 C 
ENDROOT
BRANCH   1   7
ATOM      7  O   LIG d   1       1.425  87.038 113.910  0.00  0.00    -0.368 OA
BRANCH   7   8
ATOM      8  C   LIG d   1       1.696  85.622 113.759  0.00  0.00     0.119 C 
BRANCH   8   9
ATOM      9  C   LIG d   1       3.179  85.475 113.367  0.00  0.00     0.028 C 
ATOM     10  C   LIG d   1       3.522  86.229 112.072  0.00  0.00     0.006 C 
ENDBRANCH   8   9
BRANCH   8  11
ATOM     11  C   LIG d   1       0.907  85.025 112.591  0.00  0.00     0.028 C 
ATOM     12  C   LIG d   1      -0.324  85.864 112.213  0.00  0.00     0.006 C 
ENDBRANCH   8  11
ENDBRANCH   7   8
ENDBRANCH   1   7
BRANCH   6  13
ATOM     13  N   LIG d   1       3.837  88.643 114.738  0.00  0.00    -0.311 N 
ATOM     14  C   LIG d   1       4.547  89.360 113.869  0.00  0.00     0.210 C 
ATOM     15  C   LIG d   1       5.980  88.867 113.642  0.00  0.00     0.109 C 
ATOM     16  O   LIG d   1       4.137  90.376 113.288  0.00  0.00    -0.276 OA
ATOM     17  H   LIG d   1       4.259  87.853 115.187  0.00  0.00     0.149 HD
ENDBRANCH   6  13
BRANCH   5  18
ATOM     18  N   LIG d   1       2.898  91.130 116.242  0.00  0.00     0.381 N 
ATOM     19  H   LIG d   1       3.250  91.431 117.129  0.00  0.00    -0.090 HD
ATOM     20  H   LIG d   1       2.187  91.777 115.949  0.00  0.00    -0.090 HD
ATOM     21  H   LIG d   1       3.636  91.111 115.573  0.00  0.00    -0.090 HD
ENDBRANCH   5  18
BRANCH   3  22
ATOM     22  C   LIG d   1      -0.993  88.676 117.573  0.00  0.00     0.382 C 
ATOM     23  O   LIG d   1      -2.097  88.279 117.129  0.00  0.00    -0.241 OA
ATOM     24  O   LIG d   1      -0.902  89.025 118.765  0.00  0.00    -0.241 OA
ENDBRANCH   3  22
TORSDOF 7
ENDMDL
