MODEL 1
REMARK VINA RESULT:      -5.9      0.000      0.000
REMARK  7 active torsions:
REMARK  status: ('A' for Active; 'I' for Inactive)
REMARK    1  A    between atoms: C_2  and  C_3 
REMARK    2  A    between atoms: C_3  and  O_6 
REMARK    3  A    between atoms: C_3  and  C_4 
REMARK    4  A    between atoms: C_7  and  O_6 
REMARK    5  A    between atoms: C_9  and  C_10 
REMARK    6  A    between atoms: N_15  and  C_14 
REMARK    7  A    between atoms: N_20  and  C_19 
REMARK       I    between atoms: C_22  and  N_20 
ROOT
ATOM      1  C   LIG d   1      -7.697  74.638 117.660  0.00  0.00     0.161 C 
ATOM      2  C   LIG d   1      -8.925  75.307 117.788  0.00  0.00     0.016 C 
ATOM      3  C   LIG d   1      -9.037  76.711 117.911  0.00  0.00     0.038 C 
ATOM      4  C   LIG d   1      -7.930  77.559 117.760  0.00  0.00     0.028 C 
ATOM      5  C   LIG d   1      -6.607  76.900 118.133  0.00  0.00    -0.047 C 
ATOM      6  C   LIG d   1      -6.487  75.554 117.382  0.00  0.00     0.091 C 
ENDROOT
BRANCH   1   7
ATOM      7  O   LIG d   1      -7.798  73.620 116.644  0.00  0.00    -0.368 OA
BRANCH   7   8
ATOM      8  C   LIG d   1      -7.768  72.249 117.110  0.00  0.00     0.119 C 
BRANCH   8   9
ATOM      9  C   LIG d   1      -6.875  71.450 116.142  0.00  0.00     0.028 C 
ATOM     10  C   LIG d   1      -6.091  72.360 115.181  0.00  0.00     0.006 C 
ENDBRANCH   8   9
BRANCH   8  11
ATOM     11  C   LIG d   1      -9.151  71.598 117.016  0.00  0.00     0.028 C 
ATOM     12  C   LIG d   1      -9.126  70.095 117.337  0.00  0.00     0.006 C 
ENDBRANCH   8  11
ENDBRANCH   7   8
ENDBRANCH   1   7
BRANCH   6  13
ATOM     13  N   LIG d   1      -5.259  74.805 117.755  0.00  0.00    -0.311 N 
ATOM     14  C   LIG d   1      -4.127  74.858 117.056  0.00  0.00     0.210 C 
ATOM     15  C   LIG d   1      -2.988  73.992 117.603  0.00  0.00     0.109 C 
ATOM     16  O   LIG d   1      -3.947  75.566 116.054  0.00  0.00    -0.276 OA
ATOM     17  H   LIG d   1      -5.307  74.229 118.573  0.00  0.00     0.149 HD
ENDBRANCH   6  13
BRANCH   5  18
ATOM     18  N   LIG d   1      -5.527  77.847 117.798  0.00  0.00     0.381 N 
ATOM     19  H   LIG d   1      -4.921  77.442 117.113  0.00  0.00    -0.090 HD
ATOM     20  H   LIG d   1      -4.988  78.032 118.626  0.00  0.00    -0.090 HD
ATOM     21  H   LIG d   1      -5.914  78.696 117.449  0.00  0.00    -0.090 HD
ENDBRANCH   5  18
BRANCH   3  22
ATOM     22  C   LIG d   1     -10.263  77.278 118.226  0.00  0.00     0.382 C 
ATOM     23  O   LIG d   1     -11.310  76.590 118.151  0.00  0.00    -0.241 OA
ATOM     24  O   LIG d   1     -10.340  78.480 118.543  0.00  0.00    -0.241 OA
ENDBRANCH   3  22
TORSDOF 7
ENDMDL
MODEL 2
REMARK VINA RESULT:      -5.7      1.487      2.434
REMARK  7 active torsions:
REMARK  status: ('A' for Active; 'I' for Inactive)
REMARK    1  A    between atoms: C_2  and  C_3 
REMARK    2  A    between atoms: C_3  and  O_6 
REMARK    3  A    between atoms: C_3  and  C_4 
REMARK    4  A    between atoms: C_7  and  O_6 
REMARK    5  A    between atoms: C_9  and  C_10 
REMARK    6  A    between atoms: N_15  and  C_14 
REMARK    7  A    between atoms: N_20  and  C_19 
REMARK       I    between atoms: C_22  and  N_20 
ROOT
ATOM      1  C   LIG d   1      -7.140  74.465 118.345  0.00  0.00     0.161 C 
ATOM      2  C   LIG d   1      -8.489  74.524 117.956  0.00  0.00     0.016 C 
ATOM      3  C   LIG d   1      -9.181  75.736 117.727  0.00  0.00     0.038 C 
ATOM      4  C   LIG d   1      -8.524  76.976 117.725  0.00  0.00     0.028 C 
ATOM      5  C   LIG d   1      -7.280  77.003 118.607  0.00  0.00    -0.047 C 
ATOM      6  C   LIG d   1      -6.378  75.803 118.239  0.00  0.00     0.091 C 
ENDROOT
BRANCH   1   7
ATOM      7  O   LIG d   1      -6.460  73.440 117.594  0.00  0.00    -0.368 OA
BRANCH   7   8
ATOM      8  C   LIG d   1      -6.822  73.327 116.196  0.00  0.00     0.119 C 
BRANCH   8   9
ATOM      9  C   LIG d   1      -6.999  71.829 115.883  0.00  0.00     0.028 C 
ATOM     10  C   LIG d   1      -8.247  71.232 116.556  0.00  0.00     0.006 C 
ENDBRANCH   8   9
BRANCH   8  11
ATOM     11  C   LIG d   1      -5.684  73.800 115.286  0.00  0.00     0.028 C 
ATOM     12  C   LIG d   1      -5.889  75.234 114.772  0.00  0.00     0.006 C 
ENDBRANCH   8  11
ENDBRANCH   7   8
ENDBRANCH   1   7
BRANCH   6  13
ATOM     13  N   LIG d   1      -5.179  75.706 119.112  0.00  0.00    -0.311 N 
ATOM     14  C   LIG d   1      -3.932  75.681 118.645  0.00  0.00     0.210 C 
ATOM     15  C   LIG d   1      -2.843  75.558 119.715  0.00  0.00     0.109 C 
ATOM     16  O   LIG d   1      -3.623  75.780 117.448  0.00  0.00    -0.276 OA
ATOM     17  H   LIG d   1      -5.337  75.653 120.100  0.00  0.00     0.149 HD
ENDBRANCH   6  13
BRANCH   5  18
ATOM     18  N   LIG d   1      -6.619  78.306 118.404  0.00  0.00     0.381 N 
ATOM     19  H   LIG d   1      -6.017  78.260 117.605  0.00  0.00    -0.090 HD
ATOM     20  H   LIG d   1      -6.057  78.515 119.210  0.00  0.00    -0.090 HD
ATOM     21  H   LIG d   1      -7.302  79.019 118.273  0.00  0.00    -0.090 HD
ENDBRANCH   5  18
BRANCH   3  22
ATOM     22  C   LIG d   1     -10.554  75.718 117.536  0.00  0.00     0.382 C 
ATOM     23  O   LIG d   1     -11.262  76.651 117.986  0.00  0.00    -0.241 OA
ATOM     24  O   LIG d   1     -11.099  74.759 116.957  0.00  0.00    -0.241 OA
ENDBRANCH   3  22
TORSDOF 7
ENDMDL
MODEL 3
REMARK VINA RESULT:      -5.1      2.269      4.778
REMARK  7 active torsions:
REMARK  status: ('A' for Active; 'I' for Inactive)
REMARK    1  A    between atoms: C_2  and  C_3 
REMARK    2  A    between atoms: C_3  and  O_6 
REMARK    3  A    between atoms: C_3  and  C_4 
REMARK    4  A    between atoms: C_7  and  O_6 
REMARK    5  A    between atoms: C_9  and  C_10 
REMARK    6  A    between atoms: N_15  and  C_14 
REMARK    7  A    between atoms: N_20  and  C_19 
REMARK       I    between atoms: C_22  and  N_20 
ROOT
ATOM      1  C   LIG d   1      -6.411  74.915 117.500  0.00  0.00     0.161 C 
ATOM      2  C   LIG d   1      -6.770  73.621 117.086  0.00  0.00     0.016 C 
ATOM      3  C   LIG d   1      -8.110  73.190 116.956  0.00  0.00     0.038 C 
ATOM      4  C   LIG d   1      -9.190  74.076 117.086  0.00  0.00     0.028 C 
ATOM      5  C   LIG d   1      -8.893  75.263 117.996  0.00  0.00    -0.047 C 
ATOM      6  C   LIG d   1      -7.574  75.928 117.539  0.00  0.00     0.091 C 
ENDROOT
BRANCH   1   7
ATOM      7  O   LIG d   1      -5.341  75.413 116.673  0.00  0.00    -0.368 OA
BRANCH   7   8
ATOM      8  C   LIG d   1      -4.514  74.412 116.029  0.00  0.00     0.119 C 
BRANCH   8   9
ATOM      9  C   LIG d   1      -3.085  74.564 116.585  0.00  0.00     0.028 C 
ATOM     10  C   LIG d   1      -2.038  74.740 115.473  0.00  0.00     0.006 C 
ENDBRANCH   8   9
BRANCH   8  11
ATOM     11  C   LIG d   1      -4.394  74.672 114.525  0.00  0.00     0.028 C 
ATOM     12  C   LIG d   1      -5.491  75.607 113.992  0.00  0.00     0.006 C 
ENDBRANCH   8  11
ENDBRANCH   7   8
ENDBRANCH   1   7
BRANCH   6  13
ATOM     13  N   LIG d   1      -7.166  77.047 118.427  0.00  0.00    -0.311 N 
ATOM     14  C   LIG d   1      -6.688  78.205 117.975  0.00  0.00     0.210 C 
ATOM     15  C   LIG d   1      -6.309  79.217 119.061  0.00  0.00     0.109 C 
ATOM     16  O   LIG d   1      -6.571  78.502 116.776  0.00  0.00    -0.276 OA
ATOM     17  H   LIG d   1      -7.257  76.903 119.414  0.00  0.00     0.149 HD
ENDBRANCH   6  13
BRANCH   5  18
ATOM     18  N   LIG d   1     -10.052  76.174 117.932  0.00  0.00     0.381 N 
ATOM     19  H   LIG d   1     -10.277  76.500 118.850  0.00  0.00    -0.090 HD
ATOM     20  H   LIG d   1     -10.843  75.669 117.573  0.00  0.00    -0.090 HD
ATOM     21  H   LIG d   1      -9.845  76.947 117.338  0.00  0.00    -0.090 HD
ENDBRANCH   5  18
BRANCH   3  22
ATOM     22  C   LIG d   1      -8.382  71.849 116.731  0.00  0.00     0.382 C 
ATOM     23  O   LIG d   1      -7.677  71.193 115.927  0.00  0.00    -0.241 OA
ATOM     24  O   LIG d   1      -9.350  71.298 117.289  0.00  0.00    -0.241 OA
ENDBRANCH   3  22
TORSDOF 7
ENDMDL
MODEL 4
REMARK VINA RESULT:      -5.1      2.482      4.345
REMARK  7 active torsions:
REMARK  status: ('A' for Active; 'I' for Inactive)
REMARK    1  A    between atoms: C_2  and  C_3 
REMARK    2  A    between atoms: C_3  and  O_6 
REMARK    3  A    between atoms: C_3  and  C_4 
REMARK    4  A    between atoms: C_7  and  O_6 
REMARK    5  A    between atoms: C_9  and  C_10 
REMARK    6  A    between atoms: N_15  and  C_14 
REMARK    7  A    between atoms: N_20  and  C_19 
REMARK       I    between atoms: C_22  and  N_20 
ROOT
ATOM      1  C   LIG d   1      -6.940  76.367 117.115  0.00  0.00     0.161 C 
ATOM      2  C   LIG d   1      -6.524  77.702 117.250  0.00  0.00     0.016 C 
ATOM      3  C   LIG d   1      -7.334  78.717 117.808  0.00  0.00     0.038 C 
ATOM      4  C   LIG d   1      -8.568  78.433 118.412  0.00  0.00     0.028 C 
ATOM      5  C   LIG d   1      -9.246  77.189 117.848  0.00  0.00    -0.047 C 
ATOM      6  C   LIG d   1      -8.240  76.015 117.869  0.00  0.00     0.091 C 
ENDROOT
BRANCH   1   7
ATOM      7  O   LIG d   1      -5.875  75.480 117.511  0.00  0.00    -0.368 OA
BRANCH   7   8
ATOM      8  C   LIG d   1      -4.907  75.149 116.486  0.00  0.00     0.119 C 
BRANCH   8   9
ATOM      9  C   LIG d   1      -5.690  74.680 115.244  0.00  0.00     0.028 C 
ATOM     10  C   LIG d   1      -5.116  75.255 113.938  0.00  0.00     0.006 C 
ENDBRANCH   8   9
BRANCH   8  11
ATOM     11  C   LIG d   1      -4.047  73.950 116.899  0.00  0.00     0.028 C 
ATOM     12  C   LIG d   1      -2.946  74.325 117.903  0.00  0.00     0.006 C 
ENDBRANCH   8  11
ENDBRANCH   7   8
ENDBRANCH   1   7
BRANCH   6  13
ATOM     13  N   LIG d   1      -8.796  74.781 117.256  0.00  0.00    -0.311 N 
ATOM     14  C   LIG d   1      -8.567  73.559 117.733  0.00  0.00     0.210 C 
ATOM     15  C   LIG d   1      -9.219  72.422 116.938  0.00  0.00     0.109 C 
ATOM     16  O   LIG d   1      -7.913  73.310 118.757  0.00  0.00    -0.276 OA
ATOM     17  H   LIG d   1      -9.364  74.893 116.439  0.00  0.00     0.149 HD
ENDBRANCH   6  13
BRANCH   5  18
ATOM     18  N   LIG d   1     -10.451  76.931 118.658  0.00  0.00     0.381 N 
ATOM     19  H   LIG d   1     -10.503  77.592 119.408  0.00  0.00    -0.090 HD
ATOM     20  H   LIG d   1     -10.386  76.010 119.054  0.00  0.00    -0.090 HD
ATOM     21  H   LIG d   1     -11.266  76.999 118.089  0.00  0.00    -0.090 HD
ENDBRANCH   5  18
BRANCH   3  22
ATOM     22  C   LIG d   1      -6.929  80.041 117.730  0.00  0.00     0.382 C 
ATOM     23  O   LIG d   1      -7.734  80.921 117.342  0.00  0.00    -0.241 OA
ATOM     24  O   LIG d   1      -5.755  80.359 118.001  0.00  0.00    -0.241 OA
ENDBRANCH   3  22
TORSDOF 7
ENDMDL
MODEL 5
REMARK VINA RESULT:      -5.1      1.928      2.465
REMARK  7 active torsions:
REMARK  status: ('A' for Active; 'I' for Inactive)
REMARK    1  A    between atoms: C_2  and  C_3 
REMARK    2  A    between atoms: C_3  and  O_6 
REMARK    3  A    between atoms: C_3  and  C_4 
REMARK    4  A    between atoms: C_7  and  O_6 
REMARK    5  A    between atoms: C_9  and  C_10 
REMARK    6  A    between atoms: N_15  and  C_14 
REMARK    7  A    between atoms: N_20  and  C_19 
REMARK       I    between atoms: C_22  and  N_20 
ROOT
ATOM      1  C   LIG d   1      -6.651  76.178 117.091  0.00  0.00     0.161 C 
ATOM      2  C   LIG d   1      -7.995  76.366 117.455  0.00  0.00     0.016 C 
ATOM      3  C   LIG d   1      -8.508  77.596 117.928  0.00  0.00     0.038 C 
ATOM      4  C   LIG d   1      -7.740  78.769 117.926  0.00  0.00     0.028 C 
ATOM      5  C   LIG d   1      -6.241  78.513 118.043  0.00  0.00    -0.047 C 
ATOM      6  C   LIG d   1      -5.824  77.476 116.976  0.00  0.00     0.091 C 
ENDROOT
BRANCH   1   7
ATOM      7  O   LIG d   1      -6.579  75.427 115.862  0.00  0.00    -0.368 OA
BRANCH   7   8
ATOM      8  C   LIG d   1      -5.714  74.265 115.875  0.00  0.00     0.119 C 
BRANCH   8   9
ATOM      9  C   LIG d   1      -4.872  74.300 114.585  0.00  0.00     0.028 C 
ATOM     10  C   LIG d   1      -5.121  75.571 113.756  0.00  0.00     0.006 C 
ENDBRANCH   8   9
BRANCH   8  11
ATOM     11  C   LIG d   1      -6.524  72.967 115.797  0.00  0.00     0.028 C 
ATOM     12  C   LIG d   1      -7.052  72.510 117.166  0.00  0.00     0.006 C 
ENDBRANCH   8  11
ENDBRANCH   7   8
ENDBRANCH   1   7
BRANCH   6  13
ATOM     13  N   LIG d   1      -4.389  77.104 117.076  0.00  0.00    -0.311 N 
ATOM     14  C   LIG d   1      -3.430  77.683 116.355  0.00  0.00     0.210 C 
ATOM     15  C   LIG d   1      -2.019  77.137 116.598  0.00  0.00     0.109 C 
ATOM     16  O   LIG d   1      -3.609  78.619 115.562  0.00  0.00    -0.276 OA
ATOM     17  H   LIG d   1      -4.150  76.375 117.719  0.00  0.00     0.149 HD
ENDBRANCH   6  13
BRANCH   5  18
ATOM     18  N   LIG d   1      -5.554  79.809 117.889  0.00  0.00     0.381 N 
ATOM     19  H   LIG d   1      -6.226  80.532 117.729  0.00  0.00    -0.090 HD
ATOM     20  H   LIG d   1      -4.945  79.762 117.091  0.00  0.00    -0.090 HD
ATOM     21  H   LIG d   1      -5.024  80.013 118.708  0.00  0.00    -0.090 HD
ENDBRANCH   5  18
BRANCH   3  22
ATOM     22  C   LIG d   1      -9.792  77.650 118.449  0.00  0.00     0.382 C 
ATOM     23  O   LIG d   1     -10.385  76.591 118.766  0.00  0.00    -0.241 OA
ATOM     24  O   LIG d   1     -10.382  78.741 118.563  0.00  0.00    -0.241 OA
ENDBRANCH   3  22
TORSDOF 7
ENDMDL
MODEL 6
REMARK VINA RESULT:      -5.0     16.947     18.690
REMARK  7 active torsions:
REMARK  status: ('A' for Active; 'I' for Inactive)
REMARK    1  A    between atoms: C_2  and  C_3 
REMARK    2  A    between atoms: C_3  and  O_6 
REMARK    3  A    between atoms: C_3  and  C_4 
REMARK    4  A    between atoms: C_7  and  O_6 
REMARK    5  A    between atoms: C_9  and  C_10 
REMARK    6  A    between atoms: N_15  and  C_14 
REMARK    7  A    between atoms: N_20  and  C_19 
REMARK       I    between atoms: C_22  and  N_20 
ROOT
ATOM      1  C   LIG d   1       3.111  89.657 115.716  0.00  0.00     0.161 C 
ATOM      2  C   LIG d   1       1.965  90.431 115.967  0.00  0.00     0.016 C 
ATOM      3  C   LIG d   1       1.820  91.260 117.102  0.00  0.00     0.038 C 
ATOM      4  C   LIG d   1       2.879  91.489 117.994  0.00  0.00     0.028 C 
ATOM      5  C   LIG d   1       3.878  90.339 118.056  0.00  0.00    -0.047 C 
ATOM      6  C   LIG d   1       4.320  89.980 116.619  0.00  0.00     0.091 C 
ENDROOT
BRANCH   1   7
ATOM      7  O   LIG d   1       3.480  89.766 114.327  0.00  0.00    -0.368 OA
BRANCH   7   8
ATOM      8  C   LIG d   1       3.329  88.564 113.531  0.00  0.00     0.119 C 
BRANCH   8   9
ATOM      9  C   LIG d   1       2.798  87.456 114.462  0.00  0.00     0.028 C 
ATOM     10  C   LIG d   1       3.703  86.213 114.468  0.00  0.00     0.006 C 
ENDBRANCH   8   9
BRANCH   8  11
ATOM     11  C   LIG d   1       4.682  88.056 113.027  0.00  0.00     0.028 C 
ATOM     12  C   LIG d   1       5.778  89.133 113.074  0.00  0.00     0.006 C 
ENDBRANCH   8  11
ENDBRANCH   7   8
ENDBRANCH   1   7
BRANCH   6  13
ATOM     13  N   LIG d   1       5.233  88.808 116.583  0.00  0.00    -0.311 N 
ATOM     14  C   LIG d   1       6.560  88.911 116.626  0.00  0.00     0.210 C 
ATOM     15  C   LIG d   1       7.315  87.580 116.557  0.00  0.00     0.109 C 
ATOM     16  O   LIG d   1       7.183  89.977 116.747  0.00  0.00    -0.276 OA
ATOM     17  H   LIG d   1       4.811  87.902 116.517  0.00  0.00     0.149 HD
ENDBRANCH   6  13
BRANCH   5  18
ATOM     18  N   LIG d   1       4.998  90.767 118.915  0.00  0.00     0.381 N 
ATOM     19  H   LIG d   1       5.818  90.904 118.359  0.00  0.00    -0.090 HD
ATOM     20  H   LIG d   1       5.188  90.044 119.586  0.00  0.00    -0.090 HD
ATOM     21  H   LIG d   1       4.762  91.613 119.386  0.00  0.00    -0.090 HD
ENDBRANCH   5  18
BRANCH   3  22
ATOM     22  C   LIG d   1       0.590  91.839 117.377  0.00  0.00     0.382 C 
ATOM     23  O   LIG d   1      -0.102  91.416 118.334  0.00  0.00    -0.241 OA
ATOM     24  O   LIG d   1       0.145  92.750 116.654  0.00  0.00    -0.241 OA
ENDBRANCH   3  22
TORSDOF 7
ENDMDL
MODEL 7
REMARK VINA RESULT:      -5.0      1.906      4.536
REMARK  7 active torsions:
REMARK  status: ('A' for Active; 'I' for Inactive)
REMARK    1  A    between atoms: C_2  and  C_3 
REMARK    2  A    between atoms: C_3  and  O_6 
REMARK    3  A    between atoms: C_3  and  C_4 
REMARK    4  A    between atoms: C_7  and  O_6 
REMARK    5  A    between atoms: C_9  and  C_10 
REMARK    6  A    between atoms: N_15  and  C_14 
REMARK    7  A    between atoms: N_20  and  C_19 
REMARK       I    between atoms: C_22  and  N_20 
ROOT
ATOM      1  C   LIG d   1      -6.727  74.662 116.740  0.00  0.00     0.161 C 
ATOM      2  C   LIG d   1      -6.076  74.548 115.500  0.00  0.00     0.016 C 
ATOM      3  C   LIG d   1      -4.942  75.314 115.143  0.00  0.00     0.038 C 
ATOM      4  C   LIG d   1      -4.287  76.142 116.066  0.00  0.00     0.028 C 
ATOM      5  C   LIG d   1      -5.204  76.669 117.165  0.00  0.00    -0.047 C 
ATOM      6  C   LIG d   1      -5.961  75.480 117.800  0.00  0.00     0.091 C 
ENDROOT
BRANCH   1   7
ATOM      7  O   LIG d   1      -7.041  73.351 117.249  0.00  0.00    -0.368 OA
BRANCH   7   8
ATOM      8  C   LIG d   1      -8.056  72.612 116.526  0.00  0.00     0.119 C 
BRANCH   8   9
ATOM      9  C   LIG d   1      -9.383  72.779 117.292  0.00  0.00     0.028 C 
ATOM     10  C   LIG d   1     -10.072  74.120 116.988  0.00  0.00     0.006 C 
ENDBRANCH   8   9
BRANCH   8  11
ATOM     11  C   LIG d   1      -7.767  71.109 116.539  0.00  0.00     0.028 C 
ATOM     12  C   LIG d   1      -8.895  70.290 117.186  0.00  0.00     0.006 C 
ENDBRANCH   8  11
ENDBRANCH   7   8
ENDBRANCH   1   7
BRANCH   6  13
ATOM     13  N   LIG d   1      -6.942  75.917 118.827  0.00  0.00    -0.311 N 
ATOM     14  C   LIG d   1      -7.949  76.750 118.572  0.00  0.00     0.210 C 
ATOM     15  C   LIG d   1      -8.832  77.086 119.778  0.00  0.00     0.109 C 
ATOM     16  O   LIG d   1      -8.214  77.217 117.455  0.00  0.00    -0.276 OA
ATOM     17  H   LIG d   1      -6.819  75.560 119.755  0.00  0.00     0.149 HD
ENDBRANCH   6  13
BRANCH   5  18
ATOM     18  N   LIG d   1      -4.365  77.404 118.131  0.00  0.00     0.381 N 
ATOM     19  H   LIG d   1      -4.889  77.586 118.964  0.00  0.00    -0.090 HD
ATOM     20  H   LIG d   1      -4.099  78.284 117.727  0.00  0.00    -0.090 HD
ATOM     21  H   LIG d   1      -3.552  76.871 118.351  0.00  0.00    -0.090 HD
ENDBRANCH   5  18
BRANCH   3  22
ATOM     22  C   LIG d   1      -4.476  75.284 113.838  0.00  0.00     0.382 C 
ATOM     23  O   LIG d   1      -4.246  76.357 113.230  0.00  0.00    -0.241 OA
ATOM     24  O   LIG d   1      -4.325  74.199 113.245  0.00  0.00    -0.241 OA
ENDBRANCH   3  22
TORSDOF 7
ENDMDL
MODEL 8
REMARK VINA RESULT:      -4.7      2.579      4.727
REMARK  7 active torsions:
REMARK  status: ('A' for Active; 'I' for Inactive)
REMARK    1  A    between atoms: C_2  and  C_3 
REMARK    2  A    between atoms: C_3  and  O_6 
REMARK    3  A    between atoms: C_3  and  C_4 
REMARK    4  A    between atoms: C_7  and  O_6 
REMARK    5  A    between atoms: C_9  and  C_10 
REMARK    6  A    between atoms: N_15  and  C_14 
REMARK    7  A    between atoms: N_20  and  C_19 
REMARK       I    between atoms: C_22  and  N_20 
ROOT
ATOM      1  C   LIG d   1      -6.971  76.938 117.230  0.00  0.00     0.161 C 
ATOM      2  C   LIG d   1      -7.747  75.787 117.015  0.00  0.00     0.016 C 
ATOM      3  C   LIG d   1      -9.111  75.691 117.373  0.00  0.00     0.038 C 
ATOM      4  C   LIG d   1      -9.837  76.799 117.836  0.00  0.00     0.028 C 
ATOM      5  C   LIG d   1      -8.971  77.837 118.541  0.00  0.00    -0.047 C 
ATOM      6  C   LIG d   1      -7.773  78.193 117.632  0.00  0.00     0.091 C 
ENDROOT
BRANCH   1   7
ATOM      7  O   LIG d   1      -6.166  77.209 116.065  0.00  0.00    -0.368 OA
BRANCH   7   8
ATOM      8  C   LIG d   1      -4.747  76.947 116.196  0.00  0.00     0.119 C 
BRANCH   8   9
ATOM      9  C   LIG d   1      -4.406  75.768 115.265  0.00  0.00     0.028 C 
ATOM     10  C   LIG d   1      -5.417  75.617 114.115  0.00  0.00     0.006 C 
ENDBRANCH   8   9
BRANCH   8  11
ATOM     11  C   LIG d   1      -4.397  76.464 117.607  0.00  0.00     0.028 C 
ATOM     12  C   LIG d   1      -3.799  75.048 117.620  0.00  0.00     0.006 C 
ENDBRANCH   8  11
ENDBRANCH   7   8
ENDBRANCH   1   7
BRANCH   6  13
ATOM     13  N   LIG d   1      -6.830  79.141 118.282  0.00  0.00    -0.311 N 
ATOM     14  C   LIG d   1      -6.828  80.451 118.045  0.00  0.00     0.210 C 
ATOM     15  C   LIG d   1      -5.760  81.244 118.804  0.00  0.00     0.109 C 
ATOM     16  O   LIG d   1      -7.631  81.037 117.303  0.00  0.00    -0.276 OA
ATOM     17  H   LIG d   1      -6.164  78.755 118.922  0.00  0.00     0.149 HD
ENDBRANCH   6  13
BRANCH   5  18
ATOM     18  N   LIG d   1      -9.828  78.998 118.849  0.00  0.00     0.381 N 
ATOM     19  H   LIG d   1      -9.271  79.827 118.895  0.00  0.00    -0.090 HD
ATOM     20  H   LIG d   1     -10.258  78.856 119.746  0.00  0.00    -0.090 HD
ATOM     21  H   LIG d   1     -10.530  79.098 118.149  0.00  0.00    -0.090 HD
ENDBRANCH   5  18
BRANCH   3  22
ATOM     22  C   LIG d   1      -9.754  74.464 117.306  0.00  0.00     0.382 C 
ATOM     23  O   LIG d   1      -9.088  73.403 117.371  0.00  0.00    -0.241 OA
ATOM     24  O   LIG d   1     -10.987  74.405 117.137  0.00  0.00    -0.241 OA
ENDBRANCH   3  22
TORSDOF 7
ENDMDL
MODEL 9
REMARK VINA RESULT:      -4.7     17.993     19.688
REMARK  7 active torsions:
REMARK  status: ('A' for Active; 'I' for Inactive)
REMARK    1  A    between atoms: C_2  and  C_3 
REMARK    2  A    between atoms: C_3  and  O_6 
REMARK    3  A    between atoms: C_3  and  C_4 
REMARK    4  A    between atoms: C_7  and  O_6 
REMARK    5  A    between atoms: C_9  and  C_10 
REMARK    6  A    between atoms: N_15  and  C_14 
REMARK    7  A    between atoms: N_20  and  C_19 
REMARK       I    between atoms: C_22  and  N_20 
ROOT
ATOM      1  C   LIG d   1       4.104  90.381 116.101  0.00  0.00     0.161 C 
ATOM      2  C   LIG d   1       3.523  89.775 114.974  0.00  0.00     0.016 C 
ATOM      3  C   LIG d   1       4.098  88.672 114.301  0.00  0.00     0.038 C 
ATOM      4  C   LIG d   1       5.223  88.001 114.803  0.00  0.00     0.028 C 
ATOM      5  C   LIG d   1       6.128  88.887 115.652  0.00  0.00    -0.047 C 
ATOM      6  C   LIG d   1       5.272  89.593 116.729  0.00  0.00     0.091 C 
ENDROOT
BRANCH   1   7
ATOM      7  O   LIG d   1       3.089  90.646 117.090  0.00  0.00    -0.368 OA
BRANCH   7   8
ATOM      8  C   LIG d   1       2.601  92.009 117.153  0.00  0.00     0.119 C 
BRANCH   8   9
ATOM      9  C   LIG d   1       3.147  92.636 118.450  0.00  0.00     0.028 C 
ATOM     10  C   LIG d   1       2.811  91.796 119.694  0.00  0.00     0.006 C 
ENDBRANCH   8   9
BRANCH   8  11
ATOM     11  C   LIG d   1       1.077  92.049 117.292  0.00  0.00     0.028 C 
ATOM     12  C   LIG d   1       0.387  90.838 116.645  0.00  0.00     0.006 C 
ENDBRANCH   8  11
ENDBRANCH   7   8
ENDBRANCH   1   7
BRANCH   6  13
ATOM     13  N   LIG d   1       6.066  90.544 117.550  0.00  0.00    -0.311 N 
ATOM     14  C   LIG d   1       6.172  90.457 118.875  0.00  0.00     0.210 C 
ATOM     15  C   LIG d   1       7.022  91.551 119.529  0.00  0.00     0.109 C 
ATOM     16  O   LIG d   1       5.669  89.559 119.567  0.00  0.00    -0.276 OA
ATOM     17  H   LIG d   1       6.533  91.285 117.066  0.00  0.00     0.149 HD
ENDBRANCH   6  13
BRANCH   5  18
ATOM     18  N   LIG d   1       7.183  88.029 116.223  0.00  0.00     0.381 N 
ATOM     19  H   LIG d   1       6.928  87.067 116.125  0.00  0.00    -0.090 HD
ATOM     20  H   LIG d   1       7.274  88.233 117.203  0.00  0.00    -0.090 HD
ATOM     21  H   LIG d   1       8.049  88.199 115.760  0.00  0.00    -0.090 HD
ENDBRANCH   5  18
BRANCH   3  22
ATOM     22  C   LIG d   1       3.569  88.255 113.089  0.00  0.00     0.382 C 
ATOM     23  O   LIG d   1       2.389  88.552 112.785  0.00  0.00    -0.241 OA
ATOM     24  O   LIG d   1       4.243  87.549 112.315  0.00  0.00    -0.241 OA
ENDBRANCH   3  22
TORSDOF 7
ENDMDL
