MODEL 1
REMARK VINA RESULT:      -5.6      0.000      0.000
REMARK  7 active torsions:
REMARK  status: ('A' for Active; 'I' for Inactive)
REMARK    1  A    between atoms: C_2  and  C_3 
REMARK    2  A    between atoms: C_3  and  O_6 
REMARK    3  A    between atoms: C_3  and  C_4 
REMARK    4  A    between atoms: C_7  and  O_6 
REMARK    5  A    between atoms: C_9  and  C_10 
REMARK    6  A    between atoms: N_15  and  C_14 
REMARK    7  A    between atoms: N_20  and  C_19 
REMARK       I    between atoms: C_22  and  N_20 
ROOT
ATOM      1  C   LIG d   1      -8.460  74.576 117.385  0.00  0.00     0.161 C 
ATOM      2  C   LIG d   1      -8.361  73.247 116.941  0.00  0.00     0.016 C 
ATOM      3  C   LIG d   1      -9.115  72.184 117.490  0.00  0.00     0.038 C 
ATOM      4  C   LIG d   1     -10.136  72.406 118.426  0.00  0.00     0.028 C 
ATOM      5  C   LIG d   1      -9.923  73.659 119.269  0.00  0.00    -0.047 C 
ATOM      6  C   LIG d   1      -9.648  74.855 118.329  0.00  0.00     0.091 C 
ENDROOT
BRANCH   1   7
ATOM      7  O   LIG d   1      -8.498  75.468 116.254  0.00  0.00    -0.368 OA
BRANCH   7   8
ATOM      8  C   LIG d   1      -7.282  76.210 115.987  0.00  0.00     0.119 C 
BRANCH   8   9
ATOM      9  C   LIG d   1      -6.635  75.600 114.729  0.00  0.00     0.028 C 
ATOM     10  C   LIG d   1      -5.461  74.666 115.067  0.00  0.00     0.006 C 
ENDBRANCH   8   9
BRANCH   8  11
ATOM     11  C   LIG d   1      -6.255  76.018 117.106  0.00  0.00     0.028 C 
ATOM     12  C   LIG d   1      -6.009  77.301 117.916  0.00  0.00     0.006 C 
ENDBRANCH   8  11
ENDBRANCH   7   8
ENDBRANCH   1   7
BRANCH   6  13
ATOM     13  N   LIG d   1      -9.346  76.105 119.075  0.00  0.00    -0.311 N 
ATOM     14  C   LIG d   1     -10.081  77.211 118.981  0.00  0.00     0.210 C 
ATOM     15  C   LIG d   1      -9.583  78.392 119.819  0.00  0.00     0.109 C 
ATOM     16  O   LIG d   1     -11.117  77.316 118.307  0.00  0.00    -0.276 OA
ATOM     17  H   LIG d   1      -8.540  76.097 119.670  0.00  0.00     0.149 HD
ENDBRANCH   6  13
BRANCH   5  18
ATOM     18  N   LIG d   1     -11.125  73.844 120.104  0.00  0.00     0.381 N 
ATOM     19  H   LIG d   1     -11.947  73.747 119.541  0.00  0.00    -0.090 HD
ATOM     20  H   LIG d   1     -11.114  74.772 120.488  0.00  0.00    -0.090 HD
ATOM     21  H   LIG d   1     -11.136  73.172 120.839  0.00  0.00    -0.090 HD
ENDBRANCH   5  18
BRANCH   3  22
ATOM     22  C   LIG d   1      -8.822  70.877 117.132  0.00  0.00     0.382 C 
ATOM     23  O   LIG d   1      -7.979  70.647 116.232  0.00  0.00    -0.241 OA
ATOM     24  O   LIG d   1      -9.422  69.926 117.667  0.00  0.00    -0.241 OA
ENDBRANCH   3  22
TORSDOF 7
ENDMDL
MODEL 2
REMARK VINA RESULT:      -5.3      2.430      4.313
REMARK  7 active torsions:
REMARK  status: ('A' for Active; 'I' for Inactive)
REMARK    1  A    between atoms: C_2  and  C_3 
REMARK    2  A    between atoms: C_3  and  O_6 
REMARK    3  A    between atoms: C_3  and  C_4 
REMARK    4  A    between atoms: C_7  and  O_6 
REMARK    5  A    between atoms: C_9  and  C_10 
REMARK    6  A    between atoms: N_15  and  C_14 
REMARK    7  A    between atoms: N_20  and  C_19 
REMARK       I    between atoms: C_22  and  N_20 
ROOT
ATOM      1  C   LIG d   1      -7.835  74.988 117.446  0.00  0.00     0.161 C 
ATOM      2  C   LIG d   1      -6.611  75.110 116.769  0.00  0.00     0.016 C 
ATOM      3  C   LIG d   1      -6.000  74.046 116.066  0.00  0.00     0.038 C 
ATOM      4  C   LIG d   1      -6.652  72.820 115.865  0.00  0.00     0.028 C 
ATOM      5  C   LIG d   1      -7.664  72.486 116.956  0.00  0.00    -0.047 C 
ATOM      6  C   LIG d   1      -8.614  73.691 117.145  0.00  0.00     0.091 C 
ENDROOT
BRANCH   1   7
ATOM      7  O   LIG d   1      -8.658  76.141 117.179  0.00  0.00    -0.368 OA
BRANCH   7   8
ATOM      8  C   LIG d   1      -8.797  77.090 118.264  0.00  0.00     0.119 C 
BRANCH   8   9
ATOM      9  C   LIG d   1     -10.286  77.481 118.350  0.00  0.00     0.028 C 
ATOM     10  C   LIG d   1     -10.625  78.217 119.657  0.00  0.00     0.006 C 
ENDBRANCH   8   9
BRANCH   8  11
ATOM     11  C   LIG d   1      -8.053  78.394 117.962  0.00  0.00     0.028 C 
ATOM     12  C   LIG d   1      -6.896  78.660 118.939  0.00  0.00     0.006 C 
ENDBRANCH   8  11
ENDBRANCH   7   8
ENDBRANCH   1   7
BRANCH   6  13
ATOM     13  N   LIG d   1      -9.583  73.481 118.252  0.00  0.00    -0.311 N 
ATOM     14  C   LIG d   1     -10.871  73.809 118.171  0.00  0.00     0.210 C 
ATOM     15  C   LIG d   1     -11.691  73.526 119.434  0.00  0.00     0.109 C 
ATOM     16  O   LIG d   1     -11.420  74.278 117.163  0.00  0.00    -0.276 OA
ATOM     17  H   LIG d   1      -9.230  73.076 119.097  0.00  0.00     0.149 HD
ENDBRANCH   6  13
BRANCH   5  18
ATOM     18  N   LIG d   1      -8.366  71.254 116.551  0.00  0.00     0.381 N 
ATOM     19  H   LIG d   1      -7.927  70.460 116.971  0.00  0.00    -0.090 HD
ATOM     20  H   LIG d   1      -8.304  71.157 115.553  0.00  0.00    -0.090 HD
ATOM     21  H   LIG d   1      -9.322  71.299 116.828  0.00  0.00    -0.090 HD
ENDBRANCH   5  18
BRANCH   3  22
ATOM     22  C   LIG d   1      -4.706  74.189 115.590  0.00  0.00     0.382 C 
ATOM     23  O   LIG d   1      -3.731  73.998 116.356  0.00  0.00    -0.241 OA
ATOM     24  O   LIG d   1      -4.502  74.551 114.416  0.00  0.00    -0.241 OA
ENDBRANCH   3  22
TORSDOF 7
ENDMDL
MODEL 3
REMARK VINA RESULT:      -5.2      1.949      4.991
REMARK  7 active torsions:
REMARK  status: ('A' for Active; 'I' for Inactive)
REMARK    1  A    between atoms: C_2  and  C_3 
REMARK    2  A    between atoms: C_3  and  O_6 
REMARK    3  A    between atoms: C_3  and  C_4 
REMARK    4  A    between atoms: C_7  and  O_6 
REMARK    5  A    between atoms: C_9  and  C_10 
REMARK    6  A    between atoms: N_15  and  C_14 
REMARK    7  A    between atoms: N_20  and  C_19 
REMARK       I    between atoms: C_22  and  N_20 
ROOT
ATOM      1  C   LIG d   1      -7.718  75.829 117.097  0.00  0.00     0.161 C 
ATOM      2  C   LIG d   1      -7.966  77.183 117.375  0.00  0.00     0.016 C 
ATOM      3  C   LIG d   1      -9.189  77.659 117.902  0.00  0.00     0.038 C 
ATOM      4  C   LIG d   1     -10.200  76.786 118.330  0.00  0.00     0.028 C 
ATOM      5  C   LIG d   1     -10.194  75.447 117.601  0.00  0.00    -0.047 C 
ATOM      6  C   LIG d   1      -8.769  74.850 117.662  0.00  0.00     0.091 C 
ENDROOT
BRANCH   1   7
ATOM      7  O   LIG d   1      -6.400  75.468 117.557  0.00  0.00    -0.368 OA
BRANCH   7   8
ATOM      8  C   LIG d   1      -5.319  75.671 116.614  0.00  0.00     0.119 C 
BRANCH   8   9
ATOM      9  C   LIG d   1      -5.525  74.680 115.452  0.00  0.00     0.028 C 
ATOM     10  C   LIG d   1      -5.551  75.379 114.082  0.00  0.00     0.006 C 
ENDBRANCH   8   9
BRANCH   8  11
ATOM     11  C   LIG d   1      -3.966  75.299 117.229  0.00  0.00     0.028 C 
ATOM     12  C   LIG d   1      -3.468  73.916 116.781  0.00  0.00     0.006 C 
ENDBRANCH   8  11
ENDBRANCH   7   8
ENDBRANCH   1   7
BRANCH   6  13
ATOM     13  N   LIG d   1      -8.654  73.579 116.900  0.00  0.00    -0.311 N 
ATOM     14  C   LIG d   1      -8.817  72.377 117.451  0.00  0.00     0.210 C 
ATOM     15  C   LIG d   1      -8.636  71.196 116.492  0.00  0.00     0.109 C 
ATOM     16  O   LIG d   1      -9.126  72.178 118.636  0.00  0.00    -0.276 OA
ATOM     17  H   LIG d   1      -8.437  73.649 115.925  0.00  0.00     0.149 HD
ENDBRANCH   6  13
BRANCH   5  18
ATOM     18  N   LIG d   1     -11.208  74.587 118.240  0.00  0.00     0.381 N 
ATOM     19  H   LIG d   1     -12.101  75.036 118.208  0.00  0.00    -0.090 HD
ATOM     20  H   LIG d   1     -10.958  74.450 119.204  0.00  0.00    -0.090 HD
ATOM     21  H   LIG d   1     -11.253  73.708 117.773  0.00  0.00    -0.090 HD
ENDBRANCH   5  18
BRANCH   3  22
ATOM     22  C   LIG d   1      -9.424  79.023 117.967  0.00  0.00     0.382 C 
ATOM     23  O   LIG d   1      -8.494  79.832 117.734  0.00  0.00    -0.241 OA
ATOM     24  O   LIG d   1     -10.544  79.456 118.299  0.00  0.00    -0.241 OA
ENDBRANCH   3  22
TORSDOF 7
ENDMDL
MODEL 4
REMARK VINA RESULT:      -5.1      2.470      4.840
REMARK  7 active torsions:
REMARK  status: ('A' for Active; 'I' for Inactive)
REMARK    1  A    between atoms: C_2  and  C_3 
REMARK    2  A    between atoms: C_3  and  O_6 
REMARK    3  A    between atoms: C_3  and  C_4 
REMARK    4  A    between atoms: C_7  and  O_6 
REMARK    5  A    between atoms: C_9  and  C_10 
REMARK    6  A    between atoms: N_15  and  C_14 
REMARK    7  A    between atoms: N_20  and  C_19 
REMARK       I    between atoms: C_22  and  N_20 
ROOT
ATOM      1  C   LIG d   1     -10.136  76.449 117.877  0.00  0.00     0.161 C 
ATOM      2  C   LIG d   1     -11.256  76.157 118.673  0.00  0.00     0.016 C 
ATOM      3  C   LIG d   1     -11.770  74.851 118.844  0.00  0.00     0.038 C 
ATOM      4  C   LIG d   1     -11.103  73.721 118.348  0.00  0.00     0.028 C 
ATOM      5  C   LIG d   1     -10.251  74.012 117.117  0.00  0.00    -0.047 C 
ATOM      6  C   LIG d   1      -9.330  75.216 117.418  0.00  0.00     0.091 C 
ENDROOT
BRANCH   1   7
ATOM      7  O   LIG d   1      -9.278  77.381 118.564  0.00  0.00    -0.368 OA
BRANCH   7   8
ATOM      8  C   LIG d   1      -9.154  78.694 117.964  0.00  0.00     0.119 C 
BRANCH   8   9
ATOM      9  C   LIG d   1      -7.675  79.114 118.069  0.00  0.00     0.028 C 
ATOM     10  C   LIG d   1      -7.314  79.645 119.467  0.00  0.00     0.006 C 
ENDBRANCH   8   9
BRANCH   8  11
ATOM     11  C   LIG d   1      -9.931  79.747 118.760  0.00  0.00     0.028 C 
ATOM     12  C   LIG d   1     -10.541  80.839 117.867  0.00  0.00     0.006 C 
ENDBRANCH   8  11
ENDBRANCH   7   8
ENDBRANCH   1   7
BRANCH   6  13
ATOM     13  N   LIG d   1      -8.522  75.621 116.238  0.00  0.00    -0.311 N 
ATOM     14  C   LIG d   1      -7.327  75.105 115.955  0.00  0.00     0.210 C 
ATOM     15  C   LIG d   1      -6.656  75.676 114.703  0.00  0.00     0.109 C 
ATOM     16  O   LIG d   1      -6.773  74.205 116.605  0.00  0.00    -0.276 OA
ATOM     17  H   LIG d   1      -8.910  76.323 115.639  0.00  0.00     0.149 HD
ENDBRANCH   6  13
BRANCH   5  18
ATOM     18  N   LIG d   1      -9.506  72.782 116.789  0.00  0.00     0.381 N 
ATOM     19  H   LIG d   1      -8.586  72.829 117.179  0.00  0.00    -0.090 HD
ATOM     20  H   LIG d   1      -9.423  72.709 115.791  0.00  0.00    -0.090 HD
ATOM     21  H   LIG d   1      -9.987  71.986 117.149  0.00  0.00    -0.090 HD
ENDBRANCH   5  18
BRANCH   3  22
ATOM     22  C   LIG d   1     -12.986  74.669 119.485  0.00  0.00     0.382 C 
ATOM     23  O   LIG d   1     -13.930  75.469 119.276  0.00  0.00    -0.241 OA
ATOM     24  O   LIG d   1     -13.137  73.742 120.302  0.00  0.00    -0.241 OA
ENDBRANCH   3  22
TORSDOF 7
ENDMDL
MODEL 5
REMARK VINA RESULT:      -5.1     14.598     17.597
REMARK  7 active torsions:
REMARK  status: ('A' for Active; 'I' for Inactive)
REMARK    1  A    between atoms: C_2  and  C_3 
REMARK    2  A    between atoms: C_3  and  O_6 
REMARK    3  A    between atoms: C_3  and  C_4 
REMARK    4  A    between atoms: C_7  and  O_6 
REMARK    5  A    between atoms: C_9  and  C_10 
REMARK    6  A    between atoms: N_15  and  C_14 
REMARK    7  A    between atoms: N_20  and  C_19 
REMARK       I    between atoms: C_22  and  N_20 
ROOT
ATOM      1  C   LIG d   1      -5.860  90.378 118.585  0.00  0.00     0.161 C 
ATOM      2  C   LIG d   1      -6.447  91.644 118.423  0.00  0.00     0.016 C 
ATOM      3  C   LIG d   1      -5.722  92.855 118.512  0.00  0.00     0.038 C 
ATOM      4  C   LIG d   1      -4.324  92.876 118.620  0.00  0.00     0.028 C 
ATOM      5  C   LIG d   1      -3.749  91.634 119.292  0.00  0.00    -0.047 C 
ATOM      6  C   LIG d   1      -4.317  90.377 118.593  0.00  0.00     0.091 C 
ENDROOT
BRANCH   1   7
ATOM      7  O   LIG d   1      -6.356  89.476 117.577  0.00  0.00    -0.368 OA
BRANCH   7   8
ATOM      8  C   LIG d   1      -7.001  90.091 116.434  0.00  0.00     0.119 C 
BRANCH   8   9
ATOM      9  C   LIG d   1      -8.069  89.106 115.919  0.00  0.00     0.028 C 
ATOM     10  C   LIG d   1      -8.775  88.357 117.062  0.00  0.00     0.006 C 
ENDBRANCH   8   9
BRANCH   8  11
ATOM     11  C   LIG d   1      -6.021  90.270 115.271  0.00  0.00     0.028 C 
ATOM     12  C   LIG d   1      -6.017  91.701 114.709  0.00  0.00     0.006 C 
ENDBRANCH   8  11
ENDBRANCH   7   8
ENDBRANCH   1   7
BRANCH   6  13
ATOM     13  N   LIG d   1      -3.871  89.117 119.243  0.00  0.00    -0.311 N 
ATOM     14  C   LIG d   1      -2.820  88.411 118.830  0.00  0.00     0.210 C 
ATOM     15  C   LIG d   1      -2.546  87.133 119.628  0.00  0.00     0.109 C 
ATOM     16  O   LIG d   1      -2.070  88.739 117.899  0.00  0.00    -0.276 OA
ATOM     17  H   LIG d   1      -4.405  88.794 120.026  0.00  0.00     0.149 HD
ENDBRANCH   6  13
BRANCH   5  18
ATOM     18  N   LIG d   1      -2.279  91.724 119.215  0.00  0.00     0.381 N 
ATOM     19  H   LIG d   1      -2.005  92.678 119.084  0.00  0.00    -0.090 HD
ATOM     20  H   LIG d   1      -1.962  91.193 118.423  0.00  0.00    -0.090 HD
ATOM     21  H   LIG d   1      -1.871  91.365 120.049  0.00  0.00    -0.090 HD
ENDBRANCH   5  18
BRANCH   3  22
ATOM     22  C   LIG d   1      -6.403  94.063 118.533  0.00  0.00     0.382 C 
ATOM     23  O   LIG d   1      -5.874  95.071 119.060  0.00  0.00    -0.241 OA
ATOM     24  O   LIG d   1      -7.557  94.146 118.071  0.00  0.00    -0.241 OA
ENDBRANCH   3  22
TORSDOF 7
ENDMDL
MODEL 6
REMARK VINA RESULT:      -5.1     10.604     13.527
REMARK  7 active torsions:
REMARK  status: ('A' for Active; 'I' for Inactive)
REMARK    1  A    between atoms: C_2  and  C_3 
REMARK    2  A    between atoms: C_3  and  O_6 
REMARK    3  A    between atoms: C_3  and  C_4 
REMARK    4  A    between atoms: C_7  and  O_6 
REMARK    5  A    between atoms: C_9  and  C_10 
REMARK    6  A    between atoms: N_15  and  C_14 
REMARK    7  A    between atoms: N_20  and  C_19 
REMARK       I    between atoms: C_22  and  N_20 
ROOT
ATOM      1  C   LIG d   1     -16.823  64.175 116.545  0.00  0.00     0.161 C 
ATOM      2  C   LIG d   1     -17.337  62.902 116.248  0.00  0.00     0.016 C 
ATOM      3  C   LIG d   1     -17.842  62.544 114.977  0.00  0.00     0.038 C 
ATOM      4  C   LIG d   1     -17.726  63.394 113.867  0.00  0.00     0.028 C 
ATOM      5  C   LIG d   1     -17.673  64.872 114.239  0.00  0.00    -0.047 C 
ATOM      6  C   LIG d   1     -16.585  65.080 115.318  0.00  0.00     0.091 C 
ENDROOT
BRANCH   1   7
ATOM      7  O   LIG d   1     -15.610  64.045 117.313  0.00  0.00    -0.368 OA
BRANCH   7   8
ATOM      8  C   LIG d   1     -15.711  64.361 118.723  0.00  0.00     0.119 C 
BRANCH   8   9
ATOM      9  C   LIG d   1     -14.946  65.678 118.958  0.00  0.00     0.028 C 
ATOM     10  C   LIG d   1     -15.880  66.839 119.340  0.00  0.00     0.006 C 
ENDBRANCH   8   9
BRANCH   8  11
ATOM     11  C   LIG d   1     -14.993  63.316 119.582  0.00  0.00     0.028 C 
ATOM     12  C   LIG d   1     -14.422  62.155 118.754  0.00  0.00     0.006 C 
ENDBRANCH   8  11
ENDBRANCH   7   8
ENDBRANCH   1   7
BRANCH   6  13
ATOM     13  N   LIG d   1     -16.525  66.484 115.799  0.00  0.00    -0.311 N 
ATOM     14  C   LIG d   1     -15.655  67.381 115.337  0.00  0.00     0.210 C 
ATOM     15  C   LIG d   1     -15.750  68.767 115.983  0.00  0.00     0.109 C 
ATOM     16  O   LIG d   1     -14.836  67.169 114.431  0.00  0.00    -0.276 OA
ATOM     17  H   LIG d   1     -17.176  66.751 116.512  0.00  0.00     0.149 HD
ENDBRANCH   6  13
BRANCH   5  18
ATOM     18  N   LIG d   1     -17.413  65.634 113.002  0.00  0.00     0.381 N 
ATOM     19  H   LIG d   1     -16.434  65.825 112.922  0.00  0.00    -0.090 HD
ATOM     20  H   LIG d   1     -17.902  66.510 113.051  0.00  0.00    -0.090 HD
ATOM     21  H   LIG d   1     -17.724  65.115 112.211  0.00  0.00    -0.090 HD
ENDBRANCH   5  18
BRANCH   3  22
ATOM     22  C   LIG d   1     -18.507  61.338 114.816  0.00  0.00     0.382 C 
ATOM     23  O   LIG d   1     -19.371  60.982 115.654  0.00  0.00    -0.241 OA
ATOM     24  O   LIG d   1     -18.222  60.581 113.869  0.00  0.00    -0.241 OA
ENDBRANCH   3  22
TORSDOF 7
ENDMDL
MODEL 7
REMARK VINA RESULT:      -4.9     15.058     17.311
REMARK  7 active torsions:
REMARK  status: ('A' for Active; 'I' for Inactive)
REMARK    1  A    between atoms: C_2  and  C_3 
REMARK    2  A    between atoms: C_3  and  O_6 
REMARK    3  A    between atoms: C_3  and  C_4 
REMARK    4  A    between atoms: C_7  and  O_6 
REMARK    5  A    between atoms: C_9  and  C_10 
REMARK    6  A    between atoms: N_15  and  C_14 
REMARK    7  A    between atoms: N_20  and  C_19 
REMARK       I    between atoms: C_22  and  N_20 
ROOT
ATOM      1  C   LIG d   1      -4.023  90.489 118.151  0.00  0.00     0.161 C 
ATOM      2  C   LIG d   1      -4.970  89.676 117.507  0.00  0.00     0.016 C 
ATOM      3  C   LIG d   1      -6.179  90.170 116.964  0.00  0.00     0.038 C 
ATOM      4  C   LIG d   1      -6.455  91.543 116.897  0.00  0.00     0.028 C 
ATOM      5  C   LIG d   1      -5.761  92.355 117.985  0.00  0.00    -0.047 C 
ATOM      6  C   LIG d   1      -4.255  92.006 117.988  0.00  0.00     0.091 C 
ENDROOT
BRANCH   1   7
ATOM      7  O   LIG d   1      -2.696  90.135 117.713  0.00  0.00    -0.368 OA
BRANCH   7   8
ATOM      8  C   LIG d   1      -1.853  89.484 118.696  0.00  0.00     0.119 C 
BRANCH   8   9
ATOM      9  C   LIG d   1      -0.397  89.891 118.398  0.00  0.00     0.028 C 
ATOM     10  C   LIG d   1      -0.218  90.427 116.968  0.00  0.00     0.006 C 
ENDBRANCH   8   9
BRANCH   8  11
ATOM     11  C   LIG d   1      -1.889  87.961 118.538  0.00  0.00     0.028 C 
ATOM     12  C   LIG d   1      -2.591  87.257 119.710  0.00  0.00     0.006 C 
ENDBRANCH   8  11
ENDBRANCH   7   8
ENDBRANCH   1   7
BRANCH   6  13
ATOM     13  N   LIG d   1      -3.516  92.693 119.079  0.00  0.00    -0.311 N 
ATOM     14  C   LIG d   1      -2.369  93.344 118.891  0.00  0.00     0.210 C 
ATOM     15  C   LIG d   1      -1.763  93.965 120.154  0.00  0.00     0.109 C 
ATOM     16  O   LIG d   1      -1.812  93.493 117.793  0.00  0.00    -0.276 OA
ATOM     17  H   LIG d   1      -3.913  92.649 119.997  0.00  0.00     0.149 HD
ENDBRANCH   6  13
BRANCH   5  18
ATOM     18  N   LIG d   1      -6.023  93.781 117.713  0.00  0.00     0.381 N 
ATOM     19  H   LIG d   1      -6.180  93.916 116.735  0.00  0.00    -0.090 HD
ATOM     20  H   LIG d   1      -5.215  94.317 117.980  0.00  0.00    -0.090 HD
ATOM     21  H   LIG d   1      -6.818  94.086 118.230  0.00  0.00    -0.090 HD
ENDBRANCH   5  18
BRANCH   3  22
ATOM     22  C   LIG d   1      -7.145  89.281 116.519  0.00  0.00     0.382 C 
ATOM     23  O   LIG d   1      -7.836  88.639 117.346  0.00  0.00    -0.241 OA
ATOM     24  O   LIG d   1      -7.305  89.080 115.300  0.00  0.00    -0.241 OA
ENDBRANCH   3  22
TORSDOF 7
ENDMDL
MODEL 8
REMARK VINA RESULT:      -4.9     15.223     18.384
REMARK  7 active torsions:
REMARK  status: ('A' for Active; 'I' for Inactive)
REMARK    1  A    between atoms: C_2  and  C_3 
REMARK    2  A    between atoms: C_3  and  O_6 
REMARK    3  A    between atoms: C_3  and  C_4 
REMARK    4  A    between atoms: C_7  and  O_6 
REMARK    5  A    between atoms: C_9  and  C_10 
REMARK    6  A    between atoms: N_15  and  C_14 
REMARK    7  A    between atoms: N_20  and  C_19 
REMARK       I    between atoms: C_22  and  N_20 
ROOT
ATOM      1  C   LIG d   1      -5.350  92.232 118.010  0.00  0.00     0.161 C 
ATOM      2  C   LIG d   1      -6.364  91.304 117.715  0.00  0.00     0.016 C 
ATOM      3  C   LIG d   1      -6.109  90.003 117.225  0.00  0.00     0.038 C 
ATOM      4  C   LIG d   1      -4.809  89.484 117.139  0.00  0.00     0.028 C 
ATOM      5  C   LIG d   1      -3.741  90.556 116.946  0.00  0.00    -0.047 C 
ATOM      6  C   LIG d   1      -3.923  91.646 118.027  0.00  0.00     0.091 C 
ENDROOT
BRANCH   1   7
ATOM      7  O   LIG d   1      -5.638  92.889 119.260  0.00  0.00    -0.368 OA
BRANCH   7   8
ATOM      8  C   LIG d   1      -6.201  94.220 119.166  0.00  0.00     0.119 C 
BRANCH   8   9
ATOM      9  C   LIG d   1      -5.524  95.086 120.246  0.00  0.00     0.028 C 
ATOM     10  C   LIG d   1      -4.037  95.341 119.948  0.00  0.00     0.006 C 
ENDBRANCH   8   9
BRANCH   8  11
ATOM     11  C   LIG d   1      -7.691  94.222 119.519  0.00  0.00     0.028 C 
ATOM     12  C   LIG d   1      -8.574  94.741 118.374  0.00  0.00     0.006 C 
ENDBRANCH   8  11
ENDBRANCH   7   8
ENDBRANCH   1   7
BRANCH   6  13
ATOM     13  N   LIG d   1      -2.971  92.775 117.860  0.00  0.00    -0.311 N 
ATOM     14  C   LIG d   1      -1.775  92.819 118.445  0.00  0.00     0.210 C 
ATOM     15  C   LIG d   1      -0.960  94.083 118.156  0.00  0.00     0.109 C 
ATOM     16  O   LIG d   1      -1.299  91.916 119.149  0.00  0.00    -0.276 OA
ATOM     17  H   LIG d   1      -3.264  93.536 117.279  0.00  0.00     0.149 HD
ENDBRANCH   6  13
BRANCH   5  18
ATOM     18  N   LIG d   1      -2.426  89.892 117.011  0.00  0.00     0.381 N 
ATOM     19  H   LIG d   1      -2.445  89.168 117.702  0.00  0.00    -0.090 HD
ATOM     20  H   LIG d   1      -1.733  90.567 117.281  0.00  0.00    -0.090 HD
ATOM     21  H   LIG d   1      -2.194  89.505 116.122  0.00  0.00    -0.090 HD
ENDBRANCH   5  18
BRANCH   3  22
ATOM     22  C   LIG d   1      -7.162  89.219 116.777  0.00  0.00     0.382 C 
ATOM     23  O   LIG d   1      -7.409  89.144 115.549  0.00  0.00    -0.241 OA
ATOM     24  O   LIG d   1      -7.894  88.622 117.588  0.00  0.00    -0.241 OA
ENDBRANCH   3  22
TORSDOF 7
ENDMDL
MODEL 9
REMARK VINA RESULT:      -4.8      5.382      7.647
REMARK  7 active torsions:
REMARK  status: ('A' for Active; 'I' for Inactive)
REMARK    1  A    between atoms: C_2  and  C_3 
REMARK    2  A    between atoms: C_3  and  O_6 
REMARK    3  A    between atoms: C_3  and  C_4 
REMARK    4  A    between atoms: C_7  and  O_6 
REMARK    5  A    between atoms: C_9  and  C_10 
REMARK    6  A    between atoms: N_15  and  C_14 
REMARK    7  A    between atoms: N_20  and  C_19 
REMARK       I    between atoms: C_22  and  N_20 
ROOT
ATOM      1  C   LIG d   1      -2.883  75.208 115.913  0.00  0.00     0.161 C 
ATOM      2  C   LIG d   1      -2.640  74.361 117.007  0.00  0.00     0.016 C 
ATOM      3  C   LIG d   1      -1.421  74.344 117.722  0.00  0.00     0.038 C 
ATOM      4  C   LIG d   1      -0.409  75.286 117.485  0.00  0.00     0.028 C 
ATOM      5  C   LIG d   1      -0.409  75.829 116.060  0.00  0.00    -0.047 C 
ATOM      6  C   LIG d   1      -1.832  76.320 115.709  0.00  0.00     0.091 C 
ENDROOT
BRANCH   1   7
ATOM      7  O   LIG d   1      -4.202  75.779 116.020  0.00  0.00    -0.368 OA
BRANCH   7   8
ATOM      8  C   LIG d   1      -5.270  74.858 116.350  0.00  0.00     0.119 C 
BRANCH   8   9
ATOM      9  C   LIG d   1      -5.946  74.439 115.030  0.00  0.00     0.028 C 
ATOM     10  C   LIG d   1      -5.783  75.498 113.926  0.00  0.00     0.006 C 
ENDBRANCH   8   9
BRANCH   8  11
ATOM     11  C   LIG d   1      -6.368  75.547 117.167  0.00  0.00     0.028 C 
ATOM     12  C   LIG d   1      -7.718  74.818 117.084  0.00  0.00     0.006 C 
ENDBRANCH   8  11
ENDBRANCH   7   8
ENDBRANCH   1   7
BRANCH   6  13
ATOM     13  N   LIG d   1      -1.940  76.789 114.303  0.00  0.00    -0.311 N 
ATOM     14  C   LIG d   1      -2.498  77.948 113.958  0.00  0.00     0.210 C 
ATOM     15  C   LIG d   1      -2.524  78.231 112.453  0.00  0.00     0.109 C 
ATOM     16  O   LIG d   1      -2.944  78.784 114.759  0.00  0.00    -0.276 OA
ATOM     17  H   LIG d   1      -1.575  76.187 113.592  0.00  0.00     0.149 HD
ENDBRANCH   6  13
BRANCH   5  18
ATOM     18  N   LIG d   1       0.605  76.899 115.990  0.00  0.00     0.381 N 
ATOM     19  H   LIG d   1       0.281  77.705 116.485  0.00  0.00    -0.090 HD
ATOM     20  H   LIG d   1       0.743  77.154 115.028  0.00  0.00    -0.090 HD
ATOM     21  H   LIG d   1       1.463  76.581 116.383  0.00  0.00    -0.090 HD
ENDBRANCH   5  18
BRANCH   3  22
ATOM     22  C   LIG d   1      -1.188  73.351 118.661  0.00  0.00     0.382 C 
ATOM     23  O   LIG d   1      -0.325  73.522 119.555  0.00  0.00    -0.241 OA
ATOM     24  O   LIG d   1      -1.800  72.267 118.599  0.00  0.00    -0.241 OA
ENDBRANCH   3  22
TORSDOF 7
ENDMDL
