MODEL 1
REMARK VINA RESULT:      -5.6      0.000      0.000
REMARK  7 active torsions:
REMARK  status: ('A' for Active; 'I' for Inactive)
REMARK    1  A    between atoms: C_2  and  C_3 
REMARK    2  A    between atoms: C_3  and  O_6 
REMARK    3  A    between atoms: C_3  and  C_4 
REMARK    4  A    between atoms: C_7  and  O_6 
REMARK    5  A    between atoms: C_9  and  C_10 
REMARK    6  A    between atoms: N_15  and  C_14 
REMARK    7  A    between atoms: N_20  and  C_19 
REMARK       I    between atoms: C_22  and  N_20 
ROOT
ATOM      1  C   LIG d   1      -8.778  74.584 117.631  0.00  0.00     0.161 C 
ATOM      2  C   LIG d   1     -10.183  74.581 117.668  0.00  0.00     0.016 C 
ATOM      3  C   LIG d   1     -10.951  75.668 118.145  0.00  0.00     0.038 C 
ATOM      4  C   LIG d   1     -10.366  76.900 118.477  0.00  0.00     0.028 C 
ATOM      5  C   LIG d   1      -8.916  76.779 118.933  0.00  0.00    -0.047 C 
ATOM      6  C   LIG d   1      -8.128  75.960 117.885  0.00  0.00     0.091 C 
ENDROOT
BRANCH   1   7
ATOM      7  O   LIG d   1      -8.322  74.038 116.377  0.00  0.00    -0.368 OA
BRANCH   7   8
ATOM      8  C   LIG d   1      -7.354  72.964 116.465  0.00  0.00     0.119 C 
BRANCH   8   9
ATOM      9  C   LIG d   1      -6.118  73.387 115.647  0.00  0.00     0.028 C 
ATOM     10  C   LIG d   1      -6.402  74.593 114.736  0.00  0.00     0.006 C 
ENDBRANCH   8   9
BRANCH   8  11
ATOM     11  C   LIG d   1      -7.871  71.691 115.789  0.00  0.00     0.028 C 
ATOM     12  C   LIG d   1      -9.122  71.118 116.474  0.00  0.00     0.006 C 
ENDBRANCH   8  11
ENDBRANCH   7   8
ENDBRANCH   1   7
BRANCH   6  13
ATOM     13  N   LIG d   1      -6.719  75.723 118.295  0.00  0.00    -0.311 N 
ATOM     14  C   LIG d   1      -5.699  76.473 117.882  0.00  0.00     0.210 C 
ATOM     15  C   LIG d   1      -4.326  76.044 118.408  0.00  0.00     0.109 C 
ATOM     16  O   LIG d   1      -5.805  77.474 117.157  0.00  0.00    -0.276 OA
ATOM     17  H   LIG d   1      -6.546  74.950 118.907  0.00  0.00     0.149 HD
ENDBRANCH   6  13
BRANCH   5  18
ATOM     18  N   LIG d   1      -8.391  78.145 119.114  0.00  0.00     0.381 N 
ATOM     19  H   LIG d   1      -9.016  78.806 118.699  0.00  0.00    -0.090 HD
ATOM     20  H   LIG d   1      -7.502  78.216 118.650  0.00  0.00    -0.090 HD
ATOM     21  H   LIG d   1      -8.283  78.343 120.085  0.00  0.00    -0.090 HD
ENDBRANCH   5  18
BRANCH   3  22
ATOM     22  C   LIG d   1     -12.316  75.516 118.330  0.00  0.00     0.382 C 
ATOM     23  O   LIG d   1     -12.903  74.507 117.870  0.00  0.00    -0.241 OA
ATOM     24  O   LIG d   1     -12.977  76.396 118.914  0.00  0.00    -0.241 OA
ENDBRANCH   3  22
TORSDOF 7
ENDMDL
MODEL 2
REMARK VINA RESULT:      -5.4      2.017      4.807
REMARK  7 active torsions:
REMARK  status: ('A' for Active; 'I' for Inactive)
REMARK    1  A    between atoms: C_2  and  C_3 
REMARK    2  A    between atoms: C_3  and  O_6 
REMARK    3  A    between atoms: C_3  and  C_4 
REMARK    4  A    between atoms: C_7  and  O_6 
REMARK    5  A    between atoms: C_9  and  C_10 
REMARK    6  A    between atoms: N_15  and  C_14 
REMARK    7  A    between atoms: N_20  and  C_19 
REMARK       I    between atoms: C_22  and  N_20 
ROOT
ATOM      1  C   LIG d   1      -8.359  75.280 116.602  0.00  0.00     0.161 C 
ATOM      2  C   LIG d   1      -7.329  75.095 115.666  0.00  0.00     0.016 C 
ATOM      3  C   LIG d   1      -5.956  75.124 116.003  0.00  0.00     0.038 C 
ATOM      4  C   LIG d   1      -5.521  75.191 117.335  0.00  0.00     0.028 C 
ATOM      5  C   LIG d   1      -6.513  75.885 118.262  0.00  0.00    -0.047 C 
ATOM      6  C   LIG d   1      -7.907  75.243 118.077  0.00  0.00     0.091 C 
ENDROOT
BRANCH   1   7
ATOM      7  O   LIG d   1      -9.406  74.315 116.375  0.00  0.00    -0.368 OA
BRANCH   7   8
ATOM      8  C   LIG d   1      -9.361  73.121 117.195  0.00  0.00     0.119 C 
BRANCH   8   9
ATOM      9  C   LIG d   1      -9.216  71.914 116.248  0.00  0.00     0.028 C 
ATOM     10  C   LIG d   1      -7.762  71.426 116.137  0.00  0.00     0.006 C 
ENDBRANCH   8   9
BRANCH   8  11
ATOM     11  C   LIG d   1     -10.685  72.902 117.933  0.00  0.00     0.028 C 
ATOM     12  C   LIG d   1     -11.705  74.021 117.672  0.00  0.00     0.006 C 
ENDBRANCH   8  11
ENDBRANCH   7   8
ENDBRANCH   1   7
BRANCH   6  13
ATOM     13  N   LIG d   1      -8.954  75.919 118.886  0.00  0.00    -0.311 N 
ATOM     14  C   LIG d   1      -9.167  77.234 118.859  0.00  0.00     0.210 C 
ATOM     15  C   LIG d   1     -10.283  77.727 119.785  0.00  0.00     0.109 C 
ATOM     16  O   LIG d   1      -8.559  78.033 118.132  0.00  0.00    -0.276 OA
ATOM     17  H   LIG d   1      -9.515  75.341 119.481  0.00  0.00     0.149 HD
ENDBRANCH   6  13
BRANCH   5  18
ATOM     18  N   LIG d   1      -5.998  75.762 119.638  0.00  0.00     0.381 N 
ATOM     19  H   LIG d   1      -6.761  75.745 120.286  0.00  0.00    -0.090 HD
ATOM     20  H   LIG d   1      -5.427  76.563 119.845  0.00  0.00    -0.090 HD
ATOM     21  H   LIG d   1      -5.458  74.929 119.728  0.00  0.00    -0.090 HD
ENDBRANCH   5  18
BRANCH   3  22
ATOM     22  C   LIG d   1      -5.002  75.127 114.997  0.00  0.00     0.382 C 
ATOM     23  O   LIG d   1      -5.175  75.825 113.969  0.00  0.00    -0.241 OA
ATOM     24  O   LIG d   1      -3.990  74.406 115.085  0.00  0.00    -0.241 OA
ENDBRANCH   3  22
TORSDOF 7
ENDMDL
MODEL 3
REMARK VINA RESULT:      -5.4     15.596     17.697
REMARK  7 active torsions:
REMARK  status: ('A' for Active; 'I' for Inactive)
REMARK    1  A    between atoms: C_2  and  C_3 
REMARK    2  A    between atoms: C_3  and  O_6 
REMARK    3  A    between atoms: C_3  and  C_4 
REMARK    4  A    between atoms: C_7  and  O_6 
REMARK    5  A    between atoms: C_9  and  C_10 
REMARK    6  A    between atoms: N_15  and  C_14 
REMARK    7  A    between atoms: N_20  and  C_19 
REMARK       I    between atoms: C_22  and  N_20 
ROOT
ATOM      1  C   LIG d   1      -4.708  91.514 117.449  0.00  0.00     0.161 C 
ATOM      2  C   LIG d   1      -3.742  92.335 118.054  0.00  0.00     0.016 C 
ATOM      3  C   LIG d   1      -4.063  93.433 118.885  0.00  0.00     0.038 C 
ATOM      4  C   LIG d   1      -5.380  93.695 119.291  0.00  0.00     0.028 C 
ATOM      5  C   LIG d   1      -6.429  93.200 118.301  0.00  0.00    -0.047 C 
ATOM      6  C   LIG d   1      -6.146  91.717 117.970  0.00  0.00     0.091 C 
ENDROOT
BRANCH   1   7
ATOM      7  O   LIG d   1      -4.321  90.131 117.572  0.00  0.00    -0.368 OA
BRANCH   7   8
ATOM      8  C   LIG d   1      -2.922  89.884 117.859  0.00  0.00     0.119 C 
BRANCH   8   9
ATOM      9  C   LIG d   1      -2.343  89.080 116.679  0.00  0.00     0.028 C 
ATOM     10  C   LIG d   1      -0.858  88.732 116.879  0.00  0.00     0.006 C 
ENDBRANCH   8   9
BRANCH   8  11
ATOM     11  C   LIG d   1      -2.756  88.982 119.085  0.00  0.00     0.028 C 
ATOM     12  C   LIG d   1      -2.183  89.728 120.301  0.00  0.00     0.006 C 
ENDBRANCH   8  11
ENDBRANCH   7   8
ENDBRANCH   1   7
BRANCH   6  13
ATOM     13  N   LIG d   1      -7.076  91.178 116.944  0.00  0.00    -0.311 N 
ATOM     14  C   LIG d   1      -6.994  91.480 115.649  0.00  0.00     0.210 C 
ATOM     15  C   LIG d   1      -8.064  90.832 114.765  0.00  0.00     0.109 C 
ATOM     16  O   LIG d   1      -6.118  92.198 115.145  0.00  0.00    -0.276 OA
ATOM     17  H   LIG d   1      -7.799  90.562 117.262  0.00  0.00     0.149 HD
ENDBRANCH   6  13
BRANCH   5  18
ATOM     18  N   LIG d   1      -7.754  93.414 118.912  0.00  0.00     0.381 N 
ATOM     19  H   LIG d   1      -7.659  93.505 119.904  0.00  0.00    -0.090 HD
ATOM     20  H   LIG d   1      -8.332  92.614 118.723  0.00  0.00    -0.090 HD
ATOM     21  H   LIG d   1      -8.176  94.234 118.535  0.00  0.00    -0.090 HD
ENDBRANCH   5  18
BRANCH   3  22
ATOM     22  C   LIG d   1      -3.064  94.307 119.286  0.00  0.00     0.382 C 
ATOM     23  O   LIG d   1      -3.295  95.539 119.343  0.00  0.00    -0.241 OA
ATOM     24  O   LIG d   1      -1.922  93.884 119.549  0.00  0.00    -0.241 OA
ENDBRANCH   3  22
TORSDOF 7
ENDMDL
MODEL 4
REMARK VINA RESULT:      -5.3      2.293      4.243
REMARK  7 active torsions:
REMARK  status: ('A' for Active; 'I' for Inactive)
REMARK    1  A    between atoms: C_2  and  C_3 
REMARK    2  A    between atoms: C_3  and  O_6 
REMARK    3  A    between atoms: C_3  and  C_4 
REMARK    4  A    between atoms: C_7  and  O_6 
REMARK    5  A    between atoms: C_9  and  C_10 
REMARK    6  A    between atoms: N_15  and  C_14 
REMARK    7  A    between atoms: N_20  and  C_19 
REMARK       I    between atoms: C_22  and  N_20 
ROOT
ATOM      1  C   LIG d   1      -8.057  75.443 117.521  0.00  0.00     0.161 C 
ATOM      2  C   LIG d   1      -8.180  76.769 117.966  0.00  0.00     0.016 C 
ATOM      3  C   LIG d   1      -9.395  77.326 118.427  0.00  0.00     0.038 C 
ATOM      4  C   LIG d   1     -10.543  76.543 118.619  0.00  0.00     0.028 C 
ATOM      5  C   LIG d   1     -10.602  75.322 117.708  0.00  0.00    -0.047 C 
ATOM      6  C   LIG d   1      -9.272  74.543 117.827  0.00  0.00     0.091 C 
ENDROOT
BRANCH   1   7
ATOM      7  O   LIG d   1      -6.853  74.857 118.056  0.00  0.00    -0.368 OA
BRANCH   7   8
ATOM      8  C   LIG d   1      -5.707  74.835 117.170  0.00  0.00     0.119 C 
BRANCH   8   9
ATOM      9  C   LIG d   1      -6.004  73.814 116.054  0.00  0.00     0.028 C 
ATOM     10  C   LIG d   1      -6.076  74.468 114.664  0.00  0.00     0.006 C 
ENDBRANCH   8   9
BRANCH   8  11
ATOM     11  C   LIG d   1      -4.461  74.305 117.884  0.00  0.00     0.028 C 
ATOM     12  C   LIG d   1      -3.222  74.269 116.975  0.00  0.00     0.006 C 
ENDBRANCH   8  11
ENDBRANCH   7   8
ENDBRANCH   1   7
BRANCH   6  13
ATOM     13  N   LIG d   1      -9.213  73.378 116.905  0.00  0.00    -0.311 N 
ATOM     14  C   LIG d   1      -9.480  72.130 117.283  0.00  0.00     0.210 C 
ATOM     15  C   LIG d   1      -9.340  71.076 116.180  0.00  0.00     0.109 C 
ATOM     16  O   LIG d   1      -9.851  71.799 118.419  0.00  0.00    -0.276 OA
ATOM     17  H   LIG d   1      -8.951  73.561 115.956  0.00  0.00     0.149 HD
ENDBRANCH   6  13
BRANCH   5  18
ATOM     18  N   LIG d   1     -11.777  74.524 118.108  0.00  0.00     0.381 N 
ATOM     19  H   LIG d   1     -11.583  73.550 117.986  0.00  0.00    -0.090 HD
ATOM     20  H   LIG d   1     -12.552  74.767 117.516  0.00  0.00    -0.090 HD
ATOM     21  H   LIG d   1     -12.006  74.708 119.060  0.00  0.00    -0.090 HD
ENDBRANCH   5  18
BRANCH   3  22
ATOM     22  C   LIG d   1      -9.480  78.689 118.665  0.00  0.00     0.382 C 
ATOM     23  O   LIG d   1     -10.599  79.224 118.856  0.00  0.00    -0.241 OA
ATOM     24  O   LIG d   1      -8.456  79.399 118.648  0.00  0.00    -0.241 OA
ENDBRANCH   3  22
TORSDOF 7
ENDMDL
MODEL 5
REMARK VINA RESULT:      -5.3      0.894      1.984
REMARK  7 active torsions:
REMARK  status: ('A' for Active; 'I' for Inactive)
REMARK    1  A    between atoms: C_2  and  C_3 
REMARK    2  A    between atoms: C_3  and  O_6 
REMARK    3  A    between atoms: C_3  and  C_4 
REMARK    4  A    between atoms: C_7  and  O_6 
REMARK    5  A    between atoms: C_9  and  C_10 
REMARK    6  A    between atoms: N_15  and  C_14 
REMARK    7  A    between atoms: N_20  and  C_19 
REMARK       I    between atoms: C_22  and  N_20 
ROOT
ATOM      1  C   LIG d   1      -8.482  75.287 117.344  0.00  0.00     0.161 C 
ATOM      2  C   LIG d   1      -9.876  75.126 117.302  0.00  0.00     0.016 C 
ATOM      3  C   LIG d   1     -10.764  75.791 118.179  0.00  0.00     0.038 C 
ATOM      4  C   LIG d   1     -10.324  76.784 119.066  0.00  0.00     0.028 C 
ATOM      5  C   LIG d   1      -8.870  76.614 119.493  0.00  0.00    -0.047 C 
ATOM      6  C   LIG d   1      -7.992  76.451 118.232  0.00  0.00     0.091 C 
ENDROOT
BRANCH   1   7
ATOM      7  O   LIG d   1      -7.964  75.426 116.006  0.00  0.00    -0.368 OA
BRANCH   7   8
ATOM      8  C   LIG d   1      -7.451  74.218 115.393  0.00  0.00     0.119 C 
BRANCH   8   9
ATOM      9  C   LIG d   1      -7.169  73.209 116.523  0.00  0.00     0.028 C 
ATOM     10  C   LIG d   1      -7.752  71.817 116.227  0.00  0.00     0.006 C 
ENDBRANCH   8   9
BRANCH   8  11
ATOM     11  C   LIG d   1      -6.096  74.465 114.724  0.00  0.00     0.028 C 
ATOM     12  C   LIG d   1      -4.951  74.622 115.736  0.00  0.00     0.006 C 
ENDBRANCH   8  11
ENDBRANCH   7   8
ENDBRANCH   1   7
BRANCH   6  13
ATOM     13  N   LIG d   1      -6.566  76.195 118.562  0.00  0.00    -0.311 N 
ATOM     14  C   LIG d   1      -5.643  77.154 118.621  0.00  0.00     0.210 C 
ATOM     15  C   LIG d   1      -4.229  76.671 118.959  0.00  0.00     0.109 C 
ATOM     16  O   LIG d   1      -5.868  78.362 118.456  0.00  0.00    -0.276 OA
ATOM     17  H   LIG d   1      -6.302  75.246 118.741  0.00  0.00     0.149 HD
ENDBRANCH   6  13
BRANCH   5  18
ATOM     18  N   LIG d   1      -8.503  77.790 120.305  0.00  0.00     0.381 N 
ATOM     19  H   LIG d   1      -9.327  78.203 120.694  0.00  0.00    -0.090 HD
ATOM     20  H   LIG d   1      -8.059  78.469 119.712  0.00  0.00    -0.090 HD
ATOM     21  H   LIG d   1      -7.882  77.520 121.035  0.00  0.00    -0.090 HD
ENDBRANCH   5  18
BRANCH   3  22
ATOM     22  C   LIG d   1     -12.103  75.434 118.202  0.00  0.00     0.382 C 
ATOM     23  O   LIG d   1     -12.958  76.234 118.653  0.00  0.00    -0.241 OA
ATOM     24  O   LIG d   1     -12.463  74.304 117.819  0.00  0.00    -0.241 OA
ENDBRANCH   3  22
TORSDOF 7
ENDMDL
MODEL 6
REMARK VINA RESULT:      -5.1     15.319     16.971
REMARK  7 active torsions:
REMARK  status: ('A' for Active; 'I' for Inactive)
REMARK    1  A    between atoms: C_2  and  C_3 
REMARK    2  A    between atoms: C_3  and  O_6 
REMARK    3  A    between atoms: C_3  and  C_4 
REMARK    4  A    between atoms: C_7  and  O_6 
REMARK    5  A    between atoms: C_9  and  C_10 
REMARK    6  A    between atoms: N_15  and  C_14 
REMARK    7  A    between atoms: N_20  and  C_19 
REMARK       I    between atoms: C_22  and  N_20 
ROOT
ATOM      1  C   LIG d   1      -4.219  90.903 117.409  0.00  0.00     0.161 C 
ATOM      2  C   LIG d   1      -5.226  90.387 116.576  0.00  0.00     0.016 C 
ATOM      3  C   LIG d   1      -6.402  91.099 116.244  0.00  0.00     0.038 C 
ATOM      4  C   LIG d   1      -6.581  92.443 116.603  0.00  0.00     0.028 C 
ATOM      5  C   LIG d   1      -5.823  92.839 117.865  0.00  0.00    -0.047 C 
ATOM      6  C   LIG d   1      -4.346  92.410 117.720  0.00  0.00     0.091 C 
ENDROOT
BRANCH   1   7
ATOM      7  O   LIG d   1      -2.924  90.615 116.847  0.00  0.00    -0.368 OA
BRANCH   7   8
ATOM      8  C   LIG d   1      -2.391  89.295 117.120  0.00  0.00     0.119 C 
BRANCH   8   9
ATOM      9  C   LIG d   1      -2.601  89.012 118.620  0.00  0.00     0.028 C 
ATOM     10  C   LIG d   1      -1.465  88.169 119.223  0.00  0.00     0.006 C 
ENDBRANCH   8   9
BRANCH   8  11
ATOM     11  C   LIG d   1      -0.874  89.253 116.908  0.00  0.00     0.028 C 
ATOM     12  C   LIG d   1      -0.240  90.652 116.859  0.00  0.00     0.006 C 
ENDBRANCH   8  11
ENDBRANCH   7   8
ENDBRANCH   1   7
BRANCH   6  13
ATOM     13  N   LIG d   1      -3.552  92.684 118.946  0.00  0.00    -0.311 N 
ATOM     14  C   LIG d   1      -2.358  93.275 118.929  0.00  0.00     0.210 C 
ATOM     15  C   LIG d   1      -1.702  93.445 120.303  0.00  0.00     0.109 C 
ATOM     16  O   LIG d   1      -1.795  93.703 117.911  0.00  0.00    -0.276 OA
ATOM     17  H   LIG d   1      -3.948  92.398 119.819  0.00  0.00     0.149 HD
ENDBRANCH   6  13
BRANCH   5  18
ATOM     18  N   LIG d   1      -5.987  94.294 118.045  0.00  0.00     0.381 N 
ATOM     19  H   LIG d   1      -5.093  94.722 118.182  0.00  0.00    -0.090 HD
ATOM     20  H   LIG d   1      -6.545  94.460 118.865  0.00  0.00    -0.090 HD
ATOM     21  H   LIG d   1      -6.433  94.689 117.246  0.00  0.00    -0.090 HD
ENDBRANCH   5  18
BRANCH   3  22
ATOM     22  C   LIG d   1      -7.431  90.452 115.578  0.00  0.00     0.382 C 
ATOM     23  O   LIG d   1      -7.393  89.208 115.422  0.00  0.00    -0.241 OA
ATOM     24  O   LIG d   1      -8.376  91.102 115.092  0.00  0.00    -0.241 OA
ENDBRANCH   3  22
TORSDOF 7
ENDMDL
MODEL 7
REMARK VINA RESULT:      -5.1      1.936      3.772
REMARK  7 active torsions:
REMARK  status: ('A' for Active; 'I' for Inactive)
REMARK    1  A    between atoms: C_2  and  C_3 
REMARK    2  A    between atoms: C_3  and  O_6 
REMARK    3  A    between atoms: C_3  and  C_4 
REMARK    4  A    between atoms: C_7  and  O_6 
REMARK    5  A    between atoms: C_9  and  C_10 
REMARK    6  A    between atoms: N_15  and  C_14 
REMARK    7  A    between atoms: N_20  and  C_19 
REMARK       I    between atoms: C_22  and  N_20 
ROOT
ATOM      1  C   LIG d   1      -8.443  75.434 118.028  0.00  0.00     0.161 C 
ATOM      2  C   LIG d   1      -9.728  75.842 118.421  0.00  0.00     0.016 C 
ATOM      3  C   LIG d   1     -10.896  75.087 118.169  0.00  0.00     0.038 C 
ATOM      4  C   LIG d   1     -10.839  73.791 117.635  0.00  0.00     0.028 C 
ATOM      5  C   LIG d   1      -9.613  73.548 116.762  0.00  0.00    -0.047 C 
ATOM      6  C   LIG d   1      -8.349  73.972 117.544  0.00  0.00     0.091 C 
ENDROOT
BRANCH   1   7
ATOM      7  O   LIG d   1      -7.507  75.669 119.099  0.00  0.00    -0.368 OA
BRANCH   7   8
ATOM      8  C   LIG d   1      -6.765  76.912 119.036  0.00  0.00     0.119 C 
BRANCH   8   9
ATOM      9  C   LIG d   1      -6.978  77.507 117.631  0.00  0.00     0.028 C 
ATOM     10  C   LIG d   1      -5.654  77.737 116.884  0.00  0.00     0.006 C 
ENDBRANCH   8   9
BRANCH   8  11
ATOM     11  C   LIG d   1      -5.257  76.667 119.148  0.00  0.00     0.028 C 
ATOM     12  C   LIG d   1      -4.914  75.210 119.495  0.00  0.00     0.006 C 
ENDBRANCH   8  11
ENDBRANCH   7   8
ENDBRANCH   1   7
BRANCH   6  13
ATOM     13  N   LIG d   1      -7.111  73.846 116.731  0.00  0.00    -0.311 N 
ATOM     14  C   LIG d   1      -6.933  74.466 115.566  0.00  0.00     0.210 C 
ATOM     15  C   LIG d   1      -5.591  74.184 114.882  0.00  0.00     0.109 C 
ATOM     16  O   LIG d   1      -7.745  75.247 115.049  0.00  0.00    -0.276 OA
ATOM     17  H   LIG d   1      -6.387  73.255 117.091  0.00  0.00     0.149 HD
ENDBRANCH   6  13
BRANCH   5  18
ATOM     18  N   LIG d   1      -9.609  72.122 116.386  0.00  0.00     0.381 N 
ATOM     19  H   LIG d   1      -9.371  71.562 117.181  0.00  0.00    -0.090 HD
ATOM     20  H   LIG d   1      -8.912  71.974 115.677  0.00  0.00    -0.090 HD
ATOM     21  H   LIG d   1     -10.505  71.857 116.041  0.00  0.00    -0.090 HD
ENDBRANCH   5  18
BRANCH   3  22
ATOM     22  C   LIG d   1     -12.142  75.644 118.414  0.00  0.00     0.382 C 
ATOM     23  O   LIG d   1     -13.182  75.024 118.086  0.00  0.00    -0.241 OA
ATOM     24  O   LIG d   1     -12.238  76.779 118.919  0.00  0.00    -0.241 OA
ENDBRANCH   3  22
TORSDOF 7
ENDMDL
MODEL 8
REMARK VINA RESULT:      -5.0      1.980      4.899
REMARK  7 active torsions:
REMARK  status: ('A' for Active; 'I' for Inactive)
REMARK    1  A    between atoms: C_2  and  C_3 
REMARK    2  A    between atoms: C_3  and  O_6 
REMARK    3  A    between atoms: C_3  and  C_4 
REMARK    4  A    between atoms: C_7  and  O_6 
REMARK    5  A    between atoms: C_9  and  C_10 
REMARK    6  A    between atoms: N_15  and  C_14 
REMARK    7  A    between atoms: N_20  and  C_19 
REMARK       I    between atoms: C_22  and  N_20 
ROOT
ATOM      1  C   LIG d   1      -8.474  74.933 117.768  0.00  0.00     0.161 C 
ATOM      2  C   LIG d   1      -8.764  73.603 117.422  0.00  0.00     0.016 C 
ATOM      3  C   LIG d   1      -7.952  72.827 116.563  0.00  0.00     0.038 C 
ATOM      4  C   LIG d   1      -6.706  73.283 116.109  0.00  0.00     0.028 C 
ATOM      5  C   LIG d   1      -6.611  74.802 116.023  0.00  0.00    -0.047 C 
ATOM      6  C   LIG d   1      -7.061  75.410 117.371  0.00  0.00     0.091 C 
ENDROOT
BRANCH   1   7
ATOM      7  O   LIG d   1      -8.692  75.130 119.179  0.00  0.00    -0.368 OA
BRANCH   7   8
ATOM      8  C   LIG d   1      -9.845  75.928 119.540  0.00  0.00     0.119 C 
BRANCH   8   9
ATOM      9  C   LIG d   1     -10.658  76.177 118.255  0.00  0.00     0.028 C 
ATOM     10  C   LIG d   1     -12.052  75.528 118.307  0.00  0.00     0.006 C 
ENDBRANCH   8   9
BRANCH   8  11
ATOM     11  C   LIG d   1      -9.429  77.318 120.032  0.00  0.00     0.028 C 
ATOM     12  C   LIG d   1      -9.846  78.440 119.067  0.00  0.00     0.006 C 
ENDBRANCH   8  11
ENDBRANCH   7   8
ENDBRANCH   1   7
BRANCH   6  13
ATOM     13  N   LIG d   1      -7.079  76.896 117.345  0.00  0.00    -0.311 N 
ATOM     14  C   LIG d   1      -6.068  77.650 117.774  0.00  0.00     0.210 C 
ATOM     15  C   LIG d   1      -6.301  79.161 117.676  0.00  0.00     0.109 C 
ATOM     16  O   LIG d   1      -4.988  77.210 118.195  0.00  0.00    -0.276 OA
ATOM     17  H   LIG d   1      -7.906  77.336 116.989  0.00  0.00     0.149 HD
ENDBRANCH   6  13
BRANCH   5  18
ATOM     18  N   LIG d   1      -5.220  75.143 115.670  0.00  0.00     0.381 N 
ATOM     19  H   LIG d   1      -4.890  74.523 114.958  0.00  0.00    -0.090 HD
ATOM     20  H   LIG d   1      -4.641  75.027 116.483  0.00  0.00    -0.090 HD
ATOM     21  H   LIG d   1      -5.171  76.085 115.350  0.00  0.00    -0.090 HD
ENDBRANCH   5  18
BRANCH   3  22
ATOM     22  C   LIG d   1      -8.405  71.594 116.118  0.00  0.00     0.382 C 
ATOM     23  O   LIG d   1      -7.590  70.751 115.671  0.00  0.00    -0.241 OA
ATOM     24  O   LIG d   1      -9.622  71.331 116.116  0.00  0.00    -0.241 OA
ENDBRANCH   3  22
TORSDOF 7
ENDMDL
MODEL 9
REMARK VINA RESULT:      -5.0     15.513     17.411
REMARK  7 active torsions:
REMARK  status: ('A' for Active; 'I' for Inactive)
REMARK    1  A    between atoms: C_2  and  C_3 
REMARK    2  A    between atoms: C_3  and  O_6 
REMARK    3  A    between atoms: C_3  and  C_4 
REMARK    4  A    between atoms: C_7  and  O_6 
REMARK    5  A    between atoms: C_9  and  C_10 
REMARK    6  A    between atoms: N_15  and  C_14 
REMARK    7  A    between atoms: N_20  and  C_19 
REMARK       I    between atoms: C_22  and  N_20 
ROOT
ATOM      1  C   LIG d   1      -5.816  91.354 118.253  0.00  0.00     0.161 C 
ATOM      2  C   LIG d   1      -6.842  92.313 118.262  0.00  0.00     0.016 C 
ATOM      3  C   LIG d   1      -6.660  93.643 118.706  0.00  0.00     0.038 C 
ATOM      4  C   LIG d   1      -5.393  94.149 119.032  0.00  0.00     0.028 C 
ATOM      5  C   LIG d   1      -4.421  93.080 119.519  0.00  0.00    -0.047 C 
ATOM      6  C   LIG d   1      -4.401  91.917 118.500  0.00  0.00     0.091 C 
ENDROOT
BRANCH   1   7
ATOM      7  O   LIG d   1      -5.852  90.612 117.018  0.00  0.00    -0.368 OA
BRANCH   7   8
ATOM      8  C   LIG d   1      -6.911  90.962 116.094  0.00  0.00     0.119 C 
BRANCH   8   9
ATOM      9  C   LIG d   1      -7.386  89.661 115.419  0.00  0.00     0.028 C 
ATOM     10  C   LIG d   1      -8.652  89.087 116.078  0.00  0.00     0.006 C 
ENDBRANCH   8   9
BRANCH   8  11
ATOM     11  C   LIG d   1      -6.389  91.843 114.955  0.00  0.00     0.028 C 
ATOM     12  C   LIG d   1      -6.965  91.449 113.585  0.00  0.00     0.006 C 
ENDBRANCH   8  11
ENDBRANCH   7   8
ENDBRANCH   1   7
BRANCH   6  13
ATOM     13  N   LIG d   1      -3.539  90.791 118.942  0.00  0.00    -0.311 N 
ATOM     14  C   LIG d   1      -2.261  90.664 118.590  0.00  0.00     0.210 C 
ATOM     15  C   LIG d   1      -1.559  89.418 119.139  0.00  0.00     0.109 C 
ATOM     16  O   LIG d   1      -1.632  91.482 117.902  0.00  0.00    -0.276 OA
ATOM     17  H   LIG d   1      -3.960  90.097 119.529  0.00  0.00     0.149 HD
ENDBRANCH   6  13
BRANCH   5  18
ATOM     18  N   LIG d   1      -3.103  93.720 119.691  0.00  0.00     0.381 N 
ATOM     19  H   LIG d   1      -2.828  94.163 118.837  0.00  0.00    -0.090 HD
ATOM     20  H   LIG d   1      -2.425  93.013 119.912  0.00  0.00    -0.090 HD
ATOM     21  H   LIG d   1      -3.144  94.393 120.424  0.00  0.00    -0.090 HD
ENDBRANCH   5  18
BRANCH   3  22
ATOM     22  C   LIG d   1      -7.761  94.471 118.865  0.00  0.00     0.382 C 
ATOM     23  O   LIG d   1      -8.752  94.351 118.105  0.00  0.00    -0.241 OA
ATOM     24  O   LIG d   1      -7.758  95.366 119.732  0.00  0.00    -0.241 OA
ENDBRANCH   3  22
TORSDOF 7
ENDMDL
