MODEL 1
REMARK VINA RESULT:      -5.8      0.000      0.000
REMARK  7 active torsions:
REMARK  status: ('A' for Active; 'I' for Inactive)
REMARK    1  A    between atoms: C_2  and  C_3 
REMARK    2  A    between atoms: C_3  and  O_6 
REMARK    3  A    between atoms: C_3  and  C_4 
REMARK    4  A    between atoms: C_7  and  O_6 
REMARK    5  A    between atoms: C_9  and  C_10 
REMARK    6  A    between atoms: N_15  and  C_14 
REMARK    7  A    between atoms: N_20  and  C_19 
REMARK       I    between atoms: C_22  and  N_20 
ROOT
ATOM      1  C   LIG d   1      -5.029  91.221 116.469  0.00  0.00     0.161 C 
ATOM      2  C   LIG d   1      -4.371  90.130 115.877  0.00  0.00     0.016 C 
ATOM      3  C   LIG d   1      -4.944  89.336 114.857  0.00  0.00     0.038 C 
ATOM      4  C   LIG d   1      -6.162  89.675 114.249  0.00  0.00     0.028 C 
ATOM      5  C   LIG d   1      -7.091  90.473 115.158  0.00  0.00    -0.047 C 
ATOM      6  C   LIG d   1      -6.312  91.674 115.742  0.00  0.00     0.091 C 
ENDROOT
BRANCH   1   7
ATOM      7  O   LIG d   1      -4.114  92.327 116.606  0.00  0.00    -0.368 OA
BRANCH   7   8
ATOM      8  C   LIG d   1      -3.756  92.693 117.961  0.00  0.00     0.119 C 
BRANCH   8   9
ATOM      9  C   LIG d   1      -4.101  94.184 118.144  0.00  0.00     0.028 C 
ATOM     10  C   LIG d   1      -4.948  94.441 119.401  0.00  0.00     0.006 C 
ENDBRANCH   8   9
BRANCH   8  11
ATOM     11  C   LIG d   1      -2.244  92.596 118.184  0.00  0.00     0.028 C 
ATOM     12  C   LIG d   1      -1.770  91.155 118.431  0.00  0.00     0.006 C 
ENDBRANCH   8  11
ENDBRANCH   7   8
ENDBRANCH   1   7
BRANCH   6  13
ATOM     13  N   LIG d   1      -7.124  92.459 116.708  0.00  0.00    -0.311 N 
ATOM     14  C   LIG d   1      -7.443  93.740 116.527  0.00  0.00     0.210 C 
ATOM     15  C   LIG d   1      -8.269  94.366 117.655  0.00  0.00     0.109 C 
ATOM     16  O   LIG d   1      -7.149  94.407 115.524  0.00  0.00    -0.276 OA
ATOM     17  H   LIG d   1      -7.431  91.987 117.536  0.00  0.00     0.149 HD
ENDBRANCH   6  13
BRANCH   5  18
ATOM     18  N   LIG d   1      -8.261  90.877 114.355  0.00  0.00     0.381 N 
ATOM     19  H   LIG d   1      -8.652  90.077 113.900  0.00  0.00    -0.090 HD
ATOM     20  H   LIG d   1      -7.962  91.526 113.649  0.00  0.00    -0.090 HD
ATOM     21  H   LIG d   1      -8.945  91.303 114.941  0.00  0.00    -0.090 HD
ENDBRANCH   5  18
BRANCH   3  22
ATOM     22  C   LIG d   1      -4.314  88.166 114.462  0.00  0.00     0.382 C 
ATOM     23  O   LIG d   1      -4.555  87.674 113.333  0.00  0.00    -0.241 OA
ATOM     24  O   LIG d   1      -3.542  87.571 115.237  0.00  0.00    -0.241 OA
ENDBRANCH   3  22
TORSDOF 7
ENDMDL
MODEL 2
REMARK VINA RESULT:      -5.7      1.024      1.972
REMARK  7 active torsions:
REMARK  status: ('A' for Active; 'I' for Inactive)
REMARK    1  A    between atoms: C_2  and  C_3 
REMARK    2  A    between atoms: C_3  and  O_6 
REMARK    3  A    between atoms: C_3  and  C_4 
REMARK    4  A    between atoms: C_7  and  O_6 
REMARK    5  A    between atoms: C_9  and  C_10 
REMARK    6  A    between atoms: N_15  and  C_14 
REMARK    7  A    between atoms: N_20  and  C_19 
REMARK       I    between atoms: C_22  and  N_20 
ROOT
ATOM      1  C   LIG d   1      -5.362  91.205 117.691  0.00  0.00     0.161 C 
ATOM      2  C   LIG d   1      -4.697  90.173 117.008  0.00  0.00     0.016 C 
ATOM      3  C   LIG d   1      -4.960  89.836 115.660  0.00  0.00     0.038 C 
ATOM      4  C   LIG d   1      -5.804  90.613 114.853  0.00  0.00     0.028 C 
ATOM      5  C   LIG d   1      -6.878  91.357 115.639  0.00  0.00    -0.047 C 
ATOM      6  C   LIG d   1      -6.206  92.135 116.794  0.00  0.00     0.091 C 
ENDROOT
BRANCH   1   7
ATOM      7  O   LIG d   1      -4.414  91.974 118.458  0.00  0.00    -0.368 OA
BRANCH   7   8
ATOM      8  C   LIG d   1      -3.393  92.666 117.699  0.00  0.00     0.119 C 
BRANCH   8   9
ATOM      9  C   LIG d   1      -2.041  92.396 118.388  0.00  0.00     0.028 C 
ATOM     10  C   LIG d   1      -1.241  91.280 117.694  0.00  0.00     0.006 C 
ENDBRANCH   8   9
BRANCH   8  11
ATOM     11  C   LIG d   1      -3.584  94.184 117.762  0.00  0.00     0.028 C 
ATOM     12  C   LIG d   1      -4.232  94.648 119.076  0.00  0.00     0.006 C 
ENDBRANCH   8  11
ENDBRANCH   7   8
ENDBRANCH   1   7
BRANCH   6  13
ATOM     13  N   LIG d   1      -7.195  92.823 117.664  0.00  0.00    -0.311 N 
ATOM     14  C   LIG d   1      -7.532  94.104 117.519  0.00  0.00     0.210 C 
ATOM     15  C   LIG d   1      -8.556  94.621 118.535  0.00  0.00     0.109 C 
ATOM     16  O   LIG d   1      -7.106  94.851 116.626  0.00  0.00    -0.276 OA
ATOM     17  H   LIG d   1      -7.613  92.283 118.395  0.00  0.00     0.149 HD
ENDBRANCH   6  13
BRANCH   5  18
ATOM     18  N   LIG d   1      -7.596  92.232 114.694  0.00  0.00     0.381 N 
ATOM     19  H   LIG d   1      -8.044  91.677 113.992  0.00  0.00    -0.090 HD
ATOM     20  H   LIG d   1      -6.933  92.837 114.242  0.00  0.00    -0.090 HD
ATOM     21  H   LIG d   1      -8.274  92.776 115.180  0.00  0.00    -0.090 HD
ENDBRANCH   5  18
BRANCH   3  22
ATOM     22  C   LIG d   1      -4.405  88.687 115.119  0.00  0.00     0.382 C 
ATOM     23  O   LIG d   1      -4.650  88.372 113.929  0.00  0.00    -0.241 OA
ATOM     24  O   LIG d   1      -3.697  87.937 115.818  0.00  0.00    -0.241 OA
ENDBRANCH   3  22
TORSDOF 7
ENDMDL
MODEL 3
REMARK VINA RESULT:      -5.3      2.079      5.188
REMARK  7 active torsions:
REMARK  status: ('A' for Active; 'I' for Inactive)
REMARK    1  A    between atoms: C_2  and  C_3 
REMARK    2  A    between atoms: C_3  and  O_6 
REMARK    3  A    between atoms: C_3  and  C_4 
REMARK    4  A    between atoms: C_7  and  O_6 
REMARK    5  A    between atoms: C_9  and  C_10 
REMARK    6  A    between atoms: N_15  and  C_14 
REMARK    7  A    between atoms: N_20  and  C_19 
REMARK       I    between atoms: C_22  and  N_20 
ROOT
ATOM      1  C   LIG d   1      -5.317  92.946 117.704  0.00  0.00     0.161 C 
ATOM      2  C   LIG d   1      -5.811  94.162 118.205  0.00  0.00     0.016 C 
ATOM      3  C   LIG d   1      -6.871  94.879 117.603  0.00  0.00     0.038 C 
ATOM      4  C   LIG d   1      -7.614  94.348 116.539  0.00  0.00     0.028 C 
ATOM      5  C   LIG d   1      -6.828  93.359 115.685  0.00  0.00    -0.047 C 
ATOM      6  C   LIG d   1      -6.188  92.297 116.608  0.00  0.00     0.091 C 
ENDROOT
BRANCH   1   7
ATOM      7  O   LIG d   1      -5.104  92.021 118.788  0.00  0.00    -0.368 OA
BRANCH   7   8
ATOM      8  C   LIG d   1      -3.723  91.755 119.137  0.00  0.00     0.119 C 
BRANCH   8   9
ATOM      9  C   LIG d   1      -3.352  92.691 120.304  0.00  0.00     0.028 C 
ATOM     10  C   LIG d   1      -2.422  93.835 119.866  0.00  0.00     0.006 C 
ENDBRANCH   8   9
BRANCH   8  11
ATOM     11  C   LIG d   1      -2.777  92.136 117.995  0.00  0.00     0.028 C 
ATOM     12  C   LIG d   1      -1.960  90.942 117.475  0.00  0.00     0.006 C 
ENDBRANCH   8  11
ENDBRANCH   7   8
ENDBRANCH   1   7
BRANCH   6  13
ATOM     13  N   LIG d   1      -5.332  91.339 115.862  0.00  0.00    -0.311 N 
ATOM     14  C   LIG d   1      -5.532  90.022 115.864  0.00  0.00     0.210 C 
ATOM     15  C   LIG d   1      -4.521  89.213 115.044  0.00  0.00     0.109 C 
ATOM     16  O   LIG d   1      -6.469  89.449 116.440  0.00  0.00    -0.276 OA
ATOM     17  H   LIG d   1      -4.567  91.720 115.342  0.00  0.00     0.149 HD
ENDBRANCH   6  13
BRANCH   5  18
ATOM     18  N   LIG d   1      -7.761  92.781 114.699  0.00  0.00     0.381 N 
ATOM     19  H   LIG d   1      -8.588  92.461 115.163  0.00  0.00    -0.090 HD
ATOM     20  H   LIG d   1      -7.321  91.993 114.258  0.00  0.00    -0.090 HD
ATOM     21  H   LIG d   1      -7.999  93.464 114.014  0.00  0.00    -0.090 HD
ENDBRANCH   5  18
BRANCH   3  22
ATOM     22  C   LIG d   1      -7.171  96.160 118.042  0.00  0.00     0.382 C 
ATOM     23  O   LIG d   1      -7.165  97.117 117.232  0.00  0.00    -0.241 OA
ATOM     24  O   LIG d   1      -7.403  96.376 119.247  0.00  0.00    -0.241 OA
ENDBRANCH   3  22
TORSDOF 7
ENDMDL
MODEL 4
REMARK VINA RESULT:      -5.1      1.681      1.955
REMARK  7 active torsions:
REMARK  status: ('A' for Active; 'I' for Inactive)
REMARK    1  A    between atoms: C_2  and  C_3 
REMARK    2  A    between atoms: C_3  and  O_6 
REMARK    3  A    between atoms: C_3  and  C_4 
REMARK    4  A    between atoms: C_7  and  O_6 
REMARK    5  A    between atoms: C_9  and  C_10 
REMARK    6  A    between atoms: N_15  and  C_14 
REMARK    7  A    between atoms: N_20  and  C_19 
REMARK       I    between atoms: C_22  and  N_20 
ROOT
ATOM      1  C   LIG d   1      -4.585  92.552 117.353  0.00  0.00     0.161 C 
ATOM      2  C   LIG d   1      -4.323  91.269 116.845  0.00  0.00     0.016 C 
ATOM      3  C   LIG d   1      -4.995  90.722 115.728  0.00  0.00     0.038 C 
ATOM      4  C   LIG d   1      -5.873  91.485 114.944  0.00  0.00     0.028 C 
ATOM      5  C   LIG d   1      -6.546  92.616 115.716  0.00  0.00    -0.047 C 
ATOM      6  C   LIG d   1      -5.461  93.441 116.445  0.00  0.00     0.091 C 
ENDROOT
BRANCH   1   7
ATOM      7  O   LIG d   1      -3.345  93.219 117.661  0.00  0.00    -0.368 OA
BRANCH   7   8
ATOM      8  C   LIG d   1      -2.871  93.085 119.023  0.00  0.00     0.119 C 
BRANCH   8   9
ATOM      9  C   LIG d   1      -2.463  94.489 119.511  0.00  0.00     0.028 C 
ATOM     10  C   LIG d   1      -2.839  95.591 118.507  0.00  0.00     0.006 C 
ENDBRANCH   8   9
BRANCH   8  11
ATOM     11  C   LIG d   1      -1.591  92.246 119.088  0.00  0.00     0.028 C 
ATOM     12  C   LIG d   1      -0.634  92.528 117.919  0.00  0.00     0.006 C 
ENDBRANCH   8  11
ENDBRANCH   7   8
ENDBRANCH   1   7
BRANCH   6  13
ATOM     13  N   LIG d   1      -6.040  94.517 117.291  0.00  0.00    -0.311 N 
ATOM     14  C   LIG d   1      -7.191  94.392 117.949  0.00  0.00     0.210 C 
ATOM     15  C   LIG d   1      -7.617  95.629 118.747  0.00  0.00     0.109 C 
ATOM     16  O   LIG d   1      -7.884  93.364 117.973  0.00  0.00    -0.276 OA
ATOM     17  H   LIG d   1      -5.527  95.374 117.353  0.00  0.00     0.149 HD
ENDBRANCH   6  13
BRANCH   5  18
ATOM     18  N   LIG d   1      -7.326  93.412 114.749  0.00  0.00     0.381 N 
ATOM     19  H   LIG d   1      -7.119  93.111 113.818  0.00  0.00    -0.090 HD
ATOM     20  H   LIG d   1      -7.060  94.378 114.835  0.00  0.00    -0.090 HD
ATOM     21  H   LIG d   1      -8.300  93.311 114.931  0.00  0.00    -0.090 HD
ENDBRANCH   5  18
BRANCH   3  22
ATOM     22  C   LIG d   1      -4.819  89.385 115.407  0.00  0.00     0.382 C 
ATOM     23  O   LIG d   1      -5.246  88.940 114.314  0.00  0.00    -0.241 OA
ATOM     24  O   LIG d   1      -4.279  88.607 116.217  0.00  0.00    -0.241 OA
ENDBRANCH   3  22
TORSDOF 7
ENDMDL
MODEL 5
REMARK VINA RESULT:      -5.0     14.193     16.541
REMARK  7 active torsions:
REMARK  status: ('A' for Active; 'I' for Inactive)
REMARK    1  A    between atoms: C_2  and  C_3 
REMARK    2  A    between atoms: C_3  and  O_6 
REMARK    3  A    between atoms: C_3  and  C_4 
REMARK    4  A    between atoms: C_7  and  O_6 
REMARK    5  A    between atoms: C_9  and  C_10 
REMARK    6  A    between atoms: N_15  and  C_14 
REMARK    7  A    between atoms: N_20  and  C_19 
REMARK       I    between atoms: C_22  and  N_20 
ROOT
ATOM      1  C   LIG d   1      -0.283  76.212 115.641  0.00  0.00     0.161 C 
ATOM      2  C   LIG d   1       0.148  75.385 114.590  0.00  0.00     0.016 C 
ATOM      3  C   LIG d   1       0.021  73.977 114.607  0.00  0.00     0.038 C 
ATOM      4  C   LIG d   1      -0.686  73.308 115.617  0.00  0.00     0.028 C 
ATOM      5  C   LIG d   1      -0.696  74.055 116.946  0.00  0.00    -0.047 C 
ATOM      6  C   LIG d   1      -1.157  75.510 116.701  0.00  0.00     0.091 C 
ENDROOT
BRANCH   1   7
ATOM      7  O   LIG d   1      -0.969  77.362 115.107  0.00  0.00    -0.368 OA
BRANCH   7   8
ATOM      8  C   LIG d   1      -0.824  77.587 113.684  0.00  0.00     0.119 C 
BRANCH   8   9
ATOM      9  C   LIG d   1      -0.457  79.071 113.485  0.00  0.00     0.028 C 
ATOM     10  C   LIG d   1       0.555  79.570 114.530  0.00  0.00     0.006 C 
ENDBRANCH   8   9
BRANCH   8  11
ATOM     11  C   LIG d   1      -2.155  77.397 112.951  0.00  0.00     0.028 C 
ATOM     12  C   LIG d   1      -2.518  78.592 112.055  0.00  0.00     0.006 C 
ENDBRANCH   8  11
ENDBRANCH   7   8
ENDBRANCH   1   7
BRANCH   6  13
ATOM     13  N   LIG d   1      -1.114  76.334 117.937  0.00  0.00    -0.311 N 
ATOM     14  C   LIG d   1      -2.075  77.189 118.281  0.00  0.00     0.210 C 
ATOM     15  C   LIG d   1      -1.824  77.954 119.584  0.00  0.00     0.109 C 
ATOM     16  O   LIG d   1      -3.127  77.364 117.647  0.00  0.00    -0.276 OA
ATOM     17  H   LIG d   1      -0.311  76.232 118.526  0.00  0.00     0.149 HD
ENDBRANCH   6  13
BRANCH   5  18
ATOM     18  N   LIG d   1      -1.580  73.315 117.866  0.00  0.00     0.381 N 
ATOM     19  H   LIG d   1      -2.494  73.723 117.859  0.00  0.00    -0.090 HD
ATOM     20  H   LIG d   1      -1.211  73.385 118.798  0.00  0.00    -0.090 HD
ATOM     21  H   LIG d   1      -1.633  72.359 117.593  0.00  0.00    -0.090 HD
ENDBRANCH   5  18
BRANCH   3  22
ATOM     22  C   LIG d   1       0.642  73.220 113.624  0.00  0.00     0.382 C 
ATOM     23  O   LIG d   1       0.085  72.184 113.186  0.00  0.00    -0.241 OA
ATOM     24  O   LIG d   1       1.771  73.534 113.203  0.00  0.00    -0.241 OA
ENDBRANCH   3  22
TORSDOF 7
ENDMDL
MODEL 6
REMARK VINA RESULT:      -4.9     18.894     21.323
REMARK  7 active torsions:
REMARK  status: ('A' for Active; 'I' for Inactive)
REMARK    1  A    between atoms: C_2  and  C_3 
REMARK    2  A    between atoms: C_3  and  O_6 
REMARK    3  A    between atoms: C_3  and  C_4 
REMARK    4  A    between atoms: C_7  and  O_6 
REMARK    5  A    between atoms: C_9  and  C_10 
REMARK    6  A    between atoms: N_15  and  C_14 
REMARK    7  A    between atoms: N_20  and  C_19 
REMARK       I    between atoms: C_22  and  N_20 
ROOT
ATOM      1  C   LIG d   1      10.576  78.689 114.656  0.00  0.00     0.161 C 
ATOM      2  C   LIG d   1       9.234  78.855 115.035  0.00  0.00     0.016 C 
ATOM      3  C   LIG d   1       8.387  77.780 115.390  0.00  0.00     0.038 C 
ATOM      4  C   LIG d   1       8.871  76.472 115.537  0.00  0.00     0.028 C 
ATOM      5  C   LIG d   1      10.096  76.179 114.678  0.00  0.00    -0.047 C 
ATOM      6  C   LIG d   1      11.153  77.282 114.918  0.00  0.00     0.091 C 
ENDROOT
BRANCH   1   7
ATOM      7  O   LIG d   1      11.392  79.691 115.295  0.00  0.00    -0.368 OA
BRANCH   7   8
ATOM      8  C   LIG d   1      11.640  80.895 114.528  0.00  0.00     0.119 C 
BRANCH   8   9
ATOM      9  C   LIG d   1      11.897  80.469 113.069  0.00  0.00     0.028 C 
ATOM     10  C   LIG d   1      11.271  81.441 112.055  0.00  0.00     0.006 C 
ENDBRANCH   8   9
BRANCH   8  11
ATOM     11  C   LIG d   1      12.928  81.588 114.981  0.00  0.00     0.028 C 
ATOM     12  C   LIG d   1      14.183  81.020 114.299  0.00  0.00     0.006 C 
ENDBRANCH   8  11
ENDBRANCH   7   8
ENDBRANCH   1   7
BRANCH   6  13
ATOM     13  N   LIG d   1      12.350  77.118 114.053  0.00  0.00    -0.311 N 
ATOM     14  C   LIG d   1      13.599  77.243 114.498  0.00  0.00     0.210 C 
ATOM     15  C   LIG d   1      14.686  77.054 113.435  0.00  0.00     0.109 C 
ATOM     16  O   LIG d   1      13.911  77.459 115.679  0.00  0.00    -0.276 OA
ATOM     17  H   LIG d   1      12.189  76.910 113.086  0.00  0.00     0.149 HD
ENDBRANCH   6  13
BRANCH   5  18
ATOM     18  N   LIG d   1      10.577  74.831 115.031  0.00  0.00     0.381 N 
ATOM     19  H   LIG d   1      10.181  74.155 114.409  0.00  0.00    -0.090 HD
ATOM     20  H   LIG d   1      10.277  74.613 115.965  0.00  0.00    -0.090 HD
ATOM     21  H   LIG d   1      11.572  74.798 114.979  0.00  0.00    -0.090 HD
ENDBRANCH   5  18
BRANCH   3  22
ATOM     22  C   LIG d   1       7.029  78.003 115.564  0.00  0.00     0.382 C 
ATOM     23  O   LIG d   1       6.550  79.144 115.358  0.00  0.00    -0.241 OA
ATOM     24  O   LIG d   1       6.285  77.089 115.967  0.00  0.00    -0.241 OA
ENDBRANCH   3  22
TORSDOF 7
ENDMDL
MODEL 7
REMARK VINA RESULT:      -4.9     32.417     34.191
REMARK  7 active torsions:
REMARK  status: ('A' for Active; 'I' for Inactive)
REMARK    1  A    between atoms: C_2  and  C_3 
REMARK    2  A    between atoms: C_3  and  O_6 
REMARK    3  A    between atoms: C_3  and  C_4 
REMARK    4  A    between atoms: C_7  and  O_6 
REMARK    5  A    between atoms: C_9  and  C_10 
REMARK    6  A    between atoms: N_15  and  C_14 
REMARK    7  A    between atoms: N_20  and  C_19 
REMARK       I    between atoms: C_22  and  N_20 
ROOT
ATOM      1  C   LIG d   1      -1.382  58.032 117.345  0.00  0.00     0.161 C 
ATOM      2  C   LIG d   1      -1.640  56.974 118.233  0.00  0.00     0.016 C 
ATOM      3  C   LIG d   1      -0.732  56.559 119.234  0.00  0.00     0.038 C 
ATOM      4  C   LIG d   1       0.440  57.278 119.516  0.00  0.00     0.028 C 
ATOM      5  C   LIG d   1       0.981  58.049 118.316  0.00  0.00    -0.047 C 
ATOM      6  C   LIG d   1      -0.159  58.898 117.710  0.00  0.00     0.091 C 
ENDROOT
BRANCH   1   7
ATOM      7  O   LIG d   1      -2.558  58.855 117.213  0.00  0.00    -0.368 OA
BRANCH   7   8
ATOM      8  C   LIG d   1      -3.664  58.274 116.480  0.00  0.00     0.119 C 
BRANCH   8   9
ATOM      9  C   LIG d   1      -3.157  57.943 115.063  0.00  0.00     0.028 C 
ATOM     10  C   LIG d   1      -3.138  59.176 114.143  0.00  0.00     0.006 C 
ENDBRANCH   8   9
BRANCH   8  11
ATOM     11  C   LIG d   1      -4.794  59.288 116.279  0.00  0.00     0.028 C 
ATOM     12  C   LIG d   1      -6.135  58.809 116.857  0.00  0.00     0.006 C 
ENDBRANCH   8  11
ENDBRANCH   7   8
ENDBRANCH   1   7
BRANCH   6  13
ATOM     13  N   LIG d   1       0.264  59.620 116.481  0.00  0.00    -0.311 N 
ATOM     14  C   LIG d   1       0.450  59.020 115.307  0.00  0.00     0.210 C 
ATOM     15  C   LIG d   1       0.905  59.944 114.173  0.00  0.00     0.109 C 
ATOM     16  O   LIG d   1       0.250  57.815 115.088  0.00  0.00    -0.276 OA
ATOM     17  H   LIG d   1       0.418  60.606 116.561  0.00  0.00     0.149 HD
ENDBRANCH   6  13
BRANCH   5  18
ATOM     18  N   LIG d   1       2.120  58.860 118.785  0.00  0.00     0.381 N 
ATOM     19  H   LIG d   1       2.831  58.262 119.157  0.00  0.00    -0.090 HD
ATOM     20  H   LIG d   1       1.805  59.469 119.519  0.00  0.00    -0.090 HD
ATOM     21  H   LIG d   1       2.489  59.397 118.032  0.00  0.00    -0.090 HD
ENDBRANCH   5  18
BRANCH   3  22
ATOM     22  C   LIG d   1      -0.973  55.390 119.939  0.00  0.00     0.382 C 
ATOM     23  O   LIG d   1      -2.139  55.108 120.305  0.00  0.00    -0.241 OA
ATOM     24  O   LIG d   1      -0.032  54.636 120.253  0.00  0.00    -0.241 OA
ENDBRANCH   3  22
TORSDOF 7
ENDMDL
MODEL 8
REMARK VINA RESULT:      -4.8     15.076     17.438
REMARK  7 active torsions:
REMARK  status: ('A' for Active; 'I' for Inactive)
REMARK    1  A    between atoms: C_2  and  C_3 
REMARK    2  A    between atoms: C_3  and  O_6 
REMARK    3  A    between atoms: C_3  and  C_4 
REMARK    4  A    between atoms: C_7  and  O_6 
REMARK    5  A    between atoms: C_9  and  C_10 
REMARK    6  A    between atoms: N_15  and  C_14 
REMARK    7  A    between atoms: N_20  and  C_19 
REMARK       I    between atoms: C_22  and  N_20 
ROOT
ATOM      1  C   LIG d   1      -1.433  74.383 116.784  0.00  0.00     0.161 C 
ATOM      2  C   LIG d   1      -2.460  74.801 115.922  0.00  0.00     0.016 C 
ATOM      3  C   LIG d   1      -3.251  75.950 116.152  0.00  0.00     0.038 C 
ATOM      4  C   LIG d   1      -2.965  76.851 117.190  0.00  0.00     0.028 C 
ATOM      5  C   LIG d   1      -2.258  76.203 118.376  0.00  0.00    -0.047 C 
ATOM      6  C   LIG d   1      -1.033  75.414 117.860  0.00  0.00     0.091 C 
ENDROOT
BRANCH   1   7
ATOM      7  O   LIG d   1      -0.279  73.990 116.014  0.00  0.00    -0.368 OA
BRANCH   7   8
ATOM      8  C   LIG d   1      -0.048  74.730 114.790  0.00  0.00     0.119 C 
BRANCH   8   9
ATOM      9  C   LIG d   1       0.727  73.805 113.830  0.00  0.00     0.028 C 
ATOM     10  C   LIG d   1       0.144  72.383 113.787  0.00  0.00     0.006 C 
ENDBRANCH   8   9
BRANCH   8  11
ATOM     11  C   LIG d   1       0.874  75.929 115.029  0.00  0.00     0.028 C 
ATOM     12  C   LIG d   1       0.172  77.276 114.791  0.00  0.00     0.006 C 
ENDBRANCH   8  11
ENDBRANCH   7   8
ENDBRANCH   1   7
BRANCH   6  13
ATOM     13  N   LIG d   1      -0.334  74.680 118.947  0.00  0.00    -0.311 N 
ATOM     14  C   LIG d   1       0.987  74.709 119.119  0.00  0.00     0.210 C 
ATOM     15  C   LIG d   1       1.505  73.866 120.288  0.00  0.00     0.109 C 
ATOM     16  O   LIG d   1       1.775  75.378 118.433  0.00  0.00    -0.276 OA
ATOM     17  H   LIG d   1      -0.900  74.137 119.569  0.00  0.00     0.149 HD
ENDBRANCH   6  13
BRANCH   5  18
ATOM     18  N   LIG d   1      -1.898  77.278 119.320  0.00  0.00     0.381 N 
ATOM     19  H   LIG d   1      -1.677  76.884 120.213  0.00  0.00    -0.090 HD
ATOM     20  H   LIG d   1      -2.686  77.890 119.432  0.00  0.00    -0.090 HD
ATOM     21  H   LIG d   1      -1.117  77.789 118.973  0.00  0.00    -0.090 HD
ENDBRANCH   5  18
BRANCH   3  22
ATOM     22  C   LIG d   1      -4.366  76.187 115.363  0.00  0.00     0.382 C 
ATOM     23  O   LIG d   1      -4.907  77.319 115.367  0.00  0.00    -0.241 OA
ATOM     24  O   LIG d   1      -4.864  75.271 114.683  0.00  0.00    -0.241 OA
ENDBRANCH   3  22
TORSDOF 7
ENDMDL
MODEL 9
REMARK VINA RESULT:      -4.8      2.640      4.431
REMARK  7 active torsions:
REMARK  status: ('A' for Active; 'I' for Inactive)
REMARK    1  A    between atoms: C_2  and  C_3 
REMARK    2  A    between atoms: C_3  and  O_6 
REMARK    3  A    between atoms: C_3  and  C_4 
REMARK    4  A    between atoms: C_7  and  O_6 
REMARK    5  A    between atoms: C_9  and  C_10 
REMARK    6  A    between atoms: N_15  and  C_14 
REMARK    7  A    between atoms: N_20  and  C_19 
REMARK       I    between atoms: C_22  and  N_20 
ROOT
ATOM      1  C   LIG d   1      -4.237  90.627 117.472  0.00  0.00     0.161 C 
ATOM      2  C   LIG d   1      -5.317  90.045 116.788  0.00  0.00     0.016 C 
ATOM      3  C   LIG d   1      -6.409  90.788 116.282  0.00  0.00     0.038 C 
ATOM      4  C   LIG d   1      -6.421  92.190 116.293  0.00  0.00     0.028 C 
ATOM      5  C   LIG d   1      -5.591  92.793 117.422  0.00  0.00    -0.047 C 
ATOM      6  C   LIG d   1      -4.178  92.167 117.397  0.00  0.00     0.091 C 
ENDROOT
BRANCH   1   7
ATOM      7  O   LIG d   1      -2.999  90.055 117.006  0.00  0.00    -0.368 OA
BRANCH   7   8
ATOM      8  C   LIG d   1      -2.474  88.952 117.785  0.00  0.00     0.119 C 
BRANCH   8   9
ATOM      9  C   LIG d   1      -1.045  89.330 118.220  0.00  0.00     0.028 C 
ATOM     10  C   LIG d   1      -1.015  90.026 119.591  0.00  0.00     0.006 C 
ENDBRANCH   8   9
BRANCH   8  11
ATOM     11  C   LIG d   1      -2.317  87.691 116.929  0.00  0.00     0.028 C 
ATOM     12  C   LIG d   1      -1.802  86.486 117.732  0.00  0.00     0.006 C 
ENDBRANCH   8  11
ENDBRANCH   7   8
ENDBRANCH   1   7
BRANCH   6  13
ATOM     13  N   LIG d   1      -3.328  92.640 118.520  0.00  0.00    -0.311 N 
ATOM     14  C   LIG d   1      -2.531  93.704 118.439  0.00  0.00     0.210 C 
ATOM     15  C   LIG d   1      -1.725  94.006 119.706  0.00  0.00     0.109 C 
ATOM     16  O   LIG d   1      -2.438  94.444 117.448  0.00  0.00    -0.276 OA
ATOM     17  H   LIG d   1      -3.366  92.116 119.372  0.00  0.00     0.149 HD
ENDBRANCH   6  13
BRANCH   5  18
ATOM     18  N   LIG d   1      -5.579  94.256 117.234  0.00  0.00     0.381 N 
ATOM     19  H   LIG d   1      -5.040  94.489 116.423  0.00  0.00    -0.090 HD
ATOM     20  H   LIG d   1      -5.146  94.684 118.034  0.00  0.00    -0.090 HD
ATOM     21  H   LIG d   1      -6.510  94.595 117.130  0.00  0.00    -0.090 HD
ENDBRANCH   5  18
BRANCH   3  22
ATOM     22  C   LIG d   1      -7.524  90.124 115.792  0.00  0.00     0.382 C 
ATOM     23  O   LIG d   1      -8.011  89.161 116.431  0.00  0.00    -0.241 OA
ATOM     24  O   LIG d   1      -8.021  90.447 114.697  0.00  0.00    -0.241 OA
ENDBRANCH   3  22
TORSDOF 7
ENDMDL
