REMARK VINA RESULT:      -4.6      3.268      6.052
REMARK  7 active torsions:
REMARK  status: ('A' for Active; 'I' for Inactive)
REMARK    1  A    between atoms: C_2  and  C_3 
REMARK    2  A    between atoms: C_3  and  O_6 
REMARK    3  A    between atoms: C_3  and  C_4 
REMARK    4  A    between atoms: C_7  and  O_6 
REMARK    5  A    between atoms: C_9  and  C_10 
REMARK    6  A    between atoms: N_15  and  C_14 
REMARK    7  A    between atoms: N_20  and  C_19 
REMARK       I    between atoms: C_22  and  N_20 
ROOT
ATOM      1  C   LIG d   1       2.679  58.579 118.819  0.00  0.00     0.161 C 
ATOM      2  C   LIG d   1       1.612  59.457 118.564  0.00  0.00     0.016 C 
ATOM      3  C   LIG d   1       0.255  59.109 118.754  0.00  0.00     0.038 C 
ATOM      4  C   LIG d   1      -0.123  57.902 119.360  0.00  0.00     0.028 C 
ATOM      5  C   LIG d   1       0.895  56.783 119.168  0.00  0.00    -0.047 C 
ATOM      6  C   LIG d   1       2.291  57.297 119.586  0.00  0.00     0.091 C 
ENDROOT
BRANCH   1   7
ATOM      7  O   LIG d   1       3.732  59.277 119.511  0.00  0.00    -0.368 OA
BRANCH   7   8
ATOM      8  C   LIG d   1       3.361  60.529 120.140  0.00  0.00     0.119 C 
BRANCH   8   9
ATOM      9  C   LIG d   1       4.566  61.482 120.020  0.00  0.00     0.028 C 
ATOM     10  C   LIG d   1       5.880  60.735 119.739  0.00  0.00     0.006 C 
ENDBRANCH   8   9
BRANCH   8  11
ATOM     11  C   LIG d   1       3.132  60.351 121.644  0.00  0.00     0.028 C 
ATOM     12  C   LIG d   1       1.732  60.800 122.091  0.00  0.00     0.006 C 
ENDBRANCH   8  11
ENDBRANCH   7   8
ENDBRANCH   1   7
BRANCH   6  13
ATOM     13  N   LIG d   1       3.360  56.291 119.350  0.00  0.00    -0.311 N 
ATOM     14  C   LIG d   1       4.030  55.690 120.331  0.00  0.00     0.210 C 
ATOM     15  C   LIG d   1       5.104  54.701 119.868  0.00  0.00     0.109 C 
ATOM     16  O   LIG d   1       3.815  55.858 121.541  0.00  0.00    -0.276 OA
ATOM     17  H   LIG d   1       3.577  56.072 118.397  0.00  0.00     0.149 HD
ENDBRANCH   6  13
BRANCH   5  18
ATOM     18  N   LIG d   1       0.442  55.627 119.964  0.00  0.00     0.381 N 
ATOM     19  H   LIG d   1      -0.200  55.077 119.429  0.00  0.00    -0.090 HD
ATOM     20  H   LIG d   1      -0.037  55.963 120.782  0.00  0.00    -0.090 HD
ATOM     21  H   LIG d   1       1.223  55.071 120.233  0.00  0.00    -0.090 HD
ENDBRANCH   5  18
BRANCH   3  22
ATOM     22  C   LIG d   1      -0.742  59.958 118.298  0.00  0.00     0.382 C 
ATOM     23  O   LIG d   1      -1.497  59.594 117.365  0.00  0.00    -0.241 OA
ATOM     24  O   LIG d   1      -0.867  61.101 118.779  0.00  0.00    -0.241 OA
ENDBRANCH   3  22
TORSDOF 7
