REMARK VINA RESULT:      -4.8      2.928      5.272
REMARK  7 active torsions:
REMARK  status: ('A' for Active; 'I' for Inactive)
REMARK    1  A    between atoms: C_2  and  C_3 
REMARK    2  A    between atoms: C_3  and  O_6 
REMARK    3  A    between atoms: C_3  and  C_4 
REMARK    4  A    between atoms: C_7  and  O_6 
REMARK    5  A    between atoms: C_9  and  C_10 
REMARK    6  A    between atoms: N_15  and  C_14 
REMARK    7  A    between atoms: N_20  and  C_19 
REMARK       I    between atoms: C_22  and  N_20 
ROOT
ATOM      1  C   LIG d   1       0.624  57.614 119.730  0.00  0.00     0.161 C 
ATOM      2  C   LIG d   1       1.552  56.645 119.314  0.00  0.00     0.016 C 
ATOM      3  C   LIG d   1       1.283  55.693 118.303  0.00  0.00     0.038 C 
ATOM      4  C   LIG d   1       0.115  55.743 117.530  0.00  0.00     0.028 C 
ATOM      5  C   LIG d   1      -1.063  56.389 118.252  0.00  0.00    -0.047 C 
ATOM      6  C   LIG d   1      -0.615  57.755 118.820  0.00  0.00     0.091 C 
ENDROOT
BRANCH   1   7
ATOM      7  O   LIG d   1       1.282  58.887 119.881  0.00  0.00    -0.368 OA
BRANCH   7   8
ATOM      8  C   LIG d   1       2.670  58.940 119.468  0.00  0.00     0.119 C 
BRANCH   8   9
ATOM      9  C   LIG d   1       3.435  59.767 120.520  0.00  0.00     0.028 C 
ATOM     10  C   LIG d   1       4.385  60.794 119.882  0.00  0.00     0.006 C 
ENDBRANCH   8   9
BRANCH   8  11
ATOM     11  C   LIG d   1       2.832  59.709 118.153  0.00  0.00     0.028 C 
ATOM     12  C   LIG d   1       1.512  60.315 117.652  0.00  0.00     0.006 C 
ENDBRANCH   8  11
ENDBRANCH   7   8
ENDBRANCH   1   7
BRANCH   6  13
ATOM     13  N   LIG d   1      -1.683  58.416 119.615  0.00  0.00    -0.311 N 
ATOM     14  C   LIG d   1      -2.162  59.627 119.334  0.00  0.00     0.210 C 
ATOM     15  C   LIG d   1      -3.246  60.131 120.291  0.00  0.00     0.109 C 
ATOM     16  O   LIG d   1      -1.816  60.317 118.363  0.00  0.00    -0.276 OA
ATOM     17  H   LIG d   1      -2.043  57.914 120.402  0.00  0.00     0.149 HD
ENDBRANCH   6  13
BRANCH   5  18
ATOM     18  N   LIG d   1      -2.172  56.501 117.286  0.00  0.00     0.381 N 
ATOM     19  H   LIG d   1      -2.137  55.737 116.641  0.00  0.00    -0.090 HD
ATOM     20  H   LIG d   1      -2.067  57.356 116.768  0.00  0.00    -0.090 HD
ATOM     21  H   LIG d   1      -3.044  56.500 117.766  0.00  0.00    -0.090 HD
ENDBRANCH   5  18
BRANCH   3  22
ATOM     22  C   LIG d   1       2.173  54.652 118.086  0.00  0.00     0.382 C 
ATOM     23  O   LIG d   1       3.219  54.567 118.774  0.00  0.00    -0.241 OA
ATOM     24  O   LIG d   1       1.965  53.822 117.180  0.00  0.00    -0.241 OA
ENDBRANCH   3  22
TORSDOF 7
