REMARK VINA RESULT:      -4.6     12.760     15.510
REMARK  7 active torsions:
REMARK  status: ('A' for Active; 'I' for Inactive)
REMARK    1  A    between atoms: C_2  and  C_3 
REMARK    2  A    between atoms: C_3  and  O_6 
REMARK    3  A    between atoms: C_3  and  C_4 
REMARK    4  A    between atoms: C_7  and  O_6 
REMARK    5  A    between atoms: C_9  and  C_10 
REMARK    6  A    between atoms: N_15  and  C_14 
REMARK    7  A    between atoms: N_20  and  C_19 
REMARK       I    between atoms: C_22  and  N_20 
ROOT
ATOM      1  C   LIG d   1     -14.425  64.240 121.227  0.00  0.00     0.161 C 
ATOM      2  C   LIG d   1     -13.258  64.228 122.009  0.00  0.00     0.016 C 
ATOM      3  C   LIG d   1     -12.036  63.665 121.573  0.00  0.00     0.038 C 
ATOM      4  C   LIG d   1     -11.857  63.209 120.259  0.00  0.00     0.028 C 
ATOM      5  C   LIG d   1     -13.149  62.741 119.598  0.00  0.00    -0.047 C 
ATOM      6  C   LIG d   1     -14.219  63.847 119.749  0.00  0.00     0.091 C 
ENDROOT
BRANCH   1   7
ATOM      7  O   LIG d   1     -15.060  65.531 121.318  0.00  0.00    -0.368 OA
BRANCH   7   8
ATOM      8  C   LIG d   1     -14.726  66.480 120.275  0.00  0.00     0.119 C 
BRANCH   8   9
ATOM      9  C   LIG d   1     -13.723  67.487 120.871  0.00  0.00     0.028 C 
ATOM     10  C   LIG d   1     -14.094  67.908 122.303  0.00  0.00     0.006 C 
ENDBRANCH   8   9
BRANCH   8  11
ATOM     11  C   LIG d   1     -15.945  67.314 119.869  0.00  0.00     0.028 C 
ATOM     12  C   LIG d   1     -15.986  67.613 118.362  0.00  0.00     0.006 C 
ENDBRANCH   8  11
ENDBRANCH   7   8
ENDBRANCH   1   7
BRANCH   6  13
ATOM     13  N   LIG d   1     -15.539  63.437 119.204  0.00  0.00    -0.311 N 
ATOM     14  C   LIG d   1     -15.978  63.796 117.999  0.00  0.00     0.210 C 
ATOM     15  C   LIG d   1     -17.376  63.281 117.640  0.00  0.00     0.109 C 
ATOM     16  O   LIG d   1     -15.330  64.466 117.181  0.00  0.00    -0.276 OA
ATOM     17  H   LIG d   1     -16.117  62.866 119.790  0.00  0.00     0.149 HD
ENDBRANCH   6  13
BRANCH   5  18
ATOM     18  N   LIG d   1     -12.841  62.423 118.191  0.00  0.00     0.381 N 
ATOM     19  H   LIG d   1     -12.144  63.053 117.847  0.00  0.00    -0.090 HD
ATOM     20  H   LIG d   1     -13.673  62.542 117.641  0.00  0.00    -0.090 HD
ATOM     21  H   LIG d   1     -12.516  61.484 118.117  0.00  0.00    -0.090 HD
ENDBRANCH   5  18
BRANCH   3  22
ATOM     22  C   LIG d   1     -10.989  63.519 122.470  0.00  0.00     0.382 C 
ATOM     23  O   LIG d   1     -10.506  64.527 123.041  0.00  0.00    -0.241 OA
ATOM     24  O   LIG d   1     -10.491  62.397 122.682  0.00  0.00    -0.241 OA
ENDBRANCH   3  22
TORSDOF 7
