REMARK VINA RESULT:      -4.6      2.793      3.923
REMARK  7 active torsions:
REMARK  status: ('A' for Active; 'I' for Inactive)
REMARK    1  A    between atoms: C_2  and  C_3 
REMARK    2  A    between atoms: C_3  and  O_6 
REMARK    3  A    between atoms: C_3  and  C_4 
REMARK    4  A    between atoms: C_7  and  O_6 
REMARK    5  A    between atoms: C_9  and  C_10 
REMARK    6  A    between atoms: N_15  and  C_14 
REMARK    7  A    between atoms: N_20  and  C_19 
REMARK       I    between atoms: C_22  and  N_20 
ROOT
ATOM      1  C   LIG d   1       0.080  57.837 120.395  0.00  0.00     0.161 C 
ATOM      2  C   LIG d   1       0.823  58.785 119.674  0.00  0.00     0.016 C 
ATOM      3  C   LIG d   1       1.801  58.440 118.712  0.00  0.00     0.038 C 
ATOM      4  C   LIG d   1       1.996  57.115 118.296  0.00  0.00     0.028 C 
ATOM      5  C   LIG d   1       1.624  56.085 119.358  0.00  0.00    -0.047 C 
ATOM      6  C   LIG d   1       0.200  56.389 119.875  0.00  0.00     0.091 C 
ENDROOT
BRANCH   1   7
ATOM      7  O   LIG d   1      -1.304  58.237 120.448  0.00  0.00    -0.368 OA
BRANCH   7   8
ATOM      8  C   LIG d   1      -1.744  59.147 119.410  0.00  0.00     0.119 C 
BRANCH   8   9
ATOM      9  C   LIG d   1      -2.639  60.210 120.075  0.00  0.00     0.028 C 
ATOM     10  C   LIG d   1      -2.817  59.968 121.583  0.00  0.00     0.006 C 
ENDBRANCH   8   9
BRANCH   8  11
ATOM     11  C   LIG d   1      -2.642  58.439 118.392  0.00  0.00     0.028 C 
ATOM     12  C   LIG d   1      -3.370  59.418 117.456  0.00  0.00     0.006 C 
ENDBRANCH   8  11
ENDBRANCH   7   8
ENDBRANCH   1   7
BRANCH   6  13
ATOM     13  N   LIG d   1      -0.209  55.479 120.977  0.00  0.00    -0.311 N 
ATOM     14  C   LIG d   1      -1.415  54.918 121.055  0.00  0.00     0.210 C 
ATOM     15  C   LIG d   1      -1.636  54.030 122.283  0.00  0.00     0.109 C 
ATOM     16  O   LIG d   1      -2.311  55.046 120.207  0.00  0.00    -0.276 OA
ATOM     17  H   LIG d   1       0.467  55.296 121.692  0.00  0.00     0.149 HD
ENDBRANCH   6  13
BRANCH   5  18
ATOM     18  N   LIG d   1       1.745  54.749 118.745  0.00  0.00     0.381 N 
ATOM     19  H   LIG d   1       0.906  54.227 118.903  0.00  0.00    -0.090 HD
ATOM     20  H   LIG d   1       2.507  54.259 119.179  0.00  0.00    -0.090 HD
ATOM     21  H   LIG d   1       1.911  54.837 117.766  0.00  0.00    -0.090 HD
ENDBRANCH   5  18
BRANCH   3  22
ATOM     22  C   LIG d   1       2.624  59.424 118.186  0.00  0.00     0.382 C 
ATOM     23  O   LIG d   1       3.713  59.697 118.746  0.00  0.00    -0.241 OA
ATOM     24  O   LIG d   1       2.271  60.072 117.182  0.00  0.00    -0.241 OA
ENDBRANCH   3  22
TORSDOF 7
