REMARK VINA RESULT:      -4.3      2.106      4.566
REMARK  7 active torsions:
REMARK  status: ('A' for Active; 'I' for Inactive)
REMARK    1  A    between atoms: C_2  and  C_3 
REMARK    2  A    between atoms: C_3  and  O_6 
REMARK    3  A    between atoms: C_3  and  C_4 
REMARK    4  A    between atoms: C_7  and  O_6 
REMARK    5  A    between atoms: C_9  and  C_10 
REMARK    6  A    between atoms: N_15  and  C_14 
REMARK    7  A    between atoms: N_20  and  C_19 
REMARK       I    between atoms: C_22  and  N_20 
ROOT
ATOM      1  C   LIG d   1      -0.610  59.392 120.562  0.00  0.00     0.161 C 
ATOM      2  C   LIG d   1      -1.267  60.416 121.263  0.00  0.00     0.016 C 
ATOM      3  C   LIG d   1      -0.613  61.280 122.172  0.00  0.00     0.038 C 
ATOM      4  C   LIG d   1       0.781  61.274 122.328  0.00  0.00     0.028 C 
ATOM      5  C   LIG d   1       1.419  59.923 122.020  0.00  0.00    -0.047 C 
ATOM      6  C   LIG d   1       0.930  59.442 120.635  0.00  0.00     0.091 C 
ENDROOT
BRANCH   1   7
ATOM      7  O   LIG d   1      -1.046  59.383 119.188  0.00  0.00    -0.368 OA
BRANCH   7   8
ATOM      8  C   LIG d   1      -1.465  58.100 118.660  0.00  0.00     0.119 C 
BRANCH   8   9
ATOM      9  C   LIG d   1      -0.627  57.824 117.396  0.00  0.00     0.028 C 
ATOM     10  C   LIG d   1      -0.212  56.348 117.278  0.00  0.00     0.006 C 
ENDBRANCH   8   9
BRANCH   8  11
ATOM     11  C   LIG d   1      -2.919  58.143 118.181  0.00  0.00     0.028 C 
ATOM     12  C   LIG d   1      -3.373  59.554 117.777  0.00  0.00     0.006 C 
ENDBRANCH   8  11
ENDBRANCH   7   8
ENDBRANCH   1   7
BRANCH   6  13
ATOM     13  N   LIG d   1       1.441  58.089 120.293  0.00  0.00    -0.311 N 
ATOM     14  C   LIG d   1       2.528  57.881 119.552  0.00  0.00     0.210 C 
ATOM     15  C   LIG d   1       2.869  56.409 119.301  0.00  0.00     0.109 C 
ATOM     16  O   LIG d   1       3.261  58.777 119.106  0.00  0.00    -0.276 OA
ATOM     17  H   LIG d   1       0.924  57.305 120.640  0.00  0.00     0.149 HD
ENDBRANCH   6  13
BRANCH   5  18
ATOM     18  N   LIG d   1       2.882  60.096 122.089  0.00  0.00     0.381 N 
ATOM     19  H   LIG d   1       3.306  59.261 122.441  0.00  0.00    -0.090 HD
ATOM     20  H   LIG d   1       3.092  60.847 122.723  0.00  0.00    -0.090 HD
ATOM     21  H   LIG d   1       3.244  60.304 121.184  0.00  0.00    -0.090 HD
ENDBRANCH   5  18
BRANCH   3  22
ATOM     22  C   LIG d   1      -1.361  62.135 122.967  0.00  0.00     0.382 C 
ATOM     23  O   LIG d   1      -2.431  61.734 123.486  0.00  0.00    -0.241 OA
ATOM     24  O   LIG d   1      -1.003  63.316 123.134  0.00  0.00    -0.241 OA
ENDBRANCH   3  22
TORSDOF 7
