REMARK VINA RESULT:      -4.3     35.339     36.508
REMARK  7 active torsions:
REMARK  status: ('A' for Active; 'I' for Inactive)
REMARK    1  A    between atoms: C_2  and  C_3 
REMARK    2  A    between atoms: C_3  and  O_6 
REMARK    3  A    between atoms: C_3  and  C_4 
REMARK    4  A    between atoms: C_7  and  O_6 
REMARK    5  A    between atoms: C_9  and  C_10 
REMARK    6  A    between atoms: N_15  and  C_14 
REMARK    7  A    between atoms: N_20  and  C_19 
REMARK       I    between atoms: C_22  and  N_20 
ROOT
ATOM      1  C   LIG d   1      -5.557  94.754 121.498  0.00  0.00     0.161 C 
ATOM      2  C   LIG d   1      -6.801  94.151 121.249  0.00  0.00     0.016 C 
ATOM      3  C   LIG d   1      -7.800  94.735 120.438  0.00  0.00     0.038 C 
ATOM      4  C   LIG d   1      -7.563  95.900 119.693  0.00  0.00     0.028 C 
ATOM      5  C   LIG d   1      -6.503  96.807 120.308  0.00  0.00    -0.047 C 
ATOM      6  C   LIG d   1      -5.238  95.971 120.605  0.00  0.00     0.091 C 
ENDROOT
BRANCH   1   7
ATOM      7  O   LIG d   1      -4.508  93.770 121.398  0.00  0.00    -0.368 OA
BRANCH   7   8
ATOM      8  C   LIG d   1      -4.046  93.465 120.059  0.00  0.00     0.119 C 
BRANCH   8   9
ATOM      9  C   LIG d   1      -4.334  91.974 119.797  0.00  0.00     0.028 C 
ATOM     10  C   LIG d   1      -5.383  91.764 118.692  0.00  0.00     0.006 C 
ENDBRANCH   8   9
BRANCH   8  11
ATOM     11  C   LIG d   1      -2.525  93.610 119.948  0.00  0.00     0.028 C 
ATOM     12  C   LIG d   1      -1.857  93.922 121.297  0.00  0.00     0.006 C 
ENDBRANCH   8  11
ENDBRANCH   7   8
ENDBRANCH   1   7
BRANCH   6  13
ATOM     13  N   LIG d   1      -4.181  96.764 121.286  0.00  0.00    -0.311 N 
ATOM     14  C   LIG d   1      -3.167  97.339 120.643  0.00  0.00     0.210 C 
ATOM     15  C   LIG d   1      -2.178  98.094 121.537  0.00  0.00     0.109 C 
ATOM     16  O   LIG d   1      -3.010  97.324 119.413  0.00  0.00    -0.276 OA
ATOM     17  H   LIG d   1      -4.248  96.853 122.281  0.00  0.00     0.149 HD
ENDBRANCH   6  13
BRANCH   5  18
ATOM     18  N   LIG d   1      -6.257  97.911 119.362  0.00  0.00     0.381 N 
ATOM     19  H   LIG d   1      -6.723  98.738 119.677  0.00  0.00    -0.090 HD
ATOM     20  H   LIG d   1      -6.634  97.660 118.464  0.00  0.00    -0.090 HD
ATOM     21  H   LIG d   1      -5.279  98.082 119.283  0.00  0.00    -0.090 HD
ENDBRANCH   5  18
BRANCH   3  22
ATOM     22  C   LIG d   1      -9.068  94.174 120.397  0.00  0.00     0.382 C 
ATOM     23  O   LIG d   1      -9.808  94.368 119.402  0.00  0.00    -0.241 OA
ATOM     24  O   LIG d   1      -9.497  93.512 121.361  0.00  0.00    -0.241 OA
ENDBRANCH   3  22
TORSDOF 7
