REMARK VINA RESULT:      -4.3     24.465     26.410
REMARK  7 active torsions:
REMARK  status: ('A' for Active; 'I' for Inactive)
REMARK    1  A    between atoms: C_2  and  C_3 
REMARK    2  A    between atoms: C_3  and  O_6 
REMARK    3  A    between atoms: C_3  and  C_4 
REMARK    4  A    between atoms: C_7  and  O_6 
REMARK    5  A    between atoms: C_9  and  C_10 
REMARK    6  A    between atoms: N_15  and  C_14 
REMARK    7  A    between atoms: N_20  and  C_19 
REMARK       I    between atoms: C_22  and  N_20 
ROOT
ATOM      1  C   LIG d   1     -18.871  77.959 120.585  0.00  0.00     0.161 C 
ATOM      2  C   LIG d   1     -19.533  79.061 120.017  0.00  0.00     0.016 C 
ATOM      3  C   LIG d   1     -19.153  80.402 120.252  0.00  0.00     0.038 C 
ATOM      4  C   LIG d   1     -17.985  80.730 120.956  0.00  0.00     0.028 C 
ATOM      5  C   LIG d   1     -17.570  79.668 121.969  0.00  0.00    -0.047 C 
ATOM      6  C   LIG d   1     -17.527  78.293 121.266  0.00  0.00     0.091 C 
ENDROOT
BRANCH   1   7
ATOM      7  O   LIG d   1     -18.688  76.933 119.589  0.00  0.00    -0.368 OA
BRANCH   7   8
ATOM      8  C   LIG d   1     -19.114  75.600 119.962  0.00  0.00     0.119 C 
BRANCH   8   9
ATOM      9  C   LIG d   1     -18.042  74.614 119.460  0.00  0.00     0.028 C 
ATOM     10  C   LIG d   1     -17.777  73.475 120.460  0.00  0.00     0.006 C 
ENDBRANCH   8   9
BRANCH   8  11
ATOM     11  C   LIG d   1     -20.402  75.203 119.235  0.00  0.00     0.028 C 
ATOM     12  C   LIG d   1     -21.669  75.654 119.979  0.00  0.00     0.006 C 
ENDBRANCH   8  11
ENDBRANCH   7   8
ENDBRANCH   1   7
BRANCH   6  13
ATOM     13  N   LIG d   1     -17.212  77.185 122.205  0.00  0.00    -0.311 N 
ATOM     14  C   LIG d   1     -16.109  76.442 122.119  0.00  0.00     0.210 C 
ATOM     15  C   LIG d   1     -15.989  75.340 123.176  0.00  0.00     0.109 C 
ATOM     16  O   LIG d   1     -15.204  76.613 121.289  0.00  0.00    -0.276 OA
ATOM     17  H   LIG d   1     -17.877  76.998 122.929  0.00  0.00     0.149 HD
ENDBRANCH   6  13
BRANCH   5  18
ATOM     18  N   LIG d   1     -16.267  80.072 122.530  0.00  0.00     0.381 N 
ATOM     19  H   LIG d   1     -15.546  79.924 121.853  0.00  0.00    -0.090 HD
ATOM     20  H   LIG d   1     -16.068  79.501 123.333  0.00  0.00    -0.090 HD
ATOM     21  H   LIG d   1     -16.293  81.032 122.795  0.00  0.00    -0.090 HD
ENDBRANCH   5  18
BRANCH   3  22
ATOM     22  C   LIG d   1     -19.969  81.434 119.814  0.00  0.00     0.382 C 
ATOM     23  O   LIG d   1     -19.487  82.367 119.128  0.00  0.00    -0.241 OA
ATOM     24  O   LIG d   1     -21.173  81.467 120.134  0.00  0.00    -0.241 OA
ENDBRANCH   3  22
TORSDOF 7
