REMARK VINA RESULT:      -4.5     22.270     23.398
REMARK  7 active torsions:
REMARK  status: ('A' for Active; 'I' for Inactive)
REMARK    1  A    between atoms: C_2  and  C_3 
REMARK    2  A    between atoms: C_3  and  O_6 
REMARK    3  A    between atoms: C_3  and  C_4 
REMARK    4  A    between atoms: C_7  and  O_6 
REMARK    5  A    between atoms: C_9  and  C_10 
REMARK    6  A    between atoms: N_15  and  C_14 
REMARK    7  A    between atoms: N_20  and  C_19 
REMARK       I    between atoms: C_22  and  N_20 
ROOT
ATOM      1  C   LIG d   1      -7.280  81.193 119.386  0.00  0.00     0.161 C 
ATOM      2  C   LIG d   1      -7.420  79.881 118.904  0.00  0.00     0.016 C 
ATOM      3  C   LIG d   1      -8.475  79.472 118.057  0.00  0.00     0.038 C 
ATOM      4  C   LIG d   1      -9.385  80.389 117.509  0.00  0.00     0.028 C 
ATOM      5  C   LIG d   1      -9.583  81.633 118.369  0.00  0.00    -0.047 C 
ATOM      6  C   LIG d   1      -8.199  82.232 118.710  0.00  0.00     0.091 C 
ENDROOT
BRANCH   1   7
ATOM      7  O   LIG d   1      -5.902  81.606 119.290  0.00  0.00    -0.368 OA
BRANCH   7   8
ATOM      8  C   LIG d   1      -5.006  80.681 118.626  0.00  0.00     0.119 C 
BRANCH   8   9
ATOM      9  C   LIG d   1      -3.802  80.451 119.561  0.00  0.00     0.028 C 
ATOM     10  C   LIG d   1      -3.784  79.033 120.155  0.00  0.00     0.006 C 
ENDBRANCH   8   9
BRANCH   8  11
ATOM     11  C   LIG d   1      -4.418  81.294 117.351  0.00  0.00     0.028 C 
ATOM     12  C   LIG d   1      -2.922  81.624 117.483  0.00  0.00     0.006 C 
ENDBRANCH   8  11
ENDBRANCH   7   8
ENDBRANCH   1   7
BRANCH   6  13
ATOM     13  N   LIG d   1      -8.298  83.404 119.619  0.00  0.00    -0.311 N 
ATOM     14  C   LIG d   1      -8.832  83.344 120.838  0.00  0.00     0.210 C 
ATOM     15  C   LIG d   1      -8.853  84.672 121.601  0.00  0.00     0.109 C 
ATOM     16  O   LIG d   1      -9.262  82.310 121.371  0.00  0.00    -0.276 OA
ATOM     17  H   LIG d   1      -7.945  84.277 119.278  0.00  0.00     0.149 HD
ENDBRANCH   6  13
BRANCH   5  18
ATOM     18  N   LIG d   1     -10.446  82.562 117.617  0.00  0.00     0.381 N 
ATOM     19  H   LIG d   1     -11.252  82.793 118.162  0.00  0.00    -0.090 HD
ATOM     20  H   LIG d   1     -10.755  82.109 116.774  0.00  0.00    -0.090 HD
ATOM     21  H   LIG d   1      -9.940  83.390 117.391  0.00  0.00    -0.090 HD
ENDBRANCH   5  18
BRANCH   3  22
ATOM     22  C   LIG d   1      -8.652  78.124 117.782  0.00  0.00     0.382 C 
ATOM     23  O   LIG d   1      -9.809  77.641 117.732  0.00  0.00    -0.241 OA
ATOM     24  O   LIG d   1      -7.668  77.377 117.627  0.00  0.00    -0.241 OA
ENDBRANCH   3  22
TORSDOF 7
