MODEL 1
REMARK VINA RESULT:      -4.7      0.000      0.000
REMARK  7 active torsions:
REMARK  status: ('A' for Active; 'I' for Inactive)
REMARK    1  A    between atoms: C_2  and  C_3 
REMARK    2  A    between atoms: C_3  and  O_6 
REMARK    3  A    between atoms: C_3  and  C_4 
REMARK    4  A    between atoms: C_7  and  O_6 
REMARK    5  A    between atoms: C_9  and  C_10 
REMARK    6  A    between atoms: N_15  and  C_14 
REMARK    7  A    between atoms: N_20  and  C_19 
REMARK       I    between atoms: C_22  and  N_20 
ROOT
ATOM      1  C   LIG d   1     -10.046  78.184 119.850  0.00  0.00     0.161 C 
ATOM      2  C   LIG d   1     -10.753  77.438 120.808  0.00  0.00     0.016 C 
ATOM      3  C   LIG d   1     -11.398  78.017 121.925  0.00  0.00     0.038 C 
ATOM      4  C   LIG d   1     -11.508  79.407 122.079  0.00  0.00     0.028 C 
ATOM      5  C   LIG d   1     -10.380  80.182 121.408  0.00  0.00    -0.047 C 
ATOM      6  C   LIG d   1     -10.250  79.711 119.942  0.00  0.00     0.091 C 
ENDROOT
BRANCH   1   7
ATOM      7  O   LIG d   1     -10.371  77.714 118.527  0.00  0.00    -0.368 OA
BRANCH   7   8
ATOM      8  C   LIG d   1      -9.999  76.346 118.228  0.00  0.00     0.119 C 
BRANCH   8   9
ATOM      9  C   LIG d   1      -8.724  76.391 117.364  0.00  0.00     0.028 C 
ATOM     10  C   LIG d   1      -7.684  75.345 117.797  0.00  0.00     0.006 C 
ENDBRANCH   8   9
BRANCH   8  11
ATOM     11  C   LIG d   1     -11.055  75.659 117.357  0.00  0.00     0.028 C 
ATOM     12  C   LIG d   1     -12.453  75.669 117.997  0.00  0.00     0.006 C 
ENDBRANCH   8  11
ENDBRANCH   7   8
ENDBRANCH   1   7
BRANCH   6  13
ATOM     13  N   LIG d   1      -9.114  80.360 119.236  0.00  0.00    -0.311 N 
ATOM     14  C   LIG d   1      -9.234  81.483 118.531  0.00  0.00     0.210 C 
ATOM     15  C   LIG d   1      -7.942  81.971 117.867  0.00  0.00     0.109 C 
ATOM     16  O   LIG d   1     -10.280  82.139 118.418  0.00  0.00    -0.276 OA
ATOM     17  H   LIG d   1      -8.221  79.911 119.301  0.00  0.00     0.149 HD
ENDBRANCH   6  13
BRANCH   5  18
ATOM     18  N   LIG d   1     -10.693  81.619 121.529  0.00  0.00     0.381 N 
ATOM     19  H   LIG d   1      -9.847  82.142 121.641  0.00  0.00    -0.090 HD
ATOM     20  H   LIG d   1     -11.262  81.760 122.345  0.00  0.00    -0.090 HD
ATOM     21  H   LIG d   1     -11.180  81.931 120.718  0.00  0.00    -0.090 HD
ENDBRANCH   5  18
BRANCH   3  22
ATOM     22  C   LIG d   1     -11.906  77.201 122.924  0.00  0.00     0.382 C 
ATOM     23  O   LIG d   1     -13.035  76.671 122.786  0.00  0.00    -0.241 OA
ATOM     24  O   LIG d   1     -11.270  77.023 123.980  0.00  0.00    -0.241 OA
ENDBRANCH   3  22
TORSDOF 7
ENDMDL
MODEL 2
REMARK VINA RESULT:      -4.6      2.177      2.580
REMARK  7 active torsions:
REMARK  status: ('A' for Active; 'I' for Inactive)
REMARK    1  A    between atoms: C_2  and  C_3 
REMARK    2  A    between atoms: C_3  and  O_6 
REMARK    3  A    between atoms: C_3  and  C_4 
REMARK    4  A    between atoms: C_7  and  O_6 
REMARK    5  A    between atoms: C_9  and  C_10 
REMARK    6  A    between atoms: N_15  and  C_14 
REMARK    7  A    between atoms: N_20  and  C_19 
REMARK       I    between atoms: C_22  and  N_20 
ROOT
ATOM      1  C   LIG d   1      -7.262  77.132 119.808  0.00  0.00     0.161 C 
ATOM      2  C   LIG d   1      -8.052  76.313 120.632  0.00  0.00     0.016 C 
ATOM      3  C   LIG d   1      -9.143  76.795 121.392  0.00  0.00     0.038 C 
ATOM      4  C   LIG d   1      -9.613  78.110 121.262  0.00  0.00     0.028 C 
ATOM      5  C   LIG d   1      -8.537  79.098 120.826  0.00  0.00    -0.047 C 
ATOM      6  C   LIG d   1      -7.829  78.546 119.567  0.00  0.00     0.091 C 
ENDROOT
BRANCH   1   7
ATOM      7  O   LIG d   1      -7.017  76.469 118.552  0.00  0.00    -0.368 OA
BRANCH   7   8
ATOM      8  C   LIG d   1      -8.014  75.505 118.135  0.00  0.00     0.119 C 
BRANCH   8   9
ATOM      9  C   LIG d   1      -7.306  74.458 117.254  0.00  0.00     0.028 C 
ATOM     10  C   LIG d   1      -8.055  73.115 117.220  0.00  0.00     0.006 C 
ENDBRANCH   8   9
BRANCH   8  11
ATOM     11  C   LIG d   1      -9.069  76.149 117.230  0.00  0.00     0.028 C 
ATOM     12  C   LIG d   1     -10.462  76.196 117.879  0.00  0.00     0.006 C 
ENDBRANCH   8  11
ENDBRANCH   7   8
ENDBRANCH   1   7
BRANCH   6  13
ATOM     13  N   LIG d   1      -6.705  79.412 119.124  0.00  0.00    -0.311 N 
ATOM     14  C   LIG d   1      -6.847  80.407 118.250  0.00  0.00     0.210 C 
ATOM     15  C   LIG d   1      -5.557  81.161 117.914  0.00  0.00     0.109 C 
ATOM     16  O   LIG d   1      -7.924  80.756 117.744  0.00  0.00    -0.276 OA
ATOM     17  H   LIG d   1      -5.801  79.218 119.508  0.00  0.00     0.149 HD
ENDBRANCH   6  13
BRANCH   5  18
ATOM     18  N   LIG d   1      -9.193  80.399 120.596  0.00  0.00     0.381 N 
ATOM     19  H   LIG d   1      -8.660  81.128 121.027  0.00  0.00    -0.090 HD
ATOM     20  H   LIG d   1     -10.105  80.383 121.018  0.00  0.00    -0.090 HD
ATOM     21  H   LIG d   1      -9.275  80.572 119.618  0.00  0.00    -0.090 HD
ENDBRANCH   5  18
BRANCH   3  22
ATOM     22  C   LIG d   1      -9.749  75.968 122.325  0.00  0.00     0.382 C 
ATOM     23  O   LIG d   1     -10.944  76.164 122.654  0.00  0.00    -0.241 OA
ATOM     24  O   LIG d   1      -9.104  75.055 122.874  0.00  0.00    -0.241 OA
ENDBRANCH   3  22
TORSDOF 7
ENDMDL
MODEL 3
REMARK VINA RESULT:      -4.6      0.743      1.680
REMARK  7 active torsions:
REMARK  status: ('A' for Active; 'I' for Inactive)
REMARK    1  A    between atoms: C_2  and  C_3 
REMARK    2  A    between atoms: C_3  and  O_6 
REMARK    3  A    between atoms: C_3  and  C_4 
REMARK    4  A    between atoms: C_7  and  O_6 
REMARK    5  A    between atoms: C_9  and  C_10 
REMARK    6  A    between atoms: N_15  and  C_14 
REMARK    7  A    between atoms: N_20  and  C_19 
REMARK       I    between atoms: C_22  and  N_20 
ROOT
ATOM      1  C   LIG d   1     -10.150  78.277 119.959  0.00  0.00     0.161 C 
ATOM      2  C   LIG d   1     -10.891  77.554 120.908  0.00  0.00     0.016 C 
ATOM      3  C   LIG d   1     -11.518  78.151 122.026  0.00  0.00     0.038 C 
ATOM      4  C   LIG d   1     -11.574  79.543 122.189  0.00  0.00     0.028 C 
ATOM      5  C   LIG d   1     -10.411  80.277 121.528  0.00  0.00    -0.047 C 
ATOM      6  C   LIG d   1     -10.293  79.810 120.060  0.00  0.00     0.091 C 
ENDROOT
BRANCH   1   7
ATOM      7  O   LIG d   1     -10.486  77.828 118.632  0.00  0.00    -0.368 OA
BRANCH   7   8
ATOM      8  C   LIG d   1      -9.415  77.209 117.878  0.00  0.00     0.119 C 
BRANCH   8   9
ATOM      9  C   LIG d   1      -9.889  75.800 117.473  0.00  0.00     0.028 C 
ATOM     10  C   LIG d   1     -11.407  75.619 117.643  0.00  0.00     0.006 C 
ENDBRANCH   8   9
BRANCH   8  11
ATOM     11  C   LIG d   1      -8.177  76.985 118.751  0.00  0.00     0.028 C 
ATOM     12  C   LIG d   1      -7.792  75.502 118.870  0.00  0.00     0.006 C 
ENDBRANCH   8  11
ENDBRANCH   7   8
ENDBRANCH   1   7
BRANCH   6  13
ATOM     13  N   LIG d   1      -9.128  80.417 119.364  0.00  0.00    -0.311 N 
ATOM     14  C   LIG d   1      -9.209  81.520 118.623  0.00  0.00     0.210 C 
ATOM     15  C   LIG d   1      -7.893  81.965 117.978  0.00  0.00     0.109 C 
ATOM     16  O   LIG d   1     -10.240  82.191 118.465  0.00  0.00    -0.276 OA
ATOM     17  H   LIG d   1      -8.245  79.954 119.465  0.00  0.00     0.149 HD
ENDBRANCH   6  13
BRANCH   5  18
ATOM     18  N   LIG d   1     -10.667  81.724 121.657  0.00  0.00     0.381 N 
ATOM     19  H   LIG d   1     -10.744  81.970 122.623  0.00  0.00    -0.090 HD
ATOM     20  H   LIG d   1     -11.538  81.941 121.205  0.00  0.00    -0.090 HD
ATOM     21  H   LIG d   1      -9.928  82.240 121.233  0.00  0.00    -0.090 HD
ENDBRANCH   5  18
BRANCH   3  22
ATOM     22  C   LIG d   1     -12.065  77.350 123.017  0.00  0.00     0.382 C 
ATOM     23  O   LIG d   1     -12.779  77.861 123.914  0.00  0.00    -0.241 OA
ATOM     24  O   LIG d   1     -11.817  76.130 123.051  0.00  0.00    -0.241 OA
ENDBRANCH   3  22
TORSDOF 7
ENDMDL
MODEL 4
REMARK VINA RESULT:      -4.6      2.039      4.963
REMARK  7 active torsions:
REMARK  status: ('A' for Active; 'I' for Inactive)
REMARK    1  A    between atoms: C_2  and  C_3 
REMARK    2  A    between atoms: C_3  and  O_6 
REMARK    3  A    between atoms: C_3  and  C_4 
REMARK    4  A    between atoms: C_7  and  O_6 
REMARK    5  A    between atoms: C_9  and  C_10 
REMARK    6  A    between atoms: N_15  and  C_14 
REMARK    7  A    between atoms: N_20  and  C_19 
REMARK       I    between atoms: C_22  and  N_20 
ROOT
ATOM      1  C   LIG d   1     -10.070  79.906 119.237  0.00  0.00     0.161 C 
ATOM      2  C   LIG d   1      -8.929  80.105 118.441  0.00  0.00     0.016 C 
ATOM      3  C   LIG d   1      -7.778  80.793 118.889  0.00  0.00     0.038 C 
ATOM      4  C   LIG d   1      -7.630  81.200 120.223  0.00  0.00     0.028 C 
ATOM      5  C   LIG d   1      -8.956  81.468 120.926  0.00  0.00    -0.047 C 
ATOM      6  C   LIG d   1      -9.883  80.246 120.731  0.00  0.00     0.091 C 
ENDROOT
BRANCH   1   7
ATOM      7  O   LIG d   1     -10.541  78.553 119.086  0.00  0.00    -0.368 OA
BRANCH   7   8
ATOM      8  C   LIG d   1      -9.536  77.514 119.177  0.00  0.00     0.119 C 
BRANCH   8   9
ATOM      9  C   LIG d   1      -9.817  76.498 118.053  0.00  0.00     0.028 C 
ATOM     10  C   LIG d   1      -8.577  76.222 117.187  0.00  0.00     0.006 C 
ENDBRANCH   8   9
BRANCH   8  11
ATOM     11  C   LIG d   1      -9.667  76.723 120.482  0.00  0.00     0.028 C 
ATOM     12  C   LIG d   1      -8.316  76.218 121.012  0.00  0.00     0.006 C 
ENDBRANCH   8  11
ENDBRANCH   7   8
ENDBRANCH   1   7
BRANCH   6  13
ATOM     13  N   LIG d   1     -11.233  80.459 121.315  0.00  0.00    -0.311 N 
ATOM     14  C   LIG d   1     -11.584  80.027 122.525  0.00  0.00     0.210 C 
ATOM     15  C   LIG d   1     -13.030  80.335 122.927  0.00  0.00     0.109 C 
ATOM     16  O   LIG d   1     -10.826  79.445 123.316  0.00  0.00    -0.276 OA
ATOM     17  H   LIG d   1     -11.901  80.950 120.754  0.00  0.00     0.149 HD
ENDBRANCH   6  13
BRANCH   5  18
ATOM     18  N   LIG d   1      -8.661  81.749 122.343  0.00  0.00     0.381 N 
ATOM     19  H   LIG d   1      -8.958  80.980 122.910  0.00  0.00    -0.090 HD
ATOM     20  H   LIG d   1      -9.173  82.566 122.626  0.00  0.00    -0.090 HD
ATOM     21  H   LIG d   1      -7.684  81.903 122.464  0.00  0.00    -0.090 HD
ENDBRANCH   5  18
BRANCH   3  22
ATOM     22  C   LIG d   1      -6.776  81.115 117.986  0.00  0.00     0.382 C 
ATOM     23  O   LIG d   1      -5.757  80.389 117.896  0.00  0.00    -0.241 OA
ATOM     24  O   LIG d   1      -6.857  82.146 117.293  0.00  0.00    -0.241 OA
ENDBRANCH   3  22
TORSDOF 7
ENDMDL
MODEL 5
REMARK VINA RESULT:      -4.4      7.981      9.858
REMARK  7 active torsions:
REMARK  status: ('A' for Active; 'I' for Inactive)
REMARK    1  A    between atoms: C_2  and  C_3 
REMARK    2  A    between atoms: C_3  and  O_6 
REMARK    3  A    between atoms: C_3  and  C_4 
REMARK    4  A    between atoms: C_7  and  O_6 
REMARK    5  A    between atoms: C_9  and  C_10 
REMARK    6  A    between atoms: N_15  and  C_14 
REMARK    7  A    between atoms: N_20  and  C_19 
REMARK       I    between atoms: C_22  and  N_20 
ROOT
ATOM      1  C   LIG d   1     -19.270  77.487 119.953  0.00  0.00     0.161 C 
ATOM      2  C   LIG d   1     -18.252  76.525 120.068  0.00  0.00     0.016 C 
ATOM      3  C   LIG d   1     -17.225  76.591 121.038  0.00  0.00     0.038 C 
ATOM      4  C   LIG d   1     -17.234  77.549 122.063  0.00  0.00     0.028 C 
ATOM      5  C   LIG d   1     -17.959  78.836 121.683  0.00  0.00    -0.047 C 
ATOM      6  C   LIG d   1     -19.359  78.478 121.132  0.00  0.00     0.091 C 
ENDROOT
BRANCH   1   7
ATOM      7  O   LIG d   1     -20.538  76.833 119.751  0.00  0.00    -0.368 OA
BRANCH   7   8
ATOM      8  C   LIG d   1     -20.998  75.985 120.833  0.00  0.00     0.119 C 
BRANCH   8   9
ATOM      9  C   LIG d   1     -21.361  74.617 120.225  0.00  0.00     0.028 C 
ATOM     10  C   LIG d   1     -20.366  73.514 120.626  0.00  0.00     0.006 C 
ENDBRANCH   8   9
BRANCH   8  11
ATOM     11  C   LIG d   1     -22.298  76.516 121.443  0.00  0.00     0.028 C 
ATOM     12  C   LIG d   1     -23.079  77.428 120.483  0.00  0.00     0.006 C 
ENDBRANCH   8  11
ENDBRANCH   7   8
ENDBRANCH   1   7
BRANCH   6  13
ATOM     13  N   LIG d   1     -20.104  79.674 120.659  0.00  0.00    -0.311 N 
ATOM     14  C   LIG d   1     -20.991  80.328 121.406  0.00  0.00     0.210 C 
ATOM     15  C   LIG d   1     -21.660  81.522 120.719  0.00  0.00     0.109 C 
ATOM     16  O   LIG d   1     -21.263  80.053 122.584  0.00  0.00    -0.276 OA
ATOM     17  H   LIG d   1     -19.921  79.985 119.725  0.00  0.00     0.149 HD
ENDBRANCH   6  13
BRANCH   5  18
ATOM     18  N   LIG d   1     -18.012  79.689 122.886  0.00  0.00     0.381 N 
ATOM     19  H   LIG d   1     -17.140  80.165 123.001  0.00  0.00    -0.090 HD
ATOM     20  H   LIG d   1     -18.163  79.107 123.691  0.00  0.00    -0.090 HD
ATOM     21  H   LIG d   1     -18.752  80.351 122.802  0.00  0.00    -0.090 HD
ENDBRANCH   5  18
BRANCH   3  22
ATOM     22  C   LIG d   1     -16.153  75.715 120.965  0.00  0.00     0.382 C 
ATOM     23  O   LIG d   1     -16.005  74.831 121.843  0.00  0.00    -0.241 OA
ATOM     24  O   LIG d   1     -15.308  75.825 120.056  0.00  0.00    -0.241 OA
ENDBRANCH   3  22
TORSDOF 7
ENDMDL
MODEL 6
REMARK VINA RESULT:      -4.4      2.855      5.425
REMARK  7 active torsions:
REMARK  status: ('A' for Active; 'I' for Inactive)
REMARK    1  A    between atoms: C_2  and  C_3 
REMARK    2  A    between atoms: C_3  and  O_6 
REMARK    3  A    between atoms: C_3  and  C_4 
REMARK    4  A    between atoms: C_7  and  O_6 
REMARK    5  A    between atoms: C_9  and  C_10 
REMARK    6  A    between atoms: N_15  and  C_14 
REMARK    7  A    between atoms: N_20  and  C_19 
REMARK       I    between atoms: C_22  and  N_20 
ROOT
ATOM      1  C   LIG d   1      -8.558  79.521 118.820  0.00  0.00     0.161 C 
ATOM      2  C   LIG d   1      -9.733  78.793 119.069  0.00  0.00     0.016 C 
ATOM      3  C   LIG d   1      -9.860  77.408 118.814  0.00  0.00     0.038 C 
ATOM      4  C   LIG d   1      -8.763  76.622 118.430  0.00  0.00     0.028 C 
ATOM      5  C   LIG d   1      -7.688  77.404 117.683  0.00  0.00    -0.047 C 
ATOM      6  C   LIG d   1      -7.317  78.659 118.507  0.00  0.00     0.091 C 
ENDROOT
BRANCH   1   7
ATOM      7  O   LIG d   1      -8.287  80.405 119.926  0.00  0.00    -0.368 OA
BRANCH   7   8
ATOM      8  C   LIG d   1      -8.280  81.822 119.622  0.00  0.00     0.119 C 
BRANCH   8   9
ATOM      9  C   LIG d   1      -6.929  82.390 120.099  0.00  0.00     0.028 C 
ATOM     10  C   LIG d   1      -6.191  83.158 118.990  0.00  0.00     0.006 C 
ENDBRANCH   8   9
BRANCH   8  11
ATOM     11  C   LIG d   1      -9.343  82.571 120.431  0.00  0.00     0.028 C 
ATOM     12  C   LIG d   1      -9.900  81.739 121.597  0.00  0.00     0.006 C 
ENDBRANCH   8  11
ENDBRANCH   7   8
ENDBRANCH   1   7
BRANCH   6  13
ATOM     13  N   LIG d   1      -6.333  79.525 117.808  0.00  0.00    -0.311 N 
ATOM     14  C   LIG d   1      -5.018  79.450 118.008  0.00  0.00     0.210 C 
ATOM     15  C   LIG d   1      -4.183  80.448 117.200  0.00  0.00     0.109 C 
ATOM     16  O   LIG d   1      -4.462  78.629 118.754  0.00  0.00    -0.276 OA
ATOM     17  H   LIG d   1      -6.695  80.198 117.161  0.00  0.00     0.149 HD
ENDBRANCH   6  13
BRANCH   5  18
ATOM     18  N   LIG d   1      -6.546  76.496 117.466  0.00  0.00     0.381 N 
ATOM     19  H   LIG d   1      -6.814  75.758 116.846  0.00  0.00    -0.090 HD
ATOM     20  H   LIG d   1      -6.282  76.090 118.346  0.00  0.00    -0.090 HD
ATOM     21  H   LIG d   1      -5.778  77.001 117.081  0.00  0.00    -0.090 HD
ENDBRANCH   5  18
BRANCH   3  22
ATOM     22  C   LIG d   1     -11.105  76.803 118.903  0.00  0.00     0.382 C 
ATOM     23  O   LIG d   1     -11.735  76.824 119.988  0.00  0.00    -0.241 OA
ATOM     24  O   LIG d   1     -11.585  76.200 117.925  0.00  0.00    -0.241 OA
ENDBRANCH   3  22
TORSDOF 7
ENDMDL
MODEL 7
REMARK VINA RESULT:      -4.3      2.837      5.135
REMARK  7 active torsions:
REMARK  status: ('A' for Active; 'I' for Inactive)
REMARK    1  A    between atoms: C_2  and  C_3 
REMARK    2  A    between atoms: C_3  and  O_6 
REMARK    3  A    between atoms: C_3  and  C_4 
REMARK    4  A    between atoms: C_7  and  O_6 
REMARK    5  A    between atoms: C_9  and  C_10 
REMARK    6  A    between atoms: N_15  and  C_14 
REMARK    7  A    between atoms: N_20  and  C_19 
REMARK       I    between atoms: C_22  and  N_20 
ROOT
ATOM      1  C   LIG d   1      -7.504  78.790 118.583  0.00  0.00     0.161 C 
ATOM      2  C   LIG d   1      -8.640  78.094 118.137  0.00  0.00     0.016 C 
ATOM      3  C   LIG d   1      -9.602  77.535 119.010  0.00  0.00     0.038 C 
ATOM      4  C   LIG d   1      -9.571  77.765 120.393  0.00  0.00     0.028 C 
ATOM      5  C   LIG d   1      -8.169  78.034 120.931  0.00  0.00    -0.047 C 
ATOM      6  C   LIG d   1      -7.511  79.147 120.084  0.00  0.00     0.091 C 
ENDROOT
BRANCH   1   7
ATOM      7  O   LIG d   1      -7.314  79.976 117.786  0.00  0.00    -0.368 OA
BRANCH   7   8
ATOM      8  C   LIG d   1      -7.661  81.232 118.421  0.00  0.00     0.119 C 
BRANCH   8   9
ATOM      9  C   LIG d   1      -8.930  81.765 117.728  0.00  0.00     0.028 C 
ATOM     10  C   LIG d   1     -10.203  81.497 118.548  0.00  0.00     0.006 C 
ENDBRANCH   8   9
BRANCH   8  11
ATOM     11  C   LIG d   1      -6.587  82.296 118.174  0.00  0.00     0.028 C 
ATOM     12  C   LIG d   1      -6.587  83.400 119.243  0.00  0.00     0.006 C 
ENDBRANCH   8  11
ENDBRANCH   7   8
ENDBRANCH   1   7
BRANCH   6  13
ATOM     13  N   LIG d   1      -6.107  79.413 120.490  0.00  0.00    -0.311 N 
ATOM     14  C   LIG d   1      -5.763  80.357 121.364  0.00  0.00     0.210 C 
ATOM     15  C   LIG d   1      -4.258  80.478 121.627  0.00  0.00     0.109 C 
ATOM     16  O   LIG d   1      -6.563  81.084 121.971  0.00  0.00    -0.276 OA
ATOM     17  H   LIG d   1      -5.395  78.848 120.069  0.00  0.00     0.149 HD
ENDBRANCH   6  13
BRANCH   5  18
ATOM     18  N   LIG d   1      -8.300  78.393 122.356  0.00  0.00     0.381 N 
ATOM     19  H   LIG d   1      -9.068  79.022 122.478  0.00  0.00    -0.090 HD
ATOM     20  H   LIG d   1      -7.460  78.859 122.652  0.00  0.00    -0.090 HD
ATOM     21  H   LIG d   1      -8.443  77.572 122.902  0.00  0.00    -0.090 HD
ENDBRANCH   5  18
BRANCH   3  22
ATOM     22  C   LIG d   1     -10.587  76.701 118.503  0.00  0.00     0.382 C 
ATOM     23  O   LIG d   1     -10.337  75.957 117.524  0.00  0.00    -0.241 OA
ATOM     24  O   LIG d   1     -11.736  76.716 118.984  0.00  0.00    -0.241 OA
ENDBRANCH   3  22
TORSDOF 7
ENDMDL
MODEL 8
REMARK VINA RESULT:      -4.3      2.811      5.277
REMARK  7 active torsions:
REMARK  status: ('A' for Active; 'I' for Inactive)
REMARK    1  A    between atoms: C_2  and  C_3 
REMARK    2  A    between atoms: C_3  and  O_6 
REMARK    3  A    between atoms: C_3  and  C_4 
REMARK    4  A    between atoms: C_7  and  O_6 
REMARK    5  A    between atoms: C_9  and  C_10 
REMARK    6  A    between atoms: N_15  and  C_14 
REMARK    7  A    between atoms: N_20  and  C_19 
REMARK       I    between atoms: C_22  and  N_20 
ROOT
ATOM      1  C   LIG d   1      -8.681  79.719 118.382  0.00  0.00     0.161 C 
ATOM      2  C   LIG d   1      -9.843  79.066 118.826  0.00  0.00     0.016 C 
ATOM      3  C   LIG d   1      -9.841  77.766 119.382  0.00  0.00     0.038 C 
ATOM      4  C   LIG d   1      -8.649  77.086 119.673  0.00  0.00     0.028 C 
ATOM      5  C   LIG d   1      -7.484  77.497 118.779  0.00  0.00    -0.047 C 
ATOM      6  C   LIG d   1      -7.359  79.037 118.793  0.00  0.00     0.091 C 
ENDROOT
BRANCH   1   7
ATOM      7  O   LIG d   1      -8.695  81.092 118.820  0.00  0.00    -0.368 OA
BRANCH   7   8
ATOM      8  C   LIG d   1      -8.363  81.320 120.211  0.00  0.00     0.119 C 
BRANCH   8   9
ATOM      9  C   LIG d   1      -9.530  82.104 120.843  0.00  0.00     0.028 C 
ATOM     10  C   LIG d   1     -10.112  81.395 122.078  0.00  0.00     0.006 C 
ENDBRANCH   8   9
BRANCH   8  11
ATOM     11  C   LIG d   1      -7.140  82.232 120.350  0.00  0.00     0.028 C 
ATOM     12  C   LIG d   1      -6.914  83.118 119.115  0.00  0.00     0.006 C 
ENDBRANCH   8  11
ENDBRANCH   7   8
ENDBRANCH   1   7
BRANCH   6  13
ATOM     13  N   LIG d   1      -6.296  79.529 117.878  0.00  0.00    -0.311 N 
ATOM     14  C   LIG d   1      -5.066  79.838 118.283  0.00  0.00     0.210 C 
ATOM     15  C   LIG d   1      -4.131  80.345 117.180  0.00  0.00     0.109 C 
ATOM     16  O   LIG d   1      -4.650  79.711 119.444  0.00  0.00    -0.276 OA
ATOM     17  H   LIG d   1      -6.538  79.632 116.912  0.00  0.00     0.149 HD
ENDBRANCH   6  13
BRANCH   5  18
ATOM     18  N   LIG d   1      -6.276  76.814 119.280  0.00  0.00     0.381 N 
ATOM     19  H   LIG d   1      -6.531  76.135 119.968  0.00  0.00    -0.090 HD
ATOM     20  H   LIG d   1      -5.676  77.493 119.715  0.00  0.00    -0.090 HD
ATOM     21  H   LIG d   1      -5.797  76.372 118.527  0.00  0.00    -0.090 HD
ENDBRANCH   5  18
BRANCH   3  22
ATOM     22  C   LIG d   1     -11.044  77.117 119.617  0.00  0.00     0.382 C 
ATOM     23  O   LIG d   1     -11.674  76.601 118.662  0.00  0.00    -0.241 OA
ATOM     24  O   LIG d   1     -11.528  77.079 120.763  0.00  0.00    -0.241 OA
ENDBRANCH   3  22
TORSDOF 7
ENDMDL
MODEL 9
REMARK VINA RESULT:      -4.3      2.980      5.570
REMARK  7 active torsions:
REMARK  status: ('A' for Active; 'I' for Inactive)
REMARK    1  A    between atoms: C_2  and  C_3 
REMARK    2  A    between atoms: C_3  and  O_6 
REMARK    3  A    between atoms: C_3  and  C_4 
REMARK    4  A    between atoms: C_7  and  O_6 
REMARK    5  A    between atoms: C_9  and  C_10 
REMARK    6  A    between atoms: N_15  and  C_14 
REMARK    7  A    between atoms: N_20  and  C_19 
REMARK       I    between atoms: C_22  and  N_20 
ROOT
ATOM      1  C   LIG d   1      -7.381  78.803 118.689  0.00  0.00     0.161 C 
ATOM      2  C   LIG d   1      -7.069  77.578 118.077  0.00  0.00     0.016 C 
ATOM      3  C   LIG d   1      -7.960  76.481 118.032  0.00  0.00     0.038 C 
ATOM      4  C   LIG d   1      -9.290  76.588 118.466  0.00  0.00     0.028 C 
ATOM      5  C   LIG d   1      -9.491  77.645 119.547  0.00  0.00    -0.047 C 
ATOM      6  C   LIG d   1      -8.866  78.976 119.070  0.00  0.00     0.091 C 
ENDROOT
BRANCH   1   7
ATOM      7  O   LIG d   1      -6.949  79.892 117.850  0.00  0.00    -0.368 OA
BRANCH   7   8
ATOM      8  C   LIG d   1      -5.845  80.684 118.352  0.00  0.00     0.119 C 
BRANCH   8   9
ATOM      9  C   LIG d   1      -6.284  82.161 118.325  0.00  0.00     0.028 C 
ATOM     10  C   LIG d   1      -7.575  82.374 117.516  0.00  0.00     0.006 C 
ENDBRANCH   8   9
BRANCH   8  11
ATOM     11  C   LIG d   1      -4.632  80.605 117.419  0.00  0.00     0.028 C 
ATOM     12  C   LIG d   1      -3.797  79.334 117.635  0.00  0.00     0.006 C 
ENDBRANCH   8  11
ENDBRANCH   7   8
ENDBRANCH   1   7
BRANCH   6  13
ATOM     13  N   LIG d   1      -8.944  80.041 120.103  0.00  0.00    -0.311 N 
ATOM     14  C   LIG d   1      -9.705  81.128 119.980  0.00  0.00     0.210 C 
ATOM     15  C   LIG d   1      -9.623  82.110 121.152  0.00  0.00     0.109 C 
ATOM     16  O   LIG d   1     -10.463  81.356 119.025  0.00  0.00    -0.276 OA
ATOM     17  H   LIG d   1      -8.385  79.921 120.925  0.00  0.00     0.149 HD
ENDBRANCH   6  13
BRANCH   5  18
ATOM     18  N   LIG d   1     -10.939  77.746 119.807  0.00  0.00     0.381 N 
ATOM     19  H   LIG d   1     -11.187  77.161 120.580  0.00  0.00    -0.090 HD
ATOM     20  H   LIG d   1     -11.439  77.425 118.996  0.00  0.00    -0.090 HD
ATOM     21  H   LIG d   1     -11.185  78.691 120.005  0.00  0.00    -0.090 HD
ENDBRANCH   5  18
BRANCH   3  22
ATOM     22  C   LIG d   1      -7.511  75.248 117.583  0.00  0.00     0.382 C 
ATOM     23  O   LIG d   1      -6.330  75.120 117.180  0.00  0.00    -0.241 OA
ATOM     24  O   LIG d   1      -8.285  74.273 117.535  0.00  0.00    -0.241 OA
ENDBRANCH   3  22
TORSDOF 7
ENDMDL
