MODEL 1
REMARK VINA RESULT:      -5.6      0.000      0.000
REMARK  7 active torsions:
REMARK  status: ('A' for Active; 'I' for Inactive)
REMARK    1  A    between atoms: C_2  and  C_3 
REMARK    2  A    between atoms: C_3  and  O_6 
REMARK    3  A    between atoms: C_3  and  C_4 
REMARK    4  A    between atoms: C_7  and  O_6 
REMARK    5  A    between atoms: C_9  and  C_10 
REMARK    6  A    between atoms: N_15  and  C_14 
REMARK    7  A    between atoms: N_20  and  C_19 
REMARK       I    between atoms: C_22  and  N_20 
ROOT
ATOM      1  C   LIG d   1      -3.403  76.142 116.656  0.00  0.00     0.161 C 
ATOM      2  C   LIG d   1      -3.692  76.845 115.475  0.00  0.00     0.016 C 
ATOM      3  C   LIG d   1      -2.704  77.243 114.545  0.00  0.00     0.038 C 
ATOM      4  C   LIG d   1      -1.369  76.830 114.659  0.00  0.00     0.028 C 
ATOM      5  C   LIG d   1      -0.943  76.548 116.096  0.00  0.00    -0.047 C 
ATOM      6  C   LIG d   1      -1.966  75.587 116.743  0.00  0.00     0.091 C 
ENDROOT
BRANCH   1   7
ATOM      7  O   LIG d   1      -4.362  75.082 116.842  0.00  0.00    -0.368 OA
BRANCH   7   8
ATOM      8  C   LIG d   1      -5.639  75.255 116.180  0.00  0.00     0.119 C 
BRANCH   8   9
ATOM      9  C   LIG d   1      -6.682  75.585 117.266  0.00  0.00     0.028 C 
ATOM     10  C   LIG d   1      -7.734  76.597 116.781  0.00  0.00     0.006 C 
ENDBRANCH   8   9
BRANCH   8  11
ATOM     11  C   LIG d   1      -6.118  73.948 115.542  0.00  0.00     0.028 C 
ATOM     12  C   LIG d   1      -6.914  73.066 116.517  0.00  0.00     0.006 C 
ENDBRANCH   8  11
ENDBRANCH   7   8
ENDBRANCH   1   7
BRANCH   6  13
ATOM     13  N   LIG d   1      -1.671  75.325 118.176  0.00  0.00    -0.311 N 
ATOM     14  C   LIG d   1      -1.079  74.215 118.612  0.00  0.00     0.210 C 
ATOM     15  C   LIG d   1      -0.886  74.137 120.130  0.00  0.00     0.109 C 
ATOM     16  O   LIG d   1      -0.666  73.300 117.883  0.00  0.00    -0.276 OA
ATOM     17  H   LIG d   1      -1.944  76.029 118.834  0.00  0.00     0.149 HD
ENDBRANCH   6  13
BRANCH   5  18
ATOM     18  N   LIG d   1       0.424  75.996 116.056  0.00  0.00     0.381 N 
ATOM     19  H   LIG d   1       0.563  75.379 116.831  0.00  0.00    -0.090 HD
ATOM     20  H   LIG d   1       1.082  76.752 116.133  0.00  0.00    -0.090 HD
ATOM     21  H   LIG d   1       0.569  75.506 115.201  0.00  0.00    -0.090 HD
ENDBRANCH   5  18
BRANCH   3  22
ATOM     22  C   LIG d   1      -3.043  78.096 113.506  0.00  0.00     0.382 C 
ATOM     23  O   LIG d   1      -2.844  79.330 113.618  0.00  0.00    -0.241 OA
ATOM     24  O   LIG d   1      -3.586  77.654 112.476  0.00  0.00    -0.241 OA
ENDBRANCH   3  22
TORSDOF 7
ENDMDL
MODEL 2
REMARK VINA RESULT:      -5.6      3.759      6.007
REMARK  7 active torsions:
REMARK  status: ('A' for Active; 'I' for Inactive)
REMARK    1  A    between atoms: C_2  and  C_3 
REMARK    2  A    between atoms: C_3  and  O_6 
REMARK    3  A    between atoms: C_3  and  C_4 
REMARK    4  A    between atoms: C_7  and  O_6 
REMARK    5  A    between atoms: C_9  and  C_10 
REMARK    6  A    between atoms: N_15  and  C_14 
REMARK    7  A    between atoms: N_20  and  C_19 
REMARK       I    between atoms: C_22  and  N_20 
ROOT
ATOM      1  C   LIG d   1      -6.233  77.817 117.136  0.00  0.00     0.161 C 
ATOM      2  C   LIG d   1      -7.612  77.797 117.406  0.00  0.00     0.016 C 
ATOM      3  C   LIG d   1      -8.319  78.904 117.930  0.00  0.00     0.038 C 
ATOM      4  C   LIG d   1      -7.719  80.163 118.079  0.00  0.00     0.028 C 
ATOM      5  C   LIG d   1      -6.211  80.094 118.296  0.00  0.00    -0.047 C 
ATOM      6  C   LIG d   1      -5.584  79.216 117.188  0.00  0.00     0.091 C 
ENDROOT
BRANCH   1   7
ATOM      7  O   LIG d   1      -5.975  77.192 115.864  0.00  0.00    -0.368 OA
BRANCH   7   8
ATOM      8  C   LIG d   1      -5.813  75.752 115.882  0.00  0.00     0.119 C 
BRANCH   8   9
ATOM      9  C   LIG d   1      -4.758  75.419 116.955  0.00  0.00     0.028 C 
ATOM     10  C   LIG d   1      -3.324  75.466 116.403  0.00  0.00     0.006 C 
ENDBRANCH   8   9
BRANCH   8  11
ATOM     11  C   LIG d   1      -5.225  75.241 114.563  0.00  0.00     0.028 C 
ATOM     12  C   LIG d   1      -5.719  76.035 113.343  0.00  0.00     0.006 C 
ENDBRANCH   8  11
ENDBRANCH   7   8
ENDBRANCH   1   7
BRANCH   6  13
ATOM     13  N   LIG d   1      -4.122  79.027 117.374  0.00  0.00    -0.311 N 
ATOM     14  C   LIG d   1      -3.226  79.252 116.415  0.00  0.00     0.210 C 
ATOM     15  C   LIG d   1      -1.772  78.976 116.811  0.00  0.00     0.109 C 
ATOM     16  O   LIG d   1      -3.494  79.685 115.284  0.00  0.00    -0.276 OA
ATOM     17  H   LIG d   1      -3.814  78.708 118.272  0.00  0.00     0.149 HD
ENDBRANCH   6  13
BRANCH   5  18
ATOM     18  N   LIG d   1      -5.697  81.477 118.297  0.00  0.00     0.381 N 
ATOM     19  H   LIG d   1      -5.222  81.660 119.158  0.00  0.00    -0.090 HD
ATOM     20  H   LIG d   1      -6.473  82.112 118.224  0.00  0.00    -0.090 HD
ATOM     21  H   LIG d   1      -5.075  81.610 117.531  0.00  0.00    -0.090 HD
ENDBRANCH   5  18
BRANCH   3  22
ATOM     22  C   LIG d   1      -9.631  78.745 118.348  0.00  0.00     0.382 C 
ATOM     23  O   LIG d   1     -10.298  77.756 117.959  0.00  0.00    -0.241 OA
ATOM     24  O   LIG d   1     -10.171  79.603 119.073  0.00  0.00    -0.241 OA
ENDBRANCH   3  22
TORSDOF 7
ENDMDL
MODEL 3
REMARK VINA RESULT:      -5.5     15.485     17.556
REMARK  7 active torsions:
REMARK  status: ('A' for Active; 'I' for Inactive)
REMARK    1  A    between atoms: C_2  and  C_3 
REMARK    2  A    between atoms: C_3  and  O_6 
REMARK    3  A    between atoms: C_3  and  C_4 
REMARK    4  A    between atoms: C_7  and  O_6 
REMARK    5  A    between atoms: C_9  and  C_10 
REMARK    6  A    between atoms: N_15  and  C_14 
REMARK    7  A    between atoms: N_20  and  C_19 
REMARK       I    between atoms: C_22  and  N_20 
ROOT
ATOM      1  C   LIG d   1      -6.260  91.764 117.956  0.00  0.00     0.161 C 
ATOM      2  C   LIG d   1      -6.619  91.025 116.817  0.00  0.00     0.016 C 
ATOM      3  C   LIG d   1      -7.110  91.615 115.630  0.00  0.00     0.038 C 
ATOM      4  C   LIG d   1      -7.132  93.005 115.447  0.00  0.00     0.028 C 
ATOM      5  C   LIG d   1      -7.254  93.786 116.751  0.00  0.00    -0.047 C 
ATOM      6  C   LIG d   1      -6.172  93.289 117.737  0.00  0.00     0.091 C 
ENDROOT
BRANCH   1   7
ATOM      7  O   LIG d   1      -5.020  91.263 118.493  0.00  0.00    -0.368 OA
BRANCH   7   8
ATOM      8  C   LIG d   1      -3.887  91.267 117.590  0.00  0.00     0.119 C 
BRANCH   8   9
ATOM      9  C   LIG d   1      -3.350  89.824 117.513  0.00  0.00     0.028 C 
ATOM     10  C   LIG d   1      -1.814  89.771 117.480  0.00  0.00     0.006 C 
ENDBRANCH   8   9
BRANCH   8  11
ATOM     11  C   LIG d   1      -2.730  92.100 118.150  0.00  0.00     0.028 C 
ATOM     12  C   LIG d   1      -2.553  93.441 117.419  0.00  0.00     0.006 C 
ENDBRANCH   8  11
ENDBRANCH   7   8
ENDBRANCH   1   7
BRANCH   6  13
ATOM     13  N   LIG d   1      -6.275  93.942 119.068  0.00  0.00    -0.311 N 
ATOM     14  C   LIG d   1      -5.618  95.054 119.392  0.00  0.00     0.210 C 
ATOM     15  C   LIG d   1      -5.850  95.549 120.823  0.00  0.00     0.109 C 
ATOM     16  O   LIG d   1      -4.890  95.696 118.619  0.00  0.00    -0.276 OA
ATOM     17  H   LIG d   1      -6.869  93.505 119.746  0.00  0.00     0.149 HD
ENDBRANCH   6  13
BRANCH   5  18
ATOM     18  N   LIG d   1      -7.126  95.219 116.427  0.00  0.00     0.381 N 
ATOM     19  H   LIG d   1      -6.276  95.378 115.924  0.00  0.00    -0.090 HD
ATOM     20  H   LIG d   1      -7.090  95.744 117.282  0.00  0.00    -0.090 HD
ATOM     21  H   LIG d   1      -7.904  95.515 115.879  0.00  0.00    -0.090 HD
ENDBRANCH   5  18
BRANCH   3  22
ATOM     22  C   LIG d   1      -7.623  90.810 114.624  0.00  0.00     0.382 C 
ATOM     23  O   LIG d   1      -7.265  89.611 114.536  0.00  0.00    -0.241 OA
ATOM     24  O   LIG d   1      -8.405  91.280 113.776  0.00  0.00    -0.241 OA
ENDBRANCH   3  22
TORSDOF 7
ENDMDL
MODEL 4
REMARK VINA RESULT:      -5.5     15.144     17.156
REMARK  7 active torsions:
REMARK  status: ('A' for Active; 'I' for Inactive)
REMARK    1  A    between atoms: C_2  and  C_3 
REMARK    2  A    between atoms: C_3  and  O_6 
REMARK    3  A    between atoms: C_3  and  C_4 
REMARK    4  A    between atoms: C_7  and  O_6 
REMARK    5  A    between atoms: C_9  and  C_10 
REMARK    6  A    between atoms: N_15  and  C_14 
REMARK    7  A    between atoms: N_20  and  C_19 
REMARK       I    between atoms: C_22  and  N_20 
ROOT
ATOM      1  C   LIG d   1      -5.100  91.929 117.135  0.00  0.00     0.161 C 
ATOM      2  C   LIG d   1      -5.707  91.187 116.109  0.00  0.00     0.016 C 
ATOM      3  C   LIG d   1      -6.685  91.718 115.238  0.00  0.00     0.038 C 
ATOM      4  C   LIG d   1      -7.015  93.082 115.237  0.00  0.00     0.028 C 
ATOM      5  C   LIG d   1      -6.798  93.758 116.587  0.00  0.00    -0.047 C 
ATOM      6  C   LIG d   1      -5.366  93.448 117.078  0.00  0.00     0.091 C 
ENDROOT
BRANCH   1   7
ATOM      7  O   LIG d   1      -3.682  91.669 117.154  0.00  0.00    -0.368 OA
BRANCH   7   8
ATOM      8  C   LIG d   1      -3.198  90.851 118.247  0.00  0.00     0.119 C 
BRANCH   8   9
ATOM      9  C   LIG d   1      -2.953  89.435 117.691  0.00  0.00     0.028 C 
ATOM     10  C   LIG d   1      -1.456  89.106 117.563  0.00  0.00     0.006 C 
ENDBRANCH   8   9
BRANCH   8  11
ATOM     11  C   LIG d   1      -4.267  90.682 119.331  0.00  0.00     0.028 C 
ATOM     12  C   LIG d   1      -3.857  91.306 120.674  0.00  0.00     0.006 C 
ENDBRANCH   8  11
ENDBRANCH   7   8
ENDBRANCH   1   7
BRANCH   6  13
ATOM     13  N   LIG d   1      -5.099  94.002 118.431  0.00  0.00    -0.311 N 
ATOM     14  C   LIG d   1      -3.985  94.661 118.747  0.00  0.00     0.210 C 
ATOM     15  C   LIG d   1      -3.902  95.130 120.203  0.00  0.00     0.109 C 
ATOM     16  O   LIG d   1      -3.072  94.928 117.952  0.00  0.00    -0.276 OA
ATOM     17  H   LIG d   1      -5.801  93.858 119.130  0.00  0.00     0.149 HD
ENDBRANCH   6  13
BRANCH   5  18
ATOM     18  N   LIG d   1      -7.049  95.201 116.408  0.00  0.00     0.381 N 
ATOM     19  H   LIG d   1      -7.232  95.396 115.444  0.00  0.00    -0.090 HD
ATOM     20  H   LIG d   1      -6.227  95.710 116.681  0.00  0.00    -0.090 HD
ATOM     21  H   LIG d   1      -7.824  95.484 116.965  0.00  0.00    -0.090 HD
ENDBRANCH   5  18
BRANCH   3  22
ATOM     22  C   LIG d   1      -7.374  90.874 114.380  0.00  0.00     0.382 C 
ATOM     23  O   LIG d   1      -8.365  91.302 113.741  0.00  0.00    -0.241 OA
ATOM     24  O   LIG d   1      -7.044  89.677 114.272  0.00  0.00    -0.241 OA
ENDBRANCH   3  22
TORSDOF 7
ENDMDL
MODEL 5
REMARK VINA RESULT:      -5.4     15.444     17.288
REMARK  7 active torsions:
REMARK  status: ('A' for Active; 'I' for Inactive)
REMARK    1  A    between atoms: C_2  and  C_3 
REMARK    2  A    between atoms: C_3  and  O_6 
REMARK    3  A    between atoms: C_3  and  C_4 
REMARK    4  A    between atoms: C_7  and  O_6 
REMARK    5  A    between atoms: C_9  and  C_10 
REMARK    6  A    between atoms: N_15  and  C_14 
REMARK    7  A    between atoms: N_20  and  C_19 
REMARK       I    between atoms: C_22  and  N_20 
ROOT
ATOM      1  C   LIG d   1      -5.923  93.137 116.468  0.00  0.00     0.161 C 
ATOM      2  C   LIG d   1      -6.983  92.393 115.923  0.00  0.00     0.016 C 
ATOM      3  C   LIG d   1      -6.907  91.006 115.661  0.00  0.00     0.038 C 
ATOM      4  C   LIG d   1      -5.809  90.234 116.069  0.00  0.00     0.028 C 
ATOM      5  C   LIG d   1      -4.511  91.028 116.164  0.00  0.00    -0.047 C 
ATOM      6  C   LIG d   1      -4.757  92.290 117.022  0.00  0.00     0.091 C 
ENDROOT
BRANCH   1   7
ATOM      7  O   LIG d   1      -6.422  94.028 117.485  0.00  0.00    -0.368 OA
BRANCH   7   8
ATOM      8  C   LIG d   1      -7.817  93.868 117.843  0.00  0.00     0.119 C 
BRANCH   8   9
ATOM      9  C   LIG d   1      -8.514  95.221 117.602  0.00  0.00     0.028 C 
ATOM     10  C   LIG d   1      -7.513  96.364 117.368  0.00  0.00     0.006 C 
ENDBRANCH   8   9
BRANCH   8  11
ATOM     11  C   LIG d   1      -7.979  93.588 119.340  0.00  0.00     0.028 C 
ATOM     12  C   LIG d   1      -7.200  92.347 119.802  0.00  0.00     0.006 C 
ENDBRANCH   8  11
ENDBRANCH   7   8
ENDBRANCH   1   7
BRANCH   6  13
ATOM     13  N   LIG d   1      -3.560  93.168 117.096  0.00  0.00    -0.311 N 
ATOM     14  C   LIG d   1      -2.901  93.414 118.227  0.00  0.00     0.210 C 
ATOM     15  C   LIG d   1      -1.706  94.363 118.086  0.00  0.00     0.109 C 
ATOM     16  O   LIG d   1      -3.173  92.912 119.328  0.00  0.00    -0.276 OA
ATOM     17  H   LIG d   1      -3.251  93.592 116.243  0.00  0.00     0.149 HD
ENDBRANCH   6  13
BRANCH   5  18
ATOM     18  N   LIG d   1      -3.482  90.136 116.731  0.00  0.00     0.381 N 
ATOM     19  H   LIG d   1      -2.789  89.936 116.038  0.00  0.00    -0.090 HD
ATOM     20  H   LIG d   1      -3.916  89.271 117.001  0.00  0.00    -0.090 HD
ATOM     21  H   LIG d   1      -3.057  90.565 117.523  0.00  0.00    -0.090 HD
ENDBRANCH   5  18
BRANCH   3  22
ATOM     22  C   LIG d   1      -7.920  90.385 114.947  0.00  0.00     0.382 C 
ATOM     23  O   LIG d   1      -8.549  91.022 114.067  0.00  0.00    -0.241 OA
ATOM     24  O   LIG d   1      -8.244  89.210 115.203  0.00  0.00    -0.241 OA
ENDBRANCH   3  22
TORSDOF 7
ENDMDL
MODEL 6
REMARK VINA RESULT:      -5.3      2.288      3.108
REMARK  7 active torsions:
REMARK  status: ('A' for Active; 'I' for Inactive)
REMARK    1  A    between atoms: C_2  and  C_3 
REMARK    2  A    between atoms: C_3  and  O_6 
REMARK    3  A    between atoms: C_3  and  C_4 
REMARK    4  A    between atoms: C_7  and  O_6 
REMARK    5  A    between atoms: C_9  and  C_10 
REMARK    6  A    between atoms: N_15  and  C_14 
REMARK    7  A    between atoms: N_20  and  C_19 
REMARK       I    between atoms: C_22  and  N_20 
ROOT
ATOM      1  C   LIG d   1      -2.637  77.895 114.691  0.00  0.00     0.161 C 
ATOM      2  C   LIG d   1      -2.824  78.876 113.704  0.00  0.00     0.016 C 
ATOM      3  C   LIG d   1      -1.927  79.947 113.491  0.00  0.00     0.038 C 
ATOM      4  C   LIG d   1      -0.695  80.026 114.157  0.00  0.00     0.028 C 
ATOM      5  C   LIG d   1      -0.697  79.337 115.518  0.00  0.00    -0.047 C 
ATOM      6  C   LIG d   1      -1.243  77.901 115.353  0.00  0.00     0.091 C 
ENDROOT
BRANCH   1   7
ATOM      7  O   LIG d   1      -2.928  76.592 114.147  0.00  0.00    -0.368 OA
BRANCH   7   8
ATOM      8  C   LIG d   1      -3.924  75.814 114.855  0.00  0.00     0.119 C 
BRANCH   8   9
ATOM      9  C   LIG d   1      -4.963  75.341 113.819  0.00  0.00     0.028 C 
ATOM     10  C   LIG d   1      -6.250  76.181 113.853  0.00  0.00     0.006 C 
ENDBRANCH   8   9
BRANCH   8  11
ATOM     11  C   LIG d   1      -4.706  76.679 115.847  0.00  0.00     0.028 C 
ATOM     12  C   LIG d   1      -4.761  76.069 117.256  0.00  0.00     0.006 C 
ENDBRANCH   8  11
ENDBRANCH   7   8
ENDBRANCH   1   7
BRANCH   6  13
ATOM     13  N   LIG d   1      -1.358  77.185 116.651  0.00  0.00    -0.311 N 
ATOM     14  C   LIG d   1      -0.378  76.447 117.170  0.00  0.00     0.210 C 
ATOM     15  C   LIG d   1      -0.712  75.779 118.508  0.00  0.00     0.109 C 
ATOM     16  O   LIG d   1       0.746  76.308 116.666  0.00  0.00    -0.276 OA
ATOM     17  H   LIG d   1      -2.226  77.269 117.142  0.00  0.00     0.149 HD
ENDBRANCH   6  13
BRANCH   5  18
ATOM     18  N   LIG d   1       0.683  79.375 116.039  0.00  0.00     0.381 N 
ATOM     19  H   LIG d   1       0.668  79.545 117.025  0.00  0.00    -0.090 HD
ATOM     20  H   LIG d   1       1.177  80.130 115.596  0.00  0.00    -0.090 HD
ATOM     21  H   LIG d   1       1.142  78.512 115.850  0.00  0.00    -0.090 HD
ENDBRANCH   5  18
BRANCH   3  22
ATOM     22  C   LIG d   1      -2.277  80.978 112.632  0.00  0.00     0.382 C 
ATOM     23  O   LIG d   1      -1.385  81.655 112.067  0.00  0.00    -0.241 OA
ATOM     24  O   LIG d   1      -3.475  81.267 112.449  0.00  0.00    -0.241 OA
ENDBRANCH   3  22
TORSDOF 7
ENDMDL
MODEL 7
REMARK VINA RESULT:      -5.2      3.641      5.637
REMARK  7 active torsions:
REMARK  status: ('A' for Active; 'I' for Inactive)
REMARK    1  A    between atoms: C_2  and  C_3 
REMARK    2  A    between atoms: C_3  and  O_6 
REMARK    3  A    between atoms: C_3  and  C_4 
REMARK    4  A    between atoms: C_7  and  O_6 
REMARK    5  A    between atoms: C_9  and  C_10 
REMARK    6  A    between atoms: N_15  and  C_14 
REMARK    7  A    between atoms: N_20  and  C_19 
REMARK       I    between atoms: C_22  and  N_20 
ROOT
ATOM      1  C   LIG d   1      -5.985  77.531 117.218  0.00  0.00     0.161 C 
ATOM      2  C   LIG d   1      -5.251  77.470 116.021  0.00  0.00     0.016 C 
ATOM      3  C   LIG d   1      -5.042  76.274 115.296  0.00  0.00     0.038 C 
ATOM      4  C   LIG d   1      -5.685  75.076 115.641  0.00  0.00     0.028 C 
ATOM      5  C   LIG d   1      -6.028  74.978 117.124  0.00  0.00    -0.047 C 
ATOM      6  C   LIG d   1      -6.787  76.255 117.550  0.00  0.00     0.091 C 
ENDROOT
BRANCH   1   7
ATOM      7  O   LIG d   1      -6.856  78.679 117.199  0.00  0.00    -0.368 OA
BRANCH   7   8
ATOM      8  C   LIG d   1      -6.619  79.675 118.224  0.00  0.00     0.119 C 
BRANCH   8   9
ATOM      9  C   LIG d   1      -7.950  80.411 118.471  0.00  0.00     0.028 C 
ATOM     10  C   LIG d   1      -7.881  81.896 118.078  0.00  0.00     0.006 C 
ENDBRANCH   8   9
BRANCH   8  11
ATOM     11  C   LIG d   1      -5.644  80.752 117.740  0.00  0.00     0.028 C 
ATOM     12  C   LIG d   1      -4.239  80.599 118.344  0.00  0.00     0.006 C 
ENDBRANCH   8  11
ENDBRANCH   7   8
ENDBRANCH   1   7
BRANCH   6  13
ATOM     13  N   LIG d   1      -7.086  76.278 119.005  0.00  0.00    -0.311 N 
ATOM     14  C   LIG d   1      -8.259  76.660 119.507  0.00  0.00     0.210 C 
ATOM     15  C   LIG d   1      -8.350  76.627 121.036  0.00  0.00     0.109 C 
ATOM     16  O   LIG d   1      -9.243  76.992 118.830  0.00  0.00    -0.276 OA
ATOM     17  H   LIG d   1      -6.353  75.994 119.626  0.00  0.00     0.149 HD
ENDBRANCH   6  13
BRANCH   5  18
ATOM     18  N   LIG d   1      -6.815  73.745 117.318  0.00  0.00     0.381 N 
ATOM     19  H   LIG d   1      -6.231  73.027 117.699  0.00  0.00    -0.090 HD
ATOM     20  H   LIG d   1      -7.157  73.434 116.426  0.00  0.00    -0.090 HD
ATOM     21  H   LIG d   1      -7.579  73.922 117.932  0.00  0.00    -0.090 HD
ENDBRANCH   5  18
BRANCH   3  22
ATOM     22  C   LIG d   1      -4.150  76.261 114.235  0.00  0.00     0.382 C 
ATOM     23  O   LIG d   1      -4.475  76.771 113.136  0.00  0.00    -0.241 OA
ATOM     24  O   LIG d   1      -3.040  75.707 114.350  0.00  0.00    -0.241 OA
ENDBRANCH   3  22
TORSDOF 7
ENDMDL
MODEL 8
REMARK VINA RESULT:      -5.2     16.579     18.934
REMARK  7 active torsions:
REMARK  status: ('A' for Active; 'I' for Inactive)
REMARK    1  A    between atoms: C_2  and  C_3 
REMARK    2  A    between atoms: C_3  and  O_6 
REMARK    3  A    between atoms: C_3  and  C_4 
REMARK    4  A    between atoms: C_7  and  O_6 
REMARK    5  A    between atoms: C_9  and  C_10 
REMARK    6  A    between atoms: N_15  and  C_14 
REMARK    7  A    between atoms: N_20  and  C_19 
REMARK       I    between atoms: C_22  and  N_20 
ROOT
ATOM      1  C   LIG d   1       2.260  58.646 118.551  0.00  0.00     0.161 C 
ATOM      2  C   LIG d   1       1.155  59.513 118.541  0.00  0.00     0.016 C 
ATOM      3  C   LIG d   1      -0.107  59.160 118.009  0.00  0.00     0.038 C 
ATOM      4  C   LIG d   1      -0.394  57.853 117.586  0.00  0.00     0.028 C 
ATOM      5  C   LIG d   1       0.836  57.087 117.112  0.00  0.00    -0.047 C 
ATOM      6  C   LIG d   1       1.935  57.180 118.195  0.00  0.00     0.091 C 
ENDROOT
BRANCH   1   7
ATOM      7  O   LIG d   1       2.924  58.716 119.828  0.00  0.00    -0.368 OA
BRANCH   7   8
ATOM      8  C   LIG d   1       4.246  59.309 119.828  0.00  0.00     0.119 C 
BRANCH   8   9
ATOM      9  C   LIG d   1       4.163  60.628 120.620  0.00  0.00     0.028 C 
ATOM     10  C   LIG d   1       2.956  60.666 121.572  0.00  0.00     0.006 C 
ENDBRANCH   8   9
BRANCH   8  11
ATOM     11  C   LIG d   1       4.676  59.711 118.414  0.00  0.00     0.028 C 
ATOM     12  C   LIG d   1       4.717  61.234 118.214  0.00  0.00     0.006 C 
ENDBRANCH   8  11
ENDBRANCH   7   8
ENDBRANCH   1   7
BRANCH   6  13
ATOM     13  N   LIG d   1       3.203  56.528 117.775  0.00  0.00    -0.311 N 
ATOM     14  C   LIG d   1       3.515  55.269 118.078  0.00  0.00     0.210 C 
ATOM     15  C   LIG d   1       4.879  54.800 117.564  0.00  0.00     0.109 C 
ATOM     16  O   LIG d   1       2.778  54.487 118.696  0.00  0.00    -0.276 OA
ATOM     17  H   LIG d   1       3.845  57.081 117.243  0.00  0.00     0.149 HD
ENDBRANCH   6  13
BRANCH   5  18
ATOM     18  N   LIG d   1       0.417  55.701 116.831  0.00  0.00     0.381 N 
ATOM     19  H   LIG d   1      -0.008  55.304 117.646  0.00  0.00    -0.090 HD
ATOM     20  H   LIG d   1       1.229  55.155 116.602  0.00  0.00    -0.090 HD
ATOM     21  H   LIG d   1      -0.227  55.686 116.071  0.00  0.00    -0.090 HD
ENDBRANCH   5  18
BRANCH   3  22
ATOM     22  C   LIG d   1      -1.087  60.130 117.861  0.00  0.00     0.382 C 
ATOM     23  O   LIG d   1      -1.697  60.243 116.770  0.00  0.00    -0.241 OA
ATOM     24  O   LIG d   1      -1.337  60.923 118.788  0.00  0.00    -0.241 OA
ENDBRANCH   3  22
TORSDOF 7
ENDMDL
MODEL 9
REMARK VINA RESULT:      -5.2     16.546     18.453
REMARK  7 active torsions:
REMARK  status: ('A' for Active; 'I' for Inactive)
REMARK    1  A    between atoms: C_2  and  C_3 
REMARK    2  A    between atoms: C_3  and  O_6 
REMARK    3  A    between atoms: C_3  and  C_4 
REMARK    4  A    between atoms: C_7  and  O_6 
REMARK    5  A    between atoms: C_9  and  C_10 
REMARK    6  A    between atoms: N_15  and  C_14 
REMARK    7  A    between atoms: N_20  and  C_19 
REMARK       I    between atoms: C_22  and  N_20 
ROOT
ATOM      1  C   LIG d   1      -6.486  93.914 116.446  0.00  0.00     0.161 C 
ATOM      2  C   LIG d   1      -7.239  92.836 115.951  0.00  0.00     0.016 C 
ATOM      3  C   LIG d   1      -6.981  91.487 116.286  0.00  0.00     0.038 C 
ATOM      4  C   LIG d   1      -6.041  91.133 117.266  0.00  0.00     0.028 C 
ATOM      5  C   LIG d   1      -4.914  92.149 117.418  0.00  0.00    -0.047 C 
ATOM      6  C   LIG d   1      -5.528  93.556 117.602  0.00  0.00     0.091 C 
ENDROOT
BRANCH   1   7
ATOM      7  O   LIG d   1      -7.366  94.985 116.838  0.00  0.00    -0.368 OA
BRANCH   7   8
ATOM      8  C   LIG d   1      -7.586  95.141 118.262  0.00  0.00     0.119 C 
BRANCH   8   9
ATOM      9  C   LIG d   1      -9.016  94.653 118.565  0.00  0.00     0.028 C 
ATOM     10  C   LIG d   1      -9.032  93.309 119.313  0.00  0.00     0.006 C 
ENDBRANCH   8   9
BRANCH   8  11
ATOM     11  C   LIG d   1      -7.566  96.616 118.671  0.00  0.00     0.028 C 
ATOM     12  C   LIG d   1      -6.677  97.476 117.758  0.00  0.00     0.006 C 
ENDBRANCH   8  11
ENDBRANCH   7   8
ENDBRANCH   1   7
BRANCH   6  13
ATOM     13  N   LIG d   1      -4.494  94.621 117.675  0.00  0.00    -0.311 N 
ATOM     14  C   LIG d   1      -4.015  95.100 118.821  0.00  0.00     0.210 C 
ATOM     15  C   LIG d   1      -2.969  96.209 118.671  0.00  0.00     0.109 C 
ATOM     16  O   LIG d   1      -4.334  94.691 119.947  0.00  0.00    -0.276 OA
ATOM     17  H   LIG d   1      -4.156  94.989 116.807  0.00  0.00     0.149 HD
ENDBRANCH   6  13
BRANCH   5  18
ATOM     18  N   LIG d   1      -4.085  91.726 118.563  0.00  0.00     0.381 N 
ATOM     19  H   LIG d   1      -3.364  92.401 118.727  0.00  0.00    -0.090 HD
ATOM     20  H   LIG d   1      -3.651  90.848 118.343  0.00  0.00    -0.090 HD
ATOM     21  H   LIG d   1      -4.651  91.631 119.377  0.00  0.00    -0.090 HD
ENDBRANCH   5  18
BRANCH   3  22
ATOM     22  C   LIG d   1      -7.640  90.472 115.609  0.00  0.00     0.382 C 
ATOM     23  O   LIG d   1      -7.444  89.275 115.929  0.00  0.00    -0.241 OA
ATOM     24  O   LIG d   1      -8.395  90.737 114.654  0.00  0.00    -0.241 OA
ENDBRANCH   3  22
TORSDOF 7
ENDMDL
