MODEL 1
REMARK VINA RESULT:      -5.8      0.000      0.000
REMARK  7 active torsions:
REMARK  status: ('A' for Active; 'I' for Inactive)
REMARK    1  A    between atoms: C_2  and  C_3 
REMARK    2  A    between atoms: C_3  and  O_6 
REMARK    3  A    between atoms: C_3  and  C_4 
REMARK    4  A    between atoms: C_7  and  O_6 
REMARK    5  A    between atoms: C_9  and  C_10 
REMARK    6  A    between atoms: N_15  and  C_14 
REMARK    7  A    between atoms: N_20  and  C_19 
REMARK       I    between atoms: C_22  and  N_20 
ROOT
ATOM      1  C   LIG d   1      -5.442  74.869 116.608  0.00  0.00     0.161 C 
ATOM      2  C   LIG d   1      -5.893  75.208 115.322  0.00  0.00     0.016 C 
ATOM      3  C   LIG d   1      -5.032  75.618 114.278  0.00  0.00     0.038 C 
ATOM      4  C   LIG d   1      -3.636  75.571 114.407  0.00  0.00     0.028 C 
ATOM      5  C   LIG d   1      -3.155  75.718 115.846  0.00  0.00    -0.047 C 
ATOM      6  C   LIG d   1      -3.913  74.705 116.735  0.00  0.00     0.091 C 
ENDROOT
BRANCH   1   7
ATOM      7  O   LIG d   1      -6.113  73.678 117.063  0.00  0.00    -0.368 OA
BRANCH   7   8
ATOM      8  C   LIG d   1      -7.560  73.738 117.105  0.00  0.00     0.119 C 
BRANCH   8   9
ATOM      9  C   LIG d   1      -7.952  74.645 118.288  0.00  0.00     0.028 C 
ATOM     10  C   LIG d   1      -8.878  75.797 117.862  0.00  0.00     0.006 C 
ENDBRANCH   8   9
BRANCH   8  11
ATOM     11  C   LIG d   1      -8.166  72.368 117.427  0.00  0.00     0.028 C 
ATOM     12  C   LIG d   1      -7.903  71.328 116.326  0.00  0.00     0.006 C 
ENDBRANCH   8  11
ENDBRANCH   7   8
ENDBRANCH   1   7
BRANCH   6  13
ATOM     13  N   LIG d   1      -3.563  74.840 118.173  0.00  0.00    -0.311 N 
ATOM     14  C   LIG d   1      -2.600  74.135 118.762  0.00  0.00     0.210 C 
ATOM     15  C   LIG d   1      -2.417  74.413 120.258  0.00  0.00     0.109 C 
ATOM     16  O   LIG d   1      -1.857  73.328 118.182  0.00  0.00    -0.276 OA
ATOM     17  H   LIG d   1      -4.095  75.495 118.712  0.00  0.00     0.149 HD
ENDBRANCH   6  13
BRANCH   5  18
ATOM     18  N   LIG d   1      -1.695  75.513 115.852  0.00  0.00     0.381 N 
ATOM     19  H   LIG d   1      -1.321  75.762 116.746  0.00  0.00    -0.090 HD
ATOM     20  H   LIG d   1      -1.280  76.111 115.159  0.00  0.00    -0.090 HD
ATOM     21  H   LIG d   1      -1.483  74.561 115.649  0.00  0.00    -0.090 HD
ENDBRANCH   5  18
BRANCH   3  22
ATOM     22  C   LIG d   1      -5.568  76.119 113.101  0.00  0.00     0.382 C 
ATOM     23  O   LIG d   1      -4.815  76.621 112.233  0.00  0.00    -0.241 OA
ATOM     24  O   LIG d   1      -6.800  76.116 112.917  0.00  0.00    -0.241 OA
ENDBRANCH   3  22
TORSDOF 7
ENDMDL
MODEL 2
REMARK VINA RESULT:      -5.4      2.622      3.242
REMARK  7 active torsions:
REMARK  status: ('A' for Active; 'I' for Inactive)
REMARK    1  A    between atoms: C_2  and  C_3 
REMARK    2  A    between atoms: C_3  and  O_6 
REMARK    3  A    between atoms: C_3  and  C_4 
REMARK    4  A    between atoms: C_7  and  O_6 
REMARK    5  A    between atoms: C_9  and  C_10 
REMARK    6  A    between atoms: N_15  and  C_14 
REMARK    7  A    between atoms: N_20  and  C_19 
REMARK       I    between atoms: C_22  and  N_20 
ROOT
ATOM      1  C   LIG d   1      -6.818  75.400 116.703  0.00  0.00     0.161 C 
ATOM      2  C   LIG d   1      -6.061  75.092 115.560  0.00  0.00     0.016 C 
ATOM      3  C   LIG d   1      -4.991  75.891 115.097  0.00  0.00     0.038 C 
ATOM      4  C   LIG d   1      -4.505  76.980 115.835  0.00  0.00     0.028 C 
ATOM      5  C   LIG d   1      -5.559  77.623 116.731  0.00  0.00    -0.047 C 
ATOM      6  C   LIG d   1      -6.232  76.523 117.583  0.00  0.00     0.091 C 
ENDROOT
BRANCH   1   7
ATOM      7  O   LIG d   1      -7.029  74.208 117.485  0.00  0.00    -0.368 OA
BRANCH   7   8
ATOM      8  C   LIG d   1      -8.301  73.540 117.299  0.00  0.00     0.119 C 
BRANCH   8   9
ATOM      9  C   LIG d   1      -9.270  74.082 118.367  0.00  0.00     0.028 C 
ATOM     10  C   LIG d   1     -10.573  74.625 117.757  0.00  0.00     0.006 C 
ENDBRANCH   8   9
BRANCH   8  11
ATOM     11  C   LIG d   1      -8.188  72.038 117.579  0.00  0.00     0.028 C 
ATOM     12  C   LIG d   1      -8.935  71.181 116.545  0.00  0.00     0.006 C 
ENDBRANCH   8  11
ENDBRANCH   7   8
ENDBRANCH   1   7
BRANCH   6  13
ATOM     13  N   LIG d   1      -7.334  77.055 118.427  0.00  0.00    -0.311 N 
ATOM     14  C   LIG d   1      -7.379  76.909 119.750  0.00  0.00     0.210 C 
ATOM     15  C   LIG d   1      -8.614  77.516 120.425  0.00  0.00     0.109 C 
ATOM     16  O   LIG d   1      -6.499  76.363 120.433  0.00  0.00    -0.276 OA
ATOM     17  H   LIG d   1      -8.074  77.539 117.959  0.00  0.00     0.149 HD
ENDBRANCH   6  13
BRANCH   5  18
ATOM     18  N   LIG d   1      -4.885  78.653 117.543  0.00  0.00     0.381 N 
ATOM     19  H   LIG d   1      -4.898  79.529 117.060  0.00  0.00    -0.090 HD
ATOM     20  H   LIG d   1      -3.926  78.383 117.680  0.00  0.00    -0.090 HD
ATOM     21  H   LIG d   1      -5.341  78.745 118.424  0.00  0.00    -0.090 HD
ENDBRANCH   5  18
BRANCH   3  22
ATOM     22  C   LIG d   1      -4.421  75.627 113.861  0.00  0.00     0.382 C 
ATOM     23  O   LIG d   1      -4.828  76.233 112.840  0.00  0.00    -0.241 OA
ATOM     24  O   LIG d   1      -3.536  74.758 113.746  0.00  0.00    -0.241 OA
ENDBRANCH   3  22
TORSDOF 7
ENDMDL
MODEL 3
REMARK VINA RESULT:      -5.4      3.235      6.386
REMARK  7 active torsions:
REMARK  status: ('A' for Active; 'I' for Inactive)
REMARK    1  A    between atoms: C_2  and  C_3 
REMARK    2  A    between atoms: C_3  and  O_6 
REMARK    3  A    between atoms: C_3  and  C_4 
REMARK    4  A    between atoms: C_7  and  O_6 
REMARK    5  A    between atoms: C_9  and  C_10 
REMARK    6  A    between atoms: N_15  and  C_14 
REMARK    7  A    between atoms: N_20  and  C_19 
REMARK       I    between atoms: C_22  and  N_20 
ROOT
ATOM      1  C   LIG d   1      -7.489  75.394 117.876  0.00  0.00     0.161 C 
ATOM      2  C   LIG d   1      -7.670  74.051 117.506  0.00  0.00     0.016 C 
ATOM      3  C   LIG d   1      -8.917  73.388 117.566  0.00  0.00     0.038 C 
ATOM      4  C   LIG d   1     -10.107  74.071 117.858  0.00  0.00     0.028 C 
ATOM      5  C   LIG d   1      -9.897  75.307 118.727  0.00  0.00    -0.047 C 
ATOM      6  C   LIG d   1      -8.796  76.186 118.092  0.00  0.00     0.091 C 
ENDROOT
BRANCH   1   7
ATOM      7  O   LIG d   1      -6.654  76.059 116.909  0.00  0.00    -0.368 OA
BRANCH   7   8
ATOM      8  C   LIG d   1      -5.919  75.200 116.003  0.00  0.00     0.119 C 
BRANCH   8   9
ATOM      9  C   LIG d   1      -4.419  75.385 116.302  0.00  0.00     0.028 C 
ATOM     10  C   LIG d   1      -3.958  74.564 117.518  0.00  0.00     0.006 C 
ENDBRANCH   8   9
BRANCH   8  11
ATOM     11  C   LIG d   1      -6.100  75.641 114.547  0.00  0.00     0.028 C 
ATOM     12  C   LIG d   1      -4.802  75.542 113.729  0.00  0.00     0.006 C 
ENDBRANCH   8  11
ENDBRANCH   7   8
ENDBRANCH   1   7
BRANCH   6  13
ATOM     13  N   LIG d   1      -8.469  77.374 118.923  0.00  0.00    -0.311 N 
ATOM     14  C   LIG d   1      -9.115  78.535 118.828  0.00  0.00     0.210 C 
ATOM     15  C   LIG d   1      -8.606  79.637 119.763  0.00  0.00     0.109 C 
ATOM     16  O   LIG d   1     -10.082  78.748 118.081  0.00  0.00    -0.276 OA
ATOM     17  H   LIG d   1      -7.718  77.280 119.578  0.00  0.00     0.149 HD
ENDBRANCH   6  13
BRANCH   5  18
ATOM     18  N   LIG d   1     -11.196  75.998 118.839  0.00  0.00     0.381 N 
ATOM     19  H   LIG d   1     -11.065  76.898 119.257  0.00  0.00    -0.090 HD
ATOM     20  H   LIG d   1     -11.801  75.460 119.433  0.00  0.00    -0.090 HD
ATOM     21  H   LIG d   1     -11.607  76.099 117.937  0.00  0.00    -0.090 HD
ENDBRANCH   5  18
BRANCH   3  22
ATOM     22  C   LIG d   1      -8.977  72.016 117.370  0.00  0.00     0.382 C 
ATOM     23  O   LIG d   1      -8.378  71.244 118.156  0.00  0.00    -0.241 OA
ATOM     24  O   LIG d   1      -9.585  71.544 116.391  0.00  0.00    -0.241 OA
ENDBRANCH   3  22
TORSDOF 7
ENDMDL
MODEL 4
REMARK VINA RESULT:      -5.3     12.514     15.216
REMARK  7 active torsions:
REMARK  status: ('A' for Active; 'I' for Inactive)
REMARK    1  A    between atoms: C_2  and  C_3 
REMARK    2  A    between atoms: C_3  and  O_6 
REMARK    3  A    between atoms: C_3  and  C_4 
REMARK    4  A    between atoms: C_7  and  O_6 
REMARK    5  A    between atoms: C_9  and  C_10 
REMARK    6  A    between atoms: N_15  and  C_14 
REMARK    7  A    between atoms: N_20  and  C_19 
REMARK       I    between atoms: C_22  and  N_20 
ROOT
ATOM      1  C   LIG d   1     -16.569  65.338 114.488  0.00  0.00     0.161 C 
ATOM      2  C   LIG d   1     -15.852  66.212 113.653  0.00  0.00     0.016 C 
ATOM      3  C   LIG d   1     -15.524  67.539 114.015  0.00  0.00     0.038 C 
ATOM      4  C   LIG d   1     -15.760  68.035 115.306  0.00  0.00     0.028 C 
ATOM      5  C   LIG d   1     -16.930  67.358 116.011  0.00  0.00    -0.047 C 
ATOM      6  C   LIG d   1     -16.737  65.825 115.942  0.00  0.00     0.091 C 
ENDROOT
BRANCH   1   7
ATOM      7  O   LIG d   1     -15.960  64.032 114.465  0.00  0.00    -0.368 OA
BRANCH   7   8
ATOM      8  C   LIG d   1     -16.735  62.978 113.842  0.00  0.00     0.119 C 
BRANCH   8   9
ATOM      9  C   LIG d   1     -18.004  63.623 113.252  0.00  0.00     0.028 C 
ATOM     10  C   LIG d   1     -19.293  63.024 113.837  0.00  0.00     0.006 C 
ENDBRANCH   8   9
BRANCH   8  11
ATOM     11  C   LIG d   1     -17.237  61.969 114.878  0.00  0.00     0.028 C 
ATOM     12  C   LIG d   1     -16.288  61.824 116.078  0.00  0.00     0.006 C 
ENDBRANCH   8  11
ENDBRANCH   7   8
ENDBRANCH   1   7
BRANCH   6  13
ATOM     13  N   LIG d   1     -17.880  65.083 116.536  0.00  0.00    -0.311 N 
ATOM     14  C   LIG d   1     -17.899  64.651 117.795  0.00  0.00     0.210 C 
ATOM     15  C   LIG d   1     -19.166  63.891 118.199  0.00  0.00     0.109 C 
ATOM     16  O   LIG d   1     -17.001  64.853 118.626  0.00  0.00    -0.276 OA
ATOM     17  H   LIG d   1     -18.665  64.903 115.941  0.00  0.00     0.149 HD
ENDBRANCH   6  13
BRANCH   5  18
ATOM     18  N   LIG d   1     -16.976  67.873 117.392  0.00  0.00     0.381 N 
ATOM     19  H   LIG d   1     -16.047  68.037 117.724  0.00  0.00    -0.090 HD
ATOM     20  H   LIG d   1     -17.405  67.182 117.983  0.00  0.00    -0.090 HD
ATOM     21  H   LIG d   1     -17.502  68.719 117.423  0.00  0.00    -0.090 HD
ENDBRANCH   5  18
BRANCH   3  22
ATOM     22  C   LIG d   1     -14.988  68.397 113.067  0.00  0.00     0.382 C 
ATOM     23  O   LIG d   1     -14.017  69.133 113.366  0.00  0.00    -0.241 OA
ATOM     24  O   LIG d   1     -15.491  68.475 111.930  0.00  0.00    -0.241 OA
ENDBRANCH   3  22
TORSDOF 7
ENDMDL
MODEL 5
REMARK VINA RESULT:      -5.2      1.720      5.027
REMARK  7 active torsions:
REMARK  status: ('A' for Active; 'I' for Inactive)
REMARK    1  A    between atoms: C_2  and  C_3 
REMARK    2  A    between atoms: C_3  and  O_6 
REMARK    3  A    between atoms: C_3  and  C_4 
REMARK    4  A    between atoms: C_7  and  O_6 
REMARK    5  A    between atoms: C_9  and  C_10 
REMARK    6  A    between atoms: N_15  and  C_14 
REMARK    7  A    between atoms: N_20  and  C_19 
REMARK       I    between atoms: C_22  and  N_20 
ROOT
ATOM      1  C   LIG d   1      -4.279  74.721 117.001  0.00  0.00     0.161 C 
ATOM      2  C   LIG d   1      -3.395  74.321 118.017  0.00  0.00     0.016 C 
ATOM      3  C   LIG d   1      -1.995  74.232 117.840  0.00  0.00     0.038 C 
ATOM      4  C   LIG d   1      -1.365  74.685 116.671  0.00  0.00     0.028 C 
ATOM      5  C   LIG d   1      -2.260  74.623 115.438  0.00  0.00    -0.047 C 
ATOM      6  C   LIG d   1      -3.600  75.326 115.754  0.00  0.00     0.091 C 
ENDROOT
BRANCH   1   7
ATOM      7  O   LIG d   1      -5.254  75.638 117.535  0.00  0.00    -0.368 OA
BRANCH   7   8
ATOM      8  C   LIG d   1      -6.613  75.143 117.626  0.00  0.00     0.119 C 
BRANCH   8   9
ATOM      9  C   LIG d   1      -6.666  73.797 116.876  0.00  0.00     0.028 C 
ATOM     10  C   LIG d   1      -7.854  72.926 117.318  0.00  0.00     0.006 C 
ENDBRANCH   8   9
BRANCH   8  11
ATOM     11  C   LIG d   1      -7.591  76.059 116.884  0.00  0.00     0.028 C 
ATOM     12  C   LIG d   1      -8.677  76.640 117.804  0.00  0.00     0.006 C 
ENDBRANCH   8  11
ENDBRANCH   7   8
ENDBRANCH   1   7
BRANCH   6  13
ATOM     13  N   LIG d   1      -4.566  75.236 114.628  0.00  0.00    -0.311 N 
ATOM     14  C   LIG d   1      -4.600  76.106 113.620  0.00  0.00     0.210 C 
ATOM     15  C   LIG d   1      -5.687  75.843 112.574  0.00  0.00     0.109 C 
ATOM     16  O   LIG d   1      -3.811  77.053 113.476  0.00  0.00    -0.276 OA
ATOM     17  H   LIG d   1      -5.223  74.480 114.649  0.00  0.00     0.149 HD
ENDBRANCH   6  13
BRANCH   5  18
ATOM     18  N   LIG d   1      -1.527  75.252 114.323  0.00  0.00     0.381 N 
ATOM     19  H   LIG d   1      -0.971  76.009 114.667  0.00  0.00    -0.090 HD
ATOM     20  H   LIG d   1      -2.190  75.621 113.665  0.00  0.00    -0.090 HD
ATOM     21  H   LIG d   1      -0.943  74.579 113.876  0.00  0.00    -0.090 HD
ENDBRANCH   5  18
BRANCH   3  22
ATOM     22  C   LIG d   1      -1.214  73.647 118.825  0.00  0.00     0.382 C 
ATOM     23  O   LIG d   1      -1.383  72.441 119.126  0.00  0.00    -0.241 OA
ATOM     24  O   LIG d   1      -0.372  74.322 119.447  0.00  0.00    -0.241 OA
ENDBRANCH   3  22
TORSDOF 7
ENDMDL
MODEL 6
REMARK VINA RESULT:      -4.9     13.303     16.104
REMARK  7 active torsions:
REMARK  status: ('A' for Active; 'I' for Inactive)
REMARK    1  A    between atoms: C_2  and  C_3 
REMARK    2  A    between atoms: C_3  and  O_6 
REMARK    3  A    between atoms: C_3  and  C_4 
REMARK    4  A    between atoms: C_7  and  O_6 
REMARK    5  A    between atoms: C_9  and  C_10 
REMARK    6  A    between atoms: N_15  and  C_14 
REMARK    7  A    between atoms: N_20  and  C_19 
REMARK       I    between atoms: C_22  and  N_20 
ROOT
ATOM      1  C   LIG d   1     -16.152  64.823 116.503  0.00  0.00     0.161 C 
ATOM      2  C   LIG d   1     -15.418  65.559 117.447  0.00  0.00     0.016 C 
ATOM      3  C   LIG d   1     -15.072  65.060 118.724  0.00  0.00     0.038 C 
ATOM      4  C   LIG d   1     -15.309  63.727 119.089  0.00  0.00     0.028 C 
ATOM      5  C   LIG d   1     -16.493  63.101 118.359  0.00  0.00    -0.047 C 
ATOM      6  C   LIG d   1     -16.323  63.327 116.840  0.00  0.00     0.091 C 
ENDROOT
BRANCH   1   7
ATOM      7  O   LIG d   1     -15.562  64.978 115.197  0.00  0.00    -0.368 OA
BRANCH   7   8
ATOM      8  C   LIG d   1     -16.347  65.714 114.226  0.00  0.00     0.119 C 
BRANCH   8   9
ATOM      9  C   LIG d   1     -16.664  64.753 113.064  0.00  0.00     0.028 C 
ATOM     10  C   LIG d   1     -18.176  64.580 112.841  0.00  0.00     0.006 C 
ENDBRANCH   8   9
BRANCH   8  11
ATOM     11  C   LIG d   1     -15.536  66.853 113.602  0.00  0.00     0.028 C 
ATOM     12  C   LIG d   1     -15.261  67.999 114.588  0.00  0.00     0.006 C 
ENDBRANCH   8  11
ENDBRANCH   7   8
ENDBRANCH   1   7
BRANCH   6  13
ATOM     13  N   LIG d   1     -17.481  62.819 116.058  0.00  0.00    -0.311 N 
ATOM     14  C   LIG d   1     -17.511  61.614 115.492  0.00  0.00     0.210 C 
ATOM     15  C   LIG d   1     -18.792  61.297 114.714  0.00  0.00     0.109 C 
ATOM     16  O   LIG d   1     -16.612  60.765 115.587  0.00  0.00    -0.276 OA
ATOM     17  H   LIG d   1     -18.266  63.431 115.957  0.00  0.00     0.149 HD
ENDBRANCH   6  13
BRANCH   5  18
ATOM     18  N   LIG d   1     -16.541  61.674 118.730  0.00  0.00     0.381 N 
ATOM     19  H   LIG d   1     -15.748  61.444 119.295  0.00  0.00    -0.090 HD
ATOM     20  H   LIG d   1     -16.504  61.119 117.893  0.00  0.00    -0.090 HD
ATOM     21  H   LIG d   1     -17.381  61.479 119.229  0.00  0.00    -0.090 HD
ENDBRANCH   5  18
BRANCH   3  22
ATOM     22  C   LIG d   1     -14.517  65.912 119.668  0.00  0.00     0.382 C 
ATOM     23  O   LIG d   1     -14.757  65.739 120.887  0.00  0.00    -0.241 OA
ATOM     24  O   LIG d   1     -13.817  66.878 119.312  0.00  0.00    -0.241 OA
ENDBRANCH   3  22
TORSDOF 7
ENDMDL
MODEL 7
REMARK VINA RESULT:      -4.9      3.016      5.506
REMARK  7 active torsions:
REMARK  status: ('A' for Active; 'I' for Inactive)
REMARK    1  A    between atoms: C_2  and  C_3 
REMARK    2  A    between atoms: C_3  and  O_6 
REMARK    3  A    between atoms: C_3  and  C_4 
REMARK    4  A    between atoms: C_7  and  O_6 
REMARK    5  A    between atoms: C_9  and  C_10 
REMARK    6  A    between atoms: N_15  and  C_14 
REMARK    7  A    between atoms: N_20  and  C_19 
REMARK       I    between atoms: C_22  and  N_20 
ROOT
ATOM      1  C   LIG d   1      -3.576  76.083 114.462  0.00  0.00     0.161 C 
ATOM      2  C   LIG d   1      -2.750  77.116 113.986  0.00  0.00     0.016 C 
ATOM      3  C   LIG d   1      -2.628  78.371 114.626  0.00  0.00     0.038 C 
ATOM      4  C   LIG d   1      -3.212  78.626 115.876  0.00  0.00     0.028 C 
ATOM      5  C   LIG d   1      -4.460  77.792 116.143  0.00  0.00    -0.047 C 
ATOM      6  C   LIG d   1      -4.133  76.303 115.883  0.00  0.00     0.091 C 
ENDROOT
BRANCH   1   7
ATOM      7  O   LIG d   1      -2.876  74.825 114.387  0.00  0.00    -0.368 OA
BRANCH   7   8
ATOM      8  C   LIG d   1      -1.457  74.867 114.677  0.00  0.00     0.119 C 
BRANCH   8   9
ATOM      9  C   LIG d   1      -0.787  73.737 113.871  0.00  0.00     0.028 C 
ATOM     10  C   LIG d   1       0.659  74.078 113.474  0.00  0.00     0.006 C 
ENDBRANCH   8   9
BRANCH   8  11
ATOM     11  C   LIG d   1      -1.178  74.539 116.146  0.00  0.00     0.028 C 
ATOM     12  C   LIG d   1      -0.556  75.717 116.913  0.00  0.00     0.006 C 
ENDBRANCH   8  11
ENDBRANCH   7   8
ENDBRANCH   1   7
BRANCH   6  13
ATOM     13  N   LIG d   1      -5.323  75.426 116.041  0.00  0.00    -0.311 N 
ATOM     14  C   LIG d   1      -5.320  74.311 116.768  0.00  0.00     0.210 C 
ATOM     15  C   LIG d   1      -6.646  73.544 116.781  0.00  0.00     0.109 C 
ATOM     16  O   LIG d   1      -4.355  73.901 117.430  0.00  0.00    -0.276 OA
ATOM     17  H   LIG d   1      -6.158  75.701 115.562  0.00  0.00     0.149 HD
ENDBRANCH   6  13
BRANCH   5  18
ATOM     18  N   LIG d   1      -4.884  78.057 117.531  0.00  0.00     0.381 N 
ATOM     19  H   LIG d   1      -5.410  78.907 117.568  0.00  0.00    -0.090 HD
ATOM     20  H   LIG d   1      -4.067  78.167 118.106  0.00  0.00    -0.090 HD
ATOM     21  H   LIG d   1      -5.437  77.300 117.869  0.00  0.00    -0.090 HD
ENDBRANCH   5  18
BRANCH   3  22
ATOM     22  C   LIG d   1      -1.948  79.401 113.994  0.00  0.00     0.382 C 
ATOM     23  O   LIG d   1      -2.480  80.006 113.032  0.00  0.00    -0.241 OA
ATOM     24  O   LIG d   1      -0.792  79.704 114.345  0.00  0.00    -0.241 OA
ENDBRANCH   3  22
TORSDOF 7
ENDMDL
MODEL 8
REMARK VINA RESULT:      -4.8      2.759      3.646
REMARK  7 active torsions:
REMARK  status: ('A' for Active; 'I' for Inactive)
REMARK    1  A    between atoms: C_2  and  C_3 
REMARK    2  A    between atoms: C_3  and  O_6 
REMARK    3  A    between atoms: C_3  and  C_4 
REMARK    4  A    between atoms: C_7  and  O_6 
REMARK    5  A    between atoms: C_9  and  C_10 
REMARK    6  A    between atoms: N_15  and  C_14 
REMARK    7  A    between atoms: N_20  and  C_19 
REMARK       I    between atoms: C_22  and  N_20 
ROOT
ATOM      1  C   LIG d   1      -3.165  77.465 116.787  0.00  0.00     0.161 C 
ATOM      2  C   LIG d   1      -3.431  78.539 115.921  0.00  0.00     0.016 C 
ATOM      3  C   LIG d   1      -2.654  78.825 114.775  0.00  0.00     0.038 C 
ATOM      4  C   LIG d   1      -1.642  77.961 114.331  0.00  0.00     0.028 C 
ATOM      5  C   LIG d   1      -1.011  77.140 115.451  0.00  0.00    -0.047 C 
ATOM      6  C   LIG d   1      -2.133  76.447 116.258  0.00  0.00     0.091 C 
ENDROOT
BRANCH   1   7
ATOM      7  O   LIG d   1      -4.395  76.798 117.131  0.00  0.00    -0.368 OA
BRANCH   7   8
ATOM      8  C   LIG d   1      -5.548  77.130 116.319  0.00  0.00     0.119 C 
BRANCH   8   9
ATOM      9  C   LIG d   1      -6.702  77.488 117.276  0.00  0.00     0.028 C 
ATOM     10  C   LIG d   1      -7.804  76.416 117.293  0.00  0.00     0.006 C 
ENDBRANCH   8   9
BRANCH   8  11
ATOM     11  C   LIG d   1      -6.041  75.914 115.528  0.00  0.00     0.028 C 
ATOM     12  C   LIG d   1      -5.266  75.702 114.217  0.00  0.00     0.006 C 
ENDBRANCH   8  11
ENDBRANCH   7   8
ENDBRANCH   1   7
BRANCH   6  13
ATOM     13  N   LIG d   1      -1.608  75.691 117.424  0.00  0.00    -0.311 N 
ATOM     14  C   LIG d   1      -1.236  74.413 117.362  0.00  0.00     0.210 C 
ATOM     15  C   LIG d   1      -0.743  73.819 118.685  0.00  0.00     0.109 C 
ATOM     16  O   LIG d   1      -1.238  73.725 116.331  0.00  0.00    -0.276 OA
ATOM     17  H   LIG d   1      -1.543  76.181 118.294  0.00  0.00     0.149 HD
ENDBRANCH   6  13
BRANCH   5  18
ATOM     18  N   LIG d   1      -0.072  76.186 114.830  0.00  0.00     0.381 N 
ATOM     19  H   LIG d   1      -0.107  75.312 115.315  0.00  0.00    -0.090 HD
ATOM     20  H   LIG d   1       0.860  76.552 114.906  0.00  0.00    -0.090 HD
ATOM     21  H   LIG d   1      -0.307  76.052 113.871  0.00  0.00    -0.090 HD
ENDBRANCH   5  18
BRANCH   3  22
ATOM     22  C   LIG d   1      -2.860  80.008 114.082  0.00  0.00     0.382 C 
ATOM     23  O   LIG d   1      -2.803  81.106 114.686  0.00  0.00    -0.241 OA
ATOM     24  O   LIG d   1      -3.148  79.989 112.870  0.00  0.00    -0.241 OA
ENDBRANCH   3  22
TORSDOF 7
ENDMDL
MODEL 9
REMARK VINA RESULT:      -4.8     13.626     15.065
REMARK  7 active torsions:
REMARK  status: ('A' for Active; 'I' for Inactive)
REMARK    1  A    between atoms: C_2  and  C_3 
REMARK    2  A    between atoms: C_3  and  O_6 
REMARK    3  A    between atoms: C_3  and  C_4 
REMARK    4  A    between atoms: C_7  and  O_6 
REMARK    5  A    between atoms: C_9  and  C_10 
REMARK    6  A    between atoms: N_15  and  C_14 
REMARK    7  A    between atoms: N_20  and  C_19 
REMARK       I    between atoms: C_22  and  N_20 
ROOT
ATOM      1  C   LIG d   1     -16.246  64.475 116.548  0.00  0.00     0.161 C 
ATOM      2  C   LIG d   1     -16.332  64.178 115.178  0.00  0.00     0.016 C 
ATOM      3  C   LIG d   1     -16.407  65.167 114.170  0.00  0.00     0.038 C 
ATOM      4  C   LIG d   1     -16.248  66.531 114.457  0.00  0.00     0.028 C 
ATOM      5  C   LIG d   1     -16.665  66.904 115.876  0.00  0.00    -0.047 C 
ATOM      6  C   LIG d   1     -15.960  65.956 116.872  0.00  0.00     0.091 C 
ENDROOT
BRANCH   1   7
ATOM      7  O   LIG d   1     -15.262  63.626 117.172  0.00  0.00    -0.368 OA
BRANCH   7   8
ATOM      8  C   LIG d   1     -15.778  62.546 117.988  0.00  0.00     0.119 C 
BRANCH   8   9
ATOM      9  C   LIG d   1     -17.310  62.697 118.042  0.00  0.00     0.028 C 
ATOM     10  C   LIG d   1     -18.041  61.373 117.760  0.00  0.00     0.006 C 
ENDBRANCH   8   9
BRANCH   8  11
ATOM     11  C   LIG d   1     -15.307  62.671 119.440  0.00  0.00     0.028 C 
ATOM     12  C   LIG d   1     -13.819  63.039 119.554  0.00  0.00     0.006 C 
ENDBRANCH   8  11
ENDBRANCH   7   8
ENDBRANCH   1   7
BRANCH   6  13
ATOM     13  N   LIG d   1     -16.378  66.198 118.278  0.00  0.00    -0.311 N 
ATOM     14  C   LIG d   1     -15.526  66.503 119.254  0.00  0.00     0.210 C 
ATOM     15  C   LIG d   1     -16.164  66.692 120.634  0.00  0.00     0.109 C 
ATOM     16  O   LIG d   1     -14.306  66.666 119.103  0.00  0.00    -0.276 OA
ATOM     17  H   LIG d   1     -17.355  66.117 118.483  0.00  0.00     0.149 HD
ENDBRANCH   6  13
BRANCH   5  18
ATOM     18  N   LIG d   1     -16.319  68.323 116.084  0.00  0.00     0.381 N 
ATOM     19  H   LIG d   1     -16.767  68.886 115.389  0.00  0.00    -0.090 HD
ATOM     20  H   LIG d   1     -15.325  68.433 115.986  0.00  0.00    -0.090 HD
ATOM     21  H   LIG d   1     -16.605  68.614 116.993  0.00  0.00    -0.090 HD
ENDBRANCH   5  18
BRANCH   3  22
ATOM     22  C   LIG d   1     -16.682  64.797 112.863  0.00  0.00     0.382 C 
ATOM     23  O   LIG d   1     -17.653  64.041 112.617  0.00  0.00    -0.241 OA
ATOM     24  O   LIG d   1     -15.947  65.174 111.931  0.00  0.00    -0.241 OA
ENDBRANCH   3  22
TORSDOF 7
ENDMDL
