MODEL 1
REMARK VINA RESULT:      -6.3      0.000      0.000
REMARK  7 active torsions:
REMARK  status: ('A' for Active; 'I' for Inactive)
REMARK    1  A    between atoms: C_2  and  C_3 
REMARK    2  A    between atoms: C_3  and  O_6 
REMARK    3  A    between atoms: C_3  and  C_4 
REMARK    4  A    between atoms: C_7  and  O_6 
REMARK    5  A    between atoms: C_9  and  C_10 
REMARK    6  A    between atoms: N_15  and  C_14 
REMARK    7  A    between atoms: N_20  and  C_19 
REMARK       I    between atoms: C_22  and  N_20 
ROOT
ATOM      1  C   LIG d   1      -3.720  76.347 116.177  0.00  0.00     0.161 C 
ATOM      2  C   LIG d   1      -4.102  76.968 114.977  0.00  0.00     0.016 C 
ATOM      3  C   LIG d   1      -3.187  77.322 113.958  0.00  0.00     0.038 C 
ATOM      4  C   LIG d   1      -1.839  76.939 114.007  0.00  0.00     0.028 C 
ATOM      5  C   LIG d   1      -1.312  76.757 115.427  0.00  0.00    -0.047 C 
ATOM      6  C   LIG d   1      -2.269  75.822 116.201  0.00  0.00     0.091 C 
ENDROOT
BRANCH   1   7
ATOM      7  O   LIG d   1      -4.642  75.285 116.493  0.00  0.00    -0.368 OA
BRANCH   7   8
ATOM      8  C   LIG d   1      -5.966  75.398 115.915  0.00  0.00     0.119 C 
BRANCH   8   9
ATOM      9  C   LIG d   1      -6.950  75.694 117.064  0.00  0.00     0.028 C 
ATOM     10  C   LIG d   1      -7.999  76.751 116.680  0.00  0.00     0.006 C 
ENDBRANCH   8   9
BRANCH   8  11
ATOM     11  C   LIG d   1      -6.429  74.065 115.318  0.00  0.00     0.028 C 
ATOM     12  C   LIG d   1      -7.126  73.162 116.348  0.00  0.00     0.006 C 
ENDBRANCH   8  11
ENDBRANCH   7   8
ENDBRANCH   1   7
BRANCH   6  13
ATOM     13  N   LIG d   1      -1.873  75.657 117.624  0.00  0.00    -0.311 N 
ATOM     14  C   LIG d   1      -1.201  74.602 118.080  0.00  0.00     0.210 C 
ATOM     15  C   LIG d   1      -0.912  74.621 119.584  0.00  0.00     0.109 C 
ATOM     16  O   LIG d   1      -0.790  73.667 117.377  0.00  0.00    -0.276 OA
ATOM     17  H   LIG d   1      -2.140  76.384 118.258  0.00  0.00     0.149 HD
ENDBRANCH   6  13
BRANCH   5  18
ATOM     18  N   LIG d   1       0.060  76.226 115.328  0.00  0.00     0.381 N 
ATOM     19  H   LIG d   1       0.676  76.938 114.990  0.00  0.00    -0.090 HD
ATOM     20  H   LIG d   1       0.068  75.465 114.672  0.00  0.00    -0.090 HD
ATOM     21  H   LIG d   1       0.368  75.908 116.221  0.00  0.00    -0.090 HD
ENDBRANCH   5  18
BRANCH   3  22
ATOM     22  C   LIG d   1      -3.612  78.102 112.894  0.00  0.00     0.382 C 
ATOM     23  O   LIG d   1      -4.439  77.642 112.070  0.00  0.00    -0.241 OA
ATOM     24  O   LIG d   1      -3.147  79.244 112.722  0.00  0.00    -0.241 OA
ENDBRANCH   3  22
TORSDOF 7
ENDMDL
MODEL 2
REMARK VINA RESULT:      -6.2      9.576     12.003
REMARK  7 active torsions:
REMARK  status: ('A' for Active; 'I' for Inactive)
REMARK    1  A    between atoms: C_2  and  C_3 
REMARK    2  A    between atoms: C_3  and  O_6 
REMARK    3  A    between atoms: C_3  and  C_4 
REMARK    4  A    between atoms: C_7  and  O_6 
REMARK    5  A    between atoms: C_9  and  C_10 
REMARK    6  A    between atoms: N_15  and  C_14 
REMARK    7  A    between atoms: N_20  and  C_19 
REMARK       I    between atoms: C_22  and  N_20 
ROOT
ATOM      1  C   LIG d   1       1.730  84.779 112.979  0.00  0.00     0.161 C 
ATOM      2  C   LIG d   1       0.566  84.878 112.199  0.00  0.00     0.016 C 
ATOM      3  C   LIG d   1      -0.010  86.111 111.815  0.00  0.00     0.038 C 
ATOM      4  C   LIG d   1       0.628  87.336 112.060  0.00  0.00     0.028 C 
ATOM      5  C   LIG d   1       1.542  87.309 113.280  0.00  0.00    -0.047 C 
ATOM      6  C   LIG d   1       2.501  86.103 113.162  0.00  0.00     0.091 C 
ENDROOT
BRANCH   1   7
ATOM      7  O   LIG d   1       2.598  83.765 112.435  0.00  0.00    -0.368 OA
BRANCH   7   8
ATOM      8  C   LIG d   1       2.379  83.417 111.046  0.00  0.00     0.119 C 
BRANCH   8   9
ATOM      9  C   LIG d   1       2.430  81.880 110.940  0.00  0.00     0.028 C 
ATOM     10  C   LIG d   1       1.116  81.217 111.389  0.00  0.00     0.006 C 
ENDBRANCH   8   9
BRANCH   8  11
ATOM     11  C   LIG d   1       3.520  83.922 110.158  0.00  0.00     0.028 C 
ATOM     12  C   LIG d   1       4.414  82.788 109.634  0.00  0.00     0.006 C 
ENDBRANCH   8  11
ENDBRANCH   7   8
ENDBRANCH   1   7
BRANCH   6  13
ATOM     13  N   LIG d   1       3.374  85.954 114.356  0.00  0.00    -0.311 N 
ATOM     14  C   LIG d   1       4.587  86.497 114.450  0.00  0.00     0.210 C 
ATOM     15  C   LIG d   1       5.327  86.204 115.758  0.00  0.00     0.109 C 
ATOM     16  O   LIG d   1       5.107  87.220 113.586  0.00  0.00    -0.276 OA
ATOM     17  H   LIG d   1       3.018  85.409 115.116  0.00  0.00     0.149 HD
ENDBRANCH   6  13
BRANCH   5  18
ATOM     18  N   LIG d   1       2.246  88.604 113.338  0.00  0.00     0.381 N 
ATOM     19  H   LIG d   1       2.355  88.889 114.291  0.00  0.00    -0.090 HD
ATOM     20  H   LIG d   1       1.693  89.296 112.863  0.00  0.00    -0.090 HD
ATOM     21  H   LIG d   1       3.139  88.527 112.903  0.00  0.00    -0.090 HD
ENDBRANCH   5  18
BRANCH   3  22
ATOM     22  C   LIG d   1      -1.259  86.127 111.212  0.00  0.00     0.382 C 
ATOM     23  O   LIG d   1      -1.629  85.155 110.511  0.00  0.00    -0.241 OA
ATOM     24  O   LIG d   1      -2.001  87.121 111.324  0.00  0.00    -0.241 OA
ENDBRANCH   3  22
TORSDOF 7
ENDMDL
MODEL 3
REMARK VINA RESULT:      -5.8      1.651      4.941
REMARK  7 active torsions:
REMARK  status: ('A' for Active; 'I' for Inactive)
REMARK    1  A    between atoms: C_2  and  C_3 
REMARK    2  A    between atoms: C_3  and  O_6 
REMARK    3  A    between atoms: C_3  and  C_4 
REMARK    4  A    between atoms: C_7  and  O_6 
REMARK    5  A    between atoms: C_9  and  C_10 
REMARK    6  A    between atoms: N_15  and  C_14 
REMARK    7  A    between atoms: N_20  and  C_19 
REMARK       I    between atoms: C_22  and  N_20 
ROOT
ATOM      1  C   LIG d   1      -2.453  75.482 115.091  0.00  0.00     0.161 C 
ATOM      2  C   LIG d   1      -2.309  74.839 116.331  0.00  0.00     0.016 C 
ATOM      3  C   LIG d   1      -1.547  75.368 117.399  0.00  0.00     0.038 C 
ATOM      4  C   LIG d   1      -0.999  76.658 117.350  0.00  0.00     0.028 C 
ATOM      5  C   LIG d   1      -0.694  77.134 115.933  0.00  0.00    -0.047 C 
ATOM      6  C   LIG d   1      -1.954  76.942 115.058  0.00  0.00     0.091 C 
ENDROOT
BRANCH   1   7
ATOM      7  O   LIG d   1      -3.827  75.412 114.661  0.00  0.00    -0.368 OA
BRANCH   7   8
ATOM      8  C   LIG d   1      -4.821  75.354 115.713  0.00  0.00     0.119 C 
BRANCH   8   9
ATOM      9  C   LIG d   1      -5.953  74.427 115.229  0.00  0.00     0.028 C 
ATOM     10  C   LIG d   1      -6.801  73.880 116.390  0.00  0.00     0.006 C 
ENDBRANCH   8   9
BRANCH   8  11
ATOM     11  C   LIG d   1      -5.481  76.718 115.934  0.00  0.00     0.028 C 
ATOM     12  C   LIG d   1      -4.979  77.425 117.203  0.00  0.00     0.006 C 
ENDBRANCH   8  11
ENDBRANCH   7   8
ENDBRANCH   1   7
BRANCH   6  13
ATOM     13  N   LIG d   1      -1.716  77.304 113.636  0.00  0.00    -0.311 N 
ATOM     14  C   LIG d   1      -2.574  78.018 112.908  0.00  0.00     0.210 C 
ATOM     15  C   LIG d   1      -2.144  78.261 111.458  0.00  0.00     0.109 C 
ATOM     16  O   LIG d   1      -3.634  78.500 113.335  0.00  0.00    -0.276 OA
ATOM     17  H   LIG d   1      -0.866  76.980 113.219  0.00  0.00     0.149 HD
ENDBRANCH   6  13
BRANCH   5  18
ATOM     18  N   LIG d   1      -0.259  78.540 116.019  0.00  0.00     0.381 N 
ATOM     19  H   LIG d   1      -0.512  79.025 115.181  0.00  0.00    -0.090 HD
ATOM     20  H   LIG d   1       0.742  78.566 116.107  0.00  0.00    -0.090 HD
ATOM     21  H   LIG d   1      -0.681  78.981 116.806  0.00  0.00    -0.090 HD
ENDBRANCH   5  18
BRANCH   3  22
ATOM     22  C   LIG d   1      -1.295  74.587 118.516  0.00  0.00     0.382 C 
ATOM     23  O   LIG d   1      -1.080  75.132 119.626  0.00  0.00    -0.241 OA
ATOM     24  O   LIG d   1      -1.236  73.347 118.420  0.00  0.00    -0.241 OA
ENDBRANCH   3  22
TORSDOF 7
ENDMDL
MODEL 4
REMARK VINA RESULT:      -5.5     13.787     16.479
REMARK  7 active torsions:
REMARK  status: ('A' for Active; 'I' for Inactive)
REMARK    1  A    between atoms: C_2  and  C_3 
REMARK    2  A    between atoms: C_3  and  O_6 
REMARK    3  A    between atoms: C_3  and  C_4 
REMARK    4  A    between atoms: C_7  and  O_6 
REMARK    5  A    between atoms: C_9  and  C_10 
REMARK    6  A    between atoms: N_15  and  C_14 
REMARK    7  A    between atoms: N_20  and  C_19 
REMARK       I    between atoms: C_22  and  N_20 
ROOT
ATOM      1  C   LIG d   1     -16.282  65.773 114.004  0.00  0.00     0.161 C 
ATOM      2  C   LIG d   1     -15.933  66.637 112.953  0.00  0.00     0.016 C 
ATOM      3  C   LIG d   1     -15.138  67.792 113.128  0.00  0.00     0.038 C 
ATOM      4  C   LIG d   1     -14.507  68.081 114.347  0.00  0.00     0.028 C 
ATOM      5  C   LIG d   1     -15.240  67.513 115.558  0.00  0.00    -0.047 C 
ATOM      6  C   LIG d   1     -15.512  66.010 115.320  0.00  0.00     0.091 C 
ENDROOT
BRANCH   1   7
ATOM      7  O   LIG d   1     -16.137  64.403 113.579  0.00  0.00    -0.368 OA
BRANCH   7   8
ATOM      8  C   LIG d   1     -17.368  63.677 113.337  0.00  0.00     0.119 C 
BRANCH   8   9
ATOM      9  C   LIG d   1     -18.523  64.520 113.911  0.00  0.00     0.028 C 
ATOM     10  C   LIG d   1     -19.621  64.796 112.871  0.00  0.00     0.006 C 
ENDBRANCH   8   9
BRANCH   8  11
ATOM     11  C   LIG d   1     -17.400  62.359 114.116  0.00  0.00     0.028 C 
ATOM     12  C   LIG d   1     -18.448  61.373 113.575  0.00  0.00     0.006 C 
ENDBRANCH   8  11
ENDBRANCH   7   8
ENDBRANCH   1   7
BRANCH   6  13
ATOM     13  N   LIG d   1     -16.300  65.396 116.420  0.00  0.00    -0.311 N 
ATOM     14  C   LIG d   1     -15.966  64.249 117.009  0.00  0.00     0.210 C 
ATOM     15  C   LIG d   1     -16.926  63.783 118.108  0.00  0.00     0.109 C 
ATOM     16  O   LIG d   1     -14.948  63.590 116.748  0.00  0.00    -0.276 OA
ATOM     17  H   LIG d   1     -17.124  65.881 116.716  0.00  0.00     0.149 HD
ENDBRANCH   6  13
BRANCH   5  18
ATOM     18  N   LIG d   1     -14.403  67.769 116.745  0.00  0.00     0.381 N 
ATOM     19  H   LIG d   1     -14.536  68.710 117.057  0.00  0.00    -0.090 HD
ATOM     20  H   LIG d   1     -13.437  67.654 116.493  0.00  0.00    -0.090 HD
ATOM     21  H   LIG d   1     -14.641  67.132 117.474  0.00  0.00    -0.090 HD
ENDBRANCH   5  18
BRANCH   3  22
ATOM     22  C   LIG d   1     -14.999  68.695 112.084  0.00  0.00     0.382 C 
ATOM     23  O   LIG d   1     -13.906  69.286 111.907  0.00  0.00    -0.241 OA
ATOM     24  O   LIG d   1     -15.966  68.959 111.345  0.00  0.00    -0.241 OA
ENDBRANCH   3  22
TORSDOF 7
ENDMDL
MODEL 5
REMARK VINA RESULT:      -5.5      9.712     11.796
REMARK  7 active torsions:
REMARK  status: ('A' for Active; 'I' for Inactive)
REMARK    1  A    between atoms: C_2  and  C_3 
REMARK    2  A    between atoms: C_3  and  O_6 
REMARK    3  A    between atoms: C_3  and  C_4 
REMARK    4  A    between atoms: C_7  and  O_6 
REMARK    5  A    between atoms: C_9  and  C_10 
REMARK    6  A    between atoms: N_15  and  C_14 
REMARK    7  A    between atoms: N_20  and  C_19 
REMARK       I    between atoms: C_22  and  N_20 
ROOT
ATOM      1  C   LIG d   1       1.844  85.786 114.586  0.00  0.00     0.161 C 
ATOM      2  C   LIG d   1       2.545  86.753 113.846  0.00  0.00     0.016 C 
ATOM      3  C   LIG d   1       3.903  87.072 114.073  0.00  0.00     0.038 C 
ATOM      4  C   LIG d   1       4.700  86.334 114.961  0.00  0.00     0.028 C 
ATOM      5  C   LIG d   1       3.906  85.685 116.091  0.00  0.00    -0.047 C 
ATOM      6  C   LIG d   1       2.726  84.893 115.483  0.00  0.00     0.091 C 
ENDROOT
BRANCH   1   7
ATOM      7  O   LIG d   1       1.048  84.975 113.699  0.00  0.00    -0.368 OA
BRANCH   7   8
ATOM      8  C   LIG d   1       0.688  85.580 112.433  0.00  0.00     0.119 C 
BRANCH   8   9
ATOM      9  C   LIG d   1      -0.844  85.747 112.419  0.00  0.00     0.028 C 
ATOM     10  C   LIG d   1      -1.338  86.531 111.192  0.00  0.00     0.006 C 
ENDBRANCH   8   9
BRANCH   8  11
ATOM     11  C   LIG d   1       1.005  84.647 111.260  0.00  0.00     0.028 C 
ATOM     12  C   LIG d   1       2.385  84.916 110.641  0.00  0.00     0.006 C 
ENDBRANCH   8  11
ENDBRANCH   7   8
ENDBRANCH   1   7
BRANCH   6  13
ATOM     13  N   LIG d   1       1.849  84.296 116.524  0.00  0.00    -0.311 N 
ATOM     14  C   LIG d   1       2.029  83.073 117.021  0.00  0.00     0.210 C 
ATOM     15  C   LIG d   1       0.999  82.644 118.071  0.00  0.00     0.109 C 
ATOM     16  O   LIG d   1       2.962  82.316 116.715  0.00  0.00    -0.276 OA
ATOM     17  H   LIG d   1       1.085  84.854 116.852  0.00  0.00     0.149 HD
ENDBRANCH   6  13
BRANCH   5  18
ATOM     18  N   LIG d   1       4.837  84.837 116.859  0.00  0.00     0.381 N 
ATOM     19  H   LIG d   1       5.751  84.886 116.456  0.00  0.00    -0.090 HD
ATOM     20  H   LIG d   1       4.522  83.884 116.812  0.00  0.00    -0.090 HD
ATOM     21  H   LIG d   1       4.868  85.138 117.808  0.00  0.00    -0.090 HD
ENDBRANCH   5  18
BRANCH   3  22
ATOM     22  C   LIG d   1       4.468  88.167 113.436  0.00  0.00     0.382 C 
ATOM     23  O   LIG d   1       3.781  89.197 113.234  0.00  0.00    -0.241 OA
ATOM     24  O   LIG d   1       5.642  88.121 113.023  0.00  0.00    -0.241 OA
ENDBRANCH   3  22
TORSDOF 7
ENDMDL
MODEL 6
REMARK VINA RESULT:      -5.3      1.738      4.599
REMARK  7 active torsions:
REMARK  status: ('A' for Active; 'I' for Inactive)
REMARK    1  A    between atoms: C_2  and  C_3 
REMARK    2  A    between atoms: C_3  and  O_6 
REMARK    3  A    between atoms: C_3  and  C_4 
REMARK    4  A    between atoms: C_7  and  O_6 
REMARK    5  A    between atoms: C_9  and  C_10 
REMARK    6  A    between atoms: N_15  and  C_14 
REMARK    7  A    between atoms: N_20  and  C_19 
REMARK       I    between atoms: C_22  and  N_20 
ROOT
ATOM      1  C   LIG d   1      -3.211  76.079 116.056  0.00  0.00     0.161 C 
ATOM      2  C   LIG d   1      -2.594  75.189 116.951  0.00  0.00     0.016 C 
ATOM      3  C   LIG d   1      -1.330  75.427 117.538  0.00  0.00     0.038 C 
ATOM      4  C   LIG d   1      -0.661  76.650 117.386  0.00  0.00     0.028 C 
ATOM      5  C   LIG d   1      -1.009  77.374 116.089  0.00  0.00    -0.047 C 
ATOM      6  C   LIG d   1      -2.547  77.468 115.965  0.00  0.00     0.091 C 
ENDROOT
BRANCH   1   7
ATOM      7  O   LIG d   1      -4.608  76.212 116.385  0.00  0.00    -0.368 OA
BRANCH   7   8
ATOM      8  C   LIG d   1      -5.510  75.295 115.719  0.00  0.00     0.119 C 
BRANCH   8   9
ATOM      9  C   LIG d   1      -6.497  76.137 114.887  0.00  0.00     0.028 C 
ATOM     10  C   LIG d   1      -5.998  76.378 113.453  0.00  0.00     0.006 C 
ENDBRANCH   8   9
BRANCH   8  11
ATOM     11  C   LIG d   1      -6.377  74.534 116.728  0.00  0.00     0.028 C 
ATOM     12  C   LIG d   1      -7.056  73.298 116.117  0.00  0.00     0.006 C 
ENDBRANCH   8  11
ENDBRANCH   7   8
ENDBRANCH   1   7
BRANCH   6  13
ATOM     13  N   LIG d   1      -2.975  78.088 114.684  0.00  0.00    -0.311 N 
ATOM     14  C   LIG d   1      -2.549  77.676 113.491  0.00  0.00     0.210 C 
ATOM     15  C   LIG d   1      -3.098  78.466 112.300  0.00  0.00     0.109 C 
ATOM     16  O   LIG d   1      -1.793  76.710 113.306  0.00  0.00    -0.276 OA
ATOM     17  H   LIG d   1      -3.612  78.859 114.740  0.00  0.00     0.149 HD
ENDBRANCH   6  13
BRANCH   5  18
ATOM     18  N   LIG d   1      -0.350  78.693 116.125  0.00  0.00     0.381 N 
ATOM     19  H   LIG d   1      -0.747  79.251 116.853  0.00  0.00    -0.090 HD
ATOM     20  H   LIG d   1      -0.508  79.159 115.248  0.00  0.00    -0.090 HD
ATOM     21  H   LIG d   1       0.629  78.581 116.278  0.00  0.00    -0.090 HD
ENDBRANCH   5  18
BRANCH   3  22
ATOM     22  C   LIG d   1      -0.704  74.418 118.255  0.00  0.00     0.382 C 
ATOM     23  O   LIG d   1       0.429  74.615 118.755  0.00  0.00    -0.241 OA
ATOM     24  O   LIG d   1      -1.240  73.300 118.370  0.00  0.00    -0.241 OA
ENDBRANCH   3  22
TORSDOF 7
ENDMDL
MODEL 7
REMARK VINA RESULT:      -5.3     10.088     12.460
REMARK  7 active torsions:
REMARK  status: ('A' for Active; 'I' for Inactive)
REMARK    1  A    between atoms: C_2  and  C_3 
REMARK    2  A    between atoms: C_3  and  O_6 
REMARK    3  A    between atoms: C_3  and  C_4 
REMARK    4  A    between atoms: C_7  and  O_6 
REMARK    5  A    between atoms: C_9  and  C_10 
REMARK    6  A    between atoms: N_15  and  C_14 
REMARK    7  A    between atoms: N_20  and  C_19 
REMARK       I    between atoms: C_22  and  N_20 
ROOT
ATOM      1  C   LIG d   1       1.495  86.395 112.692  0.00  0.00     0.161 C 
ATOM      2  C   LIG d   1       1.116  86.965 113.919  0.00  0.00     0.016 C 
ATOM      3  C   LIG d   1       2.019  87.633 114.778  0.00  0.00     0.038 C 
ATOM      4  C   LIG d   1       3.340  87.909 114.396  0.00  0.00     0.028 C 
ATOM      5  C   LIG d   1       3.899  86.913 113.386  0.00  0.00    -0.047 C 
ATOM      6  C   LIG d   1       2.907  86.784 112.207  0.00  0.00     0.091 C 
ENDROOT
BRANCH   1   7
ATOM      7  O   LIG d   1       0.514  86.711 111.683  0.00  0.00    -0.368 OA
BRANCH   7   8
ATOM      8  C   LIG d   1      -0.116  85.581 111.032  0.00  0.00     0.119 C 
BRANCH   8   9
ATOM      9  C   LIG d   1      -1.385  86.100 110.329  0.00  0.00     0.028 C 
ATOM     10  C   LIG d   1      -2.060  87.243 111.106  0.00  0.00     0.006 C 
ENDBRANCH   8   9
BRANCH   8  11
ATOM     11  C   LIG d   1      -0.611  84.553 112.055  0.00  0.00     0.028 C 
ATOM     12  C   LIG d   1      -0.702  83.133 111.476  0.00  0.00     0.006 C 
ENDBRANCH   8  11
ENDBRANCH   7   8
ENDBRANCH   1   7
BRANCH   6  13
ATOM     13  N   LIG d   1       3.337  85.766 111.213  0.00  0.00    -0.311 N 
ATOM     14  C   LIG d   1       3.302  84.454 111.445  0.00  0.00     0.210 C 
ATOM     15  C   LIG d   1       3.809  83.580 110.294  0.00  0.00     0.109 C 
ATOM     16  O   LIG d   1       2.868  83.931 112.482  0.00  0.00    -0.276 OA
ATOM     17  H   LIG d   1       3.674  86.102 110.332  0.00  0.00     0.149 HD
ENDBRANCH   6  13
BRANCH   5  18
ATOM     18  N   LIG d   1       5.229  87.398 112.971  0.00  0.00     0.381 N 
ATOM     19  H   LIG d   1       5.148  87.930 112.128  0.00  0.00    -0.090 HD
ATOM     20  H   LIG d   1       5.821  86.606 112.789  0.00  0.00    -0.090 HD
ATOM     21  H   LIG d   1       5.626  87.960 113.691  0.00  0.00    -0.090 HD
ENDBRANCH   5  18
BRANCH   3  22
ATOM     22  C   LIG d   1       1.612  87.997 116.053  0.00  0.00     0.382 C 
ATOM     23  O   LIG d   1       1.243  87.117 116.868  0.00  0.00    -0.241 OA
ATOM     24  O   LIG d   1       1.568  89.197 116.384  0.00  0.00    -0.241 OA
ENDBRANCH   3  22
TORSDOF 7
ENDMDL
MODEL 8
REMARK VINA RESULT:      -5.2     11.941     13.488
REMARK  7 active torsions:
REMARK  status: ('A' for Active; 'I' for Inactive)
REMARK    1  A    between atoms: C_2  and  C_3 
REMARK    2  A    between atoms: C_3  and  O_6 
REMARK    3  A    between atoms: C_3  and  C_4 
REMARK    4  A    between atoms: C_7  and  O_6 
REMARK    5  A    between atoms: C_9  and  C_10 
REMARK    6  A    between atoms: N_15  and  C_14 
REMARK    7  A    between atoms: N_20  and  C_19 
REMARK       I    between atoms: C_22  and  N_20 
ROOT
ATOM      1  C   LIG d   1       3.430  85.976 113.779  0.00  0.00     0.161 C 
ATOM      2  C   LIG d   1       3.501  85.195 112.614  0.00  0.00     0.016 C 
ATOM      3  C   LIG d   1       2.856  85.540 111.404  0.00  0.00     0.038 C 
ATOM      4  C   LIG d   1       2.214  86.776 111.233  0.00  0.00     0.028 C 
ATOM      5  C   LIG d   1       1.687  87.370 112.535  0.00  0.00    -0.047 C 
ATOM      6  C   LIG d   1       2.827  87.382 113.579  0.00  0.00     0.091 C 
ENDROOT
BRANCH   1   7
ATOM      7  O   LIG d   1       4.734  86.072 114.384  0.00  0.00    -0.368 OA
BRANCH   7   8
ATOM      8  C   LIG d   1       4.915  85.350 115.628  0.00  0.00     0.119 C 
BRANCH   8   9
ATOM      9  C   LIG d   1       3.533  84.826 116.063  0.00  0.00     0.028 C 
ATOM     10  C   LIG d   1       3.108  85.366 117.439  0.00  0.00     0.006 C 
ENDBRANCH   8   9
BRANCH   8  11
ATOM     11  C   LIG d   1       5.367  86.285 116.753  0.00  0.00     0.028 C 
ATOM     12  C   LIG d   1       6.402  87.321 116.288  0.00  0.00     0.006 C 
ENDBRANCH   8  11
ENDBRANCH   7   8
ENDBRANCH   1   7
BRANCH   6  13
ATOM     13  N   LIG d   1       2.374  87.870 114.908  0.00  0.00    -0.311 N 
ATOM     14  C   LIG d   1       2.951  88.882 115.553  0.00  0.00     0.210 C 
ATOM     15  C   LIG d   1       2.340  89.211 116.919  0.00  0.00     0.109 C 
ATOM     16  O   LIG d   1       3.891  89.560 115.109  0.00  0.00    -0.276 OA
ATOM     17  H   LIG d   1       1.597  87.397 115.327  0.00  0.00     0.149 HD
ENDBRANCH   6  13
BRANCH   5  18
ATOM     18  N   LIG d   1       1.166  88.717 112.232  0.00  0.00     0.381 N 
ATOM     19  H   LIG d   1       0.497  88.985 112.926  0.00  0.00    -0.090 HD
ATOM     20  H   LIG d   1       0.704  88.693 111.340  0.00  0.00    -0.090 HD
ATOM     21  H   LIG d   1       1.914  89.374 112.209  0.00  0.00    -0.090 HD
ENDBRANCH   5  18
BRANCH   3  22
ATOM     22  C   LIG d   1       2.814  84.627 110.362  0.00  0.00     0.382 C 
ATOM     23  O   LIG d   1       1.730  84.396 109.773  0.00  0.00    -0.241 OA
ATOM     24  O   LIG d   1       3.837  83.997 110.033  0.00  0.00    -0.241 OA
ENDBRANCH   3  22
TORSDOF 7
ENDMDL
MODEL 9
REMARK VINA RESULT:      -5.2      1.745      2.152
REMARK  7 active torsions:
REMARK  status: ('A' for Active; 'I' for Inactive)
REMARK    1  A    between atoms: C_2  and  C_3 
REMARK    2  A    between atoms: C_3  and  O_6 
REMARK    3  A    between atoms: C_3  and  C_4 
REMARK    4  A    between atoms: C_7  and  O_6 
REMARK    5  A    between atoms: C_9  and  C_10 
REMARK    6  A    between atoms: N_15  and  C_14 
REMARK    7  A    between atoms: N_20  and  C_19 
REMARK       I    between atoms: C_22  and  N_20 
ROOT
ATOM      1  C   LIG d   1      -2.947  78.110 116.613  0.00  0.00     0.161 C 
ATOM      2  C   LIG d   1      -3.189  78.981 115.537  0.00  0.00     0.016 C 
ATOM      3  C   LIG d   1      -2.572  78.845 114.272  0.00  0.00     0.038 C 
ATOM      4  C   LIG d   1      -1.782  77.732 113.949  0.00  0.00     0.028 C 
ATOM      5  C   LIG d   1      -1.106  77.096 115.159  0.00  0.00    -0.047 C 
ATOM      6  C   LIG d   1      -2.173  76.827 116.245  0.00  0.00     0.091 C 
ENDROOT
BRANCH   1   7
ATOM      7  O   LIG d   1      -4.190  77.777 117.261  0.00  0.00    -0.368 OA
BRANCH   7   8
ATOM      8  C   LIG d   1      -5.379  77.851 116.436  0.00  0.00     0.119 C 
BRANCH   8   9
ATOM      9  C   LIG d   1      -6.495  78.485 117.288  0.00  0.00     0.028 C 
ATOM     10  C   LIG d   1      -6.251  79.979 117.558  0.00  0.00     0.006 C 
ENDBRANCH   8   9
BRANCH   8  11
ATOM     11  C   LIG d   1      -5.891  76.454 116.071  0.00  0.00     0.028 C 
ATOM     12  C   LIG d   1      -5.664  76.105 114.591  0.00  0.00     0.006 C 
ENDBRANCH   8  11
ENDBRANCH   7   8
ENDBRANCH   1   7
BRANCH   6  13
ATOM     13  N   LIG d   1      -1.584  76.282 117.496  0.00  0.00    -0.311 N 
ATOM     14  C   LIG d   1      -1.471  74.979 117.746  0.00  0.00     0.210 C 
ATOM     15  C   LIG d   1      -0.853  74.633 119.105  0.00  0.00     0.109 C 
ATOM     16  O   LIG d   1      -1.795  74.077 116.960  0.00  0.00    -0.276 OA
ATOM     17  H   LIG d   1      -1.266  76.944 118.176  0.00  0.00     0.149 HD
ENDBRANCH   6  13
BRANCH   5  18
ATOM     18  N   LIG d   1      -0.428  75.870 114.698  0.00  0.00     0.381 N 
ATOM     19  H   LIG d   1       0.512  76.082 114.432  0.00  0.00    -0.090 HD
ATOM     20  H   LIG d   1      -0.911  75.515 113.891  0.00  0.00    -0.090 HD
ATOM     21  H   LIG d   1      -0.430  75.186 115.423  0.00  0.00    -0.090 HD
ENDBRANCH   5  18
BRANCH   3  22
ATOM     22  C   LIG d   1      -2.712  79.850 113.328  0.00  0.00     0.382 C 
ATOM     23  O   LIG d   1      -3.391  80.871 113.595  0.00  0.00    -0.241 OA
ATOM     24  O   LIG d   1      -2.206  79.729 112.196  0.00  0.00    -0.241 OA
ENDBRANCH   3  22
TORSDOF 7
ENDMDL
