MODEL 1
REMARK VINA RESULT:      -5.4      0.000      0.000
REMARK  7 active torsions:
REMARK  status: ('A' for Active; 'I' for Inactive)
REMARK    1  A    between atoms: C_2  and  C_3 
REMARK    2  A    between atoms: C_3  and  O_6 
REMARK    3  A    between atoms: C_3  and  C_4 
REMARK    4  A    between atoms: C_7  and  O_6 
REMARK    5  A    between atoms: C_9  and  C_10 
REMARK    6  A    between atoms: N_15  and  C_14 
REMARK    7  A    between atoms: N_20  and  C_19 
REMARK       I    between atoms: C_22  and  N_20 
ROOT
ATOM      1  C   LIG d   1      -7.630  74.385 118.617  0.00  0.00     0.161 C 
ATOM      2  C   LIG d   1      -7.805  73.043 118.239  0.00  0.00     0.016 C 
ATOM      3  C   LIG d   1      -8.929  72.577 117.519  0.00  0.00     0.038 C 
ATOM      4  C   LIG d   1      -9.889  73.455 116.994  0.00  0.00     0.028 C 
ATOM      5  C   LIG d   1     -10.017  74.754 117.782  0.00  0.00    -0.047 C 
ATOM      6  C   LIG d   1      -8.612  75.375 117.957  0.00  0.00     0.091 C 
ENDROOT
BRANCH   1   7
ATOM      7  O   LIG d   1      -6.269  74.789 118.371  0.00  0.00    -0.368 OA
BRANCH   7   8
ATOM      8  C   LIG d   1      -5.617  74.172 117.233  0.00  0.00     0.119 C 
BRANCH   8   9
ATOM      9  C   LIG d   1      -4.125  74.012 117.586  0.00  0.00     0.028 C 
ATOM     10  C   LIG d   1      -3.672  74.992 118.680  0.00  0.00     0.006 C 
ENDBRANCH   8   9
BRANCH   8  11
ATOM     11  C   LIG d   1      -5.648  75.090 116.008  0.00  0.00     0.028 C 
ATOM     12  C   LIG d   1      -5.311  74.353 114.702  0.00  0.00     0.006 C 
ENDBRANCH   8  11
ENDBRANCH   7   8
ENDBRANCH   1   7
BRANCH   6  13
ATOM     13  N   LIG d   1      -8.636  76.607 118.789  0.00  0.00    -0.311 N 
ATOM     14  C   LIG d   1      -7.981  77.721 118.469  0.00  0.00     0.210 C 
ATOM     15  C   LIG d   1      -8.124  78.867 119.476  0.00  0.00     0.109 C 
ATOM     16  O   LIG d   1      -7.320  77.880 117.432  0.00  0.00    -0.276 OA
ATOM     17  H   LIG d   1      -9.173  76.576 119.634  0.00  0.00     0.149 HD
ENDBRANCH   6  13
BRANCH   5  18
ATOM     18  N   LIG d   1     -10.949  75.631 117.048  0.00  0.00     0.381 N 
ATOM     19  H   LIG d   1     -11.830  75.660 117.521  0.00  0.00    -0.090 HD
ATOM     20  H   LIG d   1     -11.096  75.251 116.129  0.00  0.00    -0.090 HD
ATOM     21  H   LIG d   1     -10.570  76.550 116.979  0.00  0.00    -0.090 HD
ENDBRANCH   5  18
BRANCH   3  22
ATOM     22  C   LIG d   1      -9.122  71.214 117.353  0.00  0.00     0.382 C 
ATOM     23  O   LIG d   1      -8.592  70.620 116.383  0.00  0.00    -0.241 OA
ATOM     24  O   LIG d   1      -9.854  70.580 118.135  0.00  0.00    -0.241 OA
ENDBRANCH   3  22
TORSDOF 7
ENDMDL
MODEL 2
REMARK VINA RESULT:      -5.0      2.570      5.231
REMARK  7 active torsions:
REMARK  status: ('A' for Active; 'I' for Inactive)
REMARK    1  A    between atoms: C_2  and  C_3 
REMARK    2  A    between atoms: C_3  and  O_6 
REMARK    3  A    between atoms: C_3  and  C_4 
REMARK    4  A    between atoms: C_7  and  O_6 
REMARK    5  A    between atoms: C_9  and  C_10 
REMARK    6  A    between atoms: N_15  and  C_14 
REMARK    7  A    between atoms: N_20  and  C_19 
REMARK       I    between atoms: C_22  and  N_20 
ROOT
ATOM      1  C   LIG d   1      -6.234  74.722 116.957  0.00  0.00     0.161 C 
ATOM      2  C   LIG d   1      -5.878  74.984 115.624  0.00  0.00     0.016 C 
ATOM      3  C   LIG d   1      -4.872  75.906 115.254  0.00  0.00     0.038 C 
ATOM      4  C   LIG d   1      -4.045  76.522 116.205  0.00  0.00     0.028 C 
ATOM      5  C   LIG d   1      -4.701  76.671 117.573  0.00  0.00    -0.047 C 
ATOM      6  C   LIG d   1      -5.267  75.301 118.011  0.00  0.00     0.091 C 
ENDROOT
BRANCH   1   7
ATOM      7  O   LIG d   1      -6.394  73.302 117.151  0.00  0.00    -0.368 OA
BRANCH   7   8
ATOM      8  C   LIG d   1      -7.686  72.752 116.795  0.00  0.00     0.119 C 
BRANCH   8   9
ATOM      9  C   LIG d   1      -8.667  73.103 117.931  0.00  0.00     0.028 C 
ATOM     10  C   LIG d   1      -9.785  74.053 117.468  0.00  0.00     0.006 C 
ENDBRANCH   8   9
BRANCH   8  11
ATOM     11  C   LIG d   1      -7.647  71.222 116.752  0.00  0.00     0.028 C 
ATOM     12  C   LIG d   1      -9.021  70.583 117.010  0.00  0.00     0.006 C 
ENDBRANCH   8  11
ENDBRANCH   7   8
ENDBRANCH   1   7
BRANCH   6  13
ATOM     13  N   LIG d   1      -6.000  75.377 119.301  0.00  0.00    -0.311 N 
ATOM     14  C   LIG d   1      -7.106  76.097 119.475  0.00  0.00     0.210 C 
ATOM     15  C   LIG d   1      -7.692  76.052 120.889  0.00  0.00     0.109 C 
ATOM     16  O   LIG d   1      -7.677  76.743 118.583  0.00  0.00    -0.276 OA
ATOM     17  H   LIG d   1      -5.624  74.858 120.071  0.00  0.00     0.149 HD
ENDBRANCH   6  13
BRANCH   5  18
ATOM     18  N   LIG d   1      -3.683  77.200 118.500  0.00  0.00     0.381 N 
ATOM     19  H   LIG d   1      -4.055  77.981 119.003  0.00  0.00    -0.090 HD
ATOM     20  H   LIG d   1      -2.891  77.516 117.968  0.00  0.00    -0.090 HD
ATOM     21  H   LIG d   1      -3.401  76.489 119.139  0.00  0.00    -0.090 HD
ENDBRANCH   5  18
BRANCH   3  22
ATOM     22  C   LIG d   1      -4.713  76.251 113.920  0.00  0.00     0.382 C 
ATOM     23  O   LIG d   1      -3.647  76.789 113.535  0.00  0.00    -0.241 OA
ATOM     24  O   LIG d   1      -5.639  76.072 113.107  0.00  0.00    -0.241 OA
ENDBRANCH   3  22
TORSDOF 7
ENDMDL
MODEL 3
REMARK VINA RESULT:      -4.8      2.297      4.314
REMARK  7 active torsions:
REMARK  status: ('A' for Active; 'I' for Inactive)
REMARK    1  A    between atoms: C_2  and  C_3 
REMARK    2  A    between atoms: C_3  and  O_6 
REMARK    3  A    between atoms: C_3  and  C_4 
REMARK    4  A    between atoms: C_7  and  O_6 
REMARK    5  A    between atoms: C_9  and  C_10 
REMARK    6  A    between atoms: N_15  and  C_14 
REMARK    7  A    between atoms: N_20  and  C_19 
REMARK       I    between atoms: C_22  and  N_20 
ROOT
ATOM      1  C   LIG d   1      -8.230  75.412 117.828  0.00  0.00     0.161 C 
ATOM      2  C   LIG d   1      -8.857  74.157 117.763  0.00  0.00     0.016 C 
ATOM      3  C   LIG d   1      -8.210  72.988 117.300  0.00  0.00     0.038 C 
ATOM      4  C   LIG d   1      -6.838  72.965 117.009  0.00  0.00     0.028 C 
ATOM      5  C   LIG d   1      -6.287  74.320 116.579  0.00  0.00    -0.047 C 
ATOM      6  C   LIG d   1      -6.701  75.384 117.620  0.00  0.00     0.091 C 
ENDROOT
BRANCH   1   7
ATOM      7  O   LIG d   1      -8.555  76.057 119.076  0.00  0.00    -0.368 OA
BRANCH   7   8
ATOM      8  C   LIG d   1      -9.730  76.903 119.069  0.00  0.00     0.119 C 
BRANCH   8   9
ATOM      9  C   LIG d   1      -9.613  77.849 117.858  0.00  0.00     0.028 C 
ATOM     10  C   LIG d   1      -8.818  79.125 118.185  0.00  0.00     0.006 C 
ENDBRANCH   8   9
BRANCH   8  11
ATOM     11  C   LIG d   1      -9.765  77.818 120.297  0.00  0.00     0.028 C 
ATOM     12  C   LIG d   1     -11.174  77.963 120.893  0.00  0.00     0.006 C 
ENDBRANCH   8  11
ENDBRANCH   7   8
ENDBRANCH   1   7
BRANCH   6  13
ATOM     13  N   LIG d   1      -6.275  76.754 117.232  0.00  0.00    -0.311 N 
ATOM     14  C   LIG d   1      -5.145  77.318 117.656  0.00  0.00     0.210 C 
ATOM     15  C   LIG d   1      -4.906  78.744 117.152  0.00  0.00     0.109 C 
ATOM     16  O   LIG d   1      -4.303  76.760 118.376  0.00  0.00    -0.276 OA
ATOM     17  H   LIG d   1      -6.884  77.266 116.624  0.00  0.00     0.149 HD
ENDBRANCH   6  13
BRANCH   5  18
ATOM     18  N   LIG d   1      -4.825  74.184 116.441  0.00  0.00     0.381 N 
ATOM     19  H   LIG d   1      -4.572  73.216 116.455  0.00  0.00    -0.090 HD
ATOM     20  H   LIG d   1      -4.382  74.636 117.221  0.00  0.00    -0.090 HD
ATOM     21  H   LIG d   1      -4.522  74.602 115.589  0.00  0.00    -0.090 HD
ENDBRANCH   5  18
BRANCH   3  22
ATOM     22  C   LIG d   1      -8.948  71.834 117.085  0.00  0.00     0.382 C 
ATOM     23  O   LIG d   1      -8.769  71.160 116.041  0.00  0.00    -0.241 OA
ATOM     24  O   LIG d   1      -9.822  71.482 117.899  0.00  0.00    -0.241 OA
ENDBRANCH   3  22
TORSDOF 7
ENDMDL
MODEL 4
REMARK VINA RESULT:      -4.7      4.588      7.798
REMARK  7 active torsions:
REMARK  status: ('A' for Active; 'I' for Inactive)
REMARK    1  A    between atoms: C_2  and  C_3 
REMARK    2  A    between atoms: C_3  and  O_6 
REMARK    3  A    between atoms: C_3  and  C_4 
REMARK    4  A    between atoms: C_7  and  O_6 
REMARK    5  A    between atoms: C_9  and  C_10 
REMARK    6  A    between atoms: N_15  and  C_14 
REMARK    7  A    between atoms: N_20  and  C_19 
REMARK       I    between atoms: C_22  and  N_20 
ROOT
ATOM      1  C   LIG d   1      -2.900  75.503 116.505  0.00  0.00     0.161 C 
ATOM      2  C   LIG d   1      -3.245  76.309 115.407  0.00  0.00     0.016 C 
ATOM      3  C   LIG d   1      -2.291  76.938 114.574  0.00  0.00     0.038 C 
ATOM      4  C   LIG d   1      -0.918  76.678 114.692  0.00  0.00     0.028 C 
ATOM      5  C   LIG d   1      -0.497  76.271 116.101  0.00  0.00    -0.047 C 
ATOM      6  C   LIG d   1      -1.408  75.119 116.583  0.00  0.00     0.091 C 
ENDROOT
BRANCH   1   7
ATOM      7  O   LIG d   1      -3.724  74.320 116.520  0.00  0.00    -0.368 OA
BRANCH   7   8
ATOM      8  C   LIG d   1      -4.516  74.110 117.714  0.00  0.00     0.119 C 
BRANCH   8   9
ATOM      9  C   LIG d   1      -5.946  73.754 117.264  0.00  0.00     0.028 C 
ATOM     10  C   LIG d   1      -6.134  73.889 115.744  0.00  0.00     0.006 C 
ENDBRANCH   8   9
BRANCH   8  11
ATOM     11  C   LIG d   1      -4.656  75.402 118.525  0.00  0.00     0.028 C 
ATOM     12  C   LIG d   1      -6.062  75.583 119.120  0.00  0.00     0.006 C 
ENDBRANCH   8  11
ENDBRANCH   7   8
ENDBRANCH   1   7
BRANCH   6  13
ATOM     13  N   LIG d   1      -1.119  74.716 117.984  0.00  0.00    -0.311 N 
ATOM     14  C   LIG d   1      -0.737  73.488 118.330  0.00  0.00     0.210 C 
ATOM     15  C   LIG d   1      -0.511  73.280 119.831  0.00  0.00     0.109 C 
ATOM     16  O   LIG d   1      -0.533  72.560 117.533  0.00  0.00    -0.276 OA
ATOM     17  H   LIG d   1      -1.229  75.416 118.691  0.00  0.00     0.149 HD
ENDBRANCH   6  13
BRANCH   5  18
ATOM     18  N   LIG d   1       0.929  75.898 116.050  0.00  0.00     0.381 N 
ATOM     19  H   LIG d   1       1.021  74.950 115.744  0.00  0.00    -0.090 HD
ATOM     20  H   LIG d   1       1.317  75.970 116.974  0.00  0.00    -0.090 HD
ATOM     21  H   LIG d   1       1.418  76.504 115.428  0.00  0.00    -0.090 HD
ENDBRANCH   5  18
BRANCH   3  22
ATOM     22  C   LIG d   1      -2.707  77.868 113.634  0.00  0.00     0.382 C 
ATOM     23  O   LIG d   1      -3.211  77.484 112.551  0.00  0.00    -0.241 OA
ATOM     24  O   LIG d   1      -2.545  79.087 113.837  0.00  0.00    -0.241 OA
ENDBRANCH   3  22
TORSDOF 7
ENDMDL
MODEL 5
REMARK VINA RESULT:      -4.7      3.360      4.502
REMARK  7 active torsions:
REMARK  status: ('A' for Active; 'I' for Inactive)
REMARK    1  A    between atoms: C_2  and  C_3 
REMARK    2  A    between atoms: C_3  and  O_6 
REMARK    3  A    between atoms: C_3  and  C_4 
REMARK    4  A    between atoms: C_7  and  O_6 
REMARK    5  A    between atoms: C_9  and  C_10 
REMARK    6  A    between atoms: N_15  and  C_14 
REMARK    7  A    between atoms: N_20  and  C_19 
REMARK       I    between atoms: C_22  and  N_20 
ROOT
ATOM      1  C   LIG d   1      -4.436  75.373 117.474  0.00  0.00     0.161 C 
ATOM      2  C   LIG d   1      -5.283  74.274 117.697  0.00  0.00     0.016 C 
ATOM      3  C   LIG d   1      -6.073  73.684 116.684  0.00  0.00     0.038 C 
ATOM      4  C   LIG d   1      -5.955  74.059 115.338  0.00  0.00     0.028 C 
ATOM      5  C   LIG d   1      -5.488  75.498 115.149  0.00  0.00    -0.047 C 
ATOM      6  C   LIG d   1      -4.210  75.725 115.989  0.00  0.00     0.091 C 
ENDROOT
BRANCH   1   7
ATOM      7  O   LIG d   1      -3.173  75.159 118.135  0.00  0.00    -0.368 OA
BRANCH   7   8
ATOM      8  C   LIG d   1      -2.425  73.991 117.717  0.00  0.00     0.119 C 
BRANCH   8   9
ATOM      9  C   LIG d   1      -2.044  73.205 118.987  0.00  0.00     0.028 C 
ATOM     10  C   LIG d   1      -2.008  74.096 120.240  0.00  0.00     0.006 C 
ENDBRANCH   8   9
BRANCH   8  11
ATOM     11  C   LIG d   1      -1.093  74.385 117.070  0.00  0.00     0.028 C 
ATOM     12  C   LIG d   1      -0.433  73.224 116.311  0.00  0.00     0.006 C 
ENDBRANCH   8  11
ENDBRANCH   7   8
ENDBRANCH   1   7
BRANCH   6  13
ATOM     13  N   LIG d   1      -3.734  77.131 115.927  0.00  0.00    -0.311 N 
ATOM     14  C   LIG d   1      -2.816  77.557 115.061  0.00  0.00     0.210 C 
ATOM     15  C   LIG d   1      -2.454  79.041 115.180  0.00  0.00     0.109 C 
ATOM     16  O   LIG d   1      -2.292  76.855 114.183  0.00  0.00    -0.276 OA
ATOM     17  H   LIG d   1      -4.130  77.776 116.583  0.00  0.00     0.149 HD
ENDBRANCH   6  13
BRANCH   5  18
ATOM     18  N   LIG d   1      -5.276  75.712 113.705  0.00  0.00     0.381 N 
ATOM     19  H   LIG d   1      -5.379  74.845 113.215  0.00  0.00    -0.090 HD
ATOM     20  H   LIG d   1      -4.340  76.046 113.559  0.00  0.00    -0.090 HD
ATOM     21  H   LIG d   1      -5.932  76.377 113.359  0.00  0.00    -0.090 HD
ENDBRANCH   5  18
BRANCH   3  22
ATOM     22  C   LIG d   1      -7.024  72.732 117.022  0.00  0.00     0.382 C 
ATOM     23  O   LIG d   1      -7.322  71.827 116.206  0.00  0.00    -0.241 OA
ATOM     24  O   LIG d   1      -7.619  72.794 118.115  0.00  0.00    -0.241 OA
ENDBRANCH   3  22
TORSDOF 7
ENDMDL
MODEL 6
REMARK VINA RESULT:      -4.6     10.264     12.593
REMARK  7 active torsions:
REMARK  status: ('A' for Active; 'I' for Inactive)
REMARK    1  A    between atoms: C_2  and  C_3 
REMARK    2  A    between atoms: C_3  and  O_6 
REMARK    3  A    between atoms: C_3  and  C_4 
REMARK    4  A    between atoms: C_7  and  O_6 
REMARK    5  A    between atoms: C_9  and  C_10 
REMARK    6  A    between atoms: N_15  and  C_14 
REMARK    7  A    between atoms: N_20  and  C_19 
REMARK       I    between atoms: C_22  and  N_20 
ROOT
ATOM      1  C   LIG d   1     -15.501  64.538 117.578  0.00  0.00     0.161 C 
ATOM      2  C   LIG d   1     -15.860  63.720 116.494  0.00  0.00     0.016 C 
ATOM      3  C   LIG d   1     -16.386  64.222 115.282  0.00  0.00     0.038 C 
ATOM      4  C   LIG d   1     -16.448  65.597 115.013  0.00  0.00     0.028 C 
ATOM      5  C   LIG d   1     -16.568  66.455 116.268  0.00  0.00    -0.047 C 
ATOM      6  C   LIG d   1     -15.457  66.048 117.263  0.00  0.00     0.091 C 
ENDROOT
BRANCH   1   7
ATOM      7  O   LIG d   1     -14.239  64.102 118.122  0.00  0.00    -0.368 OA
BRANCH   7   8
ATOM      8  C   LIG d   1     -14.303  63.343 119.354  0.00  0.00     0.119 C 
BRANCH   8   9
ATOM      9  C   LIG d   1     -13.833  64.269 120.493  0.00  0.00     0.028 C 
ATOM     10  C   LIG d   1     -14.958  64.587 121.493  0.00  0.00     0.006 C 
ENDBRANCH   8   9
BRANCH   8  11
ATOM     11  C   LIG d   1     -13.310  62.178 119.343  0.00  0.00     0.028 C 
ATOM     12  C   LIG d   1     -12.181  62.347 120.371  0.00  0.00     0.006 C 
ENDBRANCH   8  11
ENDBRANCH   7   8
ENDBRANCH   1   7
BRANCH   6  13
ATOM     13  N   LIG d   1     -15.554  66.780 118.552  0.00  0.00    -0.311 N 
ATOM     14  C   LIG d   1     -14.559  67.504 119.061  0.00  0.00     0.210 C 
ATOM     15  C   LIG d   1     -14.862  68.161 120.411  0.00  0.00     0.109 C 
ATOM     16  O   LIG d   1     -13.465  67.692 118.506  0.00  0.00    -0.276 OA
ATOM     17  H   LIG d   1     -16.418  66.708 119.054  0.00  0.00     0.149 HD
ENDBRANCH   6  13
BRANCH   5  18
ATOM     18  N   LIG d   1     -16.483  67.867 115.853  0.00  0.00     0.381 N 
ATOM     19  H   LIG d   1     -16.370  68.451 116.658  0.00  0.00    -0.090 HD
ATOM     20  H   LIG d   1     -17.341  68.124 115.396  0.00  0.00    -0.090 HD
ATOM     21  H   LIG d   1     -15.716  67.994 115.230  0.00  0.00    -0.090 HD
ENDBRANCH   5  18
BRANCH   3  22
ATOM     22  C   LIG d   1     -16.895  63.343 114.337  0.00  0.00     0.382 C 
ATOM     23  O   LIG d   1     -17.566  62.348 114.704  0.00  0.00    -0.241 OA
ATOM     24  O   LIG d   1     -16.654  63.507 113.127  0.00  0.00    -0.241 OA
ENDBRANCH   3  22
TORSDOF 7
ENDMDL
MODEL 7
REMARK VINA RESULT:      -4.6      9.885     12.196
REMARK  7 active torsions:
REMARK  status: ('A' for Active; 'I' for Inactive)
REMARK    1  A    between atoms: C_2  and  C_3 
REMARK    2  A    between atoms: C_3  and  O_6 
REMARK    3  A    between atoms: C_3  and  C_4 
REMARK    4  A    between atoms: C_7  and  O_6 
REMARK    5  A    between atoms: C_9  and  C_10 
REMARK    6  A    between atoms: N_15  and  C_14 
REMARK    7  A    between atoms: N_20  and  C_19 
REMARK       I    between atoms: C_22  and  N_20 
ROOT
ATOM      1  C   LIG d   1     -14.199  66.207 117.904  0.00  0.00     0.161 C 
ATOM      2  C   LIG d   1     -14.869  66.221 116.669  0.00  0.00     0.016 C 
ATOM      3  C   LIG d   1     -15.784  65.220 116.269  0.00  0.00     0.038 C 
ATOM      4  C   LIG d   1     -16.209  64.210 117.145  0.00  0.00     0.028 C 
ATOM      5  C   LIG d   1     -15.182  63.869 118.220  0.00  0.00    -0.047 C 
ATOM      6  C   LIG d   1     -14.734  65.174 118.918  0.00  0.00     0.091 C 
ENDROOT
BRANCH   1   7
ATOM      7  O   LIG d   1     -14.212  67.528 118.481  0.00  0.00    -0.368 OA
BRANCH   7   8
ATOM      8  C   LIG d   1     -15.363  67.856 119.297  0.00  0.00     0.119 C 
BRANCH   8   9
ATOM      9  C   LIG d   1     -16.146  68.966 118.570  0.00  0.00     0.028 C 
ATOM     10  C   LIG d   1     -17.056  69.762 119.520  0.00  0.00     0.006 C 
ENDBRANCH   8   9
BRANCH   8  11
ATOM     11  C   LIG d   1     -14.940  68.469 120.636  0.00  0.00     0.028 C 
ATOM     12  C   LIG d   1     -13.418  68.445 120.848  0.00  0.00     0.006 C 
ENDBRANCH   8  11
ENDBRANCH   7   8
ENDBRANCH   1   7
BRANCH   6  13
ATOM     13  N   LIG d   1     -13.667  64.940 119.926  0.00  0.00    -0.311 N 
ATOM     14  C   LIG d   1     -13.909  64.784 121.226  0.00  0.00     0.210 C 
ATOM     15  C   LIG d   1     -12.665  64.574 122.095  0.00  0.00     0.109 C 
ATOM     16  O   LIG d   1     -15.038  64.768 121.739  0.00  0.00    -0.276 OA
ATOM     17  H   LIG d   1     -12.724  64.907 119.593  0.00  0.00     0.149 HD
ENDBRANCH   6  13
BRANCH   5  18
ATOM     18  N   LIG d   1     -15.807  62.905 119.144  0.00  0.00     0.381 N 
ATOM     19  H   LIG d   1     -15.471  63.059 120.073  0.00  0.00    -0.090 HD
ATOM     20  H   LIG d   1     -15.549  61.974 118.866  0.00  0.00    -0.090 HD
ATOM     21  H   LIG d   1     -16.798  63.003 119.121  0.00  0.00    -0.090 HD
ENDBRANCH   5  18
BRANCH   3  22
ATOM     22  C   LIG d   1     -16.254  65.200 114.964  0.00  0.00     0.382 C 
ATOM     23  O   LIG d   1     -17.486  65.274 114.741  0.00  0.00    -0.241 OA
ATOM     24  O   LIG d   1     -15.464  65.065 114.011  0.00  0.00    -0.241 OA
ENDBRANCH   3  22
TORSDOF 7
ENDMDL
MODEL 8
REMARK VINA RESULT:      -4.5      2.685      4.291
REMARK  7 active torsions:
REMARK  status: ('A' for Active; 'I' for Inactive)
REMARK    1  A    between atoms: C_2  and  C_3 
REMARK    2  A    between atoms: C_3  and  O_6 
REMARK    3  A    between atoms: C_3  and  C_4 
REMARK    4  A    between atoms: C_7  and  O_6 
REMARK    5  A    between atoms: C_9  and  C_10 
REMARK    6  A    between atoms: N_15  and  C_14 
REMARK    7  A    between atoms: N_20  and  C_19 
REMARK       I    between atoms: C_22  and  N_20 
ROOT
ATOM      1  C   LIG d   1      -7.274  76.136 117.954  0.00  0.00     0.161 C 
ATOM      2  C   LIG d   1      -8.667  76.075 118.121  0.00  0.00     0.016 C 
ATOM      3  C   LIG d   1      -9.489  77.221 118.222  0.00  0.00     0.038 C 
ATOM      4  C   LIG d   1      -8.988  78.514 118.010  0.00  0.00     0.028 C 
ATOM      5  C   LIG d   1      -7.506  78.651 118.341  0.00  0.00    -0.047 C 
ATOM      6  C   LIG d   1      -6.724  77.536 117.610  0.00  0.00     0.091 C 
ENDROOT
BRANCH   1   7
ATOM      7  O   LIG d   1      -6.858  75.177 116.962  0.00  0.00    -0.368 OA
BRANCH   7   8
ATOM      8  C   LIG d   1      -6.177  73.999 117.460  0.00  0.00     0.119 C 
BRANCH   8   9
ATOM      9  C   LIG d   1      -4.748  74.011 116.882  0.00  0.00     0.028 C 
ATOM     10  C   LIG d   1      -3.680  74.245 117.963  0.00  0.00     0.006 C 
ENDBRANCH   8   9
BRANCH   8  11
ATOM     11  C   LIG d   1      -6.819  72.716 116.926  0.00  0.00     0.028 C 
ATOM     12  C   LIG d   1      -7.995  72.234 117.790  0.00  0.00     0.006 C 
ENDBRANCH   8  11
ENDBRANCH   7   8
ENDBRANCH   1   7
BRANCH   6  13
ATOM     13  N   LIG d   1      -5.276  77.546 117.946  0.00  0.00    -0.311 N 
ATOM     14  C   LIG d   1      -4.361  78.195 117.228  0.00  0.00     0.210 C 
ATOM     15  C   LIG d   1      -2.923  78.058 117.737  0.00  0.00     0.109 C 
ATOM     16  O   LIG d   1      -4.608  78.898 116.236  0.00  0.00    -0.276 OA
ATOM     17  H   LIG d   1      -4.992  77.027 118.754  0.00  0.00     0.149 HD
ENDBRANCH   6  13
BRANCH   5  18
ATOM     18  N   LIG d   1      -7.084  80.008 117.945  0.00  0.00     0.381 N 
ATOM     19  H   LIG d   1      -7.255  80.648 118.695  0.00  0.00    -0.090 HD
ATOM     20  H   LIG d   1      -7.628  80.299 117.152  0.00  0.00    -0.090 HD
ATOM     21  H   LIG d   1      -6.116  80.010 117.712  0.00  0.00    -0.090 HD
ENDBRANCH   5  18
BRANCH   3  22
ATOM     22  C   LIG d   1     -10.822  77.081 118.577  0.00  0.00     0.382 C 
ATOM     23  O   LIG d   1     -11.655  76.662 117.737  0.00  0.00    -0.241 OA
ATOM     24  O   LIG d   1     -11.211  77.411 119.714  0.00  0.00    -0.241 OA
ENDBRANCH   3  22
TORSDOF 7
ENDMDL
MODEL 9
REMARK VINA RESULT:      -4.4      2.788      5.848
REMARK  7 active torsions:
REMARK  status: ('A' for Active; 'I' for Inactive)
REMARK    1  A    between atoms: C_2  and  C_3 
REMARK    2  A    between atoms: C_3  and  O_6 
REMARK    3  A    between atoms: C_3  and  C_4 
REMARK    4  A    between atoms: C_7  and  O_6 
REMARK    5  A    between atoms: C_9  and  C_10 
REMARK    6  A    between atoms: N_15  and  C_14 
REMARK    7  A    between atoms: N_20  and  C_19 
REMARK       I    between atoms: C_22  and  N_20 
ROOT
ATOM      1  C   LIG d   1      -4.343  74.786 116.485  0.00  0.00     0.161 C 
ATOM      2  C   LIG d   1      -3.783  76.072 116.563  0.00  0.00     0.016 C 
ATOM      3  C   LIG d   1      -4.540  77.236 116.829  0.00  0.00     0.038 C 
ATOM      4  C   LIG d   1      -5.895  77.173 117.187  0.00  0.00     0.028 C 
ATOM      5  C   LIG d   1      -6.613  75.950 116.628  0.00  0.00    -0.047 C 
ATOM      6  C   LIG d   1      -5.800  74.684 116.983  0.00  0.00     0.091 C 
ENDROOT
BRANCH   1   7
ATOM      7  O   LIG d   1      -3.507  73.845 117.188  0.00  0.00    -0.368 OA
BRANCH   7   8
ATOM      8  C   LIG d   1      -2.366  74.403 117.884  0.00  0.00     0.119 C 
BRANCH   8   9
ATOM      9  C   LIG d   1      -1.107  73.684 117.362  0.00  0.00     0.028 C 
ATOM     10  C   LIG d   1      -0.071  74.661 116.781  0.00  0.00     0.006 C 
ENDBRANCH   8   9
BRANCH   8  11
ATOM     11  C   LIG d   1      -2.419  74.090 119.383  0.00  0.00     0.028 C 
ATOM     12  C   LIG d   1      -1.678  72.794 119.747  0.00  0.00     0.006 C 
ENDBRANCH   8  11
ENDBRANCH   7   8
ENDBRANCH   1   7
BRANCH   6  13
ATOM     13  N   LIG d   1      -6.389  73.450 116.401  0.00  0.00    -0.311 N 
ATOM     14  C   LIG d   1      -7.244  72.666 117.056  0.00  0.00     0.210 C 
ATOM     15  C   LIG d   1      -7.715  71.432 116.280  0.00  0.00     0.109 C 
ATOM     16  O   LIG d   1      -7.681  72.892 118.194  0.00  0.00    -0.276 OA
ATOM     17  H   LIG d   1      -6.113  73.208 115.470  0.00  0.00     0.149 HD
ENDBRANCH   6  13
BRANCH   5  18
ATOM     18  N   LIG d   1      -7.977  75.938 117.190  0.00  0.00     0.381 N 
ATOM     19  H   LIG d   1      -8.485  75.155 116.830  0.00  0.00    -0.090 HD
ATOM     20  H   LIG d   1      -8.451  76.778 116.910  0.00  0.00    -0.090 HD
ATOM     21  H   LIG d   1      -7.935  75.887 118.184  0.00  0.00    -0.090 HD
ENDBRANCH   5  18
BRANCH   3  22
ATOM     22  C   LIG d   1      -3.950  78.484 116.698  0.00  0.00     0.382 C 
ATOM     23  O   LIG d   1      -3.407  78.810 115.615  0.00  0.00    -0.241 OA
ATOM     24  O   LIG d   1      -3.916  79.270 117.663  0.00  0.00    -0.241 OA
ENDBRANCH   3  22
TORSDOF 7
ENDMDL
