MODEL 1
REMARK VINA RESULT:      -5.7      0.000      0.000
REMARK  7 active torsions:
REMARK  status: ('A' for Active; 'I' for Inactive)
REMARK    1  A    between atoms: C_2  and  C_3 
REMARK    2  A    between atoms: C_3  and  O_6 
REMARK    3  A    between atoms: C_3  and  C_4 
REMARK    4  A    between atoms: C_7  and  O_6 
REMARK    5  A    between atoms: C_9  and  C_10 
REMARK    6  A    between atoms: N_15  and  C_14 
REMARK    7  A    between atoms: N_20  and  C_19 
REMARK       I    between atoms: C_22  and  N_20 
ROOT
ATOM      1  C   LIG d   1      -7.302  76.304 117.566  0.00  0.00     0.161 C 
ATOM      2  C   LIG d   1      -8.435  77.046 117.938  0.00  0.00     0.016 C 
ATOM      3  C   LIG d   1      -8.462  78.459 117.978  0.00  0.00     0.038 C 
ATOM      4  C   LIG d   1      -7.396  79.234 117.500  0.00  0.00     0.028 C 
ATOM      5  C   LIG d   1      -6.046  78.530 117.590  0.00  0.00    -0.047 C 
ATOM      6  C   LIG d   1      -6.164  77.134 116.935  0.00  0.00     0.091 C 
ENDROOT
BRANCH   1   7
ATOM      7  O   LIG d   1      -7.687  75.231 116.685  0.00  0.00    -0.368 OA
BRANCH   7   8
ATOM      8  C   LIG d   1      -7.730  73.907 117.273  0.00  0.00     0.119 C 
BRANCH   8   9
ATOM      9  C   LIG d   1      -6.745  73.020 116.487  0.00  0.00     0.028 C 
ATOM     10  C   LIG d   1      -7.205  71.554 116.415  0.00  0.00     0.006 C 
ENDBRANCH   8   9
BRANCH   8  11
ATOM     11  C   LIG d   1      -9.103  73.257 117.081  0.00  0.00     0.028 C 
ATOM     12  C   LIG d   1     -10.170  74.249 116.594  0.00  0.00     0.006 C 
ENDBRANCH   8  11
ENDBRANCH   7   8
ENDBRANCH   1   7
BRANCH   6  13
ATOM     13  N   LIG d   1      -4.911  76.344 117.055  0.00  0.00    -0.311 N 
ATOM     14  C   LIG d   1      -3.962  76.329 116.120  0.00  0.00     0.210 C 
ATOM     15  C   LIG d   1      -2.760  75.432 116.434  0.00  0.00     0.109 C 
ATOM     16  O   LIG d   1      -3.987  76.998 115.076  0.00  0.00    -0.276 OA
ATOM     17  H   LIG d   1      -4.795  75.797 117.885  0.00  0.00     0.149 HD
ENDBRANCH   6  13
BRANCH   5  18
ATOM     18  N   LIG d   1      -5.048  79.394 116.933  0.00  0.00     0.381 N 
ATOM     19  H   LIG d   1      -4.140  79.212 117.312  0.00  0.00    -0.090 HD
ATOM     20  H   LIG d   1      -5.279  80.355 117.116  0.00  0.00    -0.090 HD
ATOM     21  H   LIG d   1      -5.045  79.226 115.951  0.00  0.00    -0.090 HD
ENDBRANCH   5  18
BRANCH   3  22
ATOM     22  C   LIG d   1      -9.551  79.110 118.538  0.00  0.00     0.382 C 
ATOM     23  O   LIG d   1      -9.969  80.180 118.034  0.00  0.00    -0.241 OA
ATOM     24  O   LIG d   1     -10.094  78.664 119.566  0.00  0.00    -0.241 OA
ENDBRANCH   3  22
TORSDOF 7
ENDMDL
MODEL 2
REMARK VINA RESULT:      -5.6     13.841     17.015
REMARK  7 active torsions:
REMARK  status: ('A' for Active; 'I' for Inactive)
REMARK    1  A    between atoms: C_2  and  C_3 
REMARK    2  A    between atoms: C_3  and  O_6 
REMARK    3  A    between atoms: C_3  and  C_4 
REMARK    4  A    between atoms: C_7  and  O_6 
REMARK    5  A    between atoms: C_9  and  C_10 
REMARK    6  A    between atoms: N_15  and  C_14 
REMARK    7  A    between atoms: N_20  and  C_19 
REMARK       I    between atoms: C_22  and  N_20 
ROOT
ATOM      1  C   LIG d   1      -6.055  92.445 118.591  0.00  0.00     0.161 C 
ATOM      2  C   LIG d   1      -5.009  93.040 119.316  0.00  0.00     0.016 C 
ATOM      3  C   LIG d   1      -3.653  92.664 119.177  0.00  0.00     0.038 C 
ATOM      4  C   LIG d   1      -3.231  91.767 118.185  0.00  0.00     0.028 C 
ATOM      5  C   LIG d   1      -4.308  90.769 117.772  0.00  0.00    -0.047 C 
ATOM      6  C   LIG d   1      -5.601  91.542 117.425  0.00  0.00     0.091 C 
ENDROOT
BRANCH   1   7
ATOM      7  O   LIG d   1      -6.959  93.462 118.115  0.00  0.00    -0.368 OA
BRANCH   7   8
ATOM      8  C   LIG d   1      -7.187  94.580 119.007  0.00  0.00     0.119 C 
BRANCH   8   9
ATOM      9  C   LIG d   1      -8.446  94.261 119.836  0.00  0.00     0.028 C 
ATOM     10  C   LIG d   1      -8.113  93.905 121.295  0.00  0.00     0.006 C 
ENDBRANCH   8   9
BRANCH   8  11
ATOM     11  C   LIG d   1      -7.527  95.854 118.228  0.00  0.00     0.028 C 
ATOM     12  C   LIG d   1      -7.650  97.091 119.132  0.00  0.00     0.006 C 
ENDBRANCH   8  11
ENDBRANCH   7   8
ENDBRANCH   1   7
BRANCH   6  13
ATOM     13  N   LIG d   1      -6.731  90.636 117.091  0.00  0.00    -0.311 N 
ATOM     14  C   LIG d   1      -6.966  90.179 115.863  0.00  0.00     0.210 C 
ATOM     15  C   LIG d   1      -8.195  89.274 115.734  0.00  0.00     0.109 C 
ATOM     16  O   LIG d   1      -6.255  90.411 114.873  0.00  0.00    -0.276 OA
ATOM     17  H   LIG d   1      -7.340  90.372 117.841  0.00  0.00     0.149 HD
ENDBRANCH   6  13
BRANCH   5  18
ATOM     18  N   LIG d   1      -3.781  89.987 116.639  0.00  0.00     0.381 N 
ATOM     19  H   LIG d   1      -2.937  90.406 116.301  0.00  0.00    -0.090 HD
ATOM     20  H   LIG d   1      -4.456  89.995 115.895  0.00  0.00    -0.090 HD
ATOM     21  H   LIG d   1      -3.603  89.049 116.925  0.00  0.00    -0.090 HD
ENDBRANCH   5  18
BRANCH   3  22
ATOM     22  C   LIG d   1      -2.708  93.159 120.062  0.00  0.00     0.382 C 
ATOM     23  O   LIG d   1      -1.971  94.116 119.722  0.00  0.00    -0.241 OA
ATOM     24  O   LIG d   1      -2.554  92.633 121.180  0.00  0.00    -0.241 OA
ENDBRANCH   3  22
TORSDOF 7
ENDMDL
MODEL 3
REMARK VINA RESULT:      -5.4      1.907      4.844
REMARK  7 active torsions:
REMARK  status: ('A' for Active; 'I' for Inactive)
REMARK    1  A    between atoms: C_2  and  C_3 
REMARK    2  A    between atoms: C_3  and  O_6 
REMARK    3  A    between atoms: C_3  and  C_4 
REMARK    4  A    between atoms: C_7  and  O_6 
REMARK    5  A    between atoms: C_9  and  C_10 
REMARK    6  A    between atoms: N_15  and  C_14 
REMARK    7  A    between atoms: N_20  and  C_19 
REMARK       I    between atoms: C_22  and  N_20 
ROOT
ATOM      1  C   LIG d   1      -7.093  76.988 116.784  0.00  0.00     0.161 C 
ATOM      2  C   LIG d   1      -8.107  76.058 117.064  0.00  0.00     0.016 C 
ATOM      3  C   LIG d   1      -7.977  74.670 116.829  0.00  0.00     0.038 C 
ATOM      4  C   LIG d   1      -6.759  74.096 116.436  0.00  0.00     0.028 C 
ATOM      5  C   LIG d   1      -5.861  75.053 115.659  0.00  0.00    -0.047 C 
ATOM      6  C   LIG d   1      -5.718  76.368 116.459  0.00  0.00     0.091 C 
ENDROOT
BRANCH   1   7
ATOM      7  O   LIG d   1      -6.975  77.925 117.873  0.00  0.00    -0.368 OA
BRANCH   7   8
ATOM      8  C   LIG d   1      -7.481  79.259 117.624  0.00  0.00     0.119 C 
BRANCH   8   9
ATOM      9  C   LIG d   1      -6.276  80.220 117.623  0.00  0.00     0.028 C 
ATOM     10  C   LIG d   1      -5.155  79.755 118.568  0.00  0.00     0.006 C 
ENDBRANCH   8   9
BRANCH   8  11
ATOM     11  C   LIG d   1      -8.379  79.737 118.769  0.00  0.00     0.028 C 
ATOM     12  C   LIG d   1      -9.675  78.919 118.891  0.00  0.00     0.006 C 
ENDBRANCH   8  11
ENDBRANCH   7   8
ENDBRANCH   1   7
BRANCH   6  13
ATOM     13  N   LIG d   1      -4.923  77.391 115.731  0.00  0.00    -0.311 N 
ATOM     14  C   LIG d   1      -3.620  77.585 115.930  0.00  0.00     0.210 C 
ATOM     15  C   LIG d   1      -2.998  78.705 115.090  0.00  0.00     0.109 C 
ATOM     16  O   LIG d   1      -2.914  76.915 116.699  0.00  0.00    -0.276 OA
ATOM     17  H   LIG d   1      -5.410  77.958 115.066  0.00  0.00     0.149 HD
ENDBRANCH   6  13
BRANCH   5  18
ATOM     18  N   LIG d   1      -4.573  74.371 115.433  0.00  0.00     0.381 N 
ATOM     19  H   LIG d   1      -3.818  74.990 115.650  0.00  0.00    -0.090 HD
ATOM     20  H   LIG d   1      -4.504  74.119 114.462  0.00  0.00    -0.090 HD
ATOM     21  H   LIG d   1      -4.515  73.554 116.000  0.00  0.00    -0.090 HD
ENDBRANCH   5  18
BRANCH   3  22
ATOM     22  C   LIG d   1      -9.086  73.846 116.948  0.00  0.00     0.382 C 
ATOM     23  O   LIG d   1      -8.961  72.693 117.429  0.00  0.00    -0.241 OA
ATOM     24  O   LIG d   1     -10.201  74.223 116.541  0.00  0.00    -0.241 OA
ENDBRANCH   3  22
TORSDOF 7
ENDMDL
MODEL 4
REMARK VINA RESULT:      -5.3     13.323     15.851
REMARK  7 active torsions:
REMARK  status: ('A' for Active; 'I' for Inactive)
REMARK    1  A    between atoms: C_2  and  C_3 
REMARK    2  A    between atoms: C_3  and  O_6 
REMARK    3  A    between atoms: C_3  and  C_4 
REMARK    4  A    between atoms: C_7  and  O_6 
REMARK    5  A    between atoms: C_9  and  C_10 
REMARK    6  A    between atoms: N_15  and  C_14 
REMARK    7  A    between atoms: N_20  and  C_19 
REMARK       I    between atoms: C_22  and  N_20 
ROOT
ATOM      1  C   LIG d   1      -3.668  90.922 118.262  0.00  0.00     0.161 C 
ATOM      2  C   LIG d   1      -4.202  90.196 117.185  0.00  0.00     0.016 C 
ATOM      3  C   LIG d   1      -5.384  90.569 116.505  0.00  0.00     0.038 C 
ATOM      4  C   LIG d   1      -6.034  91.786 116.760  0.00  0.00     0.028 C 
ATOM      5  C   LIG d   1      -5.817  92.303 118.178  0.00  0.00    -0.047 C 
ATOM      6  C   LIG d   1      -4.301  92.312 118.482  0.00  0.00     0.091 C 
ENDROOT
BRANCH   1   7
ATOM      7  O   LIG d   1      -2.239  91.041 118.111  0.00  0.00    -0.368 OA
BRANCH   7   8
ATOM      8  C   LIG d   1      -1.536  89.831 117.737  0.00  0.00     0.119 C 
BRANCH   8   9
ATOM      9  C   LIG d   1      -1.244  89.047 119.031  0.00  0.00     0.028 C 
ATOM     10  C   LIG d   1      -1.951  87.681 119.062  0.00  0.00     0.006 C 
ENDBRANCH   8   9
BRANCH   8  11
ATOM     11  C   LIG d   1      -0.163  90.148 117.137  0.00  0.00     0.028 C 
ATOM     12  C   LIG d   1       0.219  91.630 117.271  0.00  0.00     0.006 C 
ENDBRANCH   8  11
ENDBRANCH   7   8
ENDBRANCH   1   7
BRANCH   6  13
ATOM     13  N   LIG d   1      -4.006  92.725 119.879  0.00  0.00    -0.311 N 
ATOM     14  C   LIG d   1      -3.720  93.978 120.229  0.00  0.00     0.210 C 
ATOM     15  C   LIG d   1      -3.427  94.183 121.718  0.00  0.00     0.109 C 
ATOM     16  O   LIG d   1      -3.712  94.945 119.452  0.00  0.00    -0.276 OA
ATOM     17  H   LIG d   1      -4.021  92.009 120.579  0.00  0.00     0.149 HD
ENDBRANCH   6  13
BRANCH   5  18
ATOM     18  N   LIG d   1      -6.432  93.641 118.264  0.00  0.00     0.381 N 
ATOM     19  H   LIG d   1      -6.998  93.805 117.456  0.00  0.00    -0.090 HD
ATOM     20  H   LIG d   1      -5.704  94.333 118.285  0.00  0.00    -0.090 HD
ATOM     21  H   LIG d   1      -6.988  93.708 119.088  0.00  0.00    -0.090 HD
ENDBRANCH   5  18
BRANCH   3  22
ATOM     22  C   LIG d   1      -5.951  89.701 115.584  0.00  0.00     0.382 C 
ATOM     23  O   LIG d   1      -7.146  89.342 115.714  0.00  0.00    -0.241 OA
ATOM     24  O   LIG d   1      -5.269  89.237 114.651  0.00  0.00    -0.241 OA
ENDBRANCH   3  22
TORSDOF 7
ENDMDL
MODEL 5
REMARK VINA RESULT:      -5.2      2.099      4.791
REMARK  7 active torsions:
REMARK  status: ('A' for Active; 'I' for Inactive)
REMARK    1  A    between atoms: C_2  and  C_3 
REMARK    2  A    between atoms: C_3  and  O_6 
REMARK    3  A    between atoms: C_3  and  C_4 
REMARK    4  A    between atoms: C_7  and  O_6 
REMARK    5  A    between atoms: C_9  and  C_10 
REMARK    6  A    between atoms: N_15  and  C_14 
REMARK    7  A    between atoms: N_20  and  C_19 
REMARK       I    between atoms: C_22  and  N_20 
ROOT
ATOM      1  C   LIG d   1      -6.374  76.477 117.320  0.00  0.00     0.161 C 
ATOM      2  C   LIG d   1      -7.179  75.392 116.935  0.00  0.00     0.016 C 
ATOM      3  C   LIG d   1      -8.592  75.435 116.926  0.00  0.00     0.038 C 
ATOM      4  C   LIG d   1      -9.299  76.625 117.159  0.00  0.00     0.028 C 
ATOM      5  C   LIG d   1      -8.546  77.614 118.043  0.00  0.00    -0.047 C 
ATOM      6  C   LIG d   1      -7.124  77.817 117.470  0.00  0.00     0.091 C 
ENDROOT
BRANCH   1   7
ATOM      7  O   LIG d   1      -5.273  76.619 116.401  0.00  0.00    -0.368 OA
BRANCH   7   8
ATOM      8  C   LIG d   1      -3.970  76.235 116.903  0.00  0.00     0.119 C 
BRANCH   8   9
ATOM      9  C   LIG d   1      -3.064  77.480 116.838  0.00  0.00     0.028 C 
ATOM     10  C   LIG d   1      -3.589  78.537 115.852  0.00  0.00     0.006 C 
ENDBRANCH   8   9
BRANCH   8  11
ATOM     11  C   LIG d   1      -3.303  75.201 115.991  0.00  0.00     0.028 C 
ATOM     12  C   LIG d   1      -4.143  74.877 114.745  0.00  0.00     0.006 C 
ENDBRANCH   8  11
ENDBRANCH   7   8
ENDBRANCH   1   7
BRANCH   6  13
ATOM     13  N   LIG d   1      -6.292  78.706 118.322  0.00  0.00    -0.311 N 
ATOM     14  C   LIG d   1      -6.147  80.011 118.099  0.00  0.00     0.210 C 
ATOM     15  C   LIG d   1      -5.229  80.738 119.085  0.00  0.00     0.109 C 
ATOM     16  O   LIG d   1      -6.718  80.641 117.196  0.00  0.00    -0.276 OA
ATOM     17  H   LIG d   1      -5.817  78.282 119.095  0.00  0.00     0.149 HD
ENDBRANCH   6  13
BRANCH   5  18
ATOM     18  N   LIG d   1      -9.334  78.860 118.089  0.00  0.00     0.381 N 
ATOM     19  H   LIG d   1      -9.922  78.859 118.899  0.00  0.00    -0.090 HD
ATOM     20  H   LIG d   1      -9.920  78.904 117.274  0.00  0.00    -0.090 HD
ATOM     21  H   LIG d   1      -8.725  79.648 118.113  0.00  0.00    -0.090 HD
ENDBRANCH   5  18
BRANCH   3  22
ATOM     22  C   LIG d   1      -9.314  74.270 116.722  0.00  0.00     0.382 C 
ATOM     23  O   LIG d   1     -10.530  74.331 116.416  0.00  0.00    -0.241 OA
ATOM     24  O   LIG d   1      -8.777  73.157 116.882  0.00  0.00    -0.241 OA
ENDBRANCH   3  22
TORSDOF 7
ENDMDL
MODEL 6
REMARK VINA RESULT:      -5.2      1.743      4.998
REMARK  7 active torsions:
REMARK  status: ('A' for Active; 'I' for Inactive)
REMARK    1  A    between atoms: C_2  and  C_3 
REMARK    2  A    between atoms: C_3  and  O_6 
REMARK    3  A    between atoms: C_3  and  C_4 
REMARK    4  A    between atoms: C_7  and  O_6 
REMARK    5  A    between atoms: C_9  and  C_10 
REMARK    6  A    between atoms: N_15  and  C_14 
REMARK    7  A    between atoms: N_20  and  C_19 
REMARK       I    between atoms: C_22  and  N_20 
ROOT
ATOM      1  C   LIG d   1      -5.753  76.128 115.782  0.00  0.00     0.161 C 
ATOM      2  C   LIG d   1      -4.539  75.496 115.465  0.00  0.00     0.016 C 
ATOM      3  C   LIG d   1      -3.358  75.654 116.226  0.00  0.00     0.038 C 
ATOM      4  C   LIG d   1      -3.351  76.339 117.450  0.00  0.00     0.028 C 
ATOM      5  C   LIG d   1      -4.429  77.413 117.550  0.00  0.00    -0.047 C 
ATOM      6  C   LIG d   1      -5.793  76.790 117.175  0.00  0.00     0.091 C 
ENDROOT
BRANCH   1   7
ATOM      7  O   LIG d   1      -6.842  75.194 115.640  0.00  0.00    -0.368 OA
BRANCH   7   8
ATOM      8  C   LIG d   1      -7.052  74.286 116.749  0.00  0.00     0.119 C 
BRANCH   8   9
ATOM      9  C   LIG d   1      -6.609  72.883 116.288  0.00  0.00     0.028 C 
ATOM     10  C   LIG d   1      -7.540  71.774 116.808  0.00  0.00     0.006 C 
ENDBRANCH   8   9
BRANCH   8  11
ATOM     11  C   LIG d   1      -8.540  74.152 117.085  0.00  0.00     0.028 C 
ATOM     12  C   LIG d   1      -9.398  75.250 116.439  0.00  0.00     0.006 C 
ENDBRANCH   8  11
ENDBRANCH   7   8
ENDBRANCH   1   7
BRANCH   6  13
ATOM     13  N   LIG d   1      -6.891  77.792 117.166  0.00  0.00    -0.311 N 
ATOM     14  C   LIG d   1      -7.685  78.020 118.210  0.00  0.00     0.210 C 
ATOM     15  C   LIG d   1      -8.766  79.081 117.982  0.00  0.00     0.109 C 
ATOM     16  O   LIG d   1      -7.578  77.466 119.315  0.00  0.00    -0.276 OA
ATOM     17  H   LIG d   1      -7.028  78.310 116.320  0.00  0.00     0.149 HD
ENDBRANCH   6  13
BRANCH   5  18
ATOM     18  N   LIG d   1      -4.397  77.951 118.923  0.00  0.00     0.381 N 
ATOM     19  H   LIG d   1      -4.760  77.272 119.562  0.00  0.00    -0.090 HD
ATOM     20  H   LIG d   1      -4.980  78.768 118.966  0.00  0.00    -0.090 HD
ATOM     21  H   LIG d   1      -3.462  78.187 119.175  0.00  0.00    -0.090 HD
ENDBRANCH   5  18
BRANCH   3  22
ATOM     22  C   LIG d   1      -2.158  75.156 115.743  0.00  0.00     0.382 C 
ATOM     23  O   LIG d   1      -1.820  75.377 114.555  0.00  0.00    -0.241 OA
ATOM     24  O   LIG d   1      -1.429  74.451 116.467  0.00  0.00    -0.241 OA
ENDBRANCH   3  22
TORSDOF 7
ENDMDL
MODEL 7
REMARK VINA RESULT:      -5.0      2.255      4.635
REMARK  7 active torsions:
REMARK  status: ('A' for Active; 'I' for Inactive)
REMARK    1  A    between atoms: C_2  and  C_3 
REMARK    2  A    between atoms: C_3  and  O_6 
REMARK    3  A    between atoms: C_3  and  C_4 
REMARK    4  A    between atoms: C_7  and  O_6 
REMARK    5  A    between atoms: C_9  and  C_10 
REMARK    6  A    between atoms: N_15  and  C_14 
REMARK    7  A    between atoms: N_20  and  C_19 
REMARK       I    between atoms: C_22  and  N_20 
ROOT
ATOM      1  C   LIG d   1      -5.858  77.323 116.374  0.00  0.00     0.161 C 
ATOM      2  C   LIG d   1      -7.214  77.180 116.715  0.00  0.00     0.016 C 
ATOM      3  C   LIG d   1      -7.907  75.950 116.650  0.00  0.00     0.038 C 
ATOM      4  C   LIG d   1      -7.248  74.741 116.382  0.00  0.00     0.028 C 
ATOM      5  C   LIG d   1      -5.988  74.911 115.540  0.00  0.00    -0.047 C 
ATOM      6  C   LIG d   1      -5.095  75.995 116.186  0.00  0.00     0.091 C 
ENDROOT
BRANCH   1   7
ATOM      7  O   LIG d   1      -5.193  78.149 117.350  0.00  0.00    -0.368 OA
BRANCH   7   8
ATOM      8  C   LIG d   1      -6.007  78.609 118.457  0.00  0.00     0.119 C 
BRANCH   8   9
ATOM      9  C   LIG d   1      -5.806  80.132 118.579  0.00  0.00     0.028 C 
ATOM     10  C   LIG d   1      -6.858  80.928 117.789  0.00  0.00     0.006 C 
ENDBRANCH   8   9
BRANCH   8  11
ATOM     11  C   LIG d   1      -5.518  78.027 119.787  0.00  0.00     0.028 C 
ATOM     12  C   LIG d   1      -6.472  76.967 120.360  0.00  0.00     0.006 C 
ENDBRANCH   8  11
ENDBRANCH   7   8
ENDBRANCH   1   7
BRANCH   6  13
ATOM     13  N   LIG d   1      -3.881  76.284 115.379  0.00  0.00    -0.311 N 
ATOM     14  C   LIG d   1      -2.653  75.927 115.749  0.00  0.00     0.210 C 
ATOM     15  C   LIG d   1      -1.540  76.340 114.781  0.00  0.00     0.109 C 
ATOM     16  O   LIG d   1      -2.383  75.278 116.771  0.00  0.00    -0.276 OA
ATOM     17  H   LIG d   1      -4.012  76.780 114.519  0.00  0.00     0.149 HD
ENDBRANCH   6  13
BRANCH   5  18
ATOM     18  N   LIG d   1      -5.328  73.595 115.453  0.00  0.00     0.381 N 
ATOM     19  H   LIG d   1      -4.883  73.497 114.562  0.00  0.00    -0.090 HD
ATOM     20  H   LIG d   1      -6.025  72.876 115.537  0.00  0.00    -0.090 HD
ATOM     21  H   LIG d   1      -4.655  73.502 116.181  0.00  0.00    -0.090 HD
ENDBRANCH   5  18
BRANCH   3  22
ATOM     22  C   LIG d   1      -9.283  75.927 116.816  0.00  0.00     0.382 C 
ATOM     23  O   LIG d   1      -9.954  74.968 116.363  0.00  0.00    -0.241 OA
ATOM     24  O   LIG d   1      -9.868  76.874 117.374  0.00  0.00    -0.241 OA
ENDBRANCH   3  22
TORSDOF 7
ENDMDL
MODEL 8
REMARK VINA RESULT:      -5.0      2.155      5.509
REMARK  7 active torsions:
REMARK  status: ('A' for Active; 'I' for Inactive)
REMARK    1  A    between atoms: C_2  and  C_3 
REMARK    2  A    between atoms: C_3  and  O_6 
REMARK    3  A    between atoms: C_3  and  C_4 
REMARK    4  A    between atoms: C_7  and  O_6 
REMARK    5  A    between atoms: C_9  and  C_10 
REMARK    6  A    between atoms: N_15  and  C_14 
REMARK    7  A    between atoms: N_20  and  C_19 
REMARK       I    between atoms: C_22  and  N_20 
ROOT
ATOM      1  C   LIG d   1      -6.262  77.681 117.058  0.00  0.00     0.161 C 
ATOM      2  C   LIG d   1      -6.596  76.352 116.749  0.00  0.00     0.016 C 
ATOM      3  C   LIG d   1      -7.889  75.812 116.937  0.00  0.00     0.038 C 
ATOM      4  C   LIG d   1      -8.980  76.611 117.309  0.00  0.00     0.028 C 
ATOM      5  C   LIG d   1      -8.582  77.843 118.115  0.00  0.00    -0.047 C 
ATOM      6  C   LIG d   1      -7.466  78.598 117.359  0.00  0.00     0.091 C 
ENDROOT
BRANCH   1   7
ATOM      7  O   LIG d   1      -5.458  78.241 116.001  0.00  0.00    -0.368 OA
BRANCH   7   8
ATOM      8  C   LIG d   1      -4.197  78.832 116.403  0.00  0.00     0.119 C 
BRANCH   8   9
ATOM      9  C   LIG d   1      -3.154  78.476 115.326  0.00  0.00     0.028 C 
ATOM     10  C   LIG d   1      -3.236  77.002 114.895  0.00  0.00     0.006 C 
ENDBRANCH   8   9
BRANCH   8  11
ATOM     11  C   LIG d   1      -3.675  78.202 117.698  0.00  0.00     0.028 C 
ATOM     12  C   LIG d   1      -3.352  79.245 118.780  0.00  0.00     0.006 C 
ENDBRANCH   8  11
ENDBRANCH   7   8
ENDBRANCH   1   7
BRANCH   6  13
ATOM     13  N   LIG d   1      -6.959  79.770 118.120  0.00  0.00    -0.311 N 
ATOM     14  C   LIG d   1      -7.393  81.014 117.924  0.00  0.00     0.210 C 
ATOM     15  C   LIG d   1      -6.724  82.078 118.800  0.00  0.00     0.109 C 
ATOM     16  O   LIG d   1      -8.291  81.334 117.130  0.00  0.00    -0.276 OA
ATOM     17  H   LIG d   1      -6.251  79.597 118.806  0.00  0.00     0.149 HD
ENDBRANCH   6  13
BRANCH   5  18
ATOM     18  N   LIG d   1      -9.797  78.656 118.316  0.00  0.00     0.381 N 
ATOM     19  H   LIG d   1     -10.399  78.207 118.976  0.00  0.00    -0.090 HD
ATOM     20  H   LIG d   1     -10.287  78.730 117.442  0.00  0.00    -0.090 HD
ATOM     21  H   LIG d   1      -9.549  79.563 118.644  0.00  0.00    -0.090 HD
ENDBRANCH   5  18
BRANCH   3  22
ATOM     22  C   LIG d   1      -8.091  74.448 116.792  0.00  0.00     0.382 C 
ATOM     23  O   LIG d   1      -9.258  73.985 116.773  0.00  0.00    -0.241 OA
ATOM     24  O   LIG d   1      -7.122  73.669 116.725  0.00  0.00    -0.241 OA
ENDBRANCH   3  22
TORSDOF 7
ENDMDL
MODEL 9
REMARK VINA RESULT:      -4.9      1.427      2.211
REMARK  7 active torsions:
REMARK  status: ('A' for Active; 'I' for Inactive)
REMARK    1  A    between atoms: C_2  and  C_3 
REMARK    2  A    between atoms: C_3  and  O_6 
REMARK    3  A    between atoms: C_3  and  C_4 
REMARK    4  A    between atoms: C_7  and  O_6 
REMARK    5  A    between atoms: C_9  and  C_10 
REMARK    6  A    between atoms: N_15  and  C_14 
REMARK    7  A    between atoms: N_20  and  C_19 
REMARK       I    between atoms: C_22  and  N_20 
ROOT
ATOM      1  C   LIG d   1      -7.592  77.396 117.676  0.00  0.00     0.161 C 
ATOM      2  C   LIG d   1      -8.727  77.924 118.312  0.00  0.00     0.016 C 
ATOM      3  C   LIG d   1      -8.687  79.048 119.170  0.00  0.00     0.038 C 
ATOM      4  C   LIG d   1      -7.524  79.816 119.330  0.00  0.00     0.028 C 
ATOM      5  C   LIG d   1      -6.240  79.026 119.106  0.00  0.00    -0.047 C 
ATOM      6  C   LIG d   1      -6.335  78.288 117.751  0.00  0.00     0.091 C 
ENDROOT
BRANCH   1   7
ATOM      7  O   LIG d   1      -7.902  77.082 116.304  0.00  0.00    -0.368 OA
BRANCH   7   8
ATOM      8  C   LIG d   1      -8.137  75.684 116.007  0.00  0.00     0.119 C 
BRANCH   8   9
ATOM      9  C   LIG d   1      -9.560  75.341 116.488  0.00  0.00     0.028 C 
ATOM     10  C   LIG d   1      -9.714  73.855 116.854  0.00  0.00     0.006 C 
ENDBRANCH   8   9
BRANCH   8  11
ATOM     11  C   LIG d   1      -7.206  74.778 116.819  0.00  0.00     0.028 C 
ATOM     12  C   LIG d   1      -6.048  74.211 115.982  0.00  0.00     0.006 C 
ENDBRANCH   8  11
ENDBRANCH   7   8
ENDBRANCH   1   7
BRANCH   6  13
ATOM     13  N   LIG d   1      -5.154  77.423 117.493  0.00  0.00    -0.311 N 
ATOM     14  C   LIG d   1      -4.306  77.622 116.485  0.00  0.00     0.210 C 
ATOM     15  C   LIG d   1      -3.167  76.603 116.387  0.00  0.00     0.109 C 
ATOM     16  O   LIG d   1      -4.371  78.565 115.682  0.00  0.00    -0.276 OA
ATOM     17  H   LIG d   1      -5.008  76.652 118.115  0.00  0.00     0.149 HD
ENDBRANCH   6  13
BRANCH   5  18
ATOM     18  N   LIG d   1      -5.114  79.977 119.169  0.00  0.00     0.381 N 
ATOM     19  H   LIG d   1      -5.170  80.512 120.012  0.00  0.00    -0.090 HD
ATOM     20  H   LIG d   1      -5.179  80.608 118.389  0.00  0.00    -0.090 HD
ATOM     21  H   LIG d   1      -4.249  79.484 119.136  0.00  0.00    -0.090 HD
ENDBRANCH   5  18
BRANCH   3  22
ATOM     22  C   LIG d   1      -9.809  79.389 119.909  0.00  0.00     0.382 C 
ATOM     23  O   LIG d   1     -10.399  78.517 120.592  0.00  0.00    -0.241 OA
ATOM     24  O   LIG d   1     -10.266  80.547 119.866  0.00  0.00    -0.241 OA
ENDBRANCH   3  22
TORSDOF 7
ENDMDL
