MODEL 1
REMARK VINA RESULT:      -5.6      0.000      0.000
REMARK  7 active torsions:
REMARK  status: ('A' for Active; 'I' for Inactive)
REMARK    1  A    between atoms: C_2  and  C_3 
REMARK    2  A    between atoms: C_3  and  O_6 
REMARK    3  A    between atoms: C_3  and  C_4 
REMARK    4  A    between atoms: C_7  and  O_6 
REMARK    5  A    between atoms: C_9  and  C_10 
REMARK    6  A    between atoms: N_15  and  C_14 
REMARK    7  A    between atoms: N_20  and  C_19 
REMARK       I    between atoms: C_22  and  N_20 
ROOT
ATOM      1  C   LIG d   1      -7.201  75.569 117.768  0.00  0.00     0.161 C 
ATOM      2  C   LIG d   1      -8.523  75.519 118.240  0.00  0.00     0.016 C 
ATOM      3  C   LIG d   1      -9.225  76.654 118.707  0.00  0.00     0.038 C 
ATOM      4  C   LIG d   1      -8.701  77.950 118.592  0.00  0.00     0.028 C 
ATOM      5  C   LIG d   1      -7.177  77.989 118.588  0.00  0.00    -0.047 C 
ATOM      6  C   LIG d   1      -6.652  76.991 117.530  0.00  0.00     0.091 C 
ENDROOT
BRANCH   1   7
ATOM      7  O   LIG d   1      -7.081  74.779 116.568  0.00  0.00    -0.368 OA
BRANCH   7   8
ATOM      8  C   LIG d   1      -6.053  73.758 116.578  0.00  0.00     0.119 C 
BRANCH   8   9
ATOM      9  C   LIG d   1      -5.008  74.143 115.513  0.00  0.00     0.028 C 
ATOM     10  C   LIG d   1      -5.617  74.958 114.360  0.00  0.00     0.006 C 
ENDBRANCH   8   9
BRANCH   8  11
ATOM     11  C   LIG d   1      -6.609  72.403 116.128  0.00  0.00     0.028 C 
ATOM     12  C   LIG d   1      -7.647  71.831 117.107  0.00  0.00     0.006 C 
ENDBRANCH   8  11
ENDBRANCH   7   8
ENDBRANCH   1   7
BRANCH   6  13
ATOM     13  N   LIG d   1      -5.168  76.905 117.520  0.00  0.00    -0.311 N 
ATOM     14  C   LIG d   1      -4.398  77.618 116.699  0.00  0.00     0.210 C 
ATOM     15  C   LIG d   1      -2.894  77.362 116.839  0.00  0.00     0.109 C 
ATOM     16  O   LIG d   1      -4.816  78.461 115.892  0.00  0.00    -0.276 OA
ATOM     17  H   LIG d   1      -4.744  76.268 118.165  0.00  0.00     0.149 HD
ENDBRANCH   6  13
BRANCH   5  18
ATOM     18  N   LIG d   1      -6.767  79.381 118.324  0.00  0.00     0.381 N 
ATOM     19  H   LIG d   1      -7.575  79.967 118.267  0.00  0.00    -0.090 HD
ATOM     20  H   LIG d   1      -6.288  79.417 117.441  0.00  0.00    -0.090 HD
ATOM     21  H   LIG d   1      -6.165  79.703 119.050  0.00  0.00    -0.090 HD
ENDBRANCH   5  18
BRANCH   3  22
ATOM     22  C   LIG d   1     -10.451  76.493 119.335  0.00  0.00     0.382 C 
ATOM     23  O   LIG d   1     -10.515  75.918 120.448  0.00  0.00    -0.241 OA
ATOM     24  O   LIG d   1     -11.499  76.876 118.781  0.00  0.00    -0.241 OA
ENDBRANCH   3  22
TORSDOF 7
ENDMDL
MODEL 2
REMARK VINA RESULT:      -5.5      2.462      4.163
REMARK  7 active torsions:
REMARK  status: ('A' for Active; 'I' for Inactive)
REMARK    1  A    between atoms: C_2  and  C_3 
REMARK    2  A    between atoms: C_3  and  O_6 
REMARK    3  A    between atoms: C_3  and  C_4 
REMARK    4  A    between atoms: C_7  and  O_6 
REMARK    5  A    between atoms: C_9  and  C_10 
REMARK    6  A    between atoms: N_15  and  C_14 
REMARK    7  A    between atoms: N_20  and  C_19 
REMARK       I    between atoms: C_22  and  N_20 
ROOT
ATOM      1  C   LIG d   1      -5.275  75.341 117.854  0.00  0.00     0.161 C 
ATOM      2  C   LIG d   1      -5.559  74.072 117.322  0.00  0.00     0.016 C 
ATOM      3  C   LIG d   1      -6.867  73.630 117.016  0.00  0.00     0.038 C 
ATOM      4  C   LIG d   1      -7.973  74.490 117.081  0.00  0.00     0.028 C 
ATOM      5  C   LIG d   1      -7.804  75.620 118.092  0.00  0.00    -0.047 C 
ATOM      6  C   LIG d   1      -6.458  76.332 117.828  0.00  0.00     0.091 C 
ENDROOT
BRANCH   1   7
ATOM      7  O   LIG d   1      -4.132  75.907 117.184  0.00  0.00    -0.368 OA
BRANCH   7   8
ATOM      8  C   LIG d   1      -3.776  75.308 115.914  0.00  0.00     0.119 C 
BRANCH   8   9
ATOM      9  C   LIG d   1      -2.238  75.303 115.820  0.00  0.00     0.028 C 
ATOM     10  C   LIG d   1      -1.591  74.351 116.840  0.00  0.00     0.006 C 
ENDBRANCH   8   9
BRANCH   8  11
ATOM     11  C   LIG d   1      -4.251  76.169 114.740  0.00  0.00     0.028 C 
ATOM     12  C   LIG d   1      -5.419  75.534 113.969  0.00  0.00     0.006 C 
ENDBRANCH   8  11
ENDBRANCH   7   8
ENDBRANCH   1   7
BRANCH   6  13
ATOM     13  N   LIG d   1      -6.175  77.396 118.825  0.00  0.00    -0.311 N 
ATOM     14  C   LIG d   1      -6.456  78.683 118.624  0.00  0.00     0.210 C 
ATOM     15  C   LIG d   1      -6.063  79.618 119.772  0.00  0.00     0.109 C 
ATOM     16  O   LIG d   1      -7.022  79.134 117.617  0.00  0.00    -0.276 OA
ATOM     17  H   LIG d   1      -5.744  77.114 119.684  0.00  0.00     0.149 HD
ENDBRANCH   6  13
BRANCH   5  18
ATOM     18  N   LIG d   1      -8.968  76.516 117.958  0.00  0.00     0.381 N 
ATOM     19  H   LIG d   1      -9.808  76.015 118.173  0.00  0.00    -0.090 HD
ATOM     20  H   LIG d   1      -9.026  76.833 117.006  0.00  0.00    -0.090 HD
ATOM     21  H   LIG d   1      -8.871  77.295 118.571  0.00  0.00    -0.090 HD
ENDBRANCH   5  18
BRANCH   3  22
ATOM     22  C   LIG d   1      -7.082  72.303 116.678  0.00  0.00     0.382 C 
ATOM     23  O   LIG d   1      -6.444  71.786 115.730  0.00  0.00    -0.241 OA
ATOM     24  O   LIG d   1      -7.939  71.629 117.281  0.00  0.00    -0.241 OA
ENDBRANCH   3  22
TORSDOF 7
ENDMDL
MODEL 3
REMARK VINA RESULT:      -5.4      2.569      5.579
REMARK  7 active torsions:
REMARK  status: ('A' for Active; 'I' for Inactive)
REMARK    1  A    between atoms: C_2  and  C_3 
REMARK    2  A    between atoms: C_3  and  O_6 
REMARK    3  A    between atoms: C_3  and  C_4 
REMARK    4  A    between atoms: C_7  and  O_6 
REMARK    5  A    between atoms: C_9  and  C_10 
REMARK    6  A    between atoms: N_15  and  C_14 
REMARK    7  A    between atoms: N_20  and  C_19 
REMARK       I    between atoms: C_22  and  N_20 
ROOT
ATOM      1  C   LIG d   1      -4.842  75.804 115.987  0.00  0.00     0.161 C 
ATOM      2  C   LIG d   1      -3.708  75.030 115.690  0.00  0.00     0.016 C 
ATOM      3  C   LIG d   1      -2.533  75.037 116.477  0.00  0.00     0.038 C 
ATOM      4  C   LIG d   1      -2.469  75.709 117.707  0.00  0.00     0.028 C 
ATOM      5  C   LIG d   1      -3.409  76.906 117.793  0.00  0.00    -0.047 C 
ATOM      6  C   LIG d   1      -4.831  76.458 117.385  0.00  0.00     0.091 C 
ENDROOT
BRANCH   1   7
ATOM      7  O   LIG d   1      -6.034  75.011 115.814  0.00  0.00    -0.368 OA
BRANCH   7   8
ATOM      8  C   LIG d   1      -6.329  74.066 116.871  0.00  0.00     0.119 C 
BRANCH   8   9
ATOM      9  C   LIG d   1      -6.501  72.680 116.218  0.00  0.00     0.028 C 
ATOM     10  C   LIG d   1      -7.432  71.762 117.027  0.00  0.00     0.006 C 
ENDBRANCH   8   9
BRANCH   8  11
ATOM     11  C   LIG d   1      -7.676  74.372 117.533  0.00  0.00     0.028 C 
ATOM     12  C   LIG d   1      -8.537  75.342 116.709  0.00  0.00     0.006 C 
ENDBRANCH   8  11
ENDBRANCH   7   8
ENDBRANCH   1   7
BRANCH   6  13
ATOM     13  N   LIG d   1      -5.797  77.587 117.361  0.00  0.00    -0.311 N 
ATOM     14  C   LIG d   1      -6.582  77.903 118.389  0.00  0.00     0.210 C 
ATOM     15  C   LIG d   1      -7.519  79.091 118.147  0.00  0.00     0.109 C 
ATOM     16  O   LIG d   1      -6.569  77.332 119.490  0.00  0.00    -0.276 OA
ATOM     17  H   LIG d   1      -5.850  78.124 116.517  0.00  0.00     0.149 HD
ENDBRANCH   6  13
BRANCH   5  18
ATOM     18  N   LIG d   1      -3.341  77.428 119.171  0.00  0.00     0.381 N 
ATOM     19  H   LIG d   1      -4.143  77.996 119.358  0.00  0.00    -0.090 HD
ATOM     20  H   LIG d   1      -2.521  78.002 119.261  0.00  0.00    -0.090 HD
ATOM     21  H   LIG d   1      -3.300  76.674 119.820  0.00  0.00    -0.090 HD
ENDBRANCH   5  18
BRANCH   3  22
ATOM     22  C   LIG d   1      -1.393  74.398 116.015  0.00  0.00     0.382 C 
ATOM     23  O   LIG d   1      -1.099  74.444 114.796  0.00  0.00    -0.241 OA
ATOM     24  O   LIG d   1      -0.679  73.739 116.794  0.00  0.00    -0.241 OA
ENDBRANCH   3  22
TORSDOF 7
ENDMDL
MODEL 4
REMARK VINA RESULT:      -5.4     14.590     16.267
REMARK  7 active torsions:
REMARK  status: ('A' for Active; 'I' for Inactive)
REMARK    1  A    between atoms: C_2  and  C_3 
REMARK    2  A    between atoms: C_3  and  O_6 
REMARK    3  A    between atoms: C_3  and  C_4 
REMARK    4  A    between atoms: C_7  and  O_6 
REMARK    5  A    between atoms: C_9  and  C_10 
REMARK    6  A    between atoms: N_15  and  C_14 
REMARK    7  A    between atoms: N_20  and  C_19 
REMARK       I    between atoms: C_22  and  N_20 
ROOT
ATOM      1  C   LIG d   1      -4.524  90.941 118.299  0.00  0.00     0.161 C 
ATOM      2  C   LIG d   1      -4.626  90.393 117.010  0.00  0.00     0.016 C 
ATOM      3  C   LIG d   1      -5.717  90.639 116.144  0.00  0.00     0.038 C 
ATOM      4  C   LIG d   1      -6.713  91.577 116.455  0.00  0.00     0.028 C 
ATOM      5  C   LIG d   1      -6.916  91.771 117.954  0.00  0.00    -0.047 C 
ATOM      6  C   LIG d   1      -5.546  92.053 118.613  0.00  0.00     0.091 C 
ENDROOT
BRANCH   1   7
ATOM      7  O   LIG d   1      -3.182  91.416 118.524  0.00  0.00    -0.368 OA
BRANCH   7   8
ATOM      8  C   LIG d   1      -2.368  90.625 119.425  0.00  0.00     0.119 C 
BRANCH   8   9
ATOM      9  C   LIG d   1      -2.199  91.434 120.726  0.00  0.00     0.028 C 
ATOM     10  C   LIG d   1      -2.045  92.942 120.464  0.00  0.00     0.006 C 
ENDBRANCH   8   9
BRANCH   8  11
ATOM     11  C   LIG d   1      -0.951  90.438 118.877  0.00  0.00     0.028 C 
ATOM     12  C   LIG d   1      -0.935  89.989 117.407  0.00  0.00     0.006 C 
ENDBRANCH   8  11
ENDBRANCH   7   8
ENDBRANCH   1   7
BRANCH   6  13
ATOM     13  N   LIG d   1      -5.642  92.173 120.091  0.00  0.00    -0.311 N 
ATOM     14  C   LIG d   1      -5.768  93.337 120.726  0.00  0.00     0.210 C 
ATOM     15  C   LIG d   1      -5.830  93.237 122.253  0.00  0.00     0.109 C 
ATOM     16  O   LIG d   1      -5.866  94.440 120.168  0.00  0.00    -0.276 OA
ATOM     17  H   LIG d   1      -5.602  91.324 120.621  0.00  0.00     0.149 HD
ENDBRANCH   6  13
BRANCH   5  18
ATOM     18  N   LIG d   1      -7.882  92.871 118.134  0.00  0.00     0.381 N 
ATOM     19  H   LIG d   1      -8.812  92.532 117.990  0.00  0.00    -0.090 HD
ATOM     20  H   LIG d   1      -7.696  93.582 117.449  0.00  0.00    -0.090 HD
ATOM     21  H   LIG d   1      -7.798  93.252 119.051  0.00  0.00    -0.090 HD
ENDBRANCH   5  18
BRANCH   3  22
ATOM     22  C   LIG d   1      -5.839  89.913 114.969  0.00  0.00     0.382 C 
ATOM     23  O   LIG d   1      -6.943  89.863 114.375  0.00  0.00    -0.241 OA
ATOM     24  O   LIG d   1      -4.871  89.271 114.520  0.00  0.00    -0.241 OA
ENDBRANCH   3  22
TORSDOF 7
ENDMDL
MODEL 5
REMARK VINA RESULT:      -5.2      2.234      3.366
REMARK  7 active torsions:
REMARK  status: ('A' for Active; 'I' for Inactive)
REMARK    1  A    between atoms: C_2  and  C_3 
REMARK    2  A    between atoms: C_3  and  O_6 
REMARK    3  A    between atoms: C_3  and  C_4 
REMARK    4  A    between atoms: C_7  and  O_6 
REMARK    5  A    between atoms: C_9  and  C_10 
REMARK    6  A    between atoms: N_15  and  C_14 
REMARK    7  A    between atoms: N_20  and  C_19 
REMARK       I    between atoms: C_22  and  N_20 
ROOT
ATOM      1  C   LIG d   1      -4.831  75.228 117.624  0.00  0.00     0.161 C 
ATOM      2  C   LIG d   1      -6.127  75.736 117.812  0.00  0.00     0.016 C 
ATOM      3  C   LIG d   1      -6.480  77.081 117.556  0.00  0.00     0.038 C 
ATOM      4  C   LIG d   1      -5.590  77.979 116.948  0.00  0.00     0.028 C 
ATOM      5  C   LIG d   1      -4.125  77.649 117.209  0.00  0.00    -0.047 C 
ATOM      6  C   LIG d   1      -3.874  76.165 116.856  0.00  0.00     0.091 C 
ENDROOT
BRANCH   1   7
ATOM      7  O   LIG d   1      -4.899  73.942 116.978  0.00  0.00    -0.368 OA
BRANCH   7   8
ATOM      8  C   LIG d   1      -5.934  73.786 115.976  0.00  0.00     0.119 C 
BRANCH   8   9
ATOM      9  C   LIG d   1      -6.397  72.317 116.014  0.00  0.00     0.028 C 
ATOM     10  C   LIG d   1      -7.600  72.105 116.950  0.00  0.00     0.006 C 
ENDBRANCH   8   9
BRANCH   8  11
ATOM     11  C   LIG d   1      -5.380  74.000 114.564  0.00  0.00     0.028 C 
ATOM     12  C   LIG d   1      -5.810  75.342 113.952  0.00  0.00     0.006 C 
ENDBRANCH   8  11
ENDBRANCH   7   8
ENDBRANCH   1   7
BRANCH   6  13
ATOM     13  N   LIG d   1      -2.484  75.736 117.161  0.00  0.00    -0.311 N 
ATOM     14  C   LIG d   1      -1.697  75.119 116.282  0.00  0.00     0.210 C 
ATOM     15  C   LIG d   1      -0.308  74.746 116.807  0.00  0.00     0.109 C 
ATOM     16  O   LIG d   1      -2.007  74.874 115.106  0.00  0.00    -0.276 OA
ATOM     17  H   LIG d   1      -2.141  75.924 118.083  0.00  0.00     0.149 HD
ENDBRANCH   6  13
BRANCH   5  18
ATOM     18  N   LIG d   1      -3.309  78.579 116.406  0.00  0.00     0.381 N 
ATOM     19  H   LIG d   1      -3.359  79.498 116.798  0.00  0.00    -0.090 HD
ATOM     20  H   LIG d   1      -3.678  78.613 115.472  0.00  0.00    -0.090 HD
ATOM     21  H   LIG d   1      -2.361  78.271 116.385  0.00  0.00    -0.090 HD
ENDBRANCH   5  18
BRANCH   3  22
ATOM     22  C   LIG d   1      -7.725  77.551 117.948  0.00  0.00     0.382 C 
ATOM     23  O   LIG d   1      -8.691  76.757 118.048  0.00  0.00    -0.241 OA
ATOM     24  O   LIG d   1      -7.904  78.765 118.159  0.00  0.00    -0.241 OA
ENDBRANCH   3  22
TORSDOF 7
ENDMDL
MODEL 6
REMARK VINA RESULT:      -5.0      2.592      5.436
REMARK  7 active torsions:
REMARK  status: ('A' for Active; 'I' for Inactive)
REMARK    1  A    between atoms: C_2  and  C_3 
REMARK    2  A    between atoms: C_3  and  O_6 
REMARK    3  A    between atoms: C_3  and  C_4 
REMARK    4  A    between atoms: C_7  and  O_6 
REMARK    5  A    between atoms: C_9  and  C_10 
REMARK    6  A    between atoms: N_15  and  C_14 
REMARK    7  A    between atoms: N_20  and  C_19 
REMARK       I    between atoms: C_22  and  N_20 
ROOT
ATOM      1  C   LIG d   1      -5.311  76.295 115.829  0.00  0.00     0.161 C 
ATOM      2  C   LIG d   1      -4.616  76.172 114.614  0.00  0.00     0.016 C 
ATOM      3  C   LIG d   1      -3.614  77.077 114.195  0.00  0.00     0.038 C 
ATOM      4  C   LIG d   1      -3.130  78.089 115.037  0.00  0.00     0.028 C 
ATOM      5  C   LIG d   1      -4.151  78.559 116.068  0.00  0.00    -0.047 C 
ATOM      6  C   LIG d   1      -4.718  77.328 116.810  0.00  0.00     0.091 C 
ENDROOT
BRANCH   1   7
ATOM      7  O   LIG d   1      -5.418  75.005 116.463  0.00  0.00    -0.368 OA
BRANCH   7   8
ATOM      8  C   LIG d   1      -6.646  74.276 116.220  0.00  0.00     0.119 C 
BRANCH   8   9
ATOM      9  C   LIG d   1      -7.567  74.501 117.435  0.00  0.00     0.028 C 
ATOM     10  C   LIG d   1      -8.639  75.570 117.168  0.00  0.00     0.006 C 
ENDBRANCH   8   9
BRANCH   8  11
ATOM     11  C   LIG d   1      -6.397  72.765 116.174  0.00  0.00     0.028 C 
ATOM     12  C   LIG d   1      -7.460  71.962 116.940  0.00  0.00     0.006 C 
ENDBRANCH   8  11
ENDBRANCH   7   8
ENDBRANCH   1   7
BRANCH   6  13
ATOM     13  N   LIG d   1      -5.786  77.692 117.778  0.00  0.00    -0.311 N 
ATOM     14  C   LIG d   1      -5.765  77.335 119.061  0.00  0.00     0.210 C 
ATOM     15  C   LIG d   1      -6.973  77.798 119.881  0.00  0.00     0.109 C 
ATOM     16  O   LIG d   1      -4.844  76.708 119.606  0.00  0.00    -0.276 OA
ATOM     17  H   LIG d   1      -6.556  78.228 117.428  0.00  0.00     0.149 HD
ENDBRANCH   6  13
BRANCH   5  18
ATOM     18  N   LIG d   1      -3.471  79.513 116.965  0.00  0.00     0.381 N 
ATOM     19  H   LIG d   1      -2.909  79.014 117.626  0.00  0.00    -0.090 HD
ATOM     20  H   LIG d   1      -4.165  80.034 117.471  0.00  0.00    -0.090 HD
ATOM     21  H   LIG d   1      -2.901  80.133 116.434  0.00  0.00    -0.090 HD
ENDBRANCH   5  18
BRANCH   3  22
ATOM     22  C   LIG d   1      -3.114  77.000 112.904  0.00  0.00     0.382 C 
ATOM     23  O   LIG d   1      -3.841  77.311 111.930  0.00  0.00    -0.241 OA
ATOM     24  O   LIG d   1      -1.960  76.580 112.698  0.00  0.00    -0.241 OA
ENDBRANCH   3  22
TORSDOF 7
ENDMDL
MODEL 7
REMARK VINA RESULT:      -5.0      1.662      5.020
REMARK  7 active torsions:
REMARK  status: ('A' for Active; 'I' for Inactive)
REMARK    1  A    between atoms: C_2  and  C_3 
REMARK    2  A    between atoms: C_3  and  O_6 
REMARK    3  A    between atoms: C_3  and  C_4 
REMARK    4  A    between atoms: C_7  and  O_6 
REMARK    5  A    between atoms: C_9  and  C_10 
REMARK    6  A    between atoms: N_15  and  C_14 
REMARK    7  A    between atoms: N_20  and  C_19 
REMARK       I    between atoms: C_22  and  N_20 
ROOT
ATOM      1  C   LIG d   1      -6.464  77.134 116.933  0.00  0.00     0.161 C 
ATOM      2  C   LIG d   1      -5.279  77.746 116.492  0.00  0.00     0.016 C 
ATOM      3  C   LIG d   1      -4.872  79.038 116.899  0.00  0.00     0.038 C 
ATOM      4  C   LIG d   1      -5.553  79.748 117.899  0.00  0.00     0.028 C 
ATOM      5  C   LIG d   1      -7.030  79.385 118.002  0.00  0.00    -0.047 C 
ATOM      6  C   LIG d   1      -7.162  77.848 118.109  0.00  0.00     0.091 C 
ENDROOT
BRANCH   1   7
ATOM      7  O   LIG d   1      -6.208  75.755 117.265  0.00  0.00    -0.368 OA
BRANCH   7   8
ATOM      8  C   LIG d   1      -6.828  74.767 116.407  0.00  0.00     0.119 C 
BRANCH   8   9
ATOM      9  C   LIG d   1      -7.541  73.747 117.316  0.00  0.00     0.028 C 
ATOM     10  C   LIG d   1      -7.406  72.305 116.799  0.00  0.00     0.006 C 
ENDBRANCH   8   9
BRANCH   8  11
ATOM     11  C   LIG d   1      -5.779  73.960 115.637  0.00  0.00     0.028 C 
ATOM     12  C   LIG d   1      -5.381  74.617 114.306  0.00  0.00     0.006 C 
ENDBRANCH   8  11
ENDBRANCH   7   8
ENDBRANCH   1   7
BRANCH   6  13
ATOM     13  N   LIG d   1      -8.580  77.402 118.129  0.00  0.00    -0.311 N 
ATOM     14  C   LIG d   1      -9.281  77.238 119.249  0.00  0.00     0.210 C 
ATOM     15  C   LIG d   1     -10.719  76.752 119.047  0.00  0.00     0.109 C 
ATOM     16  O   LIG d   1      -8.859  77.481 120.390  0.00  0.00    -0.276 OA
ATOM     17  H   LIG d   1      -9.011  77.212 117.245  0.00  0.00     0.149 HD
ENDBRANCH   6  13
BRANCH   5  18
ATOM     18  N   LIG d   1      -7.584  80.095 119.170  0.00  0.00     0.381 N 
ATOM     19  H   LIG d   1      -7.032  79.896 119.981  0.00  0.00    -0.090 HD
ATOM     20  H   LIG d   1      -8.519  79.768 119.337  0.00  0.00    -0.090 HD
ATOM     21  H   LIG d   1      -7.593  81.077 118.999  0.00  0.00    -0.090 HD
ENDBRANCH   5  18
BRANCH   3  22
ATOM     22  C   LIG d   1      -3.795  79.648 116.275  0.00  0.00     0.382 C 
ATOM     23  O   LIG d   1      -2.806  80.018 116.951  0.00  0.00    -0.241 OA
ATOM     24  O   LIG d   1      -3.819  79.872 115.050  0.00  0.00    -0.241 OA
ENDBRANCH   3  22
TORSDOF 7
ENDMDL
MODEL 8
REMARK VINA RESULT:      -5.0      2.496      3.574
REMARK  7 active torsions:
REMARK  status: ('A' for Active; 'I' for Inactive)
REMARK    1  A    between atoms: C_2  and  C_3 
REMARK    2  A    between atoms: C_3  and  O_6 
REMARK    3  A    between atoms: C_3  and  C_4 
REMARK    4  A    between atoms: C_7  and  O_6 
REMARK    5  A    between atoms: C_9  and  C_10 
REMARK    6  A    between atoms: N_15  and  C_14 
REMARK    7  A    between atoms: N_20  and  C_19 
REMARK       I    between atoms: C_22  and  N_20 
ROOT
ATOM      1  C   LIG d   1      -8.470  77.897 118.947  0.00  0.00     0.161 C 
ATOM      2  C   LIG d   1      -9.385  77.020 119.552  0.00  0.00     0.016 C 
ATOM      3  C   LIG d   1     -10.635  77.433 120.068  0.00  0.00     0.038 C 
ATOM      4  C   LIG d   1     -11.122  78.735 119.877  0.00  0.00     0.028 C 
ATOM      5  C   LIG d   1     -10.020  79.777 119.718  0.00  0.00    -0.047 C 
ATOM      6  C   LIG d   1      -9.031  79.299 118.630  0.00  0.00     0.091 C 
ENDROOT
BRANCH   1   7
ATOM      7  O   LIG d   1      -7.929  77.293 117.756  0.00  0.00    -0.368 OA
BRANCH   7   8
ATOM      8  C   LIG d   1      -7.401  75.952 117.905  0.00  0.00     0.119 C 
BRANCH   8   9
ATOM      9  C   LIG d   1      -5.873  76.033 117.724  0.00  0.00     0.028 C 
ATOM     10  C   LIG d   1      -5.115  75.849 119.049  0.00  0.00     0.006 C 
ENDBRANCH   8   9
BRANCH   8  11
ATOM     11  C   LIG d   1      -7.893  75.032 116.784  0.00  0.00     0.028 C 
ATOM     12  C   LIG d   1      -7.573  73.552 117.044  0.00  0.00     0.006 C 
ENDBRANCH   8  11
ENDBRANCH   7   8
ENDBRANCH   1   7
BRANCH   6  13
ATOM     13  N   LIG d   1      -7.876  80.221 118.470  0.00  0.00    -0.311 N 
ATOM     14  C   LIG d   1      -7.869  81.247 117.622  0.00  0.00     0.210 C 
ATOM     15  C   LIG d   1      -6.570  82.059 117.600  0.00  0.00     0.109 C 
ATOM     16  O   LIG d   1      -8.827  81.583 116.909  0.00  0.00    -0.276 OA
ATOM     17  H   LIG d   1      -7.068  80.041 119.033  0.00  0.00     0.149 HD
ENDBRANCH   6  13
BRANCH   5  18
ATOM     18  N   LIG d   1     -10.666  81.062 119.389  0.00  0.00     0.381 N 
ATOM     19  H   LIG d   1     -10.779  81.607 120.220  0.00  0.00    -0.090 HD
ATOM     20  H   LIG d   1     -11.576  80.879 119.004  0.00  0.00    -0.090 HD
ATOM     21  H   LIG d   1     -10.113  81.562 118.728  0.00  0.00    -0.090 HD
ENDBRANCH   5  18
BRANCH   3  22
ATOM     22  C   LIG d   1     -11.395  76.550 120.820  0.00  0.00     0.382 C 
ATOM     23  O   LIG d   1     -12.508  76.909 121.273  0.00  0.00    -0.241 OA
ATOM     24  O   LIG d   1     -10.961  75.413 121.087  0.00  0.00    -0.241 OA
ENDBRANCH   3  22
TORSDOF 7
ENDMDL
MODEL 9
REMARK VINA RESULT:      -4.9      2.993      5.813
REMARK  7 active torsions:
REMARK  status: ('A' for Active; 'I' for Inactive)
REMARK    1  A    between atoms: C_2  and  C_3 
REMARK    2  A    between atoms: C_3  and  O_6 
REMARK    3  A    between atoms: C_3  and  C_4 
REMARK    4  A    between atoms: C_7  and  O_6 
REMARK    5  A    between atoms: C_9  and  C_10 
REMARK    6  A    between atoms: N_15  and  C_14 
REMARK    7  A    between atoms: N_20  and  C_19 
REMARK       I    between atoms: C_22  and  N_20 
ROOT
ATOM      1  C   LIG d   1      -4.526  75.379 117.256  0.00  0.00     0.161 C 
ATOM      2  C   LIG d   1      -3.530  74.783 116.466  0.00  0.00     0.016 C 
ATOM      3  C   LIG d   1      -2.146  74.964 116.690  0.00  0.00     0.038 C 
ATOM      4  C   LIG d   1      -1.660  75.637 117.821  0.00  0.00     0.028 C 
ATOM      5  C   LIG d   1      -2.629  76.680 118.367  0.00  0.00    -0.047 C 
ATOM      6  C   LIG d   1      -4.016  76.026 118.561  0.00  0.00     0.091 C 
ENDROOT
BRANCH   1   7
ATOM      7  O   LIG d   1      -5.561  74.418 117.545  0.00  0.00    -0.368 OA
BRANCH   7   8
ATOM      8  C   LIG d   1      -6.421  74.055 116.437  0.00  0.00     0.119 C 
BRANCH   8   9
ATOM      9  C   LIG d   1      -7.855  74.483 116.804  0.00  0.00     0.028 C 
ATOM     10  C   LIG d   1      -7.929  75.170 118.178  0.00  0.00     0.006 C 
ENDBRANCH   8   9
BRANCH   8  11
ATOM     11  C   LIG d   1      -6.485  72.536 116.256  0.00  0.00     0.028 C 
ATOM     12  C   LIG d   1      -5.887  71.768 117.446  0.00  0.00     0.006 C 
ENDBRANCH   8  11
ENDBRANCH   7   8
ENDBRANCH   1   7
BRANCH   6  13
ATOM     13  N   LIG d   1      -5.044  76.999 119.013  0.00  0.00    -0.311 N 
ATOM     14  C   LIG d   1      -5.321  77.231 120.295  0.00  0.00     0.210 C 
ATOM     15  C   LIG d   1      -6.430  78.259 120.541  0.00  0.00     0.109 C 
ATOM     16  O   LIG d   1      -4.731  76.707 121.252  0.00  0.00    -0.276 OA
ATOM     17  H   LIG d   1      -5.549  77.492 118.303  0.00  0.00     0.149 HD
ENDBRANCH   6  13
BRANCH   5  18
ATOM     18  N   LIG d   1      -2.057  77.206 119.622  0.00  0.00     0.381 N 
ATOM     19  H   LIG d   1      -2.551  76.824 120.404  0.00  0.00    -0.090 HD
ATOM     20  H   LIG d   1      -2.167  78.204 119.636  0.00  0.00    -0.090 HD
ATOM     21  H   LIG d   1      -1.091  76.969 119.682  0.00  0.00    -0.090 HD
ENDBRANCH   5  18
BRANCH   3  22
ATOM     22  C   LIG d   1      -1.232  74.502 115.756  0.00  0.00     0.382 C 
ATOM     23  O   LIG d   1      -0.362  73.662 116.091  0.00  0.00    -0.241 OA
ATOM     24  O   LIG d   1      -1.238  74.948 114.593  0.00  0.00    -0.241 OA
ENDBRANCH   3  22
TORSDOF 7
ENDMDL
