MODEL 1
REMARK VINA RESULT:      -5.1      0.000      0.000
REMARK  7 active torsions:
REMARK  status: ('A' for Active; 'I' for Inactive)
REMARK    1  A    between atoms: C_2  and  C_3 
REMARK    2  A    between atoms: C_3  and  O_6 
REMARK    3  A    between atoms: C_3  and  C_4 
REMARK    4  A    between atoms: C_7  and  O_6 
REMARK    5  A    between atoms: C_9  and  C_10 
REMARK    6  A    between atoms: N_15  and  C_14 
REMARK    7  A    between atoms: N_20  and  C_19 
REMARK       I    between atoms: C_22  and  N_20 
ROOT
ATOM      1  C   LIG d   1     -10.049  75.402 119.773  0.00  0.00     0.161 C 
ATOM      2  C   LIG d   1     -10.876  74.755 120.707  0.00  0.00     0.016 C 
ATOM      3  C   LIG d   1     -11.685  75.445 121.639  0.00  0.00     0.038 C 
ATOM      4  C   LIG d   1     -11.839  76.839 121.599  0.00  0.00     0.028 C 
ATOM      5  C   LIG d   1     -10.637  77.563 121.003  0.00  0.00    -0.047 C 
ATOM      6  C   LIG d   1     -10.288  76.920 119.641  0.00  0.00     0.091 C 
ENDROOT
BRANCH   1   7
ATOM      7  O   LIG d   1     -10.171  74.761 118.488  0.00  0.00    -0.368 OA
BRANCH   7   8
ATOM      8  C   LIG d   1     -10.105  73.314 118.488  0.00  0.00     0.119 C 
BRANCH   8   9
ATOM      9  C   LIG d   1      -8.790  72.910 117.793  0.00  0.00     0.028 C 
ATOM     10  C   LIG d   1      -8.859  71.501 117.180  0.00  0.00     0.006 C 
ENDBRANCH   8   9
BRANCH   8  11
ATOM     11  C   LIG d   1     -11.220  72.705 117.632  0.00  0.00     0.028 C 
ATOM     12  C   LIG d   1     -12.544  73.478 117.741  0.00  0.00     0.006 C 
ENDBRANCH   8  11
ENDBRANCH   7   8
ENDBRANCH   1   7
BRANCH   6  13
ATOM     13  N   LIG d   1      -9.072  77.515 119.028  0.00  0.00    -0.311 N 
ATOM     14  C   LIG d   1      -9.100  78.576 118.224  0.00  0.00     0.210 C 
ATOM     15  C   LIG d   1      -7.736  79.015 117.684  0.00  0.00     0.109 C 
ATOM     16  O   LIG d   1     -10.122  79.215 117.931  0.00  0.00    -0.276 OA
ATOM     17  H   LIG d   1      -8.196  77.078 119.237  0.00  0.00     0.149 HD
ENDBRANCH   6  13
BRANCH   5  18
ATOM     18  N   LIG d   1     -10.987  78.992 120.894  0.00  0.00     0.381 N 
ATOM     19  H   LIG d   1     -11.038  79.257 119.931  0.00  0.00    -0.090 HD
ATOM     20  H   LIG d   1     -10.266  79.538 121.333  0.00  0.00    -0.090 HD
ATOM     21  H   LIG d   1     -11.862  79.164 121.340  0.00  0.00    -0.090 HD
ENDBRANCH   5  18
BRANCH   3  22
ATOM     22  C   LIG d   1     -12.321  74.741 122.651  0.00  0.00     0.382 C 
ATOM     23  O   LIG d   1     -13.547  74.487 122.563  0.00  0.00    -0.241 OA
ATOM     24  O   LIG d   1     -11.694  74.395 123.670  0.00  0.00    -0.241 OA
ENDBRANCH   3  22
TORSDOF 7
ENDMDL
MODEL 2
REMARK VINA RESULT:      -5.1      2.762      3.668
REMARK  7 active torsions:
REMARK  status: ('A' for Active; 'I' for Inactive)
REMARK    1  A    between atoms: C_2  and  C_3 
REMARK    2  A    between atoms: C_3  and  O_6 
REMARK    3  A    between atoms: C_3  and  C_4 
REMARK    4  A    between atoms: C_7  and  O_6 
REMARK    5  A    between atoms: C_9  and  C_10 
REMARK    6  A    between atoms: N_15  and  C_14 
REMARK    7  A    between atoms: N_20  and  C_19 
REMARK       I    between atoms: C_22  and  N_20 
ROOT
ATOM      1  C   LIG d   1     -12.701  75.127 119.739  0.00  0.00     0.161 C 
ATOM      2  C   LIG d   1     -14.030  74.729 119.516  0.00  0.00     0.016 C 
ATOM      3  C   LIG d   1     -15.069  74.926 120.454  0.00  0.00     0.038 C 
ATOM      4  C   LIG d   1     -14.879  75.675 121.625  0.00  0.00     0.028 C 
ATOM      5  C   LIG d   1     -13.439  75.660 122.127  0.00  0.00    -0.047 C 
ATOM      6  C   LIG d   1     -12.498  76.045 120.963  0.00  0.00     0.091 C 
ENDROOT
BRANCH   1   7
ATOM      7  O   LIG d   1     -12.172  75.750 118.552  0.00  0.00    -0.368 OA
BRANCH   7   8
ATOM      8  C   LIG d   1     -11.180  74.989 117.820  0.00  0.00     0.119 C 
BRANCH   8   9
ATOM      9  C   LIG d   1     -10.970  73.660 118.572  0.00  0.00     0.028 C 
ATOM     10  C   LIG d   1     -11.376  72.439 117.730  0.00  0.00     0.006 C 
ENDBRANCH   8   9
BRANCH   8  11
ATOM     11  C   LIG d   1      -9.817  75.686 117.839  0.00  0.00     0.028 C 
ATOM     12  C   LIG d   1      -8.704  74.802 118.424  0.00  0.00     0.006 C 
ENDBRANCH   8  11
ENDBRANCH   7   8
ENDBRANCH   1   7
BRANCH   6  13
ATOM     13  N   LIG d   1     -11.063  75.973 121.345  0.00  0.00    -0.311 N 
ATOM     14  C   LIG d   1     -10.214  76.989 121.203  0.00  0.00     0.210 C 
ATOM     15  C   LIG d   1      -8.776  76.696 121.641  0.00  0.00     0.109 C 
ATOM     16  O   LIG d   1     -10.523  78.115 120.785  0.00  0.00    -0.276 OA
ATOM     17  H   LIG d   1     -10.735  75.105 121.722  0.00  0.00     0.149 HD
ENDBRANCH   6  13
BRANCH   5  18
ATOM     18  N   LIG d   1     -13.355  76.589 123.270  0.00  0.00     0.381 N 
ATOM     19  H   LIG d   1     -12.466  77.048 123.268  0.00  0.00    -0.090 HD
ATOM     20  H   LIG d   1     -13.437  76.063 124.122  0.00  0.00    -0.090 HD
ATOM     21  H   LIG d   1     -14.086  77.263 123.215  0.00  0.00    -0.090 HD
ENDBRANCH   5  18
BRANCH   3  22
ATOM     22  C   LIG d   1     -16.306  74.335 120.244  0.00  0.00     0.382 C 
ATOM     23  O   LIG d   1     -16.681  73.388 120.976  0.00  0.00    -0.241 OA
ATOM     24  O   LIG d   1     -17.032  74.708 119.304  0.00  0.00    -0.241 OA
ENDBRANCH   3  22
TORSDOF 7
ENDMDL
MODEL 3
REMARK VINA RESULT:      -5.0      2.188      4.582
REMARK  7 active torsions:
REMARK  status: ('A' for Active; 'I' for Inactive)
REMARK    1  A    between atoms: C_2  and  C_3 
REMARK    2  A    between atoms: C_3  and  O_6 
REMARK    3  A    between atoms: C_3  and  C_4 
REMARK    4  A    between atoms: C_7  and  O_6 
REMARK    5  A    between atoms: C_9  and  C_10 
REMARK    6  A    between atoms: N_15  and  C_14 
REMARK    7  A    between atoms: N_20  and  C_19 
REMARK       I    between atoms: C_22  and  N_20 
ROOT
ATOM      1  C   LIG d   1     -10.689  75.379 118.174  0.00  0.00     0.161 C 
ATOM      2  C   LIG d   1     -10.591  73.987 118.011  0.00  0.00     0.016 C 
ATOM      3  C   LIG d   1      -9.364  73.310 117.820  0.00  0.00     0.038 C 
ATOM      4  C   LIG d   1      -8.130  73.967 117.930  0.00  0.00     0.028 C 
ATOM      5  C   LIG d   1      -8.202  75.452 117.592  0.00  0.00    -0.047 C 
ATOM      6  C   LIG d   1      -9.344  76.099 118.409  0.00  0.00     0.091 C 
ENDROOT
BRANCH   1   7
ATOM      7  O   LIG d   1     -11.612  75.682 119.239  0.00  0.00    -0.368 OA
BRANCH   7   8
ATOM      8  C   LIG d   1     -11.891  74.605 120.167  0.00  0.00     0.119 C 
BRANCH   8   9
ATOM      9  C   LIG d   1     -13.399  74.643 120.480  0.00  0.00     0.028 C 
ATOM     10  C   LIG d   1     -14.234  73.884 119.436  0.00  0.00     0.006 C 
ENDBRANCH   8   9
BRANCH   8  11
ATOM     11  C   LIG d   1     -11.192  74.832 121.511  0.00  0.00     0.028 C 
ATOM     12  C   LIG d   1      -9.948  73.948 121.692  0.00  0.00     0.006 C 
ENDBRANCH   8  11
ENDBRANCH   7   8
ENDBRANCH   1   7
BRANCH   6  13
ATOM     13  N   LIG d   1      -9.538  77.534 118.076  0.00  0.00    -0.311 N 
ATOM     14  C   LIG d   1      -9.643  78.492 118.995  0.00  0.00     0.210 C 
ATOM     15  C   LIG d   1      -9.859  79.902 118.437  0.00  0.00     0.109 C 
ATOM     16  O   LIG d   1      -9.546  78.313 120.218  0.00  0.00    -0.276 OA
ATOM     17  H   LIG d   1      -9.596  77.773 117.105  0.00  0.00     0.149 HD
ENDBRANCH   6  13
BRANCH   5  18
ATOM     18  N   LIG d   1      -6.880  76.040 117.882  0.00  0.00     0.381 N 
ATOM     19  H   LIG d   1      -6.165  75.500 117.437  0.00  0.00    -0.090 HD
ATOM     20  H   LIG d   1      -6.723  76.015 118.874  0.00  0.00    -0.090 HD
ATOM     21  H   LIG d   1      -6.846  76.981 117.556  0.00  0.00    -0.090 HD
ENDBRANCH   5  18
BRANCH   3  22
ATOM     22  C   LIG d   1      -9.367  71.967 117.474  0.00  0.00     0.382 C 
ATOM     23  O   LIG d   1     -10.446  71.398 117.181  0.00  0.00    -0.241 OA
ATOM     24  O   LIG d   1      -8.311  71.308 117.494  0.00  0.00    -0.241 OA
ENDBRANCH   3  22
TORSDOF 7
ENDMDL
MODEL 4
REMARK VINA RESULT:      -4.8      1.212      1.788
REMARK  7 active torsions:
REMARK  status: ('A' for Active; 'I' for Inactive)
REMARK    1  A    between atoms: C_2  and  C_3 
REMARK    2  A    between atoms: C_3  and  O_6 
REMARK    3  A    between atoms: C_3  and  C_4 
REMARK    4  A    between atoms: C_7  and  O_6 
REMARK    5  A    between atoms: C_9  and  C_10 
REMARK    6  A    between atoms: N_15  and  C_14 
REMARK    7  A    between atoms: N_20  and  C_19 
REMARK       I    between atoms: C_22  and  N_20 
ROOT
ATOM      1  C   LIG d   1     -11.106  76.163 119.785  0.00  0.00     0.161 C 
ATOM      2  C   LIG d   1     -12.023  75.632 120.707  0.00  0.00     0.016 C 
ATOM      3  C   LIG d   1     -12.402  76.295 121.898  0.00  0.00     0.038 C 
ATOM      4  C   LIG d   1     -12.000  77.610 122.174  0.00  0.00     0.028 C 
ATOM      5  C   LIG d   1     -10.676  77.990 121.520  0.00  0.00    -0.047 C 
ATOM      6  C   LIG d   1     -10.743  77.645 120.014  0.00  0.00     0.091 C 
ENDROOT
BRANCH   1   7
ATOM      7  O   LIG d   1     -11.594  75.969 118.443  0.00  0.00    -0.368 OA
BRANCH   7   8
ATOM      8  C   LIG d   1     -10.949  74.923 117.676  0.00  0.00     0.119 C 
BRANCH   8   9
ATOM      9  C   LIG d   1     -11.890  73.703 117.674  0.00  0.00     0.028 C 
ATOM     10  C   LIG d   1     -11.124  72.371 117.609  0.00  0.00     0.006 C 
ENDBRANCH   8   9
BRANCH   8  11
ATOM     11  C   LIG d   1      -9.664  74.443 118.357  0.00  0.00     0.028 C 
ATOM     12  C   LIG d   1      -8.393  74.948 117.656  0.00  0.00     0.006 C 
ENDBRANCH   8  11
ENDBRANCH   7   8
ENDBRANCH   1   7
BRANCH   6  13
ATOM     13  N   LIG d   1      -9.457  77.907 119.316  0.00  0.00    -0.311 N 
ATOM     14  C   LIG d   1      -9.320  78.812 118.348  0.00  0.00     0.210 C 
ATOM     15  C   LIG d   1      -7.914  78.907 117.747  0.00  0.00     0.109 C 
ATOM     16  O   LIG d   1     -10.221  79.566 117.952  0.00  0.00    -0.276 OA
ATOM     17  H   LIG d   1      -8.666  77.361 119.596  0.00  0.00     0.149 HD
ENDBRANCH   6  13
BRANCH   5  18
ATOM     18  N   LIG d   1     -10.447  79.424 121.776  0.00  0.00     0.381 N 
ATOM     19  H   LIG d   1      -9.483  79.646 121.626  0.00  0.00    -0.090 HD
ATOM     20  H   LIG d   1     -10.672  79.624 122.734  0.00  0.00    -0.090 HD
ATOM     21  H   LIG d   1     -11.019  79.973 121.172  0.00  0.00    -0.090 HD
ENDBRANCH   5  18
BRANCH   3  22
ATOM     22  C   LIG d   1     -13.159  75.625 122.846  0.00  0.00     0.382 C 
ATOM     23  O   LIG d   1     -14.127  74.912 122.486  0.00  0.00    -0.241 OA
ATOM     24  O   LIG d   1     -12.914  75.759 124.060  0.00  0.00    -0.241 OA
ENDBRANCH   3  22
TORSDOF 7
ENDMDL
MODEL 5
REMARK VINA RESULT:      -4.7     18.584     20.142
REMARK  7 active torsions:
REMARK  status: ('A' for Active; 'I' for Inactive)
REMARK    1  A    between atoms: C_2  and  C_3 
REMARK    2  A    between atoms: C_3  and  O_6 
REMARK    3  A    between atoms: C_3  and  C_4 
REMARK    4  A    between atoms: C_7  and  O_6 
REMARK    5  A    between atoms: C_9  and  C_10 
REMARK    6  A    between atoms: N_15  and  C_14 
REMARK    7  A    between atoms: N_20  and  C_19 
REMARK       I    between atoms: C_22  and  N_20 
ROOT
ATOM      1  C   LIG d   1      -0.805  59.770 120.050  0.00  0.00     0.161 C 
ATOM      2  C   LIG d   1      -2.115  59.290 120.220  0.00  0.00     0.016 C 
ATOM      3  C   LIG d   1      -2.460  57.922 120.132  0.00  0.00     0.038 C 
ATOM      4  C   LIG d   1      -1.487  56.918 120.016  0.00  0.00     0.028 C 
ATOM      5  C   LIG d   1      -0.207  57.390 119.336  0.00  0.00    -0.047 C 
ATOM      6  C   LIG d   1       0.286  58.679 120.034  0.00  0.00     0.091 C 
ENDROOT
BRANCH   1   7
ATOM      7  O   LIG d   1      -0.512  60.757 121.058  0.00  0.00    -0.368 OA
BRANCH   7   8
ATOM      8  C   LIG d   1      -0.051  60.248 122.334  0.00  0.00     0.119 C 
BRANCH   8   9
ATOM      9  C   LIG d   1      -1.078  60.676 123.401  0.00  0.00     0.028 C 
ATOM     10  C   LIG d   1      -1.855  59.481 123.980  0.00  0.00     0.006 C 
ENDBRANCH   8   9
BRANCH   8  11
ATOM     11  C   LIG d   1       1.267  60.904 122.753  0.00  0.00     0.028 C 
ATOM     12  C   LIG d   1       1.073  62.022 123.790  0.00  0.00     0.006 C 
ENDBRANCH   8  11
ENDBRANCH   7   8
ENDBRANCH   1   7
BRANCH   6  13
ATOM     13  N   LIG d   1       1.488  59.255 119.377  0.00  0.00    -0.311 N 
ATOM     14  C   LIG d   1       2.733  59.002 119.775  0.00  0.00     0.210 C 
ATOM     15  C   LIG d   1       3.827  59.714 118.972  0.00  0.00     0.109 C 
ATOM     16  O   LIG d   1       3.038  58.231 120.697  0.00  0.00    -0.276 OA
ATOM     17  H   LIG d   1       1.334  59.867 118.600  0.00  0.00     0.149 HD
ENDBRANCH   6  13
BRANCH   5  18
ATOM     18  N   LIG d   1       0.769  56.286 119.406  0.00  0.00     0.381 N 
ATOM     19  H   LIG d   1       1.601  56.537 118.910  0.00  0.00    -0.090 HD
ATOM     20  H   LIG d   1       0.373  55.474 118.966  0.00  0.00    -0.090 HD
ATOM     21  H   LIG d   1       0.988  56.084 120.357  0.00  0.00    -0.090 HD
ENDBRANCH   5  18
BRANCH   3  22
ATOM     22  C   LIG d   1      -3.796  57.549 120.119  0.00  0.00     0.382 C 
ATOM     23  O   LIG d   1      -4.442  57.572 119.044  0.00  0.00    -0.241 OA
ATOM     24  O   LIG d   1      -4.374  57.234 121.176  0.00  0.00    -0.241 OA
ENDBRANCH   3  22
TORSDOF 7
ENDMDL
MODEL 6
REMARK VINA RESULT:      -4.7      2.684      4.884
REMARK  7 active torsions:
REMARK  status: ('A' for Active; 'I' for Inactive)
REMARK    1  A    between atoms: C_2  and  C_3 
REMARK    2  A    between atoms: C_3  and  O_6 
REMARK    3  A    between atoms: C_3  and  C_4 
REMARK    4  A    between atoms: C_7  and  O_6 
REMARK    5  A    between atoms: C_9  and  C_10 
REMARK    6  A    between atoms: N_15  and  C_14 
REMARK    7  A    between atoms: N_20  and  C_19 
REMARK       I    between atoms: C_22  and  N_20 
ROOT
ATOM      1  C   LIG d   1     -11.751  75.603 120.205  0.00  0.00     0.161 C 
ATOM      2  C   LIG d   1     -13.100  75.478 120.579  0.00  0.00     0.016 C 
ATOM      3  C   LIG d   1     -13.972  74.508 120.034  0.00  0.00     0.038 C 
ATOM      4  C   LIG d   1     -13.513  73.493 119.183  0.00  0.00     0.028 C 
ATOM      5  C   LIG d   1     -12.273  73.885 118.387  0.00  0.00    -0.047 C 
ATOM      6  C   LIG d   1     -11.204  74.433 119.360  0.00  0.00     0.091 C 
ENDROOT
BRANCH   1   7
ATOM      7  O   LIG d   1     -10.935  75.799 121.376  0.00  0.00    -0.368 OA
BRANCH   7   8
ATOM      8  C   LIG d   1     -10.805  74.659 122.261  0.00  0.00     0.119 C 
BRANCH   8   9
ATOM      9  C   LIG d   1     -11.347  75.080 123.641  0.00  0.00     0.028 C 
ATOM     10  C   LIG d   1     -12.587  74.272 124.057  0.00  0.00     0.006 C 
ENDBRANCH   8   9
BRANCH   8  11
ATOM     11  C   LIG d   1      -9.335  74.299 122.495  0.00  0.00     0.028 C 
ATOM     12  C   LIG d   1      -9.160  73.028 123.341  0.00  0.00     0.006 C 
ENDBRANCH   8  11
ENDBRANCH   7   8
ENDBRANCH   1   7
BRANCH   6  13
ATOM     13  N   LIG d   1      -9.990  74.918 118.654  0.00  0.00    -0.311 N 
ATOM     14  C   LIG d   1      -8.952  74.137 118.360  0.00  0.00     0.210 C 
ATOM     15  C   LIG d   1      -7.794  74.842 117.647  0.00  0.00     0.109 C 
ATOM     16  O   LIG d   1      -8.893  72.921 118.593  0.00  0.00    -0.276 OA
ATOM     17  H   LIG d   1      -9.966  75.886 118.399  0.00  0.00     0.149 HD
ENDBRANCH   6  13
BRANCH   5  18
ATOM     18  N   LIG d   1     -11.822  72.691 117.647  0.00  0.00     0.381 N 
ATOM     19  H   LIG d   1     -10.861  72.506 117.855  0.00  0.00    -0.090 HD
ATOM     20  H   LIG d   1     -11.903  72.869 116.661  0.00  0.00    -0.090 HD
ATOM     21  H   LIG d   1     -12.381  71.904 117.896  0.00  0.00    -0.090 HD
ENDBRANCH   5  18
BRANCH   3  22
ATOM     22  C   LIG d   1     -15.330  74.573 120.310  0.00  0.00     0.382 C 
ATOM     23  O   LIG d   1     -15.729  74.568 121.499  0.00  0.00    -0.241 OA
ATOM     24  O   LIG d   1     -16.162  74.592 119.384  0.00  0.00    -0.241 OA
ENDBRANCH   3  22
TORSDOF 7
ENDMDL
MODEL 7
REMARK VINA RESULT:      -4.7     19.661     21.503
REMARK  7 active torsions:
REMARK  status: ('A' for Active; 'I' for Inactive)
REMARK    1  A    between atoms: C_2  and  C_3 
REMARK    2  A    between atoms: C_3  and  O_6 
REMARK    3  A    between atoms: C_3  and  C_4 
REMARK    4  A    between atoms: C_7  and  O_6 
REMARK    5  A    between atoms: C_9  and  C_10 
REMARK    6  A    between atoms: N_15  and  C_14 
REMARK    7  A    between atoms: N_20  and  C_19 
REMARK       I    between atoms: C_22  and  N_20 
ROOT
ATOM      1  C   LIG d   1       0.692  58.648 118.827  0.00  0.00     0.161 C 
ATOM      2  C   LIG d   1       2.015  59.079 119.016  0.00  0.00     0.016 C 
ATOM      3  C   LIG d   1       2.529  59.488 120.268  0.00  0.00     0.038 C 
ATOM      4  C   LIG d   1       1.792  59.348 121.453  0.00  0.00     0.028 C 
ATOM      5  C   LIG d   1       0.283  59.392 121.237  0.00  0.00    -0.047 C 
ATOM      6  C   LIG d   1      -0.094  58.384 120.128  0.00  0.00     0.091 C 
ENDROOT
BRANCH   1   7
ATOM      7  O   LIG d   1       0.674  57.479 117.985  0.00  0.00    -0.368 OA
BRANCH   7   8
ATOM      8  C   LIG d   1       1.113  56.243 118.601  0.00  0.00     0.119 C 
BRANCH   8   9
ATOM      9  C   LIG d   1       2.389  55.787 117.867  0.00  0.00     0.028 C 
ATOM     10  C   LIG d   1       3.608  55.712 118.802  0.00  0.00     0.006 C 
ENDBRANCH   8   9
BRANCH   8  11
ATOM     11  C   LIG d   1       0.096  55.119 118.381  0.00  0.00     0.028 C 
ATOM     12  C   LIG d   1       0.535  54.121 117.298  0.00  0.00     0.006 C 
ENDBRANCH   8  11
ENDBRANCH   7   8
ENDBRANCH   1   7
BRANCH   6  13
ATOM     13  N   LIG d   1      -1.542  58.423 119.795  0.00  0.00    -0.311 N 
ATOM     14  C   LIG d   1      -2.435  57.576 120.304  0.00  0.00     0.210 C 
ATOM     15  C   LIG d   1      -3.872  57.778 119.813  0.00  0.00     0.109 C 
ATOM     16  O   LIG d   1      -2.178  56.696 121.140  0.00  0.00    -0.276 OA
ATOM     17  H   LIG d   1      -1.842  59.126 119.148  0.00  0.00     0.149 HD
ENDBRANCH   6  13
BRANCH   5  18
ATOM     18  N   LIG d   1      -0.361  59.097 122.531  0.00  0.00     0.381 N 
ATOM     19  H   LIG d   1      -0.440  59.937 123.069  0.00  0.00    -0.090 HD
ATOM     20  H   LIG d   1       0.214  58.449 123.040  0.00  0.00    -0.090 HD
ATOM     21  H   LIG d   1      -1.264  58.704 122.380  0.00  0.00    -0.090 HD
ENDBRANCH   5  18
BRANCH   3  22
ATOM     22  C   LIG d   1       3.781  60.081 120.336  0.00  0.00     0.382 C 
ATOM     23  O   LIG d   1       4.015  60.951 121.209  0.00  0.00    -0.241 OA
ATOM     24  O   LIG d   1       4.665  59.788 119.509  0.00  0.00    -0.241 OA
ENDBRANCH   3  22
TORSDOF 7
ENDMDL
MODEL 8
REMARK VINA RESULT:      -4.6      2.140      4.736
REMARK  7 active torsions:
REMARK  status: ('A' for Active; 'I' for Inactive)
REMARK    1  A    between atoms: C_2  and  C_3 
REMARK    2  A    between atoms: C_3  and  O_6 
REMARK    3  A    between atoms: C_3  and  C_4 
REMARK    4  A    between atoms: C_7  and  O_6 
REMARK    5  A    between atoms: C_9  and  C_10 
REMARK    6  A    between atoms: N_15  and  C_14 
REMARK    7  A    between atoms: N_20  and  C_19 
REMARK       I    between atoms: C_22  and  N_20 
ROOT
ATOM      1  C   LIG d   1     -10.799  75.919 118.702  0.00  0.00     0.161 C 
ATOM      2  C   LIG d   1      -9.604  75.985 117.967  0.00  0.00     0.016 C 
ATOM      3  C   LIG d   1      -8.327  76.091 118.565  0.00  0.00     0.038 C 
ATOM      4  C   LIG d   1      -8.147  75.985 119.953  0.00  0.00     0.028 C 
ATOM      5  C   LIG d   1      -9.366  76.424 120.757  0.00  0.00    -0.047 C 
ATOM      6  C   LIG d   1     -10.615  75.689 120.217  0.00  0.00     0.091 C 
ENDROOT
BRANCH   1   7
ATOM      7  O   LIG d   1     -11.661  74.907 118.144  0.00  0.00    -0.368 OA
BRANCH   7   8
ATOM      8  C   LIG d   1     -11.491  73.566 118.665  0.00  0.00     0.119 C 
BRANCH   8   9
ATOM      9  C   LIG d   1     -10.851  72.714 117.552  0.00  0.00     0.028 C 
ATOM     10  C   LIG d   1      -9.347  72.487 117.777  0.00  0.00     0.006 C 
ENDBRANCH   8   9
BRANCH   8  11
ATOM     11  C   LIG d   1     -12.842  72.906 118.955  0.00  0.00     0.028 C 
ATOM     12  C   LIG d   1     -13.990  73.921 119.065  0.00  0.00     0.006 C 
ENDBRANCH   8  11
ENDBRANCH   7   8
ENDBRANCH   1   7
BRANCH   6  13
ATOM     13  N   LIG d   1     -11.865  76.124 120.893  0.00  0.00    -0.311 N 
ATOM     14  C   LIG d   1     -12.424  75.457 121.901  0.00  0.00     0.210 C 
ATOM     15  C   LIG d   1     -13.721  76.068 122.441  0.00  0.00     0.109 C 
ATOM     16  O   LIG d   1     -11.951  74.435 122.420  0.00  0.00    -0.276 OA
ATOM     17  H   LIG d   1     -12.298  76.961 120.555  0.00  0.00     0.149 HD
ENDBRANCH   6  13
BRANCH   5  18
ATOM     18  N   LIG d   1      -9.093  76.132 122.177  0.00  0.00     0.381 N 
ATOM     19  H   LIG d   1      -9.492  75.248 122.424  0.00  0.00    -0.090 HD
ATOM     20  H   LIG d   1      -9.522  76.842 122.743  0.00  0.00    -0.090 HD
ATOM     21  H   LIG d   1      -8.110  76.117 122.338  0.00  0.00    -0.090 HD
ENDBRANCH   5  18
BRANCH   3  22
ATOM     22  C   LIG d   1      -7.217  76.345 117.775  0.00  0.00     0.382 C 
ATOM     23  O   LIG d   1      -6.640  75.402 117.181  0.00  0.00    -0.241 OA
ATOM     24  O   LIG d   1      -6.757  77.500 117.684  0.00  0.00    -0.241 OA
ENDBRANCH   3  22
TORSDOF 7
ENDMDL
MODEL 9
REMARK VINA RESULT:      -4.4      4.136      6.788
REMARK  7 active torsions:
REMARK  status: ('A' for Active; 'I' for Inactive)
REMARK    1  A    between atoms: C_2  and  C_3 
REMARK    2  A    between atoms: C_3  and  O_6 
REMARK    3  A    between atoms: C_3  and  C_4 
REMARK    4  A    between atoms: C_7  and  O_6 
REMARK    5  A    between atoms: C_9  and  C_10 
REMARK    6  A    between atoms: N_15  and  C_14 
REMARK    7  A    between atoms: N_20  and  C_19 
REMARK       I    between atoms: C_22  and  N_20 
ROOT
ATOM      1  C   LIG d   1     -14.928  74.800 120.288  0.00  0.00     0.161 C 
ATOM      2  C   LIG d   1     -14.144  74.080 119.372  0.00  0.00     0.016 C 
ATOM      3  C   LIG d   1     -12.738  73.963 119.474  0.00  0.00     0.038 C 
ATOM      4  C   LIG d   1     -12.035  74.434 120.592  0.00  0.00     0.028 C 
ATOM      5  C   LIG d   1     -12.719  75.605 121.290  0.00  0.00    -0.047 C 
ATOM      6  C   LIG d   1     -14.191  75.228 121.575  0.00  0.00     0.091 C 
ENDROOT
BRANCH   1   7
ATOM      7  O   LIG d   1     -16.112  74.046 120.616  0.00  0.00    -0.368 OA
BRANCH   7   8
ATOM      8  C   LIG d   1     -17.323  74.425 119.917  0.00  0.00     0.119 C 
BRANCH   8   9
ATOM      9  C   LIG d   1     -17.331  75.962 119.804  0.00  0.00     0.028 C 
ATOM     10  C   LIG d   1     -18.566  76.489 119.054  0.00  0.00     0.006 C 
ENDBRANCH   8   9
BRANCH   8  11
ATOM     11  C   LIG d   1     -18.571  74.072 120.731  0.00  0.00     0.028 C 
ATOM     12  C   LIG d   1     -19.319  72.850 120.176  0.00  0.00     0.006 C 
ENDBRANCH   8  11
ENDBRANCH   7   8
ENDBRANCH   1   7
BRANCH   6  13
ATOM     13  N   LIG d   1     -14.957  76.349 122.180  0.00  0.00    -0.311 N 
ATOM     14  C   LIG d   1     -15.732  76.211 123.254  0.00  0.00     0.210 C 
ATOM     15  C   LIG d   1     -16.448  77.489 123.703  0.00  0.00     0.109 C 
ATOM     16  O   LIG d   1     -15.871  75.159 123.896  0.00  0.00    -0.276 OA
ATOM     17  H   LIG d   1     -14.877  77.245 121.741  0.00  0.00     0.149 HD
ENDBRANCH   6  13
BRANCH   5  18
ATOM     18  N   LIG d   1     -11.952  75.905 122.513  0.00  0.00     0.381 N 
ATOM     19  H   LIG d   1     -12.508  75.701 123.320  0.00  0.00    -0.090 HD
ATOM     20  H   LIG d   1     -11.728  76.885 122.524  0.00  0.00    -0.090 HD
ATOM     21  H   LIG d   1     -11.115  75.365 122.532  0.00  0.00    -0.090 HD
ENDBRANCH   5  18
BRANCH   3  22
ATOM     22  C   LIG d   1     -12.018  73.402 118.431  0.00  0.00     0.382 C 
ATOM     23  O   LIG d   1     -11.330  74.135 117.679  0.00  0.00    -0.241 OA
ATOM     24  O   LIG d   1     -12.082  72.179 118.204  0.00  0.00    -0.241 OA
ENDBRANCH   3  22
TORSDOF 7
ENDMDL
