MODEL 1
REMARK VINA RESULT:      -5.9      0.000      0.000
REMARK  7 active torsions:
REMARK  status: ('A' for Active; 'I' for Inactive)
REMARK    1  A    between atoms: C_2  and  C_3 
REMARK    2  A    between atoms: C_3  and  O_6 
REMARK    3  A    between atoms: C_3  and  C_4 
REMARK    4  A    between atoms: C_7  and  O_6 
REMARK    5  A    between atoms: C_9  and  C_10 
REMARK    6  A    between atoms: N_15  and  C_14 
REMARK    7  A    between atoms: N_20  and  C_19 
REMARK       I    between atoms: C_22  and  N_20 
ROOT
ATOM      1  C   LIG d   1      -7.926  75.438 117.667  0.00  0.00     0.161 C 
ATOM      2  C   LIG d   1      -9.267  75.703 117.990  0.00  0.00     0.016 C 
ATOM      3  C   LIG d   1      -9.733  76.976 118.394  0.00  0.00     0.038 C 
ATOM      4  C   LIG d   1      -8.912  78.113 118.354  0.00  0.00     0.028 C 
ATOM      5  C   LIG d   1      -7.430  77.795 118.519  0.00  0.00    -0.047 C 
ATOM      6  C   LIG d   1      -7.038  76.690 117.511  0.00  0.00     0.091 C 
ENDROOT
BRANCH   1   7
ATOM      7  O   LIG d   1      -7.862  74.627 116.477  0.00  0.00    -0.368 OA
BRANCH   7   8
ATOM      8  C   LIG d   1      -7.650  73.209 116.683  0.00  0.00     0.119 C 
BRANCH   8   9
ATOM      9  C   LIG d   1      -6.402  72.805 115.874  0.00  0.00     0.028 C 
ATOM     10  C   LIG d   1      -5.878  73.951 114.992  0.00  0.00     0.006 C 
ENDBRANCH   8   9
BRANCH   8  11
ATOM     11  C   LIG d   1      -8.799  72.383 116.095  0.00  0.00     0.028 C 
ATOM     12  C   LIG d   1      -9.024  71.059 116.843  0.00  0.00     0.006 C 
ENDBRANCH   8  11
ENDBRANCH   7   8
ENDBRANCH   1   7
BRANCH   6  13
ATOM     13  N   LIG d   1      -5.624  76.260 117.662  0.00  0.00    -0.311 N 
ATOM     14  C   LIG d   1      -4.619  76.785 116.963  0.00  0.00     0.210 C 
ATOM     15  C   LIG d   1      -3.242  76.184 117.259  0.00  0.00     0.109 C 
ATOM     16  O   LIG d   1      -4.734  77.714 116.149  0.00  0.00    -0.276 OA
ATOM     17  H   LIG d   1      -5.436  75.533 118.324  0.00  0.00     0.149 HD
ENDBRANCH   6  13
BRANCH   5  18
ATOM     18  N   LIG d   1      -6.681  79.050 118.321  0.00  0.00     0.381 N 
ATOM     19  H   LIG d   1      -7.176  79.644 117.686  0.00  0.00    -0.090 HD
ATOM     20  H   LIG d   1      -5.786  78.834 117.918  0.00  0.00    -0.090 HD
ATOM     21  H   LIG d   1      -6.557  79.515 119.193  0.00  0.00    -0.090 HD
ENDBRANCH   5  18
BRANCH   3  22
ATOM     22  C   LIG d   1     -11.025  77.112 118.880  0.00  0.00     0.382 C 
ATOM     23  O   LIG d   1     -11.259  77.909 119.820  0.00  0.00    -0.241 OA
ATOM     24  O   LIG d   1     -11.950  76.416 118.421  0.00  0.00    -0.241 OA
ENDBRANCH   3  22
TORSDOF 7
ENDMDL
MODEL 2
REMARK VINA RESULT:      -5.7     15.285     17.949
REMARK  7 active torsions:
REMARK  status: ('A' for Active; 'I' for Inactive)
REMARK    1  A    between atoms: C_2  and  C_3 
REMARK    2  A    between atoms: C_3  and  O_6 
REMARK    3  A    between atoms: C_3  and  C_4 
REMARK    4  A    between atoms: C_7  and  O_6 
REMARK    5  A    between atoms: C_9  and  C_10 
REMARK    6  A    between atoms: N_15  and  C_14 
REMARK    7  A    between atoms: N_20  and  C_19 
REMARK       I    between atoms: C_22  and  N_20 
ROOT
ATOM      1  C   LIG d   1      -6.701  92.985 118.273  0.00  0.00     0.161 C 
ATOM      2  C   LIG d   1      -7.223  91.938 117.496  0.00  0.00     0.016 C 
ATOM      3  C   LIG d   1      -6.418  91.036 116.762  0.00  0.00     0.038 C 
ATOM      4  C   LIG d   1      -5.020  91.028 116.879  0.00  0.00     0.028 C 
ATOM      5  C   LIG d   1      -4.435  92.385 117.255  0.00  0.00    -0.047 C 
ATOM      6  C   LIG d   1      -5.176  92.922 118.501  0.00  0.00     0.091 C 
ENDROOT
BRANCH   1   7
ATOM      7  O   LIG d   1      -7.393  93.048 119.536  0.00  0.00    -0.368 OA
BRANCH   7   8
ATOM      8  C   LIG d   1      -8.294  94.169 119.712  0.00  0.00     0.119 C 
BRANCH   8   9
ATOM      9  C   LIG d   1      -9.721  93.601 119.839  0.00  0.00     0.028 C 
ATOM     10  C   LIG d   1     -10.370  93.942 121.191  0.00  0.00     0.006 C 
ENDBRANCH   8   9
BRANCH   8  11
ATOM     11  C   LIG d   1      -8.323  95.063 118.469  0.00  0.00     0.028 C 
ATOM     12  C   LIG d   1      -7.856  96.498 118.755  0.00  0.00     0.006 C 
ENDBRANCH   8  11
ENDBRANCH   7   8
ENDBRANCH   1   7
BRANCH   6  13
ATOM     13  N   LIG d   1      -4.722  94.284 118.886  0.00  0.00    -0.311 N 
ATOM     14  C   LIG d   1      -3.762  94.511 119.780  0.00  0.00     0.210 C 
ATOM     15  C   LIG d   1      -3.462  95.990 120.046  0.00  0.00     0.109 C 
ATOM     16  O   LIG d   1      -3.107  93.628 120.355  0.00  0.00    -0.276 OA
ATOM     17  H   LIG d   1      -5.179  95.058 118.445  0.00  0.00     0.149 HD
ENDBRANCH   6  13
BRANCH   5  18
ATOM     18  N   LIG d   1      -2.988  92.201 117.477  0.00  0.00     0.381 N 
ATOM     19  H   LIG d   1      -2.834  91.773 118.369  0.00  0.00    -0.090 HD
ATOM     20  H   LIG d   1      -2.542  93.101 117.478  0.00  0.00    -0.090 HD
ATOM     21  H   LIG d   1      -2.603  91.631 116.757  0.00  0.00    -0.090 HD
ENDBRANCH   5  18
BRANCH   3  22
ATOM     22  C   LIG d   1      -7.010  90.156 115.870  0.00  0.00     0.382 C 
ATOM     23  O   LIG d   1      -8.170  89.730 116.086  0.00  0.00    -0.241 OA
ATOM     24  O   LIG d   1      -6.382  89.747 114.875  0.00  0.00    -0.241 OA
ENDBRANCH   3  22
TORSDOF 7
ENDMDL
MODEL 3
REMARK VINA RESULT:      -5.6      1.329      2.225
REMARK  7 active torsions:
REMARK  status: ('A' for Active; 'I' for Inactive)
REMARK    1  A    between atoms: C_2  and  C_3 
REMARK    2  A    between atoms: C_3  and  O_6 
REMARK    3  A    between atoms: C_3  and  C_4 
REMARK    4  A    between atoms: C_7  and  O_6 
REMARK    5  A    between atoms: C_9  and  C_10 
REMARK    6  A    between atoms: N_15  and  C_14 
REMARK    7  A    between atoms: N_20  and  C_19 
REMARK       I    between atoms: C_22  and  N_20 
ROOT
ATOM      1  C   LIG d   1      -8.959  75.700 117.440  0.00  0.00     0.161 C 
ATOM      2  C   LIG d   1     -10.315  75.616 117.799  0.00  0.00     0.016 C 
ATOM      3  C   LIG d   1     -10.954  76.549 118.648  0.00  0.00     0.038 C 
ATOM      4  C   LIG d   1     -10.314  77.721 119.077  0.00  0.00     0.028 C 
ATOM      5  C   LIG d   1      -8.797  77.590 119.152  0.00  0.00    -0.047 C 
ATOM      6  C   LIG d   1      -8.274  77.033 117.808  0.00  0.00     0.091 C 
ENDROOT
BRANCH   1   7
ATOM      7  O   LIG d   1      -8.809  75.432 116.032  0.00  0.00    -0.368 OA
BRANCH   7   8
ATOM      8  C   LIG d   1      -8.244  74.144 115.685  0.00  0.00     0.119 C 
BRANCH   8   9
ATOM      9  C   LIG d   1      -8.312  73.255 116.942  0.00  0.00     0.028 C 
ATOM     10  C   LIG d   1      -8.713  71.806 116.615  0.00  0.00     0.006 C 
ENDBRANCH   8   9
BRANCH   8  11
ATOM     11  C   LIG d   1      -6.753  74.261 115.352  0.00  0.00     0.028 C 
ATOM     12  C   LIG d   1      -6.419  75.532 114.556  0.00  0.00     0.006 C 
ENDBRANCH   8  11
ENDBRANCH   7   8
ENDBRANCH   1   7
BRANCH   6  13
ATOM     13  N   LIG d   1      -6.807  76.795 117.826  0.00  0.00    -0.311 N 
ATOM     14  C   LIG d   1      -5.910  77.721 117.492  0.00  0.00     0.210 C 
ATOM     15  C   LIG d   1      -4.450  77.262 117.560  0.00  0.00     0.109 C 
ATOM     16  O   LIG d   1      -6.183  78.889 117.178  0.00  0.00    -0.276 OA
ATOM     17  H   LIG d   1      -6.496  75.883 118.099  0.00  0.00     0.149 HD
ENDBRANCH   6  13
BRANCH   5  18
ATOM     18  N   LIG d   1      -8.250  78.921 119.478  0.00  0.00     0.381 N 
ATOM     19  H   LIG d   1      -7.353  79.033 119.049  0.00  0.00    -0.090 HD
ATOM     20  H   LIG d   1      -8.135  78.990 120.474  0.00  0.00    -0.090 HD
ATOM     21  H   LIG d   1      -8.871  79.632 119.158  0.00  0.00    -0.090 HD
ENDBRANCH   5  18
BRANCH   3  22
ATOM     22  C   LIG d   1     -12.236  76.292 119.109  0.00  0.00     0.382 C 
ATOM     23  O   LIG d   1     -12.471  76.293 120.341  0.00  0.00    -0.241 OA
ATOM     24  O   LIG d   1     -13.151  76.015 118.310  0.00  0.00    -0.241 OA
ENDBRANCH   3  22
TORSDOF 7
ENDMDL
MODEL 4
REMARK VINA RESULT:      -5.3      2.211      5.486
REMARK  7 active torsions:
REMARK  status: ('A' for Active; 'I' for Inactive)
REMARK    1  A    between atoms: C_2  and  C_3 
REMARK    2  A    between atoms: C_3  and  O_6 
REMARK    3  A    between atoms: C_3  and  C_4 
REMARK    4  A    between atoms: C_7  and  O_6 
REMARK    5  A    between atoms: C_9  and  C_10 
REMARK    6  A    between atoms: N_15  and  C_14 
REMARK    7  A    between atoms: N_20  and  C_19 
REMARK       I    between atoms: C_22  and  N_20 
ROOT
ATOM      1  C   LIG d   1      -5.581  75.913 115.762  0.00  0.00     0.161 C 
ATOM      2  C   LIG d   1      -4.420  75.218 115.384  0.00  0.00     0.016 C 
ATOM      3  C   LIG d   1      -3.216  75.255 116.123  0.00  0.00     0.038 C 
ATOM      4  C   LIG d   1      -3.136  75.873 117.380  0.00  0.00     0.028 C 
ATOM      5  C   LIG d   1      -4.136  77.010 117.560  0.00  0.00    -0.047 C 
ATOM      6  C   LIG d   1      -5.547  76.502 117.187  0.00  0.00     0.091 C 
ENDROOT
BRANCH   1   7
ATOM      7  O   LIG d   1      -6.734  75.063 115.598  0.00  0.00    -0.368 OA
BRANCH   7   8
ATOM      8  C   LIG d   1      -6.889  74.004 116.575  0.00  0.00     0.119 C 
BRANCH   8   9
ATOM      9  C   LIG d   1      -6.850  72.664 115.815  0.00  0.00     0.028 C 
ATOM     10  C   LIG d   1      -7.555  71.533 116.582  0.00  0.00     0.006 C 
ENDBRANCH   8   9
BRANCH   8  11
ATOM     11  C   LIG d   1      -8.269  74.055 117.237  0.00  0.00     0.028 C 
ATOM     12  C   LIG d   1      -9.228  75.034 116.542  0.00  0.00     0.006 C 
ENDBRANCH   8  11
ENDBRANCH   7   8
ENDBRANCH   1   7
BRANCH   6  13
ATOM     13  N   LIG d   1      -6.572  77.575 117.255  0.00  0.00    -0.311 N 
ATOM     14  C   LIG d   1      -7.326  77.803 118.330  0.00  0.00     0.210 C 
ATOM     15  C   LIG d   1      -8.335  78.945 118.182  0.00  0.00     0.109 C 
ATOM     16  O   LIG d   1      -7.231  77.188 119.403  0.00  0.00    -0.276 OA
ATOM     17  H   LIG d   1      -6.694  78.143 116.439  0.00  0.00     0.149 HD
ENDBRANCH   6  13
BRANCH   5  18
ATOM     18  N   LIG d   1      -4.038  77.472 118.958  0.00  0.00     0.381 N 
ATOM     19  H   LIG d   1      -3.082  77.458 119.253  0.00  0.00    -0.090 HD
ATOM     20  H   LIG d   1      -4.559  76.845 119.545  0.00  0.00    -0.090 HD
ATOM     21  H   LIG d   1      -4.404  78.395 119.038  0.00  0.00    -0.090 HD
ENDBRANCH   5  18
BRANCH   3  22
ATOM     22  C   LIG d   1      -2.063  74.703 115.586  0.00  0.00     0.382 C 
ATOM     23  O   LIG d   1      -1.526  73.712 116.138  0.00  0.00    -0.241 OA
ATOM     24  O   LIG d   1      -1.527  75.210 114.583  0.00  0.00    -0.241 OA
ENDBRANCH   3  22
TORSDOF 7
ENDMDL
MODEL 5
REMARK VINA RESULT:      -5.0      2.369      4.833
REMARK  7 active torsions:
REMARK  status: ('A' for Active; 'I' for Inactive)
REMARK    1  A    between atoms: C_2  and  C_3 
REMARK    2  A    between atoms: C_3  and  O_6 
REMARK    3  A    between atoms: C_3  and  C_4 
REMARK    4  A    between atoms: C_7  and  O_6 
REMARK    5  A    between atoms: C_9  and  C_10 
REMARK    6  A    between atoms: N_15  and  C_14 
REMARK    7  A    between atoms: N_20  and  C_19 
REMARK       I    between atoms: C_22  and  N_20 
ROOT
ATOM      1  C   LIG d   1      -5.790  75.705 116.135  0.00  0.00     0.161 C 
ATOM      2  C   LIG d   1      -6.373  74.480 115.770  0.00  0.00     0.016 C 
ATOM      3  C   LIG d   1      -7.645  74.059 116.221  0.00  0.00     0.038 C 
ATOM      4  C   LIG d   1      -8.491  74.907 116.951  0.00  0.00     0.028 C 
ATOM      5  C   LIG d   1      -7.741  75.956 117.766  0.00  0.00    -0.047 C 
ATOM      6  C   LIG d   1      -6.744  76.691 116.841  0.00  0.00     0.091 C 
ENDROOT
BRANCH   1   7
ATOM      7  O   LIG d   1      -5.193  76.326 114.979  0.00  0.00    -0.368 OA
BRANCH   7   8
ATOM      8  C   LIG d   1      -3.754  76.209 114.865  0.00  0.00     0.119 C 
BRANCH   8   9
ATOM      9  C   LIG d   1      -3.223  75.684 116.213  0.00  0.00     0.028 C 
ATOM     10  C   LIG d   1      -2.262  74.495 116.042  0.00  0.00     0.006 C 
ENDBRANCH   8   9
BRANCH   8  11
ATOM     11  C   LIG d   1      -3.097  77.580 114.677  0.00  0.00     0.028 C 
ATOM     12  C   LIG d   1      -2.738  78.256 116.010  0.00  0.00     0.006 C 
ENDBRANCH   8  11
ENDBRANCH   7   8
ENDBRANCH   1   7
BRANCH   6  13
ATOM     13  N   LIG d   1      -5.910  77.676 117.576  0.00  0.00    -0.311 N 
ATOM     14  C   LIG d   1      -6.306  78.920 117.841  0.00  0.00     0.210 C 
ATOM     15  C   LIG d   1      -5.284  79.778 118.593  0.00  0.00     0.109 C 
ATOM     16  O   LIG d   1      -7.419  79.384 117.552  0.00  0.00    -0.276 OA
ATOM     17  H   LIG d   1      -5.003  77.373 117.875  0.00  0.00     0.149 HD
ENDBRANCH   6  13
BRANCH   5  18
ATOM     18  N   LIG d   1      -8.744  76.855 118.366  0.00  0.00     0.381 N 
ATOM     19  H   LIG d   1      -8.289  77.531 118.946  0.00  0.00    -0.090 HD
ATOM     20  H   LIG d   1      -9.365  76.313 118.940  0.00  0.00    -0.090 HD
ATOM     21  H   LIG d   1      -9.261  77.316 117.649  0.00  0.00    -0.090 HD
ENDBRANCH   5  18
BRANCH   3  22
ATOM     22  C   LIG d   1      -8.066  72.761 115.975  0.00  0.00     0.382 C 
ATOM     23  O   LIG d   1      -7.223  71.861 115.748  0.00  0.00    -0.241 OA
ATOM     24  O   LIG d   1      -9.281  72.488 115.933  0.00  0.00    -0.241 OA
ENDBRANCH   3  22
TORSDOF 7
ENDMDL
MODEL 6
REMARK VINA RESULT:      -4.6      7.174     10.322
REMARK  7 active torsions:
REMARK  status: ('A' for Active; 'I' for Inactive)
REMARK    1  A    between atoms: C_2  and  C_3 
REMARK    2  A    between atoms: C_3  and  O_6 
REMARK    3  A    between atoms: C_3  and  C_4 
REMARK    4  A    between atoms: C_7  and  O_6 
REMARK    5  A    between atoms: C_9  and  C_10 
REMARK    6  A    between atoms: N_15  and  C_14 
REMARK    7  A    between atoms: N_20  and  C_19 
REMARK       I    between atoms: C_22  and  N_20 
ROOT
ATOM      1  C   LIG d   1     -16.140  74.801 120.546  0.00  0.00     0.161 C 
ATOM      2  C   LIG d   1     -15.821  73.562 119.966  0.00  0.00     0.016 C 
ATOM      3  C   LIG d   1     -16.776  72.725 119.345  0.00  0.00     0.038 C 
ATOM      4  C   LIG d   1     -18.098  73.141 119.128  0.00  0.00     0.028 C 
ATOM      5  C   LIG d   1     -18.583  74.170 120.143  0.00  0.00    -0.047 C 
ATOM      6  C   LIG d   1     -17.555  75.322 120.221  0.00  0.00     0.091 C 
ENDROOT
BRANCH   1   7
ATOM      7  O   LIG d   1     -15.149  75.782 120.180  0.00  0.00    -0.368 OA
BRANCH   7   8
ATOM      8  C   LIG d   1     -13.811  75.278 119.942  0.00  0.00     0.119 C 
BRANCH   8   9
ATOM      9  C   LIG d   1     -12.964  75.607 121.187  0.00  0.00     0.028 C 
ATOM     10  C   LIG d   1     -12.698  74.369 122.060  0.00  0.00     0.006 C 
ENDBRANCH   8   9
BRANCH   8  11
ATOM     11  C   LIG d   1     -13.135  76.017 118.784  0.00  0.00     0.028 C 
ATOM     12  C   LIG d   1     -11.660  76.344 119.066  0.00  0.00     0.006 C 
ENDBRANCH   8  11
ENDBRANCH   7   8
ENDBRANCH   1   7
BRANCH   6  13
ATOM     13  N   LIG d   1     -17.911  76.331 121.252  0.00  0.00    -0.311 N 
ATOM     14  C   LIG d   1     -18.014  77.635 120.998  0.00  0.00     0.210 C 
ATOM     15  C   LIG d   1     -18.371  78.503 122.208  0.00  0.00     0.109 C 
ATOM     16  O   LIG d   1     -17.874  78.150 119.879  0.00  0.00    -0.276 OA
ATOM     17  H   LIG d   1     -18.073  75.996 122.182  0.00  0.00     0.149 HD
ENDBRANCH   6  13
BRANCH   5  18
ATOM     18  N   LIG d   1     -19.923  74.618 119.719  0.00  0.00     0.381 N 
ATOM     19  H   LIG d   1     -19.891  75.584 119.459  0.00  0.00    -0.090 HD
ATOM     20  H   LIG d   1     -20.559  74.520 120.491  0.00  0.00    -0.090 HD
ATOM     21  H   LIG d   1     -20.238  74.070 118.948  0.00  0.00    -0.090 HD
ENDBRANCH   5  18
BRANCH   3  22
ATOM     22  C   LIG d   1     -16.422  71.438 118.970  0.00  0.00     0.382 C 
ATOM     23  O   LIG d   1     -16.089  70.599 119.842  0.00  0.00    -0.241 OA
ATOM     24  O   LIG d   1     -16.387  71.118 117.767  0.00  0.00    -0.241 OA
ENDBRANCH   3  22
TORSDOF 7
ENDMDL
MODEL 7
REMARK VINA RESULT:      -4.5      2.284      5.138
REMARK  7 active torsions:
REMARK  status: ('A' for Active; 'I' for Inactive)
REMARK    1  A    between atoms: C_2  and  C_3 
REMARK    2  A    between atoms: C_3  and  O_6 
REMARK    3  A    between atoms: C_3  and  C_4 
REMARK    4  A    between atoms: C_7  and  O_6 
REMARK    5  A    between atoms: C_9  and  C_10 
REMARK    6  A    between atoms: N_15  and  C_14 
REMARK    7  A    between atoms: N_20  and  C_19 
REMARK       I    between atoms: C_22  and  N_20 
ROOT
ATOM      1  C   LIG d   1      -6.233  77.227 117.467  0.00  0.00     0.161 C 
ATOM      2  C   LIG d   1      -6.547  75.906 117.108  0.00  0.00     0.016 C 
ATOM      3  C   LIG d   1      -7.842  75.353 117.234  0.00  0.00     0.038 C 
ATOM      4  C   LIG d   1      -8.951  76.135 117.590  0.00  0.00     0.028 C 
ATOM      5  C   LIG d   1      -8.590  77.344 118.446  0.00  0.00    -0.047 C 
ATOM      6  C   LIG d   1      -7.453  78.128 117.752  0.00  0.00     0.091 C 
ENDROOT
BRANCH   1   7
ATOM      7  O   LIG d   1      -5.396  77.822 116.456  0.00  0.00    -0.368 OA
BRANCH   7   8
ATOM      8  C   LIG d   1      -4.152  78.403 116.919  0.00  0.00     0.119 C 
BRANCH   8   9
ATOM      9  C   LIG d   1      -3.056  78.018 115.907  0.00  0.00     0.028 C 
ATOM     10  C   LIG d   1      -2.583  79.217 115.068  0.00  0.00     0.006 C 
ENDBRANCH   8   9
BRANCH   8  11
ATOM     11  C   LIG d   1      -3.710  77.786 118.250  0.00  0.00     0.028 C 
ATOM     12  C   LIG d   1      -3.413  78.842 119.327  0.00  0.00     0.006 C 
ENDBRANCH   8  11
ENDBRANCH   7   8
ENDBRANCH   1   7
BRANCH   6  13
ATOM     13  N   LIG d   1      -6.981  79.280 118.564  0.00  0.00    -0.311 N 
ATOM     14  C   LIG d   1      -7.411  80.528 118.385  0.00  0.00     0.210 C 
ATOM     15  C   LIG d   1      -6.781  81.568 119.317  0.00  0.00     0.109 C 
ATOM     16  O   LIG d   1      -8.277  80.867 117.565  0.00  0.00    -0.276 OA
ATOM     17  H   LIG d   1      -6.300  79.090 119.274  0.00  0.00     0.149 HD
ENDBRANCH   6  13
BRANCH   5  18
ATOM     18  N   LIG d   1      -9.816  78.144 118.627  0.00  0.00     0.381 N 
ATOM     19  H   LIG d   1      -9.709  79.034 118.184  0.00  0.00    -0.090 HD
ATOM     20  H   LIG d   1      -9.963  78.296 119.609  0.00  0.00    -0.090 HD
ATOM     21  H   LIG d   1     -10.598  77.664 118.238  0.00  0.00    -0.090 HD
ENDBRANCH   5  18
BRANCH   3  22
ATOM     22  C   LIG d   1      -8.030  73.992 117.042  0.00  0.00     0.382 C 
ATOM     23  O   LIG d   1      -9.130  73.566 116.615  0.00  0.00    -0.241 OA
ATOM     24  O   LIG d   1      -7.129  73.183 117.333  0.00  0.00    -0.241 OA
ENDBRANCH   3  22
TORSDOF 7
ENDMDL
MODEL 8
REMARK VINA RESULT:      -4.5     16.573     19.191
REMARK  7 active torsions:
REMARK  status: ('A' for Active; 'I' for Inactive)
REMARK    1  A    between atoms: C_2  and  C_3 
REMARK    2  A    between atoms: C_3  and  O_6 
REMARK    3  A    between atoms: C_3  and  C_4 
REMARK    4  A    between atoms: C_7  and  O_6 
REMARK    5  A    between atoms: C_9  and  C_10 
REMARK    6  A    between atoms: N_15  and  C_14 
REMARK    7  A    between atoms: N_20  and  C_19 
REMARK       I    between atoms: C_22  and  N_20 
ROOT
ATOM      1  C   LIG d   1      -6.181  93.465 119.898  0.00  0.00     0.161 C 
ATOM      2  C   LIG d   1      -6.015  92.499 118.891  0.00  0.00     0.016 C 
ATOM      3  C   LIG d   1      -6.763  92.490 117.692  0.00  0.00     0.038 C 
ATOM      4  C   LIG d   1      -7.628  93.540 117.349  0.00  0.00     0.028 C 
ATOM      5  C   LIG d   1      -8.201  94.272 118.558  0.00  0.00    -0.047 C 
ATOM      6  C   LIG d   1      -7.040  94.681 119.494  0.00  0.00     0.091 C 
ENDROOT
BRANCH   1   7
ATOM      7  O   LIG d   1      -4.892  93.899 120.376  0.00  0.00    -0.368 OA
BRANCH   7   8
ATOM      8  C   LIG d   1      -4.021  94.510 119.393  0.00  0.00     0.119 C 
BRANCH   8   9
ATOM      9  C   LIG d   1      -2.673  93.765 119.441  0.00  0.00     0.028 C 
ATOM     10  C   LIG d   1      -2.432  92.908 118.187  0.00  0.00     0.006 C 
ENDBRANCH   8   9
BRANCH   8  11
ATOM     11  C   LIG d   1      -3.695  95.961 119.763  0.00  0.00     0.028 C 
ATOM     12  C   LIG d   1      -2.582  96.562 118.891  0.00  0.00     0.006 C 
ENDBRANCH   8  11
ENDBRANCH   7   8
ENDBRANCH   1   7
BRANCH   6  13
ATOM     13  N   LIG d   1      -7.520  95.328 120.742  0.00  0.00    -0.311 N 
ATOM     14  C   LIG d   1      -7.604  96.648 120.898  0.00  0.00     0.210 C 
ATOM     15  C   LIG d   1      -8.105  97.107 122.271  0.00  0.00     0.109 C 
ATOM     16  O   LIG d   1      -7.342  97.482 120.018  0.00  0.00    -0.276 OA
ATOM     17  H   LIG d   1      -7.783  94.725 121.497  0.00  0.00     0.149 HD
ENDBRANCH   6  13
BRANCH   5  18
ATOM     18  N   LIG d   1      -8.973  95.425 118.057  0.00  0.00     0.381 N 
ATOM     19  H   LIG d   1      -8.675  96.259 118.521  0.00  0.00    -0.090 HD
ATOM     20  H   LIG d   1      -9.945  95.279 118.263  0.00  0.00    -0.090 HD
ATOM     21  H   LIG d   1      -8.844  95.519 117.073  0.00  0.00    -0.090 HD
ENDBRANCH   5  18
BRANCH   3  22
ATOM     22  C   LIG d   1      -6.679  91.401 116.838  0.00  0.00     0.382 C 
ATOM     23  O   LIG d   1      -5.737  90.581 116.958  0.00  0.00    -0.241 OA
ATOM     24  O   LIG d   1      -7.509  91.251 115.921  0.00  0.00    -0.241 OA
ENDBRANCH   3  22
TORSDOF 7
ENDMDL
MODEL 9
REMARK VINA RESULT:      -4.4      2.283      4.656
REMARK  7 active torsions:
REMARK  status: ('A' for Active; 'I' for Inactive)
REMARK    1  A    between atoms: C_2  and  C_3 
REMARK    2  A    between atoms: C_3  and  O_6 
REMARK    3  A    between atoms: C_3  and  C_4 
REMARK    4  A    between atoms: C_7  and  O_6 
REMARK    5  A    between atoms: C_9  and  C_10 
REMARK    6  A    between atoms: N_15  and  C_14 
REMARK    7  A    between atoms: N_20  and  C_19 
REMARK       I    between atoms: C_22  and  N_20 
ROOT
ATOM      1  C   LIG d   1      -6.882  77.472 117.211  0.00  0.00     0.161 C 
ATOM      2  C   LIG d   1      -8.122  77.601 117.859  0.00  0.00     0.016 C 
ATOM      3  C   LIG d   1      -9.131  76.612 117.813  0.00  0.00     0.038 C 
ATOM      4  C   LIG d   1      -8.908  75.352 117.237  0.00  0.00     0.028 C 
ATOM      5  C   LIG d   1      -7.854  75.368 116.135  0.00  0.00    -0.047 C 
ATOM      6  C   LIG d   1      -6.579  76.058 116.670  0.00  0.00     0.091 C 
ENDROOT
BRANCH   1   7
ATOM      7  O   LIG d   1      -5.825  77.911 118.086  0.00  0.00    -0.368 OA
BRANCH   7   8
ATOM      8  C   LIG d   1      -5.332  79.255 117.867  0.00  0.00     0.119 C 
BRANCH   8   9
ATOM      9  C   LIG d   1      -4.019  79.143 117.068  0.00  0.00     0.028 C 
ATOM     10  C   LIG d   1      -2.966  78.283 117.787  0.00  0.00     0.006 C 
ENDBRANCH   8   9
BRANCH   8  11
ATOM     11  C   LIG d   1      -4.947  79.930 119.187  0.00  0.00     0.028 C 
ATOM     12  C   LIG d   1      -5.947  81.016 119.615  0.00  0.00     0.006 C 
ENDBRANCH   8  11
ENDBRANCH   7   8
ENDBRANCH   1   7
BRANCH   6  13
ATOM     13  N   LIG d   1      -5.527  76.191 115.629  0.00  0.00    -0.311 N 
ATOM     14  C   LIG d   1      -4.319  75.638 115.732  0.00  0.00     0.210 C 
ATOM     15  C   LIG d   1      -3.378  75.915 114.556  0.00  0.00     0.109 C 
ATOM     16  O   LIG d   1      -3.950  74.917 116.672  0.00  0.00    -0.276 OA
ATOM     17  H   LIG d   1      -5.753  76.733 114.818  0.00  0.00     0.149 HD
ENDBRANCH   6  13
BRANCH   5  18
ATOM     18  N   LIG d   1      -7.624  73.971 115.719  0.00  0.00     0.381 N 
ATOM     19  H   LIG d   1      -7.659  73.370 116.517  0.00  0.00    -0.090 HD
ATOM     20  H   LIG d   1      -6.708  73.900 115.311  0.00  0.00    -0.090 HD
ATOM     21  H   LIG d   1      -8.313  73.695 115.055  0.00  0.00    -0.090 HD
ENDBRANCH   5  18
BRANCH   3  22
ATOM     22  C   LIG d   1     -10.393  76.893 118.313  0.00  0.00     0.382 C 
ATOM     23  O   LIG d   1     -10.657  78.045 118.736  0.00  0.00    -0.241 OA
ATOM     24  O   LIG d   1     -11.257  75.999 118.388  0.00  0.00    -0.241 OA
ENDBRANCH   3  22
TORSDOF 7
ENDMDL
