MODEL 1
REMARK VINA RESULT:      -4.7      0.000      0.000
REMARK  7 active torsions:
REMARK  status: ('A' for Active; 'I' for Inactive)
REMARK    1  A    between atoms: C_2  and  C_3 
REMARK    2  A    between atoms: C_3  and  O_6 
REMARK    3  A    between atoms: C_3  and  C_4 
REMARK    4  A    between atoms: C_7  and  O_6 
REMARK    5  A    between atoms: C_9  and  C_10 
REMARK    6  A    between atoms: N_15  and  C_14 
REMARK    7  A    between atoms: N_20  and  C_19 
REMARK       I    between atoms: C_22  and  N_20 
ROOT
ATOM      1  C   LIG d   1      -9.720  75.048 120.013  0.00  0.00     0.161 C 
ATOM      2  C   LIG d   1     -10.465  74.320 120.956  0.00  0.00     0.016 C 
ATOM      3  C   LIG d   1     -11.259  74.926 121.956  0.00  0.00     0.038 C 
ATOM      4  C   LIG d   1     -11.483  76.310 121.987  0.00  0.00     0.028 C 
ATOM      5  C   LIG d   1     -10.350  77.121 121.366  0.00  0.00    -0.047 C 
ATOM      6  C   LIG d   1     -10.040  76.556 119.961  0.00  0.00     0.091 C 
ENDROOT
BRANCH   1   7
ATOM      7  O   LIG d   1      -9.875  74.458 118.707  0.00  0.00    -0.368 OA
BRANCH   7   8
ATOM      8  C   LIG d   1     -11.056  73.641 118.513  0.00  0.00     0.119 C 
BRANCH   8   9
ATOM      9  C   LIG d   1     -10.635  72.404 117.696  0.00  0.00     0.028 C 
ATOM     10  C   LIG d   1      -9.120  72.362 117.435  0.00  0.00     0.006 C 
ENDBRANCH   8   9
BRANCH   8  11
ATOM     11  C   LIG d   1     -12.096  74.362 117.649  0.00  0.00     0.028 C 
ATOM     12  C   LIG d   1     -13.182  75.060 118.483  0.00  0.00     0.006 C 
ENDBRANCH   8  11
ENDBRANCH   7   8
ENDBRANCH   1   7
BRANCH   6  13
ATOM     13  N   LIG d   1      -8.888  77.239 119.317  0.00  0.00    -0.311 N 
ATOM     14  C   LIG d   1      -9.013  78.315 118.543  0.00  0.00     0.210 C 
ATOM     15  C   LIG d   1      -7.700  78.850 117.962  0.00  0.00     0.109 C 
ATOM     16  O   LIG d   1     -10.082  78.896 118.307  0.00  0.00    -0.276 OA
ATOM     17  H   LIG d   1      -7.979  76.852 119.481  0.00  0.00     0.149 HD
ENDBRANCH   6  13
BRANCH   5  18
ATOM     18  N   LIG d   1     -10.776  78.534 121.341  0.00  0.00     0.381 N 
ATOM     19  H   LIG d   1     -11.239  78.764 122.197  0.00  0.00    -0.090 HD
ATOM     20  H   LIG d   1     -11.426  78.663 120.586  0.00  0.00    -0.090 HD
ATOM     21  H   LIG d   1      -9.985  79.126 121.213  0.00  0.00    -0.090 HD
ENDBRANCH   5  18
BRANCH   3  22
ATOM     22  C   LIG d   1     -11.806  74.147 122.965  0.00  0.00     0.382 C 
ATOM     23  O   LIG d   1     -13.018  73.826 122.920  0.00  0.00    -0.241 OA
ATOM     24  O   LIG d   1     -11.114  73.800 123.940  0.00  0.00    -0.241 OA
ENDBRANCH   3  22
TORSDOF 7
ENDMDL
MODEL 2
REMARK VINA RESULT:      -4.7      2.938      5.140
REMARK  7 active torsions:
REMARK  status: ('A' for Active; 'I' for Inactive)
REMARK    1  A    between atoms: C_2  and  C_3 
REMARK    2  A    between atoms: C_3  and  O_6 
REMARK    3  A    between atoms: C_3  and  C_4 
REMARK    4  A    between atoms: C_7  and  O_6 
REMARK    5  A    between atoms: C_9  and  C_10 
REMARK    6  A    between atoms: N_15  and  C_14 
REMARK    7  A    between atoms: N_20  and  C_19 
REMARK       I    between atoms: C_22  and  N_20 
ROOT
ATOM      1  C   LIG d   1      -9.556  74.910 119.516  0.00  0.00     0.161 C 
ATOM      2  C   LIG d   1     -10.905  75.102 119.854  0.00  0.00     0.016 C 
ATOM      3  C   LIG d   1     -11.955  74.298 119.354  0.00  0.00     0.038 C 
ATOM      4  C   LIG d   1     -11.708  73.144 118.596  0.00  0.00     0.028 C 
ATOM      5  C   LIG d   1     -10.400  73.201 117.814  0.00  0.00    -0.047 C 
ATOM      6  C   LIG d   1      -9.256  73.588 118.779  0.00  0.00     0.091 C 
ENDROOT
BRANCH   1   7
ATOM      7  O   LIG d   1      -8.735  75.022 120.696  0.00  0.00    -0.368 OA
BRANCH   7   8
ATOM      8  C   LIG d   1      -8.676  73.850 121.545  0.00  0.00     0.119 C 
BRANCH   8   9
ATOM      9  C   LIG d   1      -9.105  74.282 122.961  0.00  0.00     0.028 C 
ATOM     10  C   LIG d   1     -10.591  73.998 123.237  0.00  0.00     0.006 C 
ENDBRANCH   8   9
BRANCH   8  11
ATOM     11  C   LIG d   1      -7.239  73.341 121.694  0.00  0.00     0.028 C 
ATOM     12  C   LIG d   1      -6.192  74.446 121.484  0.00  0.00     0.006 C 
ENDBRANCH   8  11
ENDBRANCH   7   8
ENDBRANCH   1   7
BRANCH   6  13
ATOM     13  N   LIG d   1      -7.955  73.748 118.079  0.00  0.00    -0.311 N 
ATOM     14  C   LIG d   1      -7.038  72.785 118.005  0.00  0.00     0.210 C 
ATOM     15  C   LIG d   1      -5.758  73.166 117.254  0.00  0.00     0.109 C 
ATOM     16  O   LIG d   1      -7.177  71.640 118.462  0.00  0.00    -0.276 OA
ATOM     17  H   LIG d   1      -7.772  74.636 117.652  0.00  0.00     0.149 HD
ENDBRANCH   6  13
BRANCH   5  18
ATOM     18  N   LIG d   1     -10.202  71.884 117.180  0.00  0.00     0.381 N 
ATOM     19  H   LIG d   1     -11.032  71.334 117.275  0.00  0.00    -0.090 HD
ATOM     20  H   LIG d   1      -9.452  71.407 117.650  0.00  0.00    -0.090 HD
ATOM     21  H   LIG d   1      -9.979  72.000 116.216  0.00  0.00    -0.090 HD
ENDBRANCH   5  18
BRANCH   3  22
ATOM     22  C   LIG d   1     -13.272  74.669 119.579  0.00  0.00     0.382 C 
ATOM     23  O   LIG d   1     -13.843  74.337 120.646  0.00  0.00    -0.241 OA
ATOM     24  O   LIG d   1     -13.910  75.292 118.710  0.00  0.00    -0.241 OA
ENDBRANCH   3  22
TORSDOF 7
ENDMDL
MODEL 3
REMARK VINA RESULT:      -4.5     18.789     21.039
REMARK  7 active torsions:
REMARK  status: ('A' for Active; 'I' for Inactive)
REMARK    1  A    between atoms: C_2  and  C_3 
REMARK    2  A    between atoms: C_3  and  O_6 
REMARK    3  A    between atoms: C_3  and  C_4 
REMARK    4  A    between atoms: C_7  and  O_6 
REMARK    5  A    between atoms: C_9  and  C_10 
REMARK    6  A    between atoms: N_15  and  C_14 
REMARK    7  A    between atoms: N_20  and  C_19 
REMARK       I    between atoms: C_22  and  N_20 
ROOT
ATOM      1  C   LIG d   1       0.586  58.659 118.635  0.00  0.00     0.161 C 
ATOM      2  C   LIG d   1       1.910  58.978 118.981  0.00  0.00     0.016 C 
ATOM      3  C   LIG d   1       2.256  59.718 120.135  0.00  0.00     0.038 C 
ATOM      4  C   LIG d   1       1.306  60.061 121.108  0.00  0.00     0.028 C 
ATOM      5  C   LIG d   1      -0.108  60.199 120.552  0.00  0.00    -0.047 C 
ATOM      6  C   LIG d   1      -0.454  58.929 119.742  0.00  0.00     0.091 C 
ENDROOT
BRANCH   1   7
ATOM      7  O   LIG d   1       0.512  57.286 118.202  0.00  0.00    -0.368 OA
BRANCH   7   8
ATOM      8  C   LIG d   1       1.533  56.398 118.720  0.00  0.00     0.119 C 
BRANCH   8   9
ATOM      9  C   LIG d   1       1.951  55.456 117.575  0.00  0.00     0.028 C 
ATOM     10  C   LIG d   1       3.428  55.631 117.180  0.00  0.00     0.006 C 
ENDBRANCH   8   9
BRANCH   8  11
ATOM     11  C   LIG d   1       0.974  55.484 119.814  0.00  0.00     0.028 C 
ATOM     12  C   LIG d   1       1.760  55.581 121.131  0.00  0.00     0.006 C 
ENDBRANCH   8  11
ENDBRANCH   7   8
ENDBRANCH   1   7
BRANCH   6  13
ATOM     13  N   LIG d   1      -1.789  59.016 119.094  0.00  0.00    -0.311 N 
ATOM     14  C   LIG d   1      -2.781  58.162 119.339  0.00  0.00     0.210 C 
ATOM     15  C   LIG d   1      -4.067  58.421 118.548  0.00  0.00     0.109 C 
ATOM     16  O   LIG d   1      -2.728  57.234 120.160  0.00  0.00    -0.276 OA
ATOM     17  H   LIG d   1      -1.929  59.759 118.437  0.00  0.00     0.149 HD
ENDBRANCH   6  13
BRANCH   5  18
ATOM     18  N   LIG d   1      -1.016  60.422 121.694  0.00  0.00     0.381 N 
ATOM     19  H   LIG d   1      -0.649  59.975 122.510  0.00  0.00    -0.090 HD
ATOM     20  H   LIG d   1      -1.909  60.012 121.484  0.00  0.00    -0.090 HD
ATOM     21  H   LIG d   1      -1.121  61.399 121.859  0.00  0.00    -0.090 HD
ENDBRANCH   5  18
BRANCH   3  22
ATOM     22  C   LIG d   1       3.560  60.157 120.304  0.00  0.00     0.382 C 
ATOM     23  O   LIG d   1       4.364  60.118 119.342  0.00  0.00    -0.241 OA
ATOM     24  O   LIG d   1       3.955  60.550 121.418  0.00  0.00    -0.241 OA
ENDBRANCH   3  22
TORSDOF 7
ENDMDL
MODEL 4
REMARK VINA RESULT:      -4.5      2.903      4.038
REMARK  7 active torsions:
REMARK  status: ('A' for Active; 'I' for Inactive)
REMARK    1  A    between atoms: C_2  and  C_3 
REMARK    2  A    between atoms: C_3  and  O_6 
REMARK    3  A    between atoms: C_3  and  C_4 
REMARK    4  A    between atoms: C_7  and  O_6 
REMARK    5  A    between atoms: C_9  and  C_10 
REMARK    6  A    between atoms: N_15  and  C_14 
REMARK    7  A    between atoms: N_20  and  C_19 
REMARK       I    between atoms: C_22  and  N_20 
ROOT
ATOM      1  C   LIG d   1     -12.989  74.739 120.288  0.00  0.00     0.161 C 
ATOM      2  C   LIG d   1     -14.335  75.130 120.200  0.00  0.00     0.016 C 
ATOM      3  C   LIG d   1     -15.077  75.618 121.300  0.00  0.00     0.038 C 
ATOM      4  C   LIG d   1     -14.476  75.892 122.537  0.00  0.00     0.028 C 
ATOM      5  C   LIG d   1     -13.242  75.040 122.813  0.00  0.00    -0.047 C 
ATOM      6  C   LIG d   1     -12.285  75.135 121.603  0.00  0.00     0.091 C 
ENDROOT
BRANCH   1   7
ATOM      7  O   LIG d   1     -12.257  75.247 119.155  0.00  0.00    -0.368 OA
BRANCH   7   8
ATOM      8  C   LIG d   1     -12.080  74.330 118.047  0.00  0.00     0.119 C 
BRANCH   8   9
ATOM      9  C   LIG d   1     -11.717  72.954 118.639  0.00  0.00     0.028 C 
ATOM     10  C   LIG d   1     -10.637  72.229 117.818  0.00  0.00     0.006 C 
ENDBRANCH   8   9
BRANCH   8  11
ATOM     11  C   LIG d   1     -10.882  74.728 117.180  0.00  0.00     0.028 C 
ATOM     12  C   LIG d   1     -10.070  75.886 117.782  0.00  0.00     0.006 C 
ENDBRANCH   8  11
ENDBRANCH   7   8
ENDBRANCH   1   7
BRANCH   6  13
ATOM     13  N   LIG d   1     -11.091  74.264 121.754  0.00  0.00    -0.311 N 
ATOM     14  C   LIG d   1      -9.843  74.691 121.568  0.00  0.00     0.210 C 
ATOM     15  C   LIG d   1      -8.759  73.625 121.755  0.00  0.00     0.109 C 
ATOM     16  O   LIG d   1      -9.529  75.860 121.297  0.00  0.00    -0.276 OA
ATOM     17  H   LIG d   1     -11.252  73.308 122.003  0.00  0.00     0.149 HD
ENDBRANCH   6  13
BRANCH   5  18
ATOM     18  N   LIG d   1     -12.637  75.524 124.068  0.00  0.00     0.381 N 
ATOM     19  H   LIG d   1     -12.026  76.293 123.875  0.00  0.00    -0.090 HD
ATOM     20  H   LIG d   1     -12.093  74.783 124.474  0.00  0.00    -0.090 HD
ATOM     21  H   LIG d   1     -13.350  75.808 124.703  0.00  0.00    -0.090 HD
ENDBRANCH   5  18
BRANCH   3  22
ATOM     22  C   LIG d   1     -16.447  75.799 121.179  0.00  0.00     0.382 C 
ATOM     23  O   LIG d   1     -16.924  76.283 120.124  0.00  0.00    -0.241 OA
ATOM     24  O   LIG d   1     -17.206  75.526 122.127  0.00  0.00    -0.241 OA
ENDBRANCH   3  22
TORSDOF 7
ENDMDL
MODEL 5
REMARK VINA RESULT:      -4.4      2.995      4.692
REMARK  7 active torsions:
REMARK  status: ('A' for Active; 'I' for Inactive)
REMARK    1  A    between atoms: C_2  and  C_3 
REMARK    2  A    between atoms: C_3  and  O_6 
REMARK    3  A    between atoms: C_3  and  C_4 
REMARK    4  A    between atoms: C_7  and  O_6 
REMARK    5  A    between atoms: C_9  and  C_10 
REMARK    6  A    between atoms: N_15  and  C_14 
REMARK    7  A    between atoms: N_20  and  C_19 
REMARK       I    between atoms: C_22  and  N_20 
ROOT
ATOM      1  C   LIG d   1     -10.621  74.177 120.788  0.00  0.00     0.161 C 
ATOM      2  C   LIG d   1      -9.299  73.855 121.137  0.00  0.00     0.016 C 
ATOM      3  C   LIG d   1      -8.876  73.636 122.468  0.00  0.00     0.038 C 
ATOM      4  C   LIG d   1      -9.786  73.575 123.534  0.00  0.00     0.028 C 
ATOM      5  C   LIG d   1     -11.052  74.393 123.297  0.00  0.00    -0.047 C 
ATOM      6  C   LIG d   1     -11.650  74.006 121.925  0.00  0.00     0.091 C 
ENDROOT
BRANCH   1   7
ATOM      7  O   LIG d   1     -11.021  73.415 119.632  0.00  0.00    -0.368 OA
BRANCH   7   8
ATOM      8  C   LIG d   1     -10.952  74.104 118.359  0.00  0.00     0.119 C 
BRANCH   8   9
ATOM      9  C   LIG d   1     -12.395  74.264 117.841  0.00  0.00     0.028 C 
ATOM     10  C   LIG d   1     -13.034  75.590 118.286  0.00  0.00     0.006 C 
ENDBRANCH   8   9
BRANCH   8  11
ATOM     11  C   LIG d   1     -10.234  73.256 117.305  0.00  0.00     0.028 C 
ATOM     12  C   LIG d   1     -10.285  71.752 117.615  0.00  0.00     0.006 C 
ENDBRANCH   8  11
ENDBRANCH   7   8
ENDBRANCH   1   7
BRANCH   6  13
ATOM     13  N   LIG d   1     -12.844  74.820 121.578  0.00  0.00    -0.311 N 
ATOM     14  C   LIG d   1     -14.094  74.426 121.816  0.00  0.00     0.210 C 
ATOM     15  C   LIG d   1     -15.178  75.408 121.361  0.00  0.00     0.109 C 
ATOM     16  O   LIG d   1     -14.406  73.373 122.391  0.00  0.00    -0.276 OA
ATOM     17  H   LIG d   1     -12.681  75.704 121.136  0.00  0.00     0.149 HD
ENDBRANCH   6  13
BRANCH   5  18
ATOM     18  N   LIG d   1     -11.969  74.130 124.422  0.00  0.00     0.381 N 
ATOM     19  H   LIG d   1     -12.489  73.294 124.247  0.00  0.00    -0.090 HD
ATOM     20  H   LIG d   1     -12.617  74.894 124.499  0.00  0.00    -0.090 HD
ATOM     21  H   LIG d   1     -11.452  74.038 125.269  0.00  0.00    -0.090 HD
ENDBRANCH   5  18
BRANCH   3  22
ATOM     22  C   LIG d   1      -7.524  73.514 122.749  0.00  0.00     0.382 C 
ATOM     23  O   LIG d   1      -6.844  72.625 122.182  0.00  0.00    -0.241 OA
ATOM     24  O   LIG d   1      -6.985  74.252 123.595  0.00  0.00    -0.241 OA
ENDBRANCH   3  22
TORSDOF 7
ENDMDL
MODEL 6
REMARK VINA RESULT:      -4.4     17.121     19.860
REMARK  7 active torsions:
REMARK  status: ('A' for Active; 'I' for Inactive)
REMARK    1  A    between atoms: C_2  and  C_3 
REMARK    2  A    between atoms: C_3  and  O_6 
REMARK    3  A    between atoms: C_3  and  C_4 
REMARK    4  A    between atoms: C_7  and  O_6 
REMARK    5  A    between atoms: C_9  and  C_10 
REMARK    6  A    between atoms: N_15  and  C_14 
REMARK    7  A    between atoms: N_20  and  C_19 
REMARK       I    between atoms: C_22  and  N_20 
ROOT
ATOM      1  C   LIG d   1      -5.397  93.769 119.299  0.00  0.00     0.161 C 
ATOM      2  C   LIG d   1      -4.170  93.162 118.982  0.00  0.00     0.016 C 
ATOM      3  C   LIG d   1      -4.055  92.037 118.132  0.00  0.00     0.038 C 
ATOM      4  C   LIG d   1      -5.151  91.533 117.417  0.00  0.00     0.028 C 
ATOM      5  C   LIG d   1      -6.491  91.797 118.097  0.00  0.00    -0.047 C 
ATOM      6  C   LIG d   1      -6.591  93.301 118.441  0.00  0.00     0.091 C 
ENDROOT
BRANCH   1   7
ATOM      7  O   LIG d   1      -5.264  95.202 119.234  0.00  0.00    -0.368 OA
BRANCH   7   8
ATOM      8  C   LIG d   1      -4.935  95.869 120.477  0.00  0.00     0.119 C 
BRANCH   8   9
ATOM      9  C   LIG d   1      -6.168  96.690 120.902  0.00  0.00     0.028 C 
ATOM     10  C   LIG d   1      -6.639  97.655 119.801  0.00  0.00     0.006 C 
ENDBRANCH   8   9
BRANCH   8  11
ATOM     11  C   LIG d   1      -3.814  96.894 120.281  0.00  0.00     0.028 C 
ATOM     12  C   LIG d   1      -3.116  96.759 118.918  0.00  0.00     0.006 C 
ENDBRANCH   8  11
ENDBRANCH   7   8
ENDBRANCH   1   7
BRANCH   6  13
ATOM     13  N   LIG d   1      -7.835  93.631 119.184  0.00  0.00    -0.311 N 
ATOM     14  C   LIG d   1      -8.626  94.655 118.871  0.00  0.00     0.210 C 
ATOM     15  C   LIG d   1      -9.848  94.830 119.778  0.00  0.00     0.109 C 
ATOM     16  O   LIG d   1      -8.449  95.417 117.908  0.00  0.00    -0.276 OA
ATOM     17  H   LIG d   1      -8.071  93.045 119.961  0.00  0.00     0.149 HD
ENDBRANCH   6  13
BRANCH   5  18
ATOM     18  N   LIG d   1      -7.553  91.342 117.180  0.00  0.00     0.381 N 
ATOM     19  H   LIG d   1      -8.255  90.848 117.694  0.00  0.00    -0.090 HD
ATOM     20  H   LIG d   1      -7.153  90.713 116.506  0.00  0.00    -0.090 HD
ATOM     21  H   LIG d   1      -7.960  92.123 116.715  0.00  0.00    -0.090 HD
ENDBRANCH   5  18
BRANCH   3  22
ATOM     22  C   LIG d   1      -2.839  91.381 118.022  0.00  0.00     0.382 C 
ATOM     23  O   LIG d   1      -2.808  90.131 117.916  0.00  0.00    -0.241 OA
ATOM     24  O   LIG d   1      -1.770  92.019 118.073  0.00  0.00    -0.241 OA
ENDBRANCH   3  22
TORSDOF 7
ENDMDL
MODEL 7
REMARK VINA RESULT:      -4.3      2.822      5.063
REMARK  7 active torsions:
REMARK  status: ('A' for Active; 'I' for Inactive)
REMARK    1  A    between atoms: C_2  and  C_3 
REMARK    2  A    between atoms: C_3  and  O_6 
REMARK    3  A    between atoms: C_3  and  C_4 
REMARK    4  A    between atoms: C_7  and  O_6 
REMARK    5  A    between atoms: C_9  and  C_10 
REMARK    6  A    between atoms: N_15  and  C_14 
REMARK    7  A    between atoms: N_20  and  C_19 
REMARK       I    between atoms: C_22  and  N_20 
ROOT
ATOM      1  C   LIG d   1      -9.618  75.041 118.974  0.00  0.00     0.161 C 
ATOM      2  C   LIG d   1     -10.943  75.298 119.361  0.00  0.00     0.016 C 
ATOM      3  C   LIG d   1     -11.999  74.375 119.184  0.00  0.00     0.038 C 
ATOM      4  C   LIG d   1     -11.771  73.063 118.742  0.00  0.00     0.028 C 
ATOM      5  C   LIG d   1     -10.530  72.927 117.866  0.00  0.00    -0.047 C 
ATOM      6  C   LIG d   1      -9.329  73.574 118.592  0.00  0.00     0.091 C 
ENDROOT
BRANCH   1   7
ATOM      7  O   LIG d   1      -8.713  75.477 120.007  0.00  0.00    -0.368 OA
BRANCH   7   8
ATOM      8  C   LIG d   1      -7.924  76.655 119.708  0.00  0.00     0.119 C 
BRANCH   8   9
ATOM      9  C   LIG d   1      -8.421  77.790 120.624  0.00  0.00     0.028 C 
ATOM     10  C   LIG d   1      -7.640  77.861 121.947  0.00  0.00     0.006 C 
ENDBRANCH   8   9
BRANCH   8  11
ATOM     11  C   LIG d   1      -8.176  77.147 118.280  0.00  0.00     0.028 C 
ATOM     12  C   LIG d   1      -8.681  78.598 118.230  0.00  0.00     0.006 C 
ENDBRANCH   8  11
ENDBRANCH   7   8
ENDBRANCH   1   7
BRANCH   6  13
ATOM     13  N   LIG d   1      -8.093  73.559 117.767  0.00  0.00    -0.311 N 
ATOM     14  C   LIG d   1      -6.943  73.026 118.178  0.00  0.00     0.210 C 
ATOM     15  C   LIG d   1      -5.786  73.135 117.180  0.00  0.00     0.109 C 
ATOM     16  O   LIG d   1      -6.781  72.445 119.262  0.00  0.00    -0.276 OA
ATOM     17  H   LIG d   1      -8.144  73.981 116.861  0.00  0.00     0.149 HD
ENDBRANCH   6  13
BRANCH   5  18
ATOM     18  N   LIG d   1     -10.334  71.491 117.591  0.00  0.00     0.381 N 
ATOM     19  H   LIG d   1      -9.664  71.112 118.230  0.00  0.00    -0.090 HD
ATOM     20  H   LIG d   1      -9.976  71.384 116.658  0.00  0.00    -0.090 HD
ATOM     21  H   LIG d   1     -11.200  71.006 117.679  0.00  0.00    -0.090 HD
ENDBRANCH   5  18
BRANCH   3  22
ATOM     22  C   LIG d   1     -13.307  74.774 119.413  0.00  0.00     0.382 C 
ATOM     23  O   LIG d   1     -13.912  75.461 118.555  0.00  0.00    -0.241 OA
ATOM     24  O   LIG d   1     -13.874  74.494 120.486  0.00  0.00    -0.241 OA
ENDBRANCH   3  22
TORSDOF 7
ENDMDL
MODEL 8
REMARK VINA RESULT:      -4.3      3.182      5.105
REMARK  7 active torsions:
REMARK  status: ('A' for Active; 'I' for Inactive)
REMARK    1  A    between atoms: C_2  and  C_3 
REMARK    2  A    between atoms: C_3  and  O_6 
REMARK    3  A    between atoms: C_3  and  C_4 
REMARK    4  A    between atoms: C_7  and  O_6 
REMARK    5  A    between atoms: C_9  and  C_10 
REMARK    6  A    between atoms: N_15  and  C_14 
REMARK    7  A    between atoms: N_20  and  C_19 
REMARK       I    between atoms: C_22  and  N_20 
ROOT
ATOM      1  C   LIG d   1      -9.322  76.680 118.466  0.00  0.00     0.161 C 
ATOM      2  C   LIG d   1      -9.652  78.034 118.296  0.00  0.00     0.016 C 
ATOM      3  C   LIG d   1      -8.692  79.072 118.270  0.00  0.00     0.038 C 
ATOM      4  C   LIG d   1      -7.315  78.808 118.261  0.00  0.00     0.028 C 
ATOM      5  C   LIG d   1      -6.946  77.493 118.939  0.00  0.00    -0.047 C 
ATOM      6  C   LIG d   1      -7.817  76.361 118.347  0.00  0.00     0.091 C 
ENDROOT
BRANCH   1   7
ATOM      7  O   LIG d   1     -10.080  75.872 117.544  0.00  0.00    -0.368 OA
BRANCH   7   8
ATOM      8  C   LIG d   1     -10.903  74.835 118.132  0.00  0.00     0.119 C 
BRANCH   8   9
ATOM      9  C   LIG d   1     -10.637  73.534 117.351  0.00  0.00     0.028 C 
ATOM     10  C   LIG d   1     -10.914  72.277 118.194  0.00  0.00     0.006 C 
ENDBRANCH   8   9
BRANCH   8  11
ATOM     11  C   LIG d   1     -12.394  75.128 117.935  0.00  0.00     0.028 C 
ATOM     12  C   LIG d   1     -13.195  75.046 119.243  0.00  0.00     0.006 C 
ENDBRANCH   8  11
ENDBRANCH   7   8
ENDBRANCH   1   7
BRANCH   6  13
ATOM     13  N   LIG d   1      -7.579  75.055 119.014  0.00  0.00    -0.311 N 
ATOM     14  C   LIG d   1      -7.121  73.978 118.377  0.00  0.00     0.210 C 
ATOM     15  C   LIG d   1      -6.967  72.728 119.248  0.00  0.00     0.109 C 
ATOM     16  O   LIG d   1      -6.797  73.950 117.180  0.00  0.00    -0.276 OA
ATOM     17  H   LIG d   1      -7.786  74.998 119.992  0.00  0.00     0.149 HD
ENDBRANCH   6  13
BRANCH   5  18
ATOM     18  N   LIG d   1      -5.501  77.276 118.736  0.00  0.00     0.381 N 
ATOM     19  H   LIG d   1      -5.345  76.838 117.850  0.00  0.00    -0.090 HD
ATOM     20  H   LIG d   1      -5.160  76.663 119.455  0.00  0.00    -0.090 HD
ATOM     21  H   LIG d   1      -5.017  78.147 118.774  0.00  0.00    -0.090 HD
ENDBRANCH   5  18
BRANCH   3  22
ATOM     22  C   LIG d   1      -9.109  80.394 118.292  0.00  0.00     0.382 C 
ATOM     23  O   LIG d   1     -10.208  80.697 118.816  0.00  0.00    -0.241 OA
ATOM     24  O   LIG d   1      -8.420  81.283 117.756  0.00  0.00    -0.241 OA
ENDBRANCH   3  22
TORSDOF 7
ENDMDL
MODEL 9
REMARK VINA RESULT:      -4.3      2.360      5.156
REMARK  7 active torsions:
REMARK  status: ('A' for Active; 'I' for Inactive)
REMARK    1  A    between atoms: C_2  and  C_3 
REMARK    2  A    between atoms: C_3  and  O_6 
REMARK    3  A    between atoms: C_3  and  C_4 
REMARK    4  A    between atoms: C_7  and  O_6 
REMARK    5  A    between atoms: C_9  and  C_10 
REMARK    6  A    between atoms: N_15  and  C_14 
REMARK    7  A    between atoms: N_20  and  C_19 
REMARK       I    between atoms: C_22  and  N_20 
ROOT
ATOM      1  C   LIG d   1      -9.832  75.345 120.615  0.00  0.00     0.161 C 
ATOM      2  C   LIG d   1      -9.946  76.393 119.686  0.00  0.00     0.016 C 
ATOM      3  C   LIG d   1      -8.847  77.165 119.246  0.00  0.00     0.038 C 
ATOM      4  C   LIG d   1      -7.527  76.842 119.592  0.00  0.00     0.028 C 
ATOM      5  C   LIG d   1      -7.413  76.107 120.924  0.00  0.00    -0.047 C 
ATOM      6  C   LIG d   1      -8.384  74.905 120.919  0.00  0.00     0.091 C 
ENDROOT
BRANCH   1   7
ATOM      7  O   LIG d   1     -10.616  74.217 120.178  0.00  0.00    -0.368 OA
BRANCH   7   8
ATOM      8  C   LIG d   1     -10.813  74.093 118.748  0.00  0.00     0.119 C 
BRANCH   8   9
ATOM      9  C   LIG d   1     -12.309  73.809 118.509  0.00  0.00     0.028 C 
ATOM     10  C   LIG d   1     -13.111  75.090 118.222  0.00  0.00     0.006 C 
ENDBRANCH   8   9
BRANCH   8  11
ATOM     11  C   LIG d   1     -10.074  72.875 118.187  0.00  0.00     0.028 C 
ATOM     12  C   LIG d   1      -8.706  73.232 117.585  0.00  0.00     0.006 C 
ENDBRANCH   8  11
ENDBRANCH   7   8
ENDBRANCH   1   7
BRANCH   6  13
ATOM     13  N   LIG d   1      -8.397  74.181 122.217  0.00  0.00    -0.311 N 
ATOM     14  C   LIG d   1      -7.657  73.102 122.462  0.00  0.00     0.210 C 
ATOM     15  C   LIG d   1      -7.836  72.498 123.858  0.00  0.00     0.109 C 
ATOM     16  O   LIG d   1      -6.845  72.606 121.666  0.00  0.00    -0.276 OA
ATOM     17  H   LIG d   1      -9.005  74.535 122.930  0.00  0.00     0.149 HD
ENDBRANCH   6  13
BRANCH   5  18
ATOM     18  N   LIG d   1      -6.002  75.710 121.095  0.00  0.00     0.381 N 
ATOM     19  H   LIG d   1      -5.657  75.313 120.244  0.00  0.00    -0.090 HD
ATOM     20  H   LIG d   1      -5.946  75.012 121.815  0.00  0.00    -0.090 HD
ATOM     21  H   LIG d   1      -5.453  76.503 121.346  0.00  0.00    -0.090 HD
ENDBRANCH   5  18
BRANCH   3  22
ATOM     22  C   LIG d   1      -9.067  78.301 118.481  0.00  0.00     0.382 C 
ATOM     23  O   LIG d   1      -8.105  78.868 117.909  0.00  0.00    -0.241 OA
ATOM     24  O   LIG d   1     -10.209  78.790 118.391  0.00  0.00    -0.241 OA
ENDBRANCH   3  22
TORSDOF 7
ENDMDL
