MODEL 1
REMARK VINA RESULT:      -5.2      0.000      0.000
REMARK  7 active torsions:
REMARK  status: ('A' for Active; 'I' for Inactive)
REMARK    1  A    between atoms: C_2  and  C_3 
REMARK    2  A    between atoms: C_3  and  O_6 
REMARK    3  A    between atoms: C_3  and  C_4 
REMARK    4  A    between atoms: C_7  and  O_6 
REMARK    5  A    between atoms: C_9  and  C_10 
REMARK    6  A    between atoms: N_15  and  C_14 
REMARK    7  A    between atoms: N_20  and  C_19 
REMARK       I    between atoms: C_22  and  N_20 
ROOT
ATOM      1  C   LIG d   1      -7.162  78.593 117.928  0.00  0.00     0.161 C 
ATOM      2  C   LIG d   1      -5.938  78.120 118.431  0.00  0.00     0.016 C 
ATOM      3  C   LIG d   1      -5.275  78.699 119.537  0.00  0.00     0.038 C 
ATOM      4  C   LIG d   1      -5.869  79.705 120.314  0.00  0.00     0.028 C 
ATOM      5  C   LIG d   1      -6.874  80.553 119.542  0.00  0.00    -0.047 C 
ATOM      6  C   LIG d   1      -7.879  79.618 118.831  0.00  0.00     0.091 C 
ENDROOT
BRANCH   1   7
ATOM      7  O   LIG d   1      -8.034  77.483 117.639  0.00  0.00    -0.368 OA
BRANCH   7   8
ATOM      8  C   LIG d   1      -8.614  76.814 118.786  0.00  0.00     0.119 C 
BRANCH   8   9
ATOM      9  C   LIG d   1      -8.263  75.317 118.675  0.00  0.00     0.028 C 
ATOM     10  C   LIG d   1      -7.822  74.921 117.256  0.00  0.00     0.006 C 
ENDBRANCH   8   9
BRANCH   8  11
ATOM     11  C   LIG d   1     -10.144  76.875 118.751  0.00  0.00     0.028 C 
ATOM     12  C   LIG d   1     -10.759  77.207 120.120  0.00  0.00     0.006 C 
ENDBRANCH   8  11
ENDBRANCH   7   8
ENDBRANCH   1   7
BRANCH   6  13
ATOM     13  N   LIG d   1      -8.846  80.365 117.985  0.00  0.00    -0.311 N 
ATOM     14  C   LIG d   1     -10.047  80.752 118.411  0.00  0.00     0.210 C 
ATOM     15  C   LIG d   1     -10.895  81.491 117.371  0.00  0.00     0.109 C 
ATOM     16  O   LIG d   1     -10.478  80.581 119.561  0.00  0.00    -0.276 OA
ATOM     17  H   LIG d   1      -8.565  80.573 117.046  0.00  0.00     0.149 HD
ENDBRANCH   6  13
BRANCH   5  18
ATOM     18  N   LIG d   1      -7.517  81.469 120.504  0.00  0.00     0.381 N 
ATOM     19  H   LIG d   1      -7.093  82.373 120.446  0.00  0.00    -0.090 HD
ATOM     20  H   LIG d   1      -7.377  81.114 121.434  0.00  0.00    -0.090 HD
ATOM     21  H   LIG d   1      -8.491  81.538 120.310  0.00  0.00    -0.090 HD
ENDBRANCH   5  18
BRANCH   3  22
ATOM     22  C   LIG d   1      -3.985  78.300 119.851  0.00  0.00     0.382 C 
ATOM     23  O   LIG d   1      -3.253  77.793 118.968  0.00  0.00    -0.241 OA
ATOM     24  O   LIG d   1      -3.559  78.399 121.018  0.00  0.00    -0.241 OA
ENDBRANCH   3  22
TORSDOF 7
ENDMDL
MODEL 2
REMARK VINA RESULT:      -4.7      2.179      4.725
REMARK  7 active torsions:
REMARK  status: ('A' for Active; 'I' for Inactive)
REMARK    1  A    between atoms: C_2  and  C_3 
REMARK    2  A    between atoms: C_3  and  O_6 
REMARK    3  A    between atoms: C_3  and  C_4 
REMARK    4  A    between atoms: C_7  and  O_6 
REMARK    5  A    between atoms: C_9  and  C_10 
REMARK    6  A    between atoms: N_15  and  C_14 
REMARK    7  A    between atoms: N_20  and  C_19 
REMARK       I    between atoms: C_22  and  N_20 
ROOT
ATOM      1  C   LIG d   1      -7.908  78.965 120.879  0.00  0.00     0.161 C 
ATOM      2  C   LIG d   1      -7.750  77.684 120.324  0.00  0.00     0.016 C 
ATOM      3  C   LIG d   1      -8.396  77.265 119.138  0.00  0.00     0.038 C 
ATOM      4  C   LIG d   1      -9.130  78.155 118.340  0.00  0.00     0.028 C 
ATOM      5  C   LIG d   1      -9.730  79.318 119.123  0.00  0.00    -0.047 C 
ATOM      6  C   LIG d   1      -8.616  79.984 119.963  0.00  0.00     0.091 C 
ENDROOT
BRANCH   1   7
ATOM      7  O   LIG d   1      -6.627  79.476 121.301  0.00  0.00    -0.368 OA
BRANCH   7   8
ATOM      8  C   LIG d   1      -5.835  80.132 120.280  0.00  0.00     0.119 C 
BRANCH   8   9
ATOM      9  C   LIG d   1      -4.546  79.309 120.095  0.00  0.00     0.028 C 
ATOM     10  C   LIG d   1      -3.291  80.195 120.017  0.00  0.00     0.006 C 
ENDBRANCH   8   9
BRANCH   8  11
ATOM     11  C   LIG d   1      -5.370  81.517 120.740  0.00  0.00     0.028 C 
ATOM     12  C   LIG d   1      -5.823  81.852 122.170  0.00  0.00     0.006 C 
ENDBRANCH   8  11
ENDBRANCH   7   8
ENDBRANCH   1   7
BRANCH   6  13
ATOM     13  N   LIG d   1      -9.134  81.079 120.824  0.00  0.00    -0.311 N 
ATOM     14  C   LIG d   1      -9.119  82.362 120.467  0.00  0.00     0.210 C 
ATOM     15  C   LIG d   1      -9.683  83.331 121.511  0.00  0.00     0.109 C 
ATOM     16  O   LIG d   1      -8.722  82.787 119.371  0.00  0.00    -0.276 OA
ATOM     17  H   LIG d   1      -9.503  80.821 121.718  0.00  0.00     0.149 HD
ENDBRANCH   6  13
BRANCH   5  18
ATOM     18  N   LIG d   1     -10.349  80.238 118.151  0.00  0.00     0.381 N 
ATOM     19  H   LIG d   1     -10.311  79.838 117.234  0.00  0.00    -0.090 HD
ATOM     20  H   LIG d   1      -9.831  81.099 118.141  0.00  0.00    -0.090 HD
ATOM     21  H   LIG d   1     -11.297  80.415 118.404  0.00  0.00    -0.090 HD
ENDBRANCH   5  18
BRANCH   3  22
ATOM     22  C   LIG d   1      -8.344  75.932 118.761  0.00  0.00     0.382 C 
ATOM     23  O   LIG d   1      -8.463  75.031 119.626  0.00  0.00    -0.241 OA
ATOM     24  O   LIG d   1      -8.135  75.619 117.574  0.00  0.00    -0.241 OA
ENDBRANCH   3  22
TORSDOF 7
ENDMDL
MODEL 3
REMARK VINA RESULT:      -4.7     11.448     13.753
REMARK  7 active torsions:
REMARK  status: ('A' for Active; 'I' for Inactive)
REMARK    1  A    between atoms: C_2  and  C_3 
REMARK    2  A    between atoms: C_3  and  O_6 
REMARK    3  A    between atoms: C_3  and  C_4 
REMARK    4  A    between atoms: C_7  and  O_6 
REMARK    5  A    between atoms: C_9  and  C_10 
REMARK    6  A    between atoms: N_15  and  C_14 
REMARK    7  A    between atoms: N_20  and  C_19 
REMARK       I    between atoms: C_22  and  N_20 
ROOT
ATOM      1  C   LIG d   1     -13.285  67.310 121.928  0.00  0.00     0.161 C 
ATOM      2  C   LIG d   1     -12.036  67.007 122.495  0.00  0.00     0.016 C 
ATOM      3  C   LIG d   1     -11.393  65.757 122.338  0.00  0.00     0.038 C 
ATOM      4  C   LIG d   1     -11.890  64.772 121.471  0.00  0.00     0.028 C 
ATOM      5  C   LIG d   1     -13.400  64.843 121.275  0.00  0.00    -0.047 C 
ATOM      6  C   LIG d   1     -13.789  66.288 120.888  0.00  0.00     0.091 C 
ENDROOT
BRANCH   1   7
ATOM      7  O   LIG d   1     -13.253  68.633 121.356  0.00  0.00    -0.368 OA
BRANCH   7   8
ATOM      8  C   LIG d   1     -13.510  69.729 122.268  0.00  0.00     0.119 C 
BRANCH   8   9
ATOM      9  C   LIG d   1     -14.678  70.550 121.687  0.00  0.00     0.028 C 
ATOM     10  C   LIG d   1     -15.081  70.083 120.279  0.00  0.00     0.006 C 
ENDBRANCH   8   9
BRANCH   8  11
ATOM     11  C   LIG d   1     -12.324  70.695 122.327  0.00  0.00     0.028 C 
ATOM     12  C   LIG d   1     -12.754  72.153 122.555  0.00  0.00     0.006 C 
ENDBRANCH   8  11
ENDBRANCH   7   8
ENDBRANCH   1   7
BRANCH   6  13
ATOM     13  N   LIG d   1     -15.259  66.464 120.760  0.00  0.00    -0.311 N 
ATOM     14  C   LIG d   1     -15.907  66.395 119.598  0.00  0.00     0.210 C 
ATOM     15  C   LIG d   1     -17.419  66.626 119.686  0.00  0.00     0.109 C 
ATOM     16  O   LIG d   1     -15.378  66.131 118.508  0.00  0.00    -0.276 OA
ATOM     17  H   LIG d   1     -15.771  66.651 121.600  0.00  0.00     0.149 HD
ENDBRANCH   6  13
BRANCH   5  18
ATOM     18  N   LIG d   1     -13.763  63.851 120.245  0.00  0.00     0.381 N 
ATOM     19  H   LIG d   1     -13.787  64.290 119.346  0.00  0.00    -0.090 HD
ATOM     20  H   LIG d   1     -14.680  63.494 120.446  0.00  0.00    -0.090 HD
ATOM     21  H   LIG d   1     -13.102  63.106 120.241  0.00  0.00    -0.090 HD
ENDBRANCH   5  18
BRANCH   3  22
ATOM     22  C   LIG d   1     -10.261  65.468 123.084  0.00  0.00     0.382 C 
ATOM     23  O   LIG d   1      -9.874  66.266 123.971  0.00  0.00    -0.241 OA
ATOM     24  O   LIG d   1      -9.596  64.441 122.850  0.00  0.00    -0.241 OA
ENDBRANCH   3  22
TORSDOF 7
ENDMDL
MODEL 4
REMARK VINA RESULT:      -4.7      9.677     11.701
REMARK  7 active torsions:
REMARK  status: ('A' for Active; 'I' for Inactive)
REMARK    1  A    between atoms: C_2  and  C_3 
REMARK    2  A    between atoms: C_3  and  O_6 
REMARK    3  A    between atoms: C_3  and  C_4 
REMARK    4  A    between atoms: C_7  and  O_6 
REMARK    5  A    between atoms: C_9  and  C_10 
REMARK    6  A    between atoms: N_15  and  C_14 
REMARK    7  A    between atoms: N_20  and  C_19 
REMARK       I    between atoms: C_22  and  N_20 
ROOT
ATOM      1  C   LIG d   1     -15.075  70.941 120.857  0.00  0.00     0.161 C 
ATOM      2  C   LIG d   1     -14.216  71.555 121.783  0.00  0.00     0.016 C 
ATOM      3  C   LIG d   1     -13.153  70.878 122.425  0.00  0.00     0.038 C 
ATOM      4  C   LIG d   1     -12.782  69.573 122.069  0.00  0.00     0.028 C 
ATOM      5  C   LIG d   1     -13.934  68.749 121.504  0.00  0.00    -0.047 C 
ATOM      6  C   LIG d   1     -14.617  69.550 120.372  0.00  0.00     0.091 C 
ENDROOT
BRANCH   1   7
ATOM      7  O   LIG d   1     -15.288  71.818 119.733  0.00  0.00    -0.368 OA
BRANCH   7   8
ATOM      8  C   LIG d   1     -16.545  72.538 119.715  0.00  0.00     0.119 C 
BRANCH   8   9
ATOM      9  C   LIG d   1     -17.375  71.992 118.537  0.00  0.00     0.028 C 
ATOM     10  C   LIG d   1     -16.494  71.513 117.371  0.00  0.00     0.006 C 
ENDBRANCH   8   9
BRANCH   8  11
ATOM     11  C   LIG d   1     -16.332  74.024 119.407  0.00  0.00     0.028 C 
ATOM     12  C   LIG d   1     -14.863  74.367 119.113  0.00  0.00     0.006 C 
ENDBRANCH   8  11
ENDBRANCH   7   8
ENDBRANCH   1   7
BRANCH   6  13
ATOM     13  N   LIG d   1     -15.807  68.851 119.821  0.00  0.00    -0.311 N 
ATOM     14  C   LIG d   1     -15.756  68.032 118.772  0.00  0.00     0.210 C 
ATOM     15  C   LIG d   1     -17.102  67.430 118.355  0.00  0.00     0.109 C 
ATOM     16  O   LIG d   1     -14.719  67.720 118.168  0.00  0.00    -0.276 OA
ATOM     17  H   LIG d   1     -16.685  69.022 120.271  0.00  0.00     0.149 HD
ENDBRANCH   6  13
BRANCH   5  18
ATOM     18  N   LIG d   1     -13.378  67.461 121.047  0.00  0.00     0.381 N 
ATOM     19  H   LIG d   1     -12.551  67.622 120.508  0.00  0.00    -0.090 HD
ATOM     20  H   LIG d   1     -14.054  67.006 120.459  0.00  0.00    -0.090 HD
ATOM     21  H   LIG d   1     -13.166  66.884 121.831  0.00  0.00    -0.090 HD
ENDBRANCH   5  18
BRANCH   3  22
ATOM     22  C   LIG d   1     -12.475  71.495 123.465  0.00  0.00     0.382 C 
ATOM     23  O   LIG d   1     -11.715  70.823 124.204  0.00  0.00    -0.241 OA
ATOM     24  O   LIG d   1     -12.647  72.706 123.702  0.00  0.00    -0.241 OA
ENDBRANCH   3  22
TORSDOF 7
ENDMDL
MODEL 5
REMARK VINA RESULT:      -4.7      1.299      2.212
REMARK  7 active torsions:
REMARK  status: ('A' for Active; 'I' for Inactive)
REMARK    1  A    between atoms: C_2  and  C_3 
REMARK    2  A    between atoms: C_3  and  O_6 
REMARK    3  A    between atoms: C_3  and  C_4 
REMARK    4  A    between atoms: C_7  and  O_6 
REMARK    5  A    between atoms: C_9  and  C_10 
REMARK    6  A    between atoms: N_15  and  C_14 
REMARK    7  A    between atoms: N_20  and  C_19 
REMARK       I    between atoms: C_22  and  N_20 
ROOT
ATOM      1  C   LIG d   1      -6.957  79.353 119.031  0.00  0.00     0.161 C 
ATOM      2  C   LIG d   1      -5.699  79.229 119.644  0.00  0.00     0.016 C 
ATOM      3  C   LIG d   1      -5.097  80.261 120.400  0.00  0.00     0.038 C 
ATOM      4  C   LIG d   1      -5.784  81.441 120.724  0.00  0.00     0.028 C 
ATOM      5  C   LIG d   1      -6.856  81.815 119.706  0.00  0.00    -0.047 C 
ATOM      6  C   LIG d   1      -7.769  80.591 119.465  0.00  0.00     0.091 C 
ENDROOT
BRANCH   1   7
ATOM      7  O   LIG d   1      -7.724  78.151 119.243  0.00  0.00    -0.368 OA
BRANCH   7   8
ATOM      8  C   LIG d   1      -8.408  77.619 118.082  0.00  0.00     0.119 C 
BRANCH   8   9
ATOM      9  C   LIG d   1      -9.668  76.886 118.583  0.00  0.00     0.028 C 
ATOM     10  C   LIG d   1     -10.478  77.728 119.583  0.00  0.00     0.006 C 
ENDBRANCH   8   9
BRANCH   8  11
ATOM     11  C   LIG d   1      -7.567  76.548 117.381  0.00  0.00     0.028 C 
ATOM     12  C   LIG d   1      -7.921  75.122 117.835  0.00  0.00     0.006 C 
ENDBRANCH   8  11
ENDBRANCH   7   8
ENDBRANCH   1   7
BRANCH   6  13
ATOM     13  N   LIG d   1      -8.795  80.846 118.420  0.00  0.00    -0.311 N 
ATOM     14  C   LIG d   1      -9.986  81.384 118.677  0.00  0.00     0.210 C 
ATOM     15  C   LIG d   1     -10.901  81.541 117.459  0.00  0.00     0.109 C 
ATOM     16  O   LIG d   1     -10.359  81.775 119.794  0.00  0.00    -0.276 OA
ATOM     17  H   LIG d   1      -8.563  80.587 117.481  0.00  0.00     0.149 HD
ENDBRANCH   6  13
BRANCH   5  18
ATOM     18  N   LIG d   1      -7.584  82.984 120.236  0.00  0.00     0.381 N 
ATOM     19  H   LIG d   1      -6.933  83.669 120.564  0.00  0.00    -0.090 HD
ATOM     20  H   LIG d   1      -8.151  82.689 121.012  0.00  0.00    -0.090 HD
ATOM     21  H   LIG d   1      -8.161  83.377 119.525  0.00  0.00    -0.090 HD
ENDBRANCH   5  18
BRANCH   3  22
ATOM     22  C   LIG d   1      -3.778  80.134 120.808  0.00  0.00     0.382 C 
ATOM     23  O   LIG d   1      -3.439  80.503 121.959  0.00  0.00    -0.241 OA
ATOM     24  O   LIG d   1      -2.914  79.696 120.025  0.00  0.00    -0.241 OA
ENDBRANCH   3  22
TORSDOF 7
ENDMDL
MODEL 6
REMARK VINA RESULT:      -4.6      1.813      2.686
REMARK  7 active torsions:
REMARK  status: ('A' for Active; 'I' for Inactive)
REMARK    1  A    between atoms: C_2  and  C_3 
REMARK    2  A    between atoms: C_3  and  O_6 
REMARK    3  A    between atoms: C_3  and  C_4 
REMARK    4  A    between atoms: C_7  and  O_6 
REMARK    5  A    between atoms: C_9  and  C_10 
REMARK    6  A    between atoms: N_15  and  C_14 
REMARK    7  A    between atoms: N_20  and  C_19 
REMARK       I    between atoms: C_22  and  N_20 
ROOT
ATOM      1  C   LIG d   1      -6.648  78.854 119.383  0.00  0.00     0.161 C 
ATOM      2  C   LIG d   1      -5.452  78.238 118.978  0.00  0.00     0.016 C 
ATOM      3  C   LIG d   1      -4.189  78.553 119.528  0.00  0.00     0.038 C 
ATOM      4  C   LIG d   1      -4.054  79.404 120.635  0.00  0.00     0.028 C 
ATOM      5  C   LIG d   1      -5.174  80.433 120.749  0.00  0.00    -0.047 C 
ATOM      6  C   LIG d   1      -6.535  79.704 120.666  0.00  0.00     0.091 C 
ENDROOT
BRANCH   1   7
ATOM      7  O   LIG d   1      -7.684  77.862 119.529  0.00  0.00    -0.368 OA
BRANCH   7   8
ATOM      8  C   LIG d   1      -8.597  77.726 118.412  0.00  0.00     0.119 C 
BRANCH   8   9
ATOM      9  C   LIG d   1      -9.978  78.226 118.880  0.00  0.00     0.028 C 
ATOM     10  C   LIG d   1     -10.532  77.404 120.056  0.00  0.00     0.006 C 
ENDBRANCH   8   9
BRANCH   8  11
ATOM     11  C   LIG d   1      -8.804  76.256 118.038  0.00  0.00     0.028 C 
ATOM     12  C   LIG d   1      -7.658  75.693 117.181  0.00  0.00     0.006 C 
ENDBRANCH   8  11
ENDBRANCH   7   8
ENDBRANCH   1   7
BRANCH   6  13
ATOM     13  N   LIG d   1      -7.684  80.646 120.685  0.00  0.00    -0.311 N 
ATOM     14  C   LIG d   1      -8.707  80.538 121.532  0.00  0.00     0.210 C 
ATOM     15  C   LIG d   1      -9.797  81.602 121.368  0.00  0.00     0.109 C 
ATOM     16  O   LIG d   1      -8.798  79.682 122.424  0.00  0.00    -0.276 OA
ATOM     17  H   LIG d   1      -7.676  81.389 120.014  0.00  0.00     0.149 HD
ENDBRANCH   6  13
BRANCH   5  18
ATOM     18  N   LIG d   1      -4.984  81.160 122.018  0.00  0.00     0.381 N 
ATOM     19  H   LIG d   1      -5.540  81.992 122.018  0.00  0.00    -0.090 HD
ATOM     20  H   LIG d   1      -4.019  81.426 122.099  0.00  0.00    -0.090 HD
ATOM     21  H   LIG d   1      -5.242  80.580 122.786  0.00  0.00    -0.090 HD
ENDBRANCH   5  18
BRANCH   3  22
ATOM     22  C   LIG d   1      -3.039  78.045 118.944  0.00  0.00     0.382 C 
ATOM     23  O   LIG d   1      -3.107  77.442 117.846  0.00  0.00    -0.241 OA
ATOM     24  O   LIG d   1      -1.940  78.143 119.523  0.00  0.00    -0.241 OA
ENDBRANCH   3  22
TORSDOF 7
ENDMDL
MODEL 7
REMARK VINA RESULT:      -4.5      9.106     11.218
REMARK  7 active torsions:
REMARK  status: ('A' for Active; 'I' for Inactive)
REMARK    1  A    between atoms: C_2  and  C_3 
REMARK    2  A    between atoms: C_3  and  O_6 
REMARK    3  A    between atoms: C_3  and  C_4 
REMARK    4  A    between atoms: C_7  and  O_6 
REMARK    5  A    between atoms: C_9  and  C_10 
REMARK    6  A    between atoms: N_15  and  C_14 
REMARK    7  A    between atoms: N_20  and  C_19 
REMARK       I    between atoms: C_22  and  N_20 
ROOT
ATOM      1  C   LIG d   1     -16.227  72.147 121.464  0.00  0.00     0.161 C 
ATOM      2  C   LIG d   1     -15.745  70.851 121.214  0.00  0.00     0.016 C 
ATOM      3  C   LIG d   1     -15.804  70.230 119.945  0.00  0.00     0.038 C 
ATOM      4  C   LIG d   1     -16.214  70.926 118.798  0.00  0.00     0.028 C 
ATOM      5  C   LIG d   1     -17.180  72.068 119.095  0.00  0.00    -0.047 C 
ATOM      6  C   LIG d   1     -16.576  72.962 120.201  0.00  0.00     0.091 C 
ENDROOT
BRANCH   1   7
ATOM      7  O   LIG d   1     -15.284  72.869 122.282  0.00  0.00    -0.368 OA
BRANCH   7   8
ATOM      8  C   LIG d   1     -13.920  72.912 121.796  0.00  0.00     0.119 C 
BRANCH   8   9
ATOM      9  C   LIG d   1     -13.005  72.440 122.942  0.00  0.00     0.028 C 
ATOM     10  C   LIG d   1     -12.292  71.117 122.618  0.00  0.00     0.006 C 
ENDBRANCH   8   9
BRANCH   8  11
ATOM     11  C   LIG d   1     -13.482  74.347 121.491  0.00  0.00     0.028 C 
ATOM     12  C   LIG d   1     -14.352  75.399 122.198  0.00  0.00     0.006 C 
ENDBRANCH   8  11
ENDBRANCH   7   8
ENDBRANCH   1   7
BRANCH   6  13
ATOM     13  N   LIG d   1     -17.494  74.056 120.611  0.00  0.00    -0.311 N 
ATOM     14  C   LIG d   1     -17.436  75.289 120.111  0.00  0.00     0.210 C 
ATOM     15  C   LIG d   1     -18.463  76.269 120.686  0.00  0.00     0.109 C 
ATOM     16  O   LIG d   1     -16.651  75.655 119.223  0.00  0.00    -0.276 OA
ATOM     17  H   LIG d   1     -18.182  73.837 121.305  0.00  0.00     0.149 HD
ENDBRANCH   6  13
BRANCH   5  18
ATOM     18  N   LIG d   1     -17.417  72.791 117.831  0.00  0.00     0.381 N 
ATOM     19  H   LIG d   1     -16.561  72.867 117.319  0.00  0.00    -0.090 HD
ATOM     20  H   LIG d   1     -17.741  73.718 118.043  0.00  0.00    -0.090 HD
ATOM     21  H   LIG d   1     -18.098  72.311 117.286  0.00  0.00    -0.090 HD
ENDBRANCH   5  18
BRANCH   3  22
ATOM     22  C   LIG d   1     -15.488  68.886 119.823  0.00  0.00     0.382 C 
ATOM     23  O   LIG d   1     -14.413  68.543 119.274  0.00  0.00    -0.241 OA
ATOM     24  O   LIG d   1     -16.283  68.011 120.214  0.00  0.00    -0.241 OA
ENDBRANCH   3  22
TORSDOF 7
ENDMDL
MODEL 8
REMARK VINA RESULT:      -4.4     11.144     12.810
REMARK  7 active torsions:
REMARK  status: ('A' for Active; 'I' for Inactive)
REMARK    1  A    between atoms: C_2  and  C_3 
REMARK    2  A    between atoms: C_3  and  O_6 
REMARK    3  A    between atoms: C_3  and  C_4 
REMARK    4  A    between atoms: C_7  and  O_6 
REMARK    5  A    between atoms: C_9  and  C_10 
REMARK    6  A    between atoms: N_15  and  C_14 
REMARK    7  A    between atoms: N_20  and  C_19 
REMARK       I    between atoms: C_22  and  N_20 
ROOT
ATOM      1  C   LIG d   1     -14.888  69.076 120.626  0.00  0.00     0.161 C 
ATOM      2  C   LIG d   1     -14.025  69.542 121.632  0.00  0.00     0.016 C 
ATOM      3  C   LIG d   1     -13.096  68.715 122.304  0.00  0.00     0.038 C 
ATOM      4  C   LIG d   1     -12.859  67.390 121.908  0.00  0.00     0.028 C 
ATOM      5  C   LIG d   1     -14.061  66.736 121.235  0.00  0.00    -0.047 C 
ATOM      6  C   LIG d   1     -14.567  67.660 120.104  0.00  0.00     0.091 C 
ENDROOT
BRANCH   1   7
ATOM      7  O   LIG d   1     -14.920  70.017 119.535  0.00  0.00    -0.368 OA
BRANCH   7   8
ATOM      8  C   LIG d   1     -16.043  70.932 119.516  0.00  0.00     0.119 C 
BRANCH   8   9
ATOM      9  C   LIG d   1     -16.681  70.853 118.115  0.00  0.00     0.028 C 
ATOM     10  C   LIG d   1     -16.306  72.054 117.231  0.00  0.00     0.006 C 
ENDBRANCH   8   9
BRANCH   8  11
ATOM     11  C   LIG d   1     -15.580  72.384 119.669  0.00  0.00     0.028 C 
ATOM     12  C   LIG d   1     -15.669  72.888 121.118  0.00  0.00     0.006 C 
ENDBRANCH   8  11
ENDBRANCH   7   8
ENDBRANCH   1   7
BRANCH   6  13
ATOM     13  N   LIG d   1     -15.793  67.134 119.448  0.00  0.00    -0.311 N 
ATOM     14  C   LIG d   1     -15.977  67.137 118.129  0.00  0.00     0.210 C 
ATOM     15  C   LIG d   1     -17.320  66.566 117.663  0.00  0.00     0.109 C 
ATOM     16  O   LIG d   1     -15.143  67.529 117.299  0.00  0.00    -0.276 OA
ATOM     17  H   LIG d   1     -16.508  66.768 120.045  0.00  0.00     0.149 HD
ENDBRANCH   6  13
BRANCH   5  18
ATOM     18  N   LIG d   1     -13.633  65.410 120.751  0.00  0.00     0.381 N 
ATOM     19  H   LIG d   1     -12.768  65.154 121.184  0.00  0.00    -0.090 HD
ATOM     20  H   LIG d   1     -13.486  65.458 119.758  0.00  0.00    -0.090 HD
ATOM     21  H   LIG d   1     -14.331  64.730 120.958  0.00  0.00    -0.090 HD
ENDBRANCH   5  18
BRANCH   3  22
ATOM     22  C   LIG d   1     -12.419  69.202 123.413  0.00  0.00     0.382 C 
ATOM     23  O   LIG d   1     -12.314  70.440 123.589  0.00  0.00    -0.241 OA
ATOM     24  O   LIG d   1     -11.875  68.419 124.215  0.00  0.00    -0.241 OA
ENDBRANCH   3  22
TORSDOF 7
ENDMDL
MODEL 9
REMARK VINA RESULT:      -4.4      1.868      2.663
REMARK  7 active torsions:
REMARK  status: ('A' for Active; 'I' for Inactive)
REMARK    1  A    between atoms: C_2  and  C_3 
REMARK    2  A    between atoms: C_3  and  O_6 
REMARK    3  A    between atoms: C_3  and  C_4 
REMARK    4  A    between atoms: C_7  and  O_6 
REMARK    5  A    between atoms: C_9  and  C_10 
REMARK    6  A    between atoms: N_15  and  C_14 
REMARK    7  A    between atoms: N_20  and  C_19 
REMARK       I    between atoms: C_22  and  N_20 
ROOT
ATOM      1  C   LIG d   1      -6.786  78.880 119.672  0.00  0.00     0.161 C 
ATOM      2  C   LIG d   1      -5.713  78.164 119.117  0.00  0.00     0.016 C 
ATOM      3  C   LIG d   1      -4.357  78.454 119.394  0.00  0.00     0.038 C 
ATOM      4  C   LIG d   1      -3.984  79.391 120.370  0.00  0.00     0.028 C 
ATOM      5  C   LIG d   1      -5.022  80.487 120.586  0.00  0.00    -0.047 C 
ATOM      6  C   LIG d   1      -6.402  79.832 120.824  0.00  0.00     0.091 C 
ENDROOT
BRANCH   1   7
ATOM      7  O   LIG d   1      -7.815  77.965 120.100  0.00  0.00    -0.368 OA
BRANCH   7   8
ATOM      8  C   LIG d   1      -9.056  78.007 119.354  0.00  0.00     0.119 C 
BRANCH   8   9
ATOM      9  C   LIG d   1      -9.166  76.687 118.566  0.00  0.00     0.028 C 
ATOM     10  C   LIG d   1      -8.518  75.505 119.307  0.00  0.00     0.006 C 
ENDBRANCH   8   9
BRANCH   8  11
ATOM     11  C   LIG d   1      -9.032  79.111 118.294  0.00  0.00     0.028 C 
ATOM     12  C   LIG d   1     -10.143  80.154 118.494  0.00  0.00     0.006 C 
ENDBRANCH   8  11
ENDBRANCH   7   8
ENDBRANCH   1   7
BRANCH   6  13
ATOM     13  N   LIG d   1      -7.490  80.835 120.961  0.00  0.00    -0.311 N 
ATOM     14  C   LIG d   1      -8.449  80.756 121.881  0.00  0.00     0.210 C 
ATOM     15  C   LIG d   1      -9.484  81.884 121.835  0.00  0.00     0.109 C 
ATOM     16  O   LIG d   1      -8.523  79.875 122.751  0.00  0.00    -0.276 OA
ATOM     17  H   LIG d   1      -7.488  81.600 120.315  0.00  0.00     0.149 HD
ENDBRANCH   6  13
BRANCH   5  18
ATOM     18  N   LIG d   1      -4.569  81.312 121.722  0.00  0.00     0.381 N 
ATOM     19  H   LIG d   1      -5.049  82.190 121.715  0.00  0.00    -0.090 HD
ATOM     20  H   LIG d   1      -3.585  81.490 121.623  0.00  0.00    -0.090 HD
ATOM     21  H   LIG d   1      -4.744  80.836 122.579  0.00  0.00    -0.090 HD
ENDBRANCH   5  18
BRANCH   3  22
ATOM     22  C   LIG d   1      -3.357  77.832 118.662  0.00  0.00     0.382 C 
ATOM     23  O   LIG d   1      -2.170  77.871 119.064  0.00  0.00    -0.241 OA
ATOM     24  O   LIG d   1      -3.622  77.272 117.581  0.00  0.00    -0.241 OA
ENDBRANCH   3  22
TORSDOF 7
ENDMDL
