MODEL 1
REMARK VINA RESULT:      -5.4      0.000      0.000
REMARK  7 active torsions:
REMARK  status: ('A' for Active; 'I' for Inactive)
REMARK    1  A    between atoms: C_2  and  C_3 
REMARK    2  A    between atoms: C_3  and  O_6 
REMARK    3  A    between atoms: C_3  and  C_4 
REMARK    4  A    between atoms: C_7  and  O_6 
REMARK    5  A    between atoms: C_9  and  C_10 
REMARK    6  A    between atoms: N_15  and  C_14 
REMARK    7  A    between atoms: N_20  and  C_19 
REMARK       I    between atoms: C_22  and  N_20 
ROOT
ATOM      1  C   LIG d   1      -7.137  74.698 116.289  0.00  0.00     0.161 C 
ATOM      2  C   LIG d   1      -6.192  74.258 115.347  0.00  0.00     0.016 C 
ATOM      3  C   LIG d   1      -5.129  75.062 114.877  0.00  0.00     0.038 C 
ATOM      4  C   LIG d   1      -4.847  76.318 115.435  0.00  0.00     0.028 C 
ATOM      5  C   LIG d   1      -6.071  77.006 116.029  0.00  0.00    -0.047 C 
ATOM      6  C   LIG d   1      -6.781  76.025 116.991  0.00  0.00     0.091 C 
ENDROOT
BRANCH   1   7
ATOM      7  O   LIG d   1      -7.373  73.664 117.264  0.00  0.00    -0.368 OA
BRANCH   7   8
ATOM      8  C   LIG d   1      -8.623  72.942 117.138  0.00  0.00     0.119 C 
BRANCH   8   9
ATOM      9  C   LIG d   1      -9.491  73.301 118.359  0.00  0.00     0.028 C 
ATOM     10  C   LIG d   1     -10.779  74.044 117.966  0.00  0.00     0.006 C 
ENDBRANCH   8   9
BRANCH   8  11
ATOM     11  C   LIG d   1      -8.404  71.429 117.227  0.00  0.00     0.028 C 
ATOM     12  C   LIG d   1      -9.714  70.631 117.133  0.00  0.00     0.006 C 
ENDBRANCH   8  11
ENDBRANCH   7   8
ENDBRANCH   1   7
BRANCH   6  13
ATOM     13  N   LIG d   1      -8.036  76.589 117.551  0.00  0.00    -0.311 N 
ATOM     14  C   LIG d   1      -8.212  76.842 118.847  0.00  0.00     0.210 C 
ATOM     15  C   LIG d   1      -9.589  77.403 119.215  0.00  0.00     0.109 C 
ATOM     16  O   LIG d   1      -7.348  76.685 119.722  0.00  0.00    -0.276 OA
ATOM     17  H   LIG d   1      -8.779  76.777 116.907  0.00  0.00     0.149 HD
ENDBRANCH   6  13
BRANCH   5  18
ATOM     18  N   LIG d   1      -5.611  78.239 116.696  0.00  0.00     0.381 N 
ATOM     19  H   LIG d   1      -6.304  78.551 117.346  0.00  0.00    -0.090 HD
ATOM     20  H   LIG d   1      -5.483  78.955 116.003  0.00  0.00    -0.090 HD
ATOM     21  H   LIG d   1      -4.752  78.069 117.171  0.00  0.00    -0.090 HD
ENDBRANCH   5  18
BRANCH   3  22
ATOM     22  C   LIG d   1      -4.357  74.627 113.810  0.00  0.00     0.382 C 
ATOM     23  O   LIG d   1      -4.851  73.856 112.953  0.00  0.00    -0.241 OA
ATOM     24  O   LIG d   1      -3.161  74.961 113.719  0.00  0.00    -0.241 OA
ENDBRANCH   3  22
TORSDOF 7
ENDMDL
MODEL 2
REMARK VINA RESULT:      -5.3      3.032      5.902
REMARK  7 active torsions:
REMARK  status: ('A' for Active; 'I' for Inactive)
REMARK    1  A    between atoms: C_2  and  C_3 
REMARK    2  A    between atoms: C_3  and  O_6 
REMARK    3  A    between atoms: C_3  and  C_4 
REMARK    4  A    between atoms: C_7  and  O_6 
REMARK    5  A    between atoms: C_9  and  C_10 
REMARK    6  A    between atoms: N_15  and  C_14 
REMARK    7  A    between atoms: N_20  and  C_19 
REMARK       I    between atoms: C_22  and  N_20 
ROOT
ATOM      1  C   LIG d   1      -4.671  75.625 116.743  0.00  0.00     0.161 C 
ATOM      2  C   LIG d   1      -5.527  74.548 117.027  0.00  0.00     0.016 C 
ATOM      3  C   LIG d   1      -6.278  73.869 116.040  0.00  0.00     0.038 C 
ATOM      4  C   LIG d   1      -6.106  74.126 114.671  0.00  0.00     0.028 C 
ATOM      5  C   LIG d   1      -5.629  75.544 114.376  0.00  0.00    -0.047 C 
ATOM      6  C   LIG d   1      -4.386  75.846 115.243  0.00  0.00     0.091 C 
ENDROOT
BRANCH   1   7
ATOM      7  O   LIG d   1      -3.436  75.472 117.471  0.00  0.00    -0.368 OA
BRANCH   7   8
ATOM      8  C   LIG d   1      -2.742  74.213 117.291  0.00  0.00     0.119 C 
BRANCH   8   9
ATOM      9  C   LIG d   1      -2.505  73.611 118.689  0.00  0.00     0.028 C 
ATOM     10  C   LIG d   1      -1.014  73.558 119.060  0.00  0.00     0.006 C 
ENDBRANCH   8   9
BRANCH   8  11
ATOM     11  C   LIG d   1      -1.345  74.427 116.699  0.00  0.00     0.028 C 
ATOM     12  C   LIG d   1      -1.239  73.962 115.238  0.00  0.00     0.006 C 
ENDBRANCH   8  11
ENDBRANCH   7   8
ENDBRANCH   1   7
BRANCH   6  13
ATOM     13  N   LIG d   1      -3.906  77.243 115.078  0.00  0.00    -0.311 N 
ATOM     14  C   LIG d   1      -2.958  77.595 114.211  0.00  0.00     0.210 C 
ATOM     15  C   LIG d   1      -2.597  79.083 114.215  0.00  0.00     0.109 C 
ATOM     16  O   LIG d   1      -2.404  76.820 113.416  0.00  0.00    -0.276 OA
ATOM     17  H   LIG d   1      -4.323  77.941 115.661  0.00  0.00     0.149 HD
ENDBRANCH   6  13
BRANCH   5  18
ATOM     18  N   LIG d   1      -5.360  75.631 112.928  0.00  0.00     0.381 N 
ATOM     19  H   LIG d   1      -4.523  75.128 112.709  0.00  0.00    -0.090 HD
ATOM     20  H   LIG d   1      -5.223  76.595 112.681  0.00  0.00    -0.090 HD
ATOM     21  H   LIG d   1      -6.127  75.255 112.415  0.00  0.00    -0.090 HD
ENDBRANCH   5  18
BRANCH   3  22
ATOM     22  C   LIG d   1      -7.242  72.949 116.421  0.00  0.00     0.382 C 
ATOM     23  O   LIG d   1      -8.017  73.211 117.373  0.00  0.00    -0.241 OA
ATOM     24  O   LIG d   1      -7.319  71.842 115.855  0.00  0.00    -0.241 OA
ENDBRANCH   3  22
TORSDOF 7
ENDMDL
MODEL 3
REMARK VINA RESULT:      -5.3      3.212      4.238
REMARK  7 active torsions:
REMARK  status: ('A' for Active; 'I' for Inactive)
REMARK    1  A    between atoms: C_2  and  C_3 
REMARK    2  A    between atoms: C_3  and  O_6 
REMARK    3  A    between atoms: C_3  and  C_4 
REMARK    4  A    between atoms: C_7  and  O_6 
REMARK    5  A    between atoms: C_9  and  C_10 
REMARK    6  A    between atoms: N_15  and  C_14 
REMARK    7  A    between atoms: N_20  and  C_19 
REMARK       I    between atoms: C_22  and  N_20 
ROOT
ATOM      1  C   LIG d   1      -4.461  75.428 116.758  0.00  0.00     0.161 C 
ATOM      2  C   LIG d   1      -4.826  75.796 115.452  0.00  0.00     0.016 C 
ATOM      3  C   LIG d   1      -3.917  75.824 114.369  0.00  0.00     0.038 C 
ATOM      4  C   LIG d   1      -2.607  75.336 114.488  0.00  0.00     0.028 C 
ATOM      5  C   LIG d   1      -2.053  75.427 115.905  0.00  0.00    -0.047 C 
ATOM      6  C   LIG d   1      -3.064  74.785 116.882  0.00  0.00     0.091 C 
ENDROOT
BRANCH   1   7
ATOM      7  O   LIG d   1      -5.465  74.557 117.317  0.00  0.00    -0.368 OA
BRANCH   7   8
ATOM      8  C   LIG d   1      -6.669  74.383 116.531  0.00  0.00     0.119 C 
BRANCH   8   9
ATOM      9  C   LIG d   1      -7.869  74.691 117.447  0.00  0.00     0.028 C 
ATOM     10  C   LIG d   1      -8.044  76.199 117.698  0.00  0.00     0.006 C 
ENDBRANCH   8   9
BRANCH   8  11
ATOM     11  C   LIG d   1      -6.850  72.924 116.102  0.00  0.00     0.028 C 
ATOM     12  C   LIG d   1      -7.918  72.189 116.927  0.00  0.00     0.006 C 
ENDBRANCH   8  11
ENDBRANCH   7   8
ENDBRANCH   1   7
BRANCH   6  13
ATOM     13  N   LIG d   1      -2.637  74.908 118.301  0.00  0.00    -0.311 N 
ATOM     14  C   LIG d   1      -1.972  73.955 118.951  0.00  0.00     0.210 C 
ATOM     15  C   LIG d   1      -1.647  74.276 120.413  0.00  0.00     0.109 C 
ATOM     16  O   LIG d   1      -1.591  72.888 118.446  0.00  0.00    -0.276 OA
ATOM     17  H   LIG d   1      -2.878  75.755 118.778  0.00  0.00     0.149 HD
ENDBRANCH   6  13
BRANCH   5  18
ATOM     18  N   LIG d   1      -0.737  74.760 115.913  0.00  0.00     0.381 N 
ATOM     19  H   LIG d   1      -0.582  74.308 115.034  0.00  0.00    -0.090 HD
ATOM     20  H   LIG d   1      -0.733  74.059 116.633  0.00  0.00    -0.090 HD
ATOM     21  H   LIG d   1      -0.017  75.427 116.084  0.00  0.00    -0.090 HD
ENDBRANCH   5  18
BRANCH   3  22
ATOM     22  C   LIG d   1      -4.305  76.382 113.160  0.00  0.00     0.382 C 
ATOM     23  O   LIG d   1      -3.584  77.247 112.609  0.00  0.00    -0.241 OA
ATOM     24  O   LIG d   1      -5.389  76.062 112.636  0.00  0.00    -0.241 OA
ENDBRANCH   3  22
TORSDOF 7
ENDMDL
MODEL 4
REMARK VINA RESULT:      -5.3      3.095      5.751
REMARK  7 active torsions:
REMARK  status: ('A' for Active; 'I' for Inactive)
REMARK    1  A    between atoms: C_2  and  C_3 
REMARK    2  A    between atoms: C_3  and  O_6 
REMARK    3  A    between atoms: C_3  and  C_4 
REMARK    4  A    between atoms: C_7  and  O_6 
REMARK    5  A    between atoms: C_9  and  C_10 
REMARK    6  A    between atoms: N_15  and  C_14 
REMARK    7  A    between atoms: N_20  and  C_19 
REMARK       I    between atoms: C_22  and  N_20 
ROOT
ATOM      1  C   LIG d   1      -6.910  77.600 117.378  0.00  0.00     0.161 C 
ATOM      2  C   LIG d   1      -8.038  76.779 117.541  0.00  0.00     0.016 C 
ATOM      3  C   LIG d   1      -9.279  77.250 118.027  0.00  0.00     0.038 C 
ATOM      4  C   LIG d   1      -9.522  78.615 118.242  0.00  0.00     0.028 C 
ATOM      5  C   LIG d   1      -8.263  79.409 118.572  0.00  0.00    -0.047 C 
ATOM      6  C   LIG d   1      -7.187  79.113 117.502  0.00  0.00     0.091 C 
ENDROOT
BRANCH   1   7
ATOM      7  O   LIG d   1      -6.272  77.309 116.119  0.00  0.00    -0.368 OA
BRANCH   7   8
ATOM      8  C   LIG d   1      -6.187  75.909 115.755  0.00  0.00     0.119 C 
BRANCH   8   9
ATOM      9  C   LIG d   1      -4.726  75.465 115.960  0.00  0.00     0.028 C 
ATOM     10  C   LIG d   1      -4.529  74.681 117.269  0.00  0.00     0.006 C 
ENDBRANCH   8   9
BRANCH   8  11
ATOM     11  C   LIG d   1      -6.469  75.703 114.264  0.00  0.00     0.028 C 
ATOM     12  C   LIG d   1      -5.347  74.935 113.547  0.00  0.00     0.006 C 
ENDBRANCH   8  11
ENDBRANCH   7   8
ENDBRANCH   1   7
BRANCH   6  13
ATOM     13  N   LIG d   1      -5.895  79.785 117.796  0.00  0.00    -0.311 N 
ATOM     14  C   LIG d   1      -5.527  80.940 117.245  0.00  0.00     0.210 C 
ATOM     15  C   LIG d   1      -4.146  81.449 117.670  0.00  0.00     0.109 C 
ATOM     16  O   LIG d   1      -6.228  81.608 116.470  0.00  0.00    -0.276 OA
ATOM     17  H   LIG d   1      -5.279  79.327 118.439  0.00  0.00     0.149 HD
ENDBRANCH   6  13
BRANCH   5  18
ATOM     18  N   LIG d   1      -8.638  80.834 118.635  0.00  0.00     0.381 N 
ATOM     19  H   LIG d   1      -8.002  81.326 119.231  0.00  0.00    -0.090 HD
ATOM     20  H   LIG d   1      -9.560  80.910 119.027  0.00  0.00    -0.090 HD
ATOM     21  H   LIG d   1      -8.624  81.231 117.722  0.00  0.00    -0.090 HD
ENDBRANCH   5  18
BRANCH   3  22
ATOM     22  C   LIG d   1     -10.282  76.345 118.341  0.00  0.00     0.382 C 
ATOM     23  O   LIG d   1     -11.485  76.697 118.282  0.00  0.00    -0.241 OA
ATOM     24  O   LIG d   1      -9.998  75.195 118.725  0.00  0.00    -0.241 OA
ENDBRANCH   3  22
TORSDOF 7
ENDMDL
MODEL 5
REMARK VINA RESULT:      -5.2     17.215     18.560
REMARK  7 active torsions:
REMARK  status: ('A' for Active; 'I' for Inactive)
REMARK    1  A    between atoms: C_2  and  C_3 
REMARK    2  A    between atoms: C_3  and  O_6 
REMARK    3  A    between atoms: C_3  and  C_4 
REMARK    4  A    between atoms: C_7  and  O_6 
REMARK    5  A    between atoms: C_9  and  C_10 
REMARK    6  A    between atoms: N_15  and  C_14 
REMARK    7  A    between atoms: N_20  and  C_19 
REMARK       I    between atoms: C_22  and  N_20 
ROOT
ATOM      1  C   LIG d   1       0.267  58.561 118.723  0.00  0.00     0.161 C 
ATOM      2  C   LIG d   1       0.186  59.133 117.442  0.00  0.00     0.016 C 
ATOM      3  C   LIG d   1      -0.920  58.954 116.579  0.00  0.00     0.038 C 
ATOM      4  C   LIG d   1      -2.093  58.310 117.001  0.00  0.00     0.028 C 
ATOM      5  C   LIG d   1      -1.859  57.285 118.105  0.00  0.00    -0.047 C 
ATOM      6  C   LIG d   1      -1.050  57.949 119.243  0.00  0.00     0.091 C 
ENDROOT
BRANCH   1   7
ATOM      7  O   LIG d   1       0.772  59.533 119.660  0.00  0.00    -0.368 OA
BRANCH   7   8
ATOM      8  C   LIG d   1       2.063  59.239 120.250  0.00  0.00     0.119 C 
BRANCH   8   9
ATOM      9  C   LIG d   1       2.152  60.014 121.579  0.00  0.00     0.028 C 
ATOM     10  C   LIG d   1       0.798  60.090 122.305  0.00  0.00     0.006 C 
ENDBRANCH   8   9
BRANCH   8  11
ATOM     11  C   LIG d   1       3.206  59.782 119.387  0.00  0.00     0.028 C 
ATOM     12  C   LIG d   1       4.296  58.733 119.114  0.00  0.00     0.006 C 
ENDBRANCH   8  11
ENDBRANCH   7   8
ENDBRANCH   1   7
BRANCH   6  13
ATOM     13  N   LIG d   1      -0.705  56.992 120.326  0.00  0.00    -0.311 N 
ATOM     14  C   LIG d   1      -1.432  56.842 121.432  0.00  0.00     0.210 C 
ATOM     15  C   LIG d   1      -0.888  55.815 122.430  0.00  0.00     0.109 C 
ATOM     16  O   LIG d   1      -2.494  57.439 121.666  0.00  0.00    -0.276 OA
ATOM     17  H   LIG d   1       0.124  56.444 120.203  0.00  0.00     0.149 HD
ENDBRANCH   6  13
BRANCH   5  18
ATOM     18  N   LIG d   1      -3.178  56.793 118.544  0.00  0.00     0.381 N 
ATOM     19  H   LIG d   1      -3.303  55.846 118.244  0.00  0.00    -0.090 HD
ATOM     20  H   LIG d   1      -3.893  57.355 118.117  0.00  0.00    -0.090 HD
ATOM     21  H   LIG d   1      -3.250  56.847 119.536  0.00  0.00    -0.090 HD
ENDBRANCH   5  18
BRANCH   3  22
ATOM     22  C   LIG d   1      -0.842  59.387 115.264  0.00  0.00     0.382 C 
ATOM     23  O   LIG d   1       0.239  59.290 114.635  0.00  0.00    -0.241 OA
ATOM     24  O   LIG d   1      -1.827  59.913 114.713  0.00  0.00    -0.241 OA
ENDBRANCH   3  22
TORSDOF 7
ENDMDL
MODEL 6
REMARK VINA RESULT:      -5.2      1.965      2.903
REMARK  7 active torsions:
REMARK  status: ('A' for Active; 'I' for Inactive)
REMARK    1  A    between atoms: C_2  and  C_3 
REMARK    2  A    between atoms: C_3  and  O_6 
REMARK    3  A    between atoms: C_3  and  C_4 
REMARK    4  A    between atoms: C_7  and  O_6 
REMARK    5  A    between atoms: C_9  and  C_10 
REMARK    6  A    between atoms: N_15  and  C_14 
REMARK    7  A    between atoms: N_20  and  C_19 
REMARK       I    between atoms: C_22  and  N_20 
ROOT
ATOM      1  C   LIG d   1      -6.684  75.690 116.748  0.00  0.00     0.161 C 
ATOM      2  C   LIG d   1      -6.579  75.322 115.396  0.00  0.00     0.016 C 
ATOM      3  C   LIG d   1      -5.359  75.318 114.683  0.00  0.00     0.038 C 
ATOM      4  C   LIG d   1      -4.128  75.538 115.319  0.00  0.00     0.028 C 
ATOM      5  C   LIG d   1      -4.238  76.405 116.568  0.00  0.00    -0.047 C 
ATOM      6  C   LIG d   1      -5.337  75.825 117.487  0.00  0.00     0.091 C 
ENDROOT
BRANCH   1   7
ATOM      7  O   LIG d   1      -7.545  74.764 117.440  0.00  0.00    -0.368 OA
BRANCH   7   8
ATOM      8  C   LIG d   1      -8.506  75.349 118.353  0.00  0.00     0.119 C 
BRANCH   8   9
ATOM      9  C   LIG d   1      -9.696  74.375 118.459  0.00  0.00     0.028 C 
ATOM     10  C   LIG d   1      -9.313  72.936 118.073  0.00  0.00     0.006 C 
ENDBRANCH   8   9
BRANCH   8  11
ATOM     11  C   LIG d   1      -9.093  76.646 117.788  0.00  0.00     0.028 C 
ATOM     12  C   LIG d   1     -10.405  77.055 118.476  0.00  0.00     0.006 C 
ENDBRANCH   8  11
ENDBRANCH   7   8
ENDBRANCH   1   7
BRANCH   6  13
ATOM     13  N   LIG d   1      -5.568  76.662 118.693  0.00  0.00    -0.311 N 
ATOM     14  C   LIG d   1      -4.915  76.489 119.841  0.00  0.00     0.210 C 
ATOM     15  C   LIG d   1      -5.320  77.448 120.966  0.00  0.00     0.109 C 
ATOM     16  O   LIG d   1      -4.016  75.655 120.026  0.00  0.00    -0.276 OA
ATOM     17  H   LIG d   1      -6.258  77.384 118.622  0.00  0.00     0.149 HD
ENDBRANCH   6  13
BRANCH   5  18
ATOM     18  N   LIG d   1      -2.908  76.438 117.206  0.00  0.00     0.381 N 
ATOM     19  H   LIG d   1      -2.636  77.387 117.374  0.00  0.00    -0.090 HD
ATOM     20  H   LIG d   1      -2.238  76.024 116.583  0.00  0.00    -0.090 HD
ATOM     21  H   LIG d   1      -2.930  75.935 118.066  0.00  0.00    -0.090 HD
ENDBRANCH   5  18
BRANCH   3  22
ATOM     22  C   LIG d   1      -5.366  75.132 113.309  0.00  0.00     0.382 C 
ATOM     23  O   LIG d   1      -5.211  73.982 112.831  0.00  0.00    -0.241 OA
ATOM     24  O   LIG d   1      -5.480  76.105 112.540  0.00  0.00    -0.241 OA
ENDBRANCH   3  22
TORSDOF 7
ENDMDL
MODEL 7
REMARK VINA RESULT:      -5.1      3.703      5.522
REMARK  7 active torsions:
REMARK  status: ('A' for Active; 'I' for Inactive)
REMARK    1  A    between atoms: C_2  and  C_3 
REMARK    2  A    between atoms: C_3  and  O_6 
REMARK    3  A    between atoms: C_3  and  C_4 
REMARK    4  A    between atoms: C_7  and  O_6 
REMARK    5  A    between atoms: C_9  and  C_10 
REMARK    6  A    between atoms: N_15  and  C_14 
REMARK    7  A    between atoms: N_20  and  C_19 
REMARK       I    between atoms: C_22  and  N_20 
ROOT
ATOM      1  C   LIG d   1      -3.133  76.210 115.942  0.00  0.00     0.161 C 
ATOM      2  C   LIG d   1      -3.364  76.899 114.740  0.00  0.00     0.016 C 
ATOM      3  C   LIG d   1      -2.330  77.303 113.864  0.00  0.00     0.038 C 
ATOM      4  C   LIG d   1      -0.998  76.911 114.059  0.00  0.00     0.028 C 
ATOM      5  C   LIG d   1      -0.651  76.646 115.520  0.00  0.00    -0.047 C 
ATOM      6  C   LIG d   1      -1.696  75.675 116.116  0.00  0.00     0.091 C 
ENDROOT
BRANCH   1   7
ATOM      7  O   LIG d   1      -4.087  75.138 116.081  0.00  0.00    -0.368 OA
BRANCH   7   8
ATOM      8  C   LIG d   1      -5.372  75.342 115.446  0.00  0.00     0.119 C 
BRANCH   8   9
ATOM      9  C   LIG d   1      -6.460  75.001 116.482  0.00  0.00     0.028 C 
ATOM     10  C   LIG d   1      -6.827  73.507 116.480  0.00  0.00     0.006 C 
ENDBRANCH   8   9
BRANCH   8  11
ATOM     11  C   LIG d   1      -5.587  74.356 114.294  0.00  0.00     0.028 C 
ATOM     12  C   LIG d   1      -5.598  75.040 112.918  0.00  0.00     0.006 C 
ENDBRANCH   8  11
ENDBRANCH   7   8
ENDBRANCH   1   7
BRANCH   6  13
ATOM     13  N   LIG d   1      -1.480  75.429 117.565  0.00  0.00    -0.311 N 
ATOM     14  C   LIG d   1      -1.225  74.225 118.075  0.00  0.00     0.210 C 
ATOM     15  C   LIG d   1      -1.055  74.190 119.597  0.00  0.00     0.109 C 
ATOM     16  O   LIG d   1      -1.093  73.189 117.407  0.00  0.00    -0.276 OA
ATOM     17  H   LIG d   1      -1.538  76.221 118.176  0.00  0.00     0.149 HD
ENDBRANCH   6  13
BRANCH   5  18
ATOM     18  N   LIG d   1       0.724  76.114 115.563  0.00  0.00     0.381 N 
ATOM     19  H   LIG d   1       0.746  75.277 116.111  0.00  0.00    -0.090 HD
ATOM     20  H   LIG d   1       1.322  76.792 116.000  0.00  0.00    -0.090 HD
ATOM     21  H   LIG d   1       1.044  75.923 114.639  0.00  0.00    -0.090 HD
ENDBRANCH   5  18
BRANCH   3  22
ATOM     22  C   LIG d   1      -2.621  78.144 112.800  0.00  0.00     0.382 C 
ATOM     23  O   LIG d   1      -3.505  77.822 111.970  0.00  0.00    -0.241 OA
ATOM     24  O   LIG d   1      -1.979  79.199 112.635  0.00  0.00    -0.241 OA
ENDBRANCH   3  22
TORSDOF 7
ENDMDL
MODEL 8
REMARK VINA RESULT:      -5.0     17.601     19.547
REMARK  7 active torsions:
REMARK  status: ('A' for Active; 'I' for Inactive)
REMARK    1  A    between atoms: C_2  and  C_3 
REMARK    2  A    between atoms: C_3  and  O_6 
REMARK    3  A    between atoms: C_3  and  C_4 
REMARK    4  A    between atoms: C_7  and  O_6 
REMARK    5  A    between atoms: C_9  and  C_10 
REMARK    6  A    between atoms: N_15  and  C_14 
REMARK    7  A    between atoms: N_20  and  C_19 
REMARK       I    between atoms: C_22  and  N_20 
ROOT
ATOM      1  C   LIG d   1       1.181  58.464 118.264  0.00  0.00     0.161 C 
ATOM      2  C   LIG d   1       2.068  59.450 118.728  0.00  0.00     0.016 C 
ATOM      3  C   LIG d   1       3.362  59.164 119.219  0.00  0.00     0.038 C 
ATOM      4  C   LIG d   1       3.918  57.879 119.140  0.00  0.00     0.028 C 
ATOM      5  C   LIG d   1       2.875  56.766 119.146  0.00  0.00    -0.047 C 
ATOM      6  C   LIG d   1       1.812  57.069 118.066  0.00  0.00     0.091 C 
ENDROOT
BRANCH   1   7
ATOM      7  O   LIG d   1       0.551  58.906 117.046  0.00  0.00    -0.368 OA
BRANCH   7   8
ATOM      8  C   LIG d   1      -0.786  59.448 117.180  0.00  0.00     0.119 C 
BRANCH   8   9
ATOM      9  C   LIG d   1      -1.301  59.069 118.582  0.00  0.00     0.028 C 
ATOM     10  C   LIG d   1      -1.975  60.250 119.299  0.00  0.00     0.006 C 
ENDBRANCH   8   9
BRANCH   8  11
ATOM     11  C   LIG d   1      -1.757  58.786 116.198  0.00  0.00     0.028 C 
ATOM     12  C   LIG d   1      -2.368  57.488 116.748  0.00  0.00     0.006 C 
ENDBRANCH   8  11
ENDBRANCH   7   8
ENDBRANCH   1   7
BRANCH   6  13
ATOM     13  N   LIG d   1       0.708  56.073 118.062  0.00  0.00    -0.311 N 
ATOM     14  C   LIG d   1       0.687  55.006 117.266  0.00  0.00     0.210 C 
ATOM     15  C   LIG d   1      -0.553  54.118 117.407  0.00  0.00     0.109 C 
ATOM     16  O   LIG d   1       1.593  54.693 116.478  0.00  0.00    -0.276 OA
ATOM     17  H   LIG d   1      -0.053  56.233 118.692  0.00  0.00     0.149 HD
ENDBRANCH   6  13
BRANCH   5  18
ATOM     18  N   LIG d   1       3.582  55.491 118.920  0.00  0.00     0.381 N 
ATOM     19  H   LIG d   1       4.477  55.517 119.366  0.00  0.00    -0.090 HD
ATOM     20  H   LIG d   1       3.725  55.370 117.932  0.00  0.00    -0.090 HD
ATOM     21  H   LIG d   1       3.044  54.734 119.280  0.00  0.00    -0.090 HD
ENDBRANCH   5  18
BRANCH   3  22
ATOM     22  C   LIG d   1       4.099  60.164 119.835  0.00  0.00     0.382 C 
ATOM     23  O   LIG d   1       4.907  60.851 119.165  0.00  0.00    -0.241 OA
ATOM     24  O   LIG d   1       4.000  60.358 121.062  0.00  0.00    -0.241 OA
ENDBRANCH   3  22
TORSDOF 7
ENDMDL
MODEL 9
REMARK VINA RESULT:      -5.0      3.969      5.957
REMARK  7 active torsions:
REMARK  status: ('A' for Active; 'I' for Inactive)
REMARK    1  A    between atoms: C_2  and  C_3 
REMARK    2  A    between atoms: C_3  and  O_6 
REMARK    3  A    between atoms: C_3  and  C_4 
REMARK    4  A    between atoms: C_7  and  O_6 
REMARK    5  A    between atoms: C_9  and  C_10 
REMARK    6  A    between atoms: N_15  and  C_14 
REMARK    7  A    between atoms: N_20  and  C_19 
REMARK       I    between atoms: C_22  and  N_20 
ROOT
ATOM      1  C   LIG d   1      -3.082  75.117 116.180  0.00  0.00     0.161 C 
ATOM      2  C   LIG d   1      -2.728  74.367 117.315  0.00  0.00     0.016 C 
ATOM      3  C   LIG d   1      -1.520  74.553 118.024  0.00  0.00     0.038 C 
ATOM      4  C   LIG d   1      -0.645  75.612 117.735  0.00  0.00     0.028 C 
ATOM      5  C   LIG d   1      -0.716  76.077 116.285  0.00  0.00    -0.047 C 
ATOM      6  C   LIG d   1      -2.192  76.350 115.917  0.00  0.00     0.091 C 
ENDROOT
BRANCH   1   7
ATOM      7  O   LIG d   1      -4.467  75.507 116.265  0.00  0.00    -0.368 OA
BRANCH   7   8
ATOM      8  C   LIG d   1      -5.412  74.655 115.573  0.00  0.00     0.119 C 
BRANCH   8   9
ATOM      9  C   LIG d   1      -6.111  75.513 114.501  0.00  0.00     0.028 C 
ATOM     10  C   LIG d   1      -5.402  75.443 113.138  0.00  0.00     0.006 C 
ENDBRANCH   8   9
BRANCH   8  11
ATOM     11  C   LIG d   1      -6.530  74.186 116.509  0.00  0.00     0.028 C 
ATOM     12  C   LIG d   1      -7.138  75.334 117.331  0.00  0.00     0.006 C 
ENDBRANCH   8  11
ENDBRANCH   7   8
ENDBRANCH   1   7
BRANCH   6  13
ATOM     13  N   LIG d   1      -2.360  76.728 114.489  0.00  0.00    -0.311 N 
ATOM     14  C   LIG d   1      -2.427  77.990 114.069  0.00  0.00     0.210 C 
ATOM     15  C   LIG d   1      -2.621  78.159 112.558  0.00  0.00     0.109 C 
ATOM     16  O   LIG d   1      -2.312  78.986 114.799  0.00  0.00    -0.276 OA
ATOM     17  H   LIG d   1      -2.430  75.983 113.825  0.00  0.00     0.149 HD
ENDBRANCH   6  13
BRANCH   5  18
ATOM     18  N   LIG d   1       0.142  77.270 116.157  0.00  0.00     0.381 N 
ATOM     19  H   LIG d   1       0.713  77.191 115.339  0.00  0.00    -0.090 HD
ATOM     20  H   LIG d   1       0.745  77.324 116.959  0.00  0.00    -0.090 HD
ATOM     21  H   LIG d   1      -0.421  78.090 116.100  0.00  0.00    -0.090 HD
ENDBRANCH   5  18
BRANCH   3  22
ATOM     22  C   LIG d   1      -1.156  73.650 119.011  0.00  0.00     0.382 C 
ATOM     23  O   LIG d   1      -0.782  74.065 120.134  0.00  0.00    -0.241 OA
ATOM     24  O   LIG d   1      -1.156  72.426 118.778  0.00  0.00    -0.241 OA
ENDBRANCH   3  22
TORSDOF 7
ENDMDL
