MODEL 1
REMARK VINA RESULT:      -4.8      0.000      0.000
REMARK  7 active torsions:
REMARK  status: ('A' for Active; 'I' for Inactive)
REMARK    1  A    between atoms: C_2  and  C_3 
REMARK    2  A    between atoms: C_3  and  O_6 
REMARK    3  A    between atoms: C_3  and  C_4 
REMARK    4  A    between atoms: C_7  and  O_6 
REMARK    5  A    between atoms: C_9  and  C_10 
REMARK    6  A    between atoms: N_15  and  C_14 
REMARK    7  A    between atoms: N_20  and  C_19 
REMARK       I    between atoms: C_22  and  N_20 
ROOT
ATOM      1  C   LIG d   1      -8.691  77.133 118.756  0.00  0.00     0.161 C 
ATOM      2  C   LIG d   1      -9.663  76.269 119.289  0.00  0.00     0.016 C 
ATOM      3  C   LIG d   1     -10.832  76.722 119.942  0.00  0.00     0.038 C 
ATOM      4  C   LIG d   1     -11.186  78.079 119.973  0.00  0.00     0.028 C 
ATOM      5  C   LIG d   1      -9.988  79.019 119.891  0.00  0.00    -0.047 C 
ATOM      6  C   LIG d   1      -9.115  78.615 118.681  0.00  0.00     0.091 C 
ENDROOT
BRANCH   1   7
ATOM      7  O   LIG d   1      -8.281  76.663 117.456  0.00  0.00    -0.368 OA
BRANCH   7   8
ATOM      8  C   LIG d   1      -6.999  75.990 117.398  0.00  0.00     0.119 C 
BRANCH   8   9
ATOM      9  C   LIG d   1      -7.273  74.474 117.368  0.00  0.00     0.028 C 
ATOM     10  C   LIG d   1      -5.990  73.642 117.534  0.00  0.00     0.006 C 
ENDBRANCH   8   9
BRANCH   8  11
ATOM     11  C   LIG d   1      -6.185  76.230 118.672  0.00  0.00     0.028 C 
ATOM     12  C   LIG d   1      -4.990  77.170 118.447  0.00  0.00     0.006 C 
ENDBRANCH   8  11
ENDBRANCH   7   8
ENDBRANCH   1   7
BRANCH   6  13
ATOM     13  N   LIG d   1      -7.877  79.431 118.578  0.00  0.00    -0.311 N 
ATOM     14  C   LIG d   1      -7.801  80.562 117.878  0.00  0.00     0.210 C 
ATOM     15  C   LIG d   1      -6.426  81.237 117.887  0.00  0.00     0.109 C 
ATOM     16  O   LIG d   1      -8.751  81.087 117.278  0.00  0.00    -0.276 OA
ATOM     17  H   LIG d   1      -7.067  79.094 119.060  0.00  0.00     0.149 HD
ENDBRANCH   6  13
BRANCH   5  18
ATOM     18  N   LIG d   1     -10.509  80.396 119.793  0.00  0.00     0.381 N 
ATOM     19  H   LIG d   1      -9.786  81.048 120.025  0.00  0.00    -0.090 HD
ATOM     20  H   LIG d   1     -11.258  80.508 120.453  0.00  0.00    -0.090 HD
ATOM     21  H   LIG d   1     -10.840  80.571 118.870  0.00  0.00    -0.090 HD
ENDBRANCH   5  18
BRANCH   3  22
ATOM     22  C   LIG d   1     -11.642  75.815 120.609  0.00  0.00     0.382 C 
ATOM     23  O   LIG d   1     -11.215  75.226 121.631  0.00  0.00    -0.241 OA
ATOM     24  O   LIG d   1     -12.778  75.545 120.175  0.00  0.00    -0.241 OA
ENDBRANCH   3  22
TORSDOF 7
ENDMDL
MODEL 2
REMARK VINA RESULT:      -4.7      5.476      7.575
REMARK  7 active torsions:
REMARK  status: ('A' for Active; 'I' for Inactive)
REMARK    1  A    between atoms: C_2  and  C_3 
REMARK    2  A    between atoms: C_3  and  O_6 
REMARK    3  A    between atoms: C_3  and  C_4 
REMARK    4  A    between atoms: C_7  and  O_6 
REMARK    5  A    between atoms: C_9  and  C_10 
REMARK    6  A    between atoms: N_15  and  C_14 
REMARK    7  A    between atoms: N_20  and  C_19 
REMARK       I    between atoms: C_22  and  N_20 
ROOT
ATOM      1  C   LIG d   1     -13.893  73.132 121.378  0.00  0.00     0.161 C 
ATOM      2  C   LIG d   1     -14.546  72.006 120.848  0.00  0.00     0.016 C 
ATOM      3  C   LIG d   1     -15.067  71.956 119.534  0.00  0.00     0.038 C 
ATOM      4  C   LIG d   1     -14.836  72.981 118.605  0.00  0.00     0.028 C 
ATOM      5  C   LIG d   1     -14.620  74.346 119.250  0.00  0.00    -0.047 C 
ATOM      6  C   LIG d   1     -13.534  74.218 120.343  0.00  0.00     0.091 C 
ENDROOT
BRANCH   1   7
ATOM      7  O   LIG d   1     -12.716  72.719 122.100  0.00  0.00    -0.368 OA
BRANCH   7   8
ATOM      8  C   LIG d   1     -12.911  72.378 123.495  0.00  0.00     0.119 C 
BRANCH   8   9
ATOM      9  C   LIG d   1     -12.730  73.669 124.316  0.00  0.00     0.028 C 
ATOM     10  C   LIG d   1     -11.251  74.062 124.473  0.00  0.00     0.006 C 
ENDBRANCH   8   9
BRANCH   8  11
ATOM     11  C   LIG d   1     -11.822  71.424 123.993  0.00  0.00     0.028 C 
ATOM     12  C   LIG d   1     -11.098  70.696 122.848  0.00  0.00     0.006 C 
ENDBRANCH   8  11
ENDBRANCH   7   8
ENDBRANCH   1   7
BRANCH   6  13
ATOM     13  N   LIG d   1     -13.320  75.490 121.081  0.00  0.00    -0.311 N 
ATOM     14  C   LIG d   1     -12.115  75.967 121.386  0.00  0.00     0.210 C 
ATOM     15  C   LIG d   1     -12.119  77.284 122.169  0.00  0.00     0.109 C 
ATOM     16  O   LIG d   1     -11.041  75.441 121.055  0.00  0.00    -0.276 OA
ATOM     17  H   LIG d   1     -14.137  75.997 121.361  0.00  0.00     0.149 HD
ENDBRANCH   6  13
BRANCH   5  18
ATOM     18  N   LIG d   1     -14.254  75.292 118.179  0.00  0.00     0.381 N 
ATOM     19  H   LIG d   1     -14.532  76.218 118.435  0.00  0.00    -0.090 HD
ATOM     20  H   LIG d   1     -14.742  75.037 117.339  0.00  0.00    -0.090 HD
ATOM     21  H   LIG d   1     -13.270  75.265 118.021  0.00  0.00    -0.090 HD
ENDBRANCH   5  18
BRANCH   3  22
ATOM     22  C   LIG d   1     -15.864  70.888 119.152  0.00  0.00     0.382 C 
ATOM     23  O   LIG d   1     -15.860  70.498 117.959  0.00  0.00    -0.241 OA
ATOM     24  O   LIG d   1     -16.620  70.337 119.974  0.00  0.00    -0.241 OA
ENDBRANCH   3  22
TORSDOF 7
ENDMDL
MODEL 3
REMARK VINA RESULT:      -4.6      2.989      4.669
REMARK  7 active torsions:
REMARK  status: ('A' for Active; 'I' for Inactive)
REMARK    1  A    between atoms: C_2  and  C_3 
REMARK    2  A    between atoms: C_3  and  O_6 
REMARK    3  A    between atoms: C_3  and  C_4 
REMARK    4  A    between atoms: C_7  and  O_6 
REMARK    5  A    between atoms: C_9  and  C_10 
REMARK    6  A    between atoms: N_15  and  C_14 
REMARK    7  A    between atoms: N_20  and  C_19 
REMARK       I    between atoms: C_22  and  N_20 
ROOT
ATOM      1  C   LIG d   1      -8.827  80.875 119.568  0.00  0.00     0.161 C 
ATOM      2  C   LIG d   1      -9.142  79.620 119.022  0.00  0.00     0.016 C 
ATOM      3  C   LIG d   1     -10.259  78.853 119.427  0.00  0.00     0.038 C 
ATOM      4  C   LIG d   1     -11.229  79.362 120.304  0.00  0.00     0.028 C 
ATOM      5  C   LIG d   1     -10.686  80.418 121.261  0.00  0.00    -0.047 C 
ATOM      6  C   LIG d   1      -9.935  81.495 120.445  0.00  0.00     0.091 C 
ENDROOT
BRANCH   1   7
ATOM      7  O   LIG d   1      -8.454  81.786 118.515  0.00  0.00    -0.368 OA
BRANCH   7   8
ATOM      8  C   LIG d   1      -7.127  82.360 118.610  0.00  0.00     0.119 C 
BRANCH   8   9
ATOM      9  C   LIG d   1      -6.402  82.071 117.281  0.00  0.00     0.028 C 
ATOM     10  C   LIG d   1      -5.515  80.816 117.358  0.00  0.00     0.006 C 
ENDBRANCH   8   9
BRANCH   8  11
ATOM     11  C   LIG d   1      -6.293  81.661 119.688  0.00  0.00     0.028 C 
ATOM     12  C   LIG d   1      -5.718  82.640 120.724  0.00  0.00     0.006 C 
ENDBRANCH   8  11
ENDBRANCH   7   8
ENDBRANCH   1   7
BRANCH   6  13
ATOM     13  N   LIG d   1      -9.300  82.522 121.312  0.00  0.00    -0.311 N 
ATOM     14  C   LIG d   1      -9.467  83.832 121.140  0.00  0.00     0.210 C 
ATOM     15  C   LIG d   1      -8.707  84.717 122.132  0.00  0.00     0.109 C 
ATOM     16  O   LIG d   1     -10.198  84.345 120.279  0.00  0.00    -0.276 OA
ATOM     17  H   LIG d   1      -8.716  82.193 122.056  0.00  0.00     0.149 HD
ENDBRANCH   6  13
BRANCH   5  18
ATOM     18  N   LIG d   1     -11.828  80.960 122.021  0.00  0.00     0.381 N 
ATOM     19  H   LIG d   1     -12.459  81.425 121.399  0.00  0.00    -0.090 HD
ATOM     20  H   LIG d   1     -11.487  81.632 122.685  0.00  0.00    -0.090 HD
ATOM     21  H   LIG d   1     -12.302  80.223 122.496  0.00  0.00    -0.090 HD
ENDBRANCH   5  18
BRANCH   3  22
ATOM     22  C   LIG d   1     -10.393  77.547 118.983  0.00  0.00     0.382 C 
ATOM     23  O   LIG d   1     -11.529  77.015 118.931  0.00  0.00    -0.241 OA
ATOM     24  O   LIG d   1      -9.388  76.878 118.675  0.00  0.00    -0.241 OA
ENDBRANCH   3  22
TORSDOF 7
ENDMDL
MODEL 4
REMARK VINA RESULT:      -4.5      3.727      6.742
REMARK  7 active torsions:
REMARK  status: ('A' for Active; 'I' for Inactive)
REMARK    1  A    between atoms: C_2  and  C_3 
REMARK    2  A    between atoms: C_3  and  O_6 
REMARK    3  A    between atoms: C_3  and  C_4 
REMARK    4  A    between atoms: C_7  and  O_6 
REMARK    5  A    between atoms: C_9  and  C_10 
REMARK    6  A    between atoms: N_15  and  C_14 
REMARK    7  A    between atoms: N_20  and  C_19 
REMARK       I    between atoms: C_22  and  N_20 
ROOT
ATOM      1  C   LIG d   1      -7.223  82.167 117.917  0.00  0.00     0.161 C 
ATOM      2  C   LIG d   1      -5.931  81.762 117.544  0.00  0.00     0.016 C 
ATOM      3  C   LIG d   1      -4.807  81.867 118.396  0.00  0.00     0.038 C 
ATOM      4  C   LIG d   1      -4.928  82.246 119.741  0.00  0.00     0.028 C 
ATOM      5  C   LIG d   1      -6.132  83.143 120.011  0.00  0.00    -0.047 C 
ATOM      6  C   LIG d   1      -7.396  82.479 119.418  0.00  0.00     0.091 C 
ENDROOT
BRANCH   1   7
ATOM      7  O   LIG d   1      -8.185  81.178 117.497  0.00  0.00    -0.368 OA
BRANCH   7   8
ATOM      8  C   LIG d   1      -8.649  80.265 118.522  0.00  0.00     0.119 C 
BRANCH   8   9
ATOM      9  C   LIG d   1      -8.116  78.863 118.168  0.00  0.00     0.028 C 
ATOM     10  C   LIG d   1      -9.120  77.750 118.514  0.00  0.00     0.006 C 
ENDBRANCH   8   9
BRANCH   8  11
ATOM     11  C   LIG d   1     -10.175  80.136 118.504  0.00  0.00     0.028 C 
ATOM     12  C   LIG d   1     -10.852  81.201 117.627  0.00  0.00     0.006 C 
ENDBRANCH   8  11
ENDBRANCH   7   8
ENDBRANCH   1   7
BRANCH   6  13
ATOM     13  N   LIG d   1      -8.605  83.330 119.565  0.00  0.00    -0.311 N 
ATOM     14  C   LIG d   1      -9.453  83.230 120.587  0.00  0.00     0.210 C 
ATOM     15  C   LIG d   1     -10.646  84.189 120.534  0.00  0.00     0.109 C 
ATOM     16  O   LIG d   1      -9.313  82.459 121.549  0.00  0.00    -0.276 OA
ATOM     17  H   LIG d   1      -8.778  84.004 118.845  0.00  0.00     0.149 HD
ENDBRANCH   6  13
BRANCH   5  18
ATOM     18  N   LIG d   1      -6.216  83.348 121.469  0.00  0.00     0.381 N 
ATOM     19  H   LIG d   1      -6.118  84.321 121.681  0.00  0.00    -0.090 HD
ATOM     20  H   LIG d   1      -5.463  82.852 121.912  0.00  0.00    -0.090 HD
ATOM     21  H   LIG d   1      -7.090  83.013 121.811  0.00  0.00    -0.090 HD
ENDBRANCH   5  18
BRANCH   3  22
ATOM     22  C   LIG d   1      -3.538  81.629 117.891  0.00  0.00     0.382 C 
ATOM     23  O   LIG d   1      -2.669  82.533 117.927  0.00  0.00    -0.241 OA
ATOM     24  O   LIG d   1      -3.264  80.536 117.360  0.00  0.00    -0.241 OA
ENDBRANCH   3  22
TORSDOF 7
ENDMDL
MODEL 5
REMARK VINA RESULT:      -4.5      6.903      9.147
REMARK  7 active torsions:
REMARK  status: ('A' for Active; 'I' for Inactive)
REMARK    1  A    between atoms: C_2  and  C_3 
REMARK    2  A    between atoms: C_3  and  O_6 
REMARK    3  A    between atoms: C_3  and  C_4 
REMARK    4  A    between atoms: C_7  and  O_6 
REMARK    5  A    between atoms: C_9  and  C_10 
REMARK    6  A    between atoms: N_15  and  C_14 
REMARK    7  A    between atoms: N_20  and  C_19 
REMARK       I    between atoms: C_22  and  N_20 
ROOT
ATOM      1  C   LIG d   1     -15.227  74.529 119.473  0.00  0.00     0.161 C 
ATOM      2  C   LIG d   1     -15.593  73.342 118.817  0.00  0.00     0.016 C 
ATOM      3  C   LIG d   1     -15.370  72.054 119.355  0.00  0.00     0.038 C 
ATOM      4  C   LIG d   1     -14.900  71.869 120.664  0.00  0.00     0.028 C 
ATOM      5  C   LIG d   1     -14.047  73.027 121.171  0.00  0.00    -0.047 C 
ATOM      6  C   LIG d   1     -14.814  74.350 120.949  0.00  0.00     0.091 C 
ENDROOT
BRANCH   1   7
ATOM      7  O   LIG d   1     -16.290  75.496 119.364  0.00  0.00    -0.368 OA
BRANCH   7   8
ATOM      8  C   LIG d   1     -17.360  75.380 120.334  0.00  0.00     0.119 C 
BRANCH   8   9
ATOM      9  C   LIG d   1     -18.645  75.014 119.566  0.00  0.00     0.028 C 
ATOM     10  C   LIG d   1     -19.123  73.585 119.869  0.00  0.00     0.006 C 
ENDBRANCH   8   9
BRANCH   8  11
ATOM     11  C   LIG d   1     -17.655  76.726 121.001  0.00  0.00     0.028 C 
ATOM     12  C   LIG d   1     -18.646  77.584 120.199  0.00  0.00     0.006 C 
ENDBRANCH   8  11
ENDBRANCH   7   8
ENDBRANCH   1   7
BRANCH   6  13
ATOM     13  N   LIG d   1     -14.016  75.541 121.340  0.00  0.00    -0.311 N 
ATOM     14  C   LIG d   1     -14.107  76.126 122.534  0.00  0.00     0.210 C 
ATOM     15  C   LIG d   1     -13.210  77.352 122.723  0.00  0.00     0.109 C 
ATOM     16  O   LIG d   1     -14.822  75.725 123.465  0.00  0.00    -0.276 OA
ATOM     17  H   LIG d   1     -13.387  75.913 120.656  0.00  0.00     0.149 HD
ENDBRANCH   6  13
BRANCH   5  18
ATOM     18  N   LIG d   1     -13.739  72.767 122.590  0.00  0.00     0.381 N 
ATOM     19  H   LIG d   1     -13.462  73.617 123.038  0.00  0.00    -0.090 HD
ATOM     20  H   LIG d   1     -12.974  72.118 122.643  0.00  0.00    -0.090 HD
ATOM     21  H   LIG d   1     -14.539  72.387 123.047  0.00  0.00    -0.090 HD
ENDBRANCH   5  18
BRANCH   3  22
ATOM     22  C   LIG d   1     -15.581  70.933 118.567  0.00  0.00     0.382 C 
ATOM     23  O   LIG d   1     -15.881  71.066 117.356  0.00  0.00    -0.241 OA
ATOM     24  O   LIG d   1     -15.520  69.792 119.062  0.00  0.00    -0.241 OA
ENDBRANCH   3  22
TORSDOF 7
ENDMDL
MODEL 6
REMARK VINA RESULT:      -4.5      9.988     12.611
REMARK  7 active torsions:
REMARK  status: ('A' for Active; 'I' for Inactive)
REMARK    1  A    between atoms: C_2  and  C_3 
REMARK    2  A    between atoms: C_3  and  O_6 
REMARK    3  A    between atoms: C_3  and  C_4 
REMARK    4  A    between atoms: C_7  and  O_6 
REMARK    5  A    between atoms: C_9  and  C_10 
REMARK    6  A    between atoms: N_15  and  C_14 
REMARK    7  A    between atoms: N_20  and  C_19 
REMARK       I    between atoms: C_22  and  N_20 
ROOT
ATOM      1  C   LIG d   1     -12.545  66.964 122.097  0.00  0.00     0.161 C 
ATOM      2  C   LIG d   1     -11.541  66.763 123.059  0.00  0.00     0.016 C 
ATOM      3  C   LIG d   1     -10.746  65.596 123.122  0.00  0.00     0.038 C 
ATOM      4  C   LIG d   1     -10.800  64.608 122.127  0.00  0.00     0.028 C 
ATOM      5  C   LIG d   1     -12.149  64.532 121.421  0.00  0.00    -0.047 C 
ATOM      6  C   LIG d   1     -12.543  65.946 120.937  0.00  0.00     0.091 C 
ENDROOT
BRANCH   1   7
ATOM      7  O   LIG d   1     -12.469  68.309 121.584  0.00  0.00    -0.368 OA
BRANCH   7   8
ATOM      8  C   LIG d   1     -13.420  69.255 122.131  0.00  0.00     0.119 C 
BRANCH   8   9
ATOM      9  C   LIG d   1     -14.423  69.602 121.014  0.00  0.00     0.028 C 
ATOM     10  C   LIG d   1     -14.598  71.119 120.833  0.00  0.00     0.006 C 
ENDBRANCH   8   9
BRANCH   8  11
ATOM     11  C   LIG d   1     -12.742  70.580 122.494  0.00  0.00     0.028 C 
ATOM     12  C   LIG d   1     -11.223  70.441 122.678  0.00  0.00     0.006 C 
ENDBRANCH   8  11
ENDBRANCH   7   8
ENDBRANCH   1   7
BRANCH   6  13
ATOM     13  N   LIG d   1     -13.890  65.976 120.310  0.00  0.00    -0.311 N 
ATOM     14  C   LIG d   1     -14.126  66.493 119.106  0.00  0.00     0.210 C 
ATOM     15  C   LIG d   1     -15.589  66.441 118.655  0.00  0.00     0.109 C 
ATOM     16  O   LIG d   1     -13.258  66.962 118.354  0.00  0.00    -0.276 OA
ATOM     17  H   LIG d   1     -14.647  65.588 120.837  0.00  0.00     0.149 HD
ENDBRANCH   6  13
BRANCH   5  18
ATOM     18  N   LIG d   1     -12.022  63.559 120.320  0.00  0.00     0.381 N 
ATOM     19  H   LIG d   1     -12.930  63.275 120.012  0.00  0.00    -0.090 HD
ATOM     20  H   LIG d   1     -11.536  62.747 120.658  0.00  0.00    -0.090 HD
ATOM     21  H   LIG d   1     -11.518  63.965 119.562  0.00  0.00    -0.090 HD
ENDBRANCH   5  18
BRANCH   3  22
ATOM     22  C   LIG d   1      -9.913  65.390 124.211  0.00  0.00     0.382 C 
ATOM     23  O   LIG d   1      -8.779  64.880 124.044  0.00  0.00    -0.241 OA
ATOM     24  O   LIG d   1     -10.298  65.666 125.362  0.00  0.00    -0.241 OA
ENDBRANCH   3  22
TORSDOF 7
ENDMDL
MODEL 7
REMARK VINA RESULT:      -4.5      2.281      5.068
REMARK  7 active torsions:
REMARK  status: ('A' for Active; 'I' for Inactive)
REMARK    1  A    between atoms: C_2  and  C_3 
REMARK    2  A    between atoms: C_3  and  O_6 
REMARK    3  A    between atoms: C_3  and  C_4 
REMARK    4  A    between atoms: C_7  and  O_6 
REMARK    5  A    between atoms: C_9  and  C_10 
REMARK    6  A    between atoms: N_15  and  C_14 
REMARK    7  A    between atoms: N_20  and  C_19 
REMARK       I    between atoms: C_22  and  N_20 
ROOT
ATOM      1  C   LIG d   1      -8.878  79.338 118.709  0.00  0.00     0.161 C 
ATOM      2  C   LIG d   1      -8.128  78.259 118.213  0.00  0.00     0.016 C 
ATOM      3  C   LIG d   1      -8.557  76.913 118.287  0.00  0.00     0.038 C 
ATOM      4  C   LIG d   1      -9.843  76.568 118.730  0.00  0.00     0.028 C 
ATOM      5  C   LIG d   1     -10.437  77.577 119.708  0.00  0.00    -0.047 C 
ATOM      6  C   LIG d   1     -10.332  78.992 119.095  0.00  0.00     0.091 C 
ENDROOT
BRANCH   1   7
ATOM      7  O   LIG d   1      -8.856  80.424 117.762  0.00  0.00    -0.368 OA
BRANCH   7   8
ATOM      8  C   LIG d   1      -8.234  81.652 118.215  0.00  0.00     0.119 C 
BRANCH   8   9
ATOM      9  C   LIG d   1      -9.242  82.794 117.986  0.00  0.00     0.028 C 
ATOM     10  C   LIG d   1      -9.621  83.512 119.292  0.00  0.00     0.006 C 
ENDBRANCH   8   9
BRANCH   8  11
ATOM     11  C   LIG d   1      -7.016  82.008 117.357  0.00  0.00     0.028 C 
ATOM     12  C   LIG d   1      -5.694  81.931 118.137  0.00  0.00     0.006 C 
ENDBRANCH   8  11
ENDBRANCH   7   8
ENDBRANCH   1   7
BRANCH   6  13
ATOM     13  N   LIG d   1     -10.814  80.048 120.022  0.00  0.00    -0.311 N 
ATOM     14  C   LIG d   1     -10.298  80.252 121.233  0.00  0.00     0.210 C 
ATOM     15  C   LIG d   1     -10.956  81.380 122.035  0.00  0.00     0.109 C 
ATOM     16  O   LIG d   1      -9.337  79.628 121.707  0.00  0.00    -0.276 OA
ATOM     17  H   LIG d   1     -11.571  80.622 119.706  0.00  0.00     0.149 HD
ENDBRANCH   6  13
BRANCH   5  18
ATOM     18  N   LIG d   1     -11.828  77.167 119.980  0.00  0.00     0.381 N 
ATOM     19  H   LIG d   1     -12.290  77.872 120.519  0.00  0.00    -0.090 HD
ATOM     20  H   LIG d   1     -11.817  76.317 120.516  0.00  0.00    -0.090 HD
ATOM     21  H   LIG d   1     -12.314  77.021 119.123  0.00  0.00    -0.090 HD
ENDBRANCH   5  18
BRANCH   3  22
ATOM     22  C   LIG d   1      -7.680  75.893 117.952  0.00  0.00     0.382 C 
ATOM     23  O   LIG d   1      -6.477  75.960 118.303  0.00  0.00    -0.241 OA
ATOM     24  O   LIG d   1      -8.066  74.928 117.266  0.00  0.00    -0.241 OA
ENDBRANCH   3  22
TORSDOF 7
ENDMDL
MODEL 8
REMARK VINA RESULT:      -4.4     14.178     16.690
REMARK  7 active torsions:
REMARK  status: ('A' for Active; 'I' for Inactive)
REMARK    1  A    between atoms: C_2  and  C_3 
REMARK    2  A    between atoms: C_3  and  O_6 
REMARK    3  A    between atoms: C_3  and  C_4 
REMARK    4  A    between atoms: C_7  and  O_6 
REMARK    5  A    between atoms: C_9  and  C_10 
REMARK    6  A    between atoms: N_15  and  C_14 
REMARK    7  A    between atoms: N_20  and  C_19 
REMARK       I    between atoms: C_22  and  N_20 
ROOT
ATOM      1  C   LIG d   1      -5.276  92.459 120.411  0.00  0.00     0.161 C 
ATOM      2  C   LIG d   1      -4.219  91.663 119.936  0.00  0.00     0.016 C 
ATOM      3  C   LIG d   1      -4.202  91.079 118.649  0.00  0.00     0.038 C 
ATOM      4  C   LIG d   1      -5.178  91.378 117.686  0.00  0.00     0.028 C 
ATOM      5  C   LIG d   1      -6.523  91.772 118.289  0.00  0.00    -0.047 C 
ATOM      6  C   LIG d   1      -6.296  92.887 119.335  0.00  0.00     0.091 C 
ENDROOT
BRANCH   1   7
ATOM      7  O   LIG d   1      -4.749  93.616 121.090  0.00  0.00    -0.368 OA
BRANCH   7   8
ATOM      8  C   LIG d   1      -4.284  94.695 120.243  0.00  0.00     0.119 C 
BRANCH   8   9
ATOM      9  C   LIG d   1      -2.780  94.888 120.522  0.00  0.00     0.028 C 
ATOM     10  C   LIG d   1      -1.930  94.802 119.243  0.00  0.00     0.006 C 
ENDBRANCH   8   9
BRANCH   8  11
ATOM     11  C   LIG d   1      -4.940  96.025 120.624  0.00  0.00     0.028 C 
ATOM     12  C   LIG d   1      -5.086  96.982 119.430  0.00  0.00     0.006 C 
ENDBRANCH   8  11
ENDBRANCH   7   8
ENDBRANCH   1   7
BRANCH   6  13
ATOM     13  N   LIG d   1      -7.550  93.272 120.034  0.00  0.00    -0.311 N 
ATOM     14  C   LIG d   1      -8.309  94.302 119.664  0.00  0.00     0.210 C 
ATOM     15  C   LIG d   1      -9.548  94.538 120.532  0.00  0.00     0.109 C 
ATOM     16  O   LIG d   1      -8.089  95.024 118.679  0.00  0.00    -0.276 OA
ATOM     17  H   LIG d   1      -7.820  92.720 120.825  0.00  0.00     0.149 HD
ENDBRANCH   6  13
BRANCH   5  18
ATOM     18  N   LIG d   1      -7.403  92.189 117.181  0.00  0.00     0.381 N 
ATOM     19  H   LIG d   1      -6.849  92.456 116.391  0.00  0.00    -0.090 HD
ATOM     20  H   LIG d   1      -7.939  92.986 117.474  0.00  0.00    -0.090 HD
ATOM     21  H   LIG d   1      -8.013  91.442 116.931  0.00  0.00    -0.090 HD
ENDBRANCH   5  18
BRANCH   3  22
ATOM     22  C   LIG d   1      -3.221  90.154 118.327  0.00  0.00     0.382 C 
ATOM     23  O   LIG d   1      -2.158  90.111 118.991  0.00  0.00    -0.241 OA
ATOM     24  O   LIG d   1      -3.368  89.391 117.353  0.00  0.00    -0.241 OA
ENDBRANCH   3  22
TORSDOF 7
ENDMDL
MODEL 9
REMARK VINA RESULT:      -4.4      9.356     11.596
REMARK  7 active torsions:
REMARK  status: ('A' for Active; 'I' for Inactive)
REMARK    1  A    between atoms: C_2  and  C_3 
REMARK    2  A    between atoms: C_3  and  O_6 
REMARK    3  A    between atoms: C_3  and  C_4 
REMARK    4  A    between atoms: C_7  and  O_6 
REMARK    5  A    between atoms: C_9  and  C_10 
REMARK    6  A    between atoms: N_15  and  C_14 
REMARK    7  A    between atoms: N_20  and  C_19 
REMARK       I    between atoms: C_22  and  N_20 
ROOT
ATOM      1  C   LIG d   1     -14.526  69.071 120.712  0.00  0.00     0.161 C 
ATOM      2  C   LIG d   1     -13.609  69.653 121.603  0.00  0.00     0.016 C 
ATOM      3  C   LIG d   1     -12.441  68.997 122.056  0.00  0.00     0.038 C 
ATOM      4  C   LIG d   1     -12.031  67.764 121.526  0.00  0.00     0.028 C 
ATOM      5  C   LIG d   1     -13.184  66.916 121.001  0.00  0.00    -0.047 C 
ATOM      6  C   LIG d   1     -14.038  67.772 120.038  0.00  0.00     0.091 C 
ENDROOT
BRANCH   1   7
ATOM      7  O   LIG d   1     -14.917  70.036 119.715  0.00  0.00    -0.368 OA
BRANCH   7   8
ATOM      8  C   LIG d   1     -15.087  71.399 120.178  0.00  0.00     0.119 C 
BRANCH   8   9
ATOM      9  C   LIG d   1     -16.544  71.546 120.658  0.00  0.00     0.028 C 
ATOM     10  C   LIG d   1     -16.849  72.960 121.181  0.00  0.00     0.006 C 
ENDBRANCH   8   9
BRANCH   8  11
ATOM     11  C   LIG d   1     -14.935  72.401 119.030  0.00  0.00     0.028 C 
ATOM     12  C   LIG d   1     -15.679  71.967 117.758  0.00  0.00     0.006 C 
ENDBRANCH   8  11
ENDBRANCH   7   8
ENDBRANCH   1   7
BRANCH   6  13
ATOM     13  N   LIG d   1     -15.236  67.044 119.543  0.00  0.00    -0.311 N 
ATOM     14  C   LIG d   1     -15.379  66.637 118.283  0.00  0.00     0.210 C 
ATOM     15  C   LIG d   1     -16.699  65.923 117.980  0.00  0.00     0.109 C 
ATOM     16  O   LIG d   1     -14.523  66.772 117.396  0.00  0.00    -0.276 OA
ATOM     17  H   LIG d   1     -15.966  66.866 120.205  0.00  0.00     0.149 HD
ENDBRANCH   6  13
BRANCH   5  18
ATOM     18  N   LIG d   1     -12.603  65.724 120.355  0.00  0.00     0.381 N 
ATOM     19  H   LIG d   1     -11.632  65.878 120.171  0.00  0.00    -0.090 HD
ATOM     20  H   LIG d   1     -13.070  65.569 119.479  0.00  0.00    -0.090 HD
ATOM     21  H   LIG d   1     -12.715  64.928 120.944  0.00  0.00    -0.090 HD
ENDBRANCH   5  18
BRANCH   3  22
ATOM     22  C   LIG d   1     -11.691  69.557 123.078  0.00  0.00     0.382 C 
ATOM     23  O   LIG d   1     -10.974  70.561 122.852  0.00  0.00    -0.241 OA
ATOM     24  O   LIG d   1     -11.688  69.044 124.213  0.00  0.00    -0.241 OA
ENDBRANCH   3  22
TORSDOF 7
ENDMDL
