MODEL 1
REMARK VINA RESULT:      -6.0      0.000      0.000
REMARK  7 active torsions:
REMARK  status: ('A' for Active; 'I' for Inactive)
REMARK    1  A    between atoms: C_2  and  C_3 
REMARK    2  A    between atoms: C_3  and  O_6 
REMARK    3  A    between atoms: C_3  and  C_4 
REMARK    4  A    between atoms: C_7  and  O_6 
REMARK    5  A    between atoms: C_9  and  C_10 
REMARK    6  A    between atoms: N_15  and  C_14 
REMARK    7  A    between atoms: N_20  and  C_19 
REMARK       I    between atoms: C_22  and  N_20 
ROOT
ATOM      1  C   LIG d   1      -7.220  75.985 116.275  0.00  0.00     0.161 C 
ATOM      2  C   LIG d   1      -6.018  75.483 115.748  0.00  0.00     0.016 C 
ATOM      3  C   LIG d   1      -4.762  75.654 116.376  0.00  0.00     0.038 C 
ATOM      4  C   LIG d   1      -4.643  76.211 117.657  0.00  0.00     0.028 C 
ATOM      5  C   LIG d   1      -5.766  77.184 118.001  0.00  0.00    -0.047 C 
ATOM      6  C   LIG d   1      -7.125  76.499 117.727  0.00  0.00     0.091 C 
ENDROOT
BRANCH   1   7
ATOM      7  O   LIG d   1      -8.256  74.989 116.163  0.00  0.00    -0.368 OA
BRANCH   7   8
ATOM      8  C   LIG d   1      -8.312  74.005 117.224  0.00  0.00     0.119 C 
BRANCH   8   9
ATOM      9  C   LIG d   1      -7.610  72.732 116.713  0.00  0.00     0.028 C 
ATOM     10  C   LIG d   1      -8.490  71.479 116.857  0.00  0.00     0.006 C 
ENDBRANCH   8   9
BRANCH   8  11
ATOM     11  C   LIG d   1      -9.755  73.583 117.517  0.00  0.00     0.028 C 
ATOM     12  C   LIG d   1     -10.741  74.761 117.471  0.00  0.00     0.006 C 
ENDBRANCH   8  11
ENDBRANCH   7   8
ENDBRANCH   1   7
BRANCH   6  13
ATOM     13  N   LIG d   1      -8.276  77.411 117.957  0.00  0.00    -0.311 N 
ATOM     14  C   LIG d   1      -8.935  77.482 119.112  0.00  0.00     0.210 C 
ATOM     15  C   LIG d   1     -10.103  78.473 119.130  0.00  0.00     0.109 C 
ATOM     16  O   LIG d   1      -8.643  76.842 120.133  0.00  0.00    -0.276 OA
ATOM     17  H   LIG d   1      -8.560  77.989 117.190  0.00  0.00     0.149 HD
ENDBRANCH   6  13
BRANCH   5  18
ATOM     18  N   LIG d   1      -5.595  77.583 119.411  0.00  0.00     0.381 N 
ATOM     19  H   LIG d   1      -4.940  76.973 119.858  0.00  0.00    -0.090 HD
ATOM     20  H   LIG d   1      -6.478  77.498 119.883  0.00  0.00    -0.090 HD
ATOM     21  H   LIG d   1      -5.271  78.524 119.462  0.00  0.00    -0.090 HD
ENDBRANCH   5  18
BRANCH   3  22
ATOM     22  C   LIG d   1      -3.603  75.300 115.702  0.00  0.00     0.382 C 
ATOM     23  O   LIG d   1      -3.472  75.587 114.487  0.00  0.00    -0.241 OA
ATOM     24  O   LIG d   1      -2.707  74.657 116.280  0.00  0.00    -0.241 OA
ENDBRANCH   3  22
TORSDOF 7
ENDMDL
MODEL 2
REMARK VINA RESULT:      -5.8     15.132     17.418
REMARK  7 active torsions:
REMARK  status: ('A' for Active; 'I' for Inactive)
REMARK    1  A    between atoms: C_2  and  C_3 
REMARK    2  A    between atoms: C_3  and  O_6 
REMARK    3  A    between atoms: C_3  and  C_4 
REMARK    4  A    between atoms: C_7  and  O_6 
REMARK    5  A    between atoms: C_9  and  C_10 
REMARK    6  A    between atoms: N_15  and  C_14 
REMARK    7  A    between atoms: N_20  and  C_19 
REMARK       I    between atoms: C_22  and  N_20 
ROOT
ATOM      1  C   LIG d   1      -5.477  92.801 117.130  0.00  0.00     0.161 C 
ATOM      2  C   LIG d   1      -6.442  91.861 116.733  0.00  0.00     0.016 C 
ATOM      3  C   LIG d   1      -6.157  90.491 116.533  0.00  0.00     0.038 C 
ATOM      4  C   LIG d   1      -4.912  89.936 116.864  0.00  0.00     0.028 C 
ATOM      5  C   LIG d   1      -3.763  90.937 116.787  0.00  0.00    -0.047 C 
ATOM      6  C   LIG d   1      -4.139  92.195 117.603  0.00  0.00     0.091 C 
ENDROOT
BRANCH   1   7
ATOM      7  O   LIG d   1      -6.024  93.664 118.147  0.00  0.00    -0.368 OA
BRANCH   7   8
ATOM      8  C   LIG d   1      -7.467  93.674 118.265  0.00  0.00     0.119 C 
BRANCH   8   9
ATOM      9  C   LIG d   1      -7.943  95.117 118.012  0.00  0.00     0.028 C 
ATOM     10  C   LIG d   1      -6.855  96.157 118.327  0.00  0.00     0.006 C 
ENDBRANCH   8   9
BRANCH   8  11
ATOM     11  C   LIG d   1      -7.912  93.345 119.694  0.00  0.00     0.028 C 
ATOM     12  C   LIG d   1      -6.890  92.482 120.452  0.00  0.00     0.006 C 
ENDBRANCH   8  11
ENDBRANCH   7   8
ENDBRANCH   1   7
BRANCH   6  13
ATOM     13  N   LIG d   1      -3.105  93.259 117.512  0.00  0.00    -0.311 N 
ATOM     14  C   LIG d   1      -2.128  93.410 118.404  0.00  0.00     0.210 C 
ATOM     15  C   LIG d   1      -1.180  94.583 118.132  0.00  0.00     0.109 C 
ATOM     16  O   LIG d   1      -1.936  92.664 119.376  0.00  0.00    -0.276 OA
ATOM     17  H   LIG d   1      -3.167  93.890 116.736  0.00  0.00     0.149 HD
ENDBRANCH   6  13
BRANCH   5  18
ATOM     18  N   LIG d   1      -2.551  90.263 117.289  0.00  0.00     0.381 N 
ATOM     19  H   LIG d   1      -1.737  90.744 116.964  0.00  0.00    -0.090 HD
ATOM     20  H   LIG d   1      -2.528  89.325 116.930  0.00  0.00    -0.090 HD
ATOM     21  H   LIG d   1      -2.559  90.245 118.286  0.00  0.00    -0.090 HD
ENDBRANCH   5  18
BRANCH   3  22
ATOM     22  C   LIG d   1      -7.113  89.667 115.958  0.00  0.00     0.382 C 
ATOM     23  O   LIG d   1      -7.718  90.036 114.922  0.00  0.00    -0.241 OA
ATOM     24  O   LIG d   1      -7.409  88.579 116.486  0.00  0.00    -0.241 OA
ENDBRANCH   3  22
TORSDOF 7
ENDMDL
MODEL 3
REMARK VINA RESULT:      -5.6      2.957      5.149
REMARK  7 active torsions:
REMARK  status: ('A' for Active; 'I' for Inactive)
REMARK    1  A    between atoms: C_2  and  C_3 
REMARK    2  A    between atoms: C_3  and  O_6 
REMARK    3  A    between atoms: C_3  and  C_4 
REMARK    4  A    between atoms: C_7  and  O_6 
REMARK    5  A    between atoms: C_9  and  C_10 
REMARK    6  A    between atoms: N_15  and  C_14 
REMARK    7  A    between atoms: N_20  and  C_19 
REMARK       I    between atoms: C_22  and  N_20 
ROOT
ATOM      1  C   LIG d   1      -3.873  76.576 116.998  0.00  0.00     0.161 C 
ATOM      2  C   LIG d   1      -3.836  77.128 115.706  0.00  0.00     0.016 C 
ATOM      3  C   LIG d   1      -2.738  76.980 114.828  0.00  0.00     0.038 C 
ATOM      4  C   LIG d   1      -1.657  76.137 115.127  0.00  0.00     0.028 C 
ATOM      5  C   LIG d   1      -1.420  75.965 116.624  0.00  0.00    -0.047 C 
ATOM      6  C   LIG d   1      -2.751  75.561 117.300  0.00  0.00     0.091 C 
ENDROOT
BRANCH   1   7
ATOM      7  O   LIG d   1      -5.164  75.982 117.238  0.00  0.00    -0.368 OA
BRANCH   7   8
ATOM      8  C   LIG d   1      -6.269  76.528 116.477  0.00  0.00     0.119 C 
BRANCH   8   9
ATOM      9  C   LIG d   1      -7.158  77.320 117.455  0.00  0.00     0.028 C 
ATOM     10  C   LIG d   1      -6.830  78.823 117.461  0.00  0.00     0.006 C 
ENDBRANCH   8   9
BRANCH   8  11
ATOM     11  C   LIG d   1      -7.166  75.418 115.922  0.00  0.00     0.028 C 
ATOM     12  C   LIG d   1      -6.577  74.014 116.135  0.00  0.00     0.006 C 
ENDBRANCH   8  11
ENDBRANCH   7   8
ENDBRANCH   1   7
BRANCH   6  13
ATOM     13  N   LIG d   1      -2.627  75.454 118.777  0.00  0.00    -0.311 N 
ATOM     14  C   LIG d   1      -2.377  74.309 119.410  0.00  0.00     0.210 C 
ATOM     15  C   LIG d   1      -2.309  74.417 120.937  0.00  0.00     0.109 C 
ATOM     16  O   LIG d   1      -2.173  73.221 118.851  0.00  0.00    -0.276 OA
ATOM     17  H   LIG d   1      -2.746  76.295 119.307  0.00  0.00     0.149 HD
ENDBRANCH   6  13
BRANCH   5  18
ATOM     18  N   LIG d   1      -0.356  74.957 116.794  0.00  0.00     0.381 N 
ATOM     19  H   LIG d   1      -0.706  74.052 116.550  0.00  0.00    -0.090 HD
ATOM     20  H   LIG d   1      -0.078  74.938 117.759  0.00  0.00    -0.090 HD
ATOM     21  H   LIG d   1       0.425  75.185 116.219  0.00  0.00    -0.090 HD
ENDBRANCH   5  18
BRANCH   3  22
ATOM     22  C   LIG d   1      -2.696  77.712 113.651  0.00  0.00     0.382 C 
ATOM     23  O   LIG d   1      -3.057  78.913 113.646  0.00  0.00    -0.241 OA
ATOM     24  O   LIG d   1      -2.344  77.173 112.584  0.00  0.00    -0.241 OA
ENDBRANCH   3  22
TORSDOF 7
ENDMDL
MODEL 4
REMARK VINA RESULT:      -5.5      2.458      6.127
REMARK  7 active torsions:
REMARK  status: ('A' for Active; 'I' for Inactive)
REMARK    1  A    between atoms: C_2  and  C_3 
REMARK    2  A    between atoms: C_3  and  O_6 
REMARK    3  A    between atoms: C_3  and  C_4 
REMARK    4  A    between atoms: C_7  and  O_6 
REMARK    5  A    between atoms: C_9  and  C_10 
REMARK    6  A    between atoms: N_15  and  C_14 
REMARK    7  A    between atoms: N_20  and  C_19 
REMARK       I    between atoms: C_22  and  N_20 
ROOT
ATOM      1  C   LIG d   1      -6.938  76.715 117.425  0.00  0.00     0.161 C 
ATOM      2  C   LIG d   1      -8.303  76.638 117.747  0.00  0.00     0.016 C 
ATOM      3  C   LIG d   1      -9.066  75.454 117.623  0.00  0.00     0.038 C 
ATOM      4  C   LIG d   1      -8.475  74.221 117.310  0.00  0.00     0.028 C 
ATOM      5  C   LIG d   1      -7.198  74.353 116.488  0.00  0.00    -0.047 C 
ATOM      6  C   LIG d   1      -6.251  75.354 117.188  0.00  0.00     0.091 C 
ENDROOT
BRANCH   1   7
ATOM      7  O   LIG d   1      -6.238  77.459 118.442  0.00  0.00    -0.368 OA
BRANCH   7   8
ATOM      8  C   LIG d   1      -5.720  78.752 118.043  0.00  0.00     0.119 C 
BRANCH   8   9
ATOM      9  C   LIG d   1      -4.323  78.907 118.676  0.00  0.00     0.028 C 
ATOM     10  C   LIG d   1      -4.274  80.035 119.720  0.00  0.00     0.006 C 
ENDBRANCH   8   9
BRANCH   8  11
ATOM     11  C   LIG d   1      -6.559  79.893 118.626  0.00  0.00     0.028 C 
ATOM     12  C   LIG d   1      -7.706  80.323 117.699  0.00  0.00     0.006 C 
ENDBRANCH   8  11
ENDBRANCH   7   8
ENDBRANCH   1   7
BRANCH   6  13
ATOM     13  N   LIG d   1      -5.013  75.605 116.406  0.00  0.00    -0.311 N 
ATOM     14  C   LIG d   1      -3.857  74.989 116.645  0.00  0.00     0.210 C 
ATOM     15  C   LIG d   1      -2.699  75.410 115.735  0.00  0.00     0.109 C 
ATOM     16  O   LIG d   1      -3.688  74.110 117.504  0.00  0.00    -0.276 OA
ATOM     17  H   LIG d   1      -5.068  76.281 115.669  0.00  0.00     0.149 HD
ENDBRANCH   6  13
BRANCH   5  18
ATOM     18  N   LIG d   1      -6.614  73.005 116.351  0.00  0.00     0.381 N 
ATOM     19  H   LIG d   1      -6.858  72.448 117.145  0.00  0.00    -0.090 HD
ATOM     20  H   LIG d   1      -5.613  73.085 116.317  0.00  0.00    -0.090 HD
ATOM     21  H   LIG d   1      -6.948  72.572 115.518  0.00  0.00    -0.090 HD
ENDBRANCH   5  18
BRANCH   3  22
ATOM     22  C   LIG d   1     -10.443  75.504 117.775  0.00  0.00     0.382 C 
ATOM     23  O   LIG d   1     -10.978  76.502 118.316  0.00  0.00    -0.241 OA
ATOM     24  O   LIG d   1     -11.154  74.546 117.417  0.00  0.00    -0.241 OA
ENDBRANCH   3  22
TORSDOF 7
ENDMDL
MODEL 5
REMARK VINA RESULT:      -5.2     15.978     18.207
REMARK  7 active torsions:
REMARK  status: ('A' for Active; 'I' for Inactive)
REMARK    1  A    between atoms: C_2  and  C_3 
REMARK    2  A    between atoms: C_3  and  O_6 
REMARK    3  A    between atoms: C_3  and  C_4 
REMARK    4  A    between atoms: C_7  and  O_6 
REMARK    5  A    between atoms: C_9  and  C_10 
REMARK    6  A    between atoms: N_15  and  C_14 
REMARK    7  A    between atoms: N_20  and  C_19 
REMARK       I    between atoms: C_22  and  N_20 
ROOT
ATOM      1  C   LIG d   1      -5.108  92.761 117.782  0.00  0.00     0.161 C 
ATOM      2  C   LIG d   1      -6.345  93.421 117.689  0.00  0.00     0.016 C 
ATOM      3  C   LIG d   1      -6.605  94.675 118.288  0.00  0.00     0.038 C 
ATOM      4  C   LIG d   1      -5.592  95.429 118.898  0.00  0.00     0.028 C 
ATOM      5  C   LIG d   1      -4.455  94.579 119.454  0.00  0.00    -0.047 C 
ATOM      6  C   LIG d   1      -3.958  93.619 118.349  0.00  0.00     0.091 C 
ENDROOT
BRANCH   1   7
ATOM      7  O   LIG d   1      -4.744  92.222 116.496  0.00  0.00    -0.368 OA
BRANCH   7   8
ATOM      8  C   LIG d   1      -4.724  90.777 116.393  0.00  0.00     0.119 C 
BRANCH   8   9
ATOM      9  C   LIG d   1      -5.985  90.350 115.617  0.00  0.00     0.028 C 
ATOM     10  C   LIG d   1      -6.416  91.397 114.576  0.00  0.00     0.006 C 
ENDBRANCH   8   9
BRANCH   8  11
ATOM     11  C   LIG d   1      -4.853  90.118 117.770  0.00  0.00     0.028 C 
ATOM     12  C   LIG d   1      -3.643  89.241 118.126  0.00  0.00     0.006 C 
ENDBRANCH   8  11
ENDBRANCH   7   8
ENDBRANCH   1   7
BRANCH   6  13
ATOM     13  N   LIG d   1      -2.903  92.693 118.834  0.00  0.00    -0.311 N 
ATOM     14  C   LIG d   1      -1.705  92.581 118.261  0.00  0.00     0.210 C 
ATOM     15  C   LIG d   1      -0.773  91.552 118.908  0.00  0.00     0.109 C 
ATOM     16  O   LIG d   1      -1.316  93.259 117.299  0.00  0.00    -0.276 OA
ATOM     17  H   LIG d   1      -3.123  92.127 119.630  0.00  0.00     0.149 HD
ENDBRANCH   6  13
BRANCH   5  18
ATOM     18  N   LIG d   1      -3.406  95.497 119.936  0.00  0.00     0.381 N 
ATOM     19  H   LIG d   1      -3.317  96.270 119.307  0.00  0.00    -0.090 HD
ATOM     20  H   LIG d   1      -2.530  95.007 119.960  0.00  0.00    -0.090 HD
ATOM     21  H   LIG d   1      -3.635  95.827 120.848  0.00  0.00    -0.090 HD
ENDBRANCH   5  18
BRANCH   3  22
ATOM     22  C   LIG d   1      -7.901  95.168 118.315  0.00  0.00     0.382 C 
ATOM     23  O   LIG d   1      -8.859  94.399 118.569  0.00  0.00    -0.241 OA
ATOM     24  O   LIG d   1      -8.127  96.363 118.046  0.00  0.00    -0.241 OA
ENDBRANCH   3  22
TORSDOF 7
ENDMDL
MODEL 6
REMARK VINA RESULT:      -5.1     14.887     16.836
REMARK  7 active torsions:
REMARK  status: ('A' for Active; 'I' for Inactive)
REMARK    1  A    between atoms: C_2  and  C_3 
REMARK    2  A    between atoms: C_3  and  O_6 
REMARK    3  A    between atoms: C_3  and  C_4 
REMARK    4  A    between atoms: C_7  and  O_6 
REMARK    5  A    between atoms: C_9  and  C_10 
REMARK    6  A    between atoms: N_15  and  C_14 
REMARK    7  A    between atoms: N_20  and  C_19 
REMARK       I    between atoms: C_22  and  N_20 
ROOT
ATOM      1  C   LIG d   1      -3.757  90.923 117.538  0.00  0.00     0.161 C 
ATOM      2  C   LIG d   1      -4.516  90.337 116.512  0.00  0.00     0.016 C 
ATOM      3  C   LIG d   1      -5.632  90.965 115.913  0.00  0.00     0.038 C 
ATOM      4  C   LIG d   1      -5.976  92.295 116.199  0.00  0.00     0.028 C 
ATOM      5  C   LIG d   1      -5.547  92.745 117.592  0.00  0.00    -0.047 C 
ATOM      6  C   LIG d   1      -4.049  92.418 117.786  0.00  0.00     0.091 C 
ENDROOT
BRANCH   1   7
ATOM      7  O   LIG d   1      -2.353  90.723 117.284  0.00  0.00    -0.368 OA
BRANCH   7   8
ATOM      8  C   LIG d   1      -1.625  89.967 118.283  0.00  0.00     0.119 C 
BRANCH   8   9
ATOM      9  C   LIG d   1      -0.357  90.768 118.636  0.00  0.00     0.028 C 
ATOM     10  C   LIG d   1      -0.161  91.990 117.723  0.00  0.00     0.006 C 
ENDBRANCH   8   9
BRANCH   8  11
ATOM     11  C   LIG d   1      -1.120  88.637 117.717  0.00  0.00     0.028 C 
ATOM     12  C   LIG d   1      -2.106  87.480 117.944  0.00  0.00     0.006 C 
ENDBRANCH   8  11
ENDBRANCH   7   8
ENDBRANCH   1   7
BRANCH   6  13
ATOM     13  N   LIG d   1      -3.569  92.750 119.153  0.00  0.00    -0.311 N 
ATOM     14  C   LIG d   1      -2.918  93.873 119.449  0.00  0.00     0.210 C 
ATOM     15  C   LIG d   1      -2.494  94.008 120.915  0.00  0.00     0.109 C 
ATOM     16  O   LIG d   1      -2.678  94.785 118.643  0.00  0.00    -0.276 OA
ATOM     17  H   LIG d   1      -3.749  92.079 119.875  0.00  0.00     0.149 HD
ENDBRANCH   6  13
BRANCH   5  18
ATOM     18  N   LIG d   1      -5.844  94.186 117.705  0.00  0.00     0.381 N 
ATOM     19  H   LIG d   1      -5.520  94.530 118.587  0.00  0.00    -0.090 HD
ATOM     20  H   LIG d   1      -6.839  94.318 117.661  0.00  0.00    -0.090 HD
ATOM     21  H   LIG d   1      -5.402  94.684 116.963  0.00  0.00    -0.090 HD
ENDBRANCH   5  18
BRANCH   3  22
ATOM     22  C   LIG d   1      -6.442  90.247 115.046  0.00  0.00     0.382 C 
ATOM     23  O   LIG d   1      -6.232  89.025 114.860  0.00  0.00    -0.241 OA
ATOM     24  O   LIG d   1      -7.352  90.817 114.414  0.00  0.00    -0.241 OA
ENDBRANCH   3  22
TORSDOF 7
ENDMDL
MODEL 7
REMARK VINA RESULT:      -5.1     15.069     17.002
REMARK  7 active torsions:
REMARK  status: ('A' for Active; 'I' for Inactive)
REMARK    1  A    between atoms: C_2  and  C_3 
REMARK    2  A    between atoms: C_3  and  O_6 
REMARK    3  A    between atoms: C_3  and  C_4 
REMARK    4  A    between atoms: C_7  and  O_6 
REMARK    5  A    between atoms: C_9  and  C_10 
REMARK    6  A    between atoms: N_15  and  C_14 
REMARK    7  A    between atoms: N_20  and  C_19 
REMARK       I    between atoms: C_22  and  N_20 
ROOT
ATOM      1  C   LIG d   1      -4.108  91.911 116.928  0.00  0.00     0.161 C 
ATOM      2  C   LIG d   1      -3.334  92.805 117.686  0.00  0.00     0.016 C 
ATOM      3  C   LIG d   1      -3.890  93.805 118.517  0.00  0.00     0.038 C 
ATOM      4  C   LIG d   1      -5.269  93.882 118.764  0.00  0.00     0.028 C 
ATOM      5  C   LIG d   1      -6.119  93.324 117.628  0.00  0.00    -0.047 C 
ATOM      6  C   LIG d   1      -5.613  91.907 117.271  0.00  0.00     0.091 C 
ENDROOT
BRANCH   1   7
ATOM      7  O   LIG d   1      -3.566  90.580 117.038  0.00  0.00    -0.368 OA
BRANCH   7   8
ATOM      8  C   LIG d   1      -2.823  90.293 118.248  0.00  0.00     0.119 C 
BRANCH   8   9
ATOM      9  C   LIG d   1      -1.628  89.403 117.857  0.00  0.00     0.028 C 
ATOM     10  C   LIG d   1      -0.482  90.206 117.219  0.00  0.00     0.006 C 
ENDBRANCH   8   9
BRANCH   8  11
ATOM     11  C   LIG d   1      -3.652  89.453 119.225  0.00  0.00     0.028 C 
ATOM     12  C   LIG d   1      -4.242  90.284 120.374  0.00  0.00     0.006 C 
ENDBRANCH   8  11
ENDBRANCH   7   8
ENDBRANCH   1   7
BRANCH   6  13
ATOM     13  N   LIG d   1      -6.337  91.322 116.113  0.00  0.00    -0.311 N 
ATOM     14  C   LIG d   1      -6.744  90.055 116.067  0.00  0.00     0.210 C 
ATOM     15  C   LIG d   1      -7.454  89.650 114.772  0.00  0.00     0.109 C 
ATOM     16  O   LIG d   1      -6.613  89.236 116.990  0.00  0.00    -0.276 OA
ATOM     17  H   LIG d   1      -6.513  91.925 115.333  0.00  0.00     0.149 HD
ENDBRANCH   6  13
BRANCH   5  18
ATOM     18  N   LIG d   1      -7.525  93.339 118.075  0.00  0.00     0.381 N 
ATOM     19  H   LIG d   1      -7.859  94.281 118.109  0.00  0.00    -0.090 HD
ATOM     20  H   LIG d   1      -7.576  92.953 119.002  0.00  0.00    -0.090 HD
ATOM     21  H   LIG d   1      -8.087  92.802 117.452  0.00  0.00    -0.090 HD
ENDBRANCH   5  18
BRANCH   3  22
ATOM     22  C   LIG d   1      -3.065  94.768 119.079  0.00  0.00     0.382 C 
ATOM     23  O   LIG d   1      -3.425  95.373 120.118  0.00  0.00    -0.241 OA
ATOM     24  O   LIG d   1      -1.986  95.071 118.535  0.00  0.00    -0.241 OA
ENDBRANCH   3  22
TORSDOF 7
ENDMDL
MODEL 8
REMARK VINA RESULT:      -4.9      2.476      6.458
REMARK  7 active torsions:
REMARK  status: ('A' for Active; 'I' for Inactive)
REMARK    1  A    between atoms: C_2  and  C_3 
REMARK    2  A    between atoms: C_3  and  O_6 
REMARK    3  A    between atoms: C_3  and  C_4 
REMARK    4  A    between atoms: C_7  and  O_6 
REMARK    5  A    between atoms: C_9  and  C_10 
REMARK    6  A    between atoms: N_15  and  C_14 
REMARK    7  A    between atoms: N_20  and  C_19 
REMARK       I    between atoms: C_22  and  N_20 
ROOT
ATOM      1  C   LIG d   1      -7.317  78.151 117.576  0.00  0.00     0.161 C 
ATOM      2  C   LIG d   1      -8.455  78.477 118.332  0.00  0.00     0.016 C 
ATOM      3  C   LIG d   1      -9.480  77.551 118.633  0.00  0.00     0.038 C 
ATOM      4  C   LIG d   1      -9.362  76.187 118.324  0.00  0.00     0.028 C 
ATOM      5  C   LIG d   1      -8.466  75.914 117.121  0.00  0.00    -0.047 C 
ATOM      6  C   LIG d   1      -7.117  76.642 117.325  0.00  0.00     0.091 C 
ENDROOT
BRANCH   1   7
ATOM      7  O   LIG d   1      -6.142  78.716 118.192  0.00  0.00    -0.368 OA
BRANCH   7   8
ATOM      8  C   LIG d   1      -6.220  78.945 119.620  0.00  0.00     0.119 C 
BRANCH   8   9
ATOM      9  C   LIG d   1      -5.541  80.298 119.910  0.00  0.00     0.028 C 
ATOM     10  C   LIG d   1      -6.522  81.478 119.821  0.00  0.00     0.006 C 
ENDBRANCH   8   9
BRANCH   8  11
ATOM     11  C   LIG d   1      -5.403  77.907 120.396  0.00  0.00     0.028 C 
ATOM     12  C   LIG d   1      -4.275  77.288 119.556  0.00  0.00     0.006 C 
ENDBRANCH   8  11
ENDBRANCH   7   8
ENDBRANCH   1   7
BRANCH   6  13
ATOM     13  N   LIG d   1      -6.212  76.496 116.155  0.00  0.00    -0.311 N 
ATOM     14  C   LIG d   1      -5.286  75.544 116.058  0.00  0.00     0.210 C 
ATOM     15  C   LIG d   1      -4.447  75.585 114.777  0.00  0.00     0.109 C 
ATOM     16  O   LIG d   1      -5.102  74.649 116.897  0.00  0.00    -0.276 OA
ATOM     17  H   LIG d   1      -6.315  77.161 115.413  0.00  0.00     0.149 HD
ENDBRANCH   6  13
BRANCH   5  18
ATOM     18  N   LIG d   1      -8.321  74.452 116.996  0.00  0.00     0.381 N 
ATOM     19  H   LIG d   1      -8.258  74.039 117.904  0.00  0.00    -0.090 HD
ATOM     20  H   LIG d   1      -7.472  74.251 116.498  0.00  0.00    -0.090 HD
ATOM     21  H   LIG d   1      -9.100  74.073 116.504  0.00  0.00    -0.090 HD
ENDBRANCH   5  18
BRANCH   3  22
ATOM     22  C   LIG d   1     -10.657  77.994 119.216  0.00  0.00     0.382 C 
ATOM     23  O   LIG d   1     -10.687  79.103 119.803  0.00  0.00    -0.241 OA
ATOM     24  O   LIG d   1     -11.678  77.281 119.201  0.00  0.00    -0.241 OA
ENDBRANCH   3  22
TORSDOF 7
ENDMDL
MODEL 9
REMARK VINA RESULT:      -4.8     14.081     15.956
REMARK  7 active torsions:
REMARK  status: ('A' for Active; 'I' for Inactive)
REMARK    1  A    between atoms: C_2  and  C_3 
REMARK    2  A    between atoms: C_3  and  O_6 
REMARK    3  A    between atoms: C_3  and  C_4 
REMARK    4  A    between atoms: C_7  and  O_6 
REMARK    5  A    between atoms: C_9  and  C_10 
REMARK    6  A    between atoms: N_15  and  C_14 
REMARK    7  A    between atoms: N_20  and  C_19 
REMARK       I    between atoms: C_22  and  N_20 
ROOT
ATOM      1  C   LIG d   1      -4.049  90.851 117.713  0.00  0.00     0.161 C 
ATOM      2  C   LIG d   1      -4.674  90.237 116.615  0.00  0.00     0.016 C 
ATOM      3  C   LIG d   1      -5.703  90.849 115.862  0.00  0.00     0.038 C 
ATOM      4  C   LIG d   1      -6.074  92.187 116.064  0.00  0.00     0.028 C 
ATOM      5  C   LIG d   1      -5.823  92.677 117.487  0.00  0.00    -0.047 C 
ATOM      6  C   LIG d   1      -4.364  92.353 117.879  0.00  0.00     0.091 C 
ENDROOT
BRANCH   1   7
ATOM      7  O   LIG d   1      -2.625  90.642 117.644  0.00  0.00    -0.368 OA
BRANCH   7   8
ATOM      8  C   LIG d   1      -2.062  89.756 118.643  0.00  0.00     0.119 C 
BRANCH   8   9
ATOM      9  C   LIG d   1      -1.376  88.595 117.898  0.00  0.00     0.028 C 
ATOM     10  C   LIG d   1      -2.267  87.345 117.811  0.00  0.00     0.006 C 
ENDBRANCH   8   9
BRANCH   8  11
ATOM     11  C   LIG d   1      -3.158  89.103 119.490  0.00  0.00     0.028 C 
ATOM     12  C   LIG d   1      -2.881  89.198 120.999  0.00  0.00     0.006 C 
ENDBRANCH   8  11
ENDBRANCH   7   8
ENDBRANCH   1   7
BRANCH   6  13
ATOM     13  N   LIG d   1      -4.059  92.723 119.286  0.00  0.00    -0.311 N 
ATOM     14  C   LIG d   1      -4.768  92.290 120.327  0.00  0.00     0.210 C 
ATOM     15  C   LIG d   1      -4.297  92.808 121.690  0.00  0.00     0.109 C 
ATOM     16  O   LIG d   1      -5.722  91.501 120.255  0.00  0.00    -0.276 OA
ATOM     17  H   LIG d   1      -3.282  93.335 119.439  0.00  0.00     0.149 HD
ENDBRANCH   6  13
BRANCH   5  18
ATOM     18  N   LIG d   1      -6.125  94.120 117.521  0.00  0.00     0.381 N 
ATOM     19  H   LIG d   1      -7.114  94.261 117.466  0.00  0.00    -0.090 HD
ATOM     20  H   LIG d   1      -5.699  94.560 116.724  0.00  0.00    -0.090 HD
ATOM     21  H   LIG d   1      -5.770  94.523 118.360  0.00  0.00    -0.090 HD
ENDBRANCH   5  18
BRANCH   3  22
ATOM     22  C   LIG d   1      -6.399  90.108 114.920  0.00  0.00     0.382 C 
ATOM     23  O   LIG d   1      -7.442  90.574 114.401  0.00  0.00    -0.241 OA
ATOM     24  O   LIG d   1      -6.023  88.960 114.615  0.00  0.00    -0.241 OA
ENDBRANCH   3  22
TORSDOF 7
ENDMDL
