MODEL 1
REMARK VINA RESULT:      -5.4      0.000      0.000
REMARK  7 active torsions:
REMARK  status: ('A' for Active; 'I' for Inactive)
REMARK    1  A    between atoms: C_2  and  C_3 
REMARK    2  A    between atoms: C_3  and  O_6 
REMARK    3  A    between atoms: C_3  and  C_4 
REMARK    4  A    between atoms: C_7  and  O_6 
REMARK    5  A    between atoms: C_9  and  C_10 
REMARK    6  A    between atoms: N_15  and  C_14 
REMARK    7  A    between atoms: N_20  and  C_19 
REMARK       I    between atoms: C_22  and  N_20 
ROOT
ATOM      1  C   LIG d   1      -6.952  78.213 117.261  0.00  0.00     0.161 C 
ATOM      2  C   LIG d   1      -8.290  78.592 117.461  0.00  0.00     0.016 C 
ATOM      3  C   LIG d   1      -8.673  79.857 117.964  0.00  0.00     0.038 C 
ATOM      4  C   LIG d   1      -7.744  80.890 118.160  0.00  0.00     0.028 C 
ATOM      5  C   LIG d   1      -6.334  80.388 118.451  0.00  0.00    -0.047 C 
ATOM      6  C   LIG d   1      -5.931  79.365 117.365  0.00  0.00     0.091 C 
ENDROOT
BRANCH   1   7
ATOM      7  O   LIG d   1      -6.819  77.538 115.995  0.00  0.00    -0.368 OA
BRANCH   7   8
ATOM      8  C   LIG d   1      -6.269  76.199 116.041  0.00  0.00     0.119 C 
BRANCH   8   9
ATOM      9  C   LIG d   1      -5.746  75.864 114.630  0.00  0.00     0.028 C 
ATOM     10  C   LIG d   1      -4.210  75.873 114.555  0.00  0.00     0.006 C 
ENDBRANCH   8   9
BRANCH   8  11
ATOM     11  C   LIG d   1      -7.356  75.159 116.328  0.00  0.00     0.028 C 
ATOM     12  C   LIG d   1      -6.859  73.715 116.157  0.00  0.00     0.006 C 
ENDBRANCH   8  11
ENDBRANCH   7   8
ENDBRANCH   1   7
BRANCH   6  13
ATOM     13  N   LIG d   1      -4.597  78.762 117.621  0.00  0.00    -0.311 N 
ATOM     14  C   LIG d   1      -3.601  78.782 116.737  0.00  0.00     0.210 C 
ATOM     15  C   LIG d   1      -2.316  78.086 117.194  0.00  0.00     0.109 C 
ATOM     16  O   LIG d   1      -3.650  79.339 115.629  0.00  0.00    -0.276 OA
ATOM     17  H   LIG d   1      -4.460  78.317 118.507  0.00  0.00     0.149 HD
ENDBRANCH   6  13
BRANCH   5  18
ATOM     18  N   LIG d   1      -5.444  81.564 118.497  0.00  0.00     0.381 N 
ATOM     19  H   LIG d   1      -5.567  82.048 119.363  0.00  0.00    -0.090 HD
ATOM     20  H   LIG d   1      -5.690  82.188 117.749  0.00  0.00    -0.090 HD
ATOM     21  H   LIG d   1      -4.495  81.277 118.401  0.00  0.00    -0.090 HD
ENDBRANCH   5  18
BRANCH   3  22
ATOM     22  C   LIG d   1      -9.995  80.085 118.313  0.00  0.00     0.382 C 
ATOM     23  O   LIG d   1     -10.663  79.179 118.867  0.00  0.00    -0.241 OA
ATOM     24  O   LIG d   1     -10.542  81.171 118.042  0.00  0.00    -0.241 OA
ENDBRANCH   3  22
TORSDOF 7
ENDMDL
MODEL 2
REMARK VINA RESULT:      -5.4      2.448      5.654
REMARK  7 active torsions:
REMARK  status: ('A' for Active; 'I' for Inactive)
REMARK    1  A    between atoms: C_2  and  C_3 
REMARK    2  A    between atoms: C_3  and  O_6 
REMARK    3  A    between atoms: C_3  and  C_4 
REMARK    4  A    between atoms: C_7  and  O_6 
REMARK    5  A    between atoms: C_9  and  C_10 
REMARK    6  A    between atoms: N_15  and  C_14 
REMARK    7  A    between atoms: N_20  and  C_19 
REMARK       I    between atoms: C_22  and  N_20 
ROOT
ATOM      1  C   LIG d   1      -4.412  77.225 115.710  0.00  0.00     0.161 C 
ATOM      2  C   LIG d   1      -3.572  76.117 115.516  0.00  0.00     0.016 C 
ATOM      3  C   LIG d   1      -2.562  75.736 116.429  0.00  0.00     0.038 C 
ATOM      4  C   LIG d   1      -2.423  76.354 117.681  0.00  0.00     0.028 C 
ATOM      5  C   LIG d   1      -2.917  77.796 117.702  0.00  0.00    -0.047 C 
ATOM      6  C   LIG d   1      -4.349  77.845 117.122  0.00  0.00     0.091 C 
ENDROOT
BRANCH   1   7
ATOM      7  O   LIG d   1      -5.769  76.874 115.377  0.00  0.00    -0.368 OA
BRANCH   7   8
ATOM      8  C   LIG d   1      -6.378  75.841 116.190  0.00  0.00     0.119 C 
BRANCH   8   9
ATOM      9  C   LIG d   1      -6.369  74.538 115.366  0.00  0.00     0.028 C 
ATOM     10  C   LIG d   1      -7.020  73.365 116.117  0.00  0.00     0.006 C 
ENDBRANCH   8   9
BRANCH   8  11
ATOM     11  C   LIG d   1      -7.856  76.141 116.459  0.00  0.00     0.028 C 
ATOM     12  C   LIG d   1      -8.075  77.513 117.116  0.00  0.00     0.006 C 
ENDBRANCH   8  11
ENDBRANCH   7   8
ENDBRANCH   1   7
BRANCH   6  13
ATOM     13  N   LIG d   1      -4.876  79.231 117.029  0.00  0.00    -0.311 N 
ATOM     14  C   LIG d   1      -5.553  79.825 118.010  0.00  0.00     0.210 C 
ATOM     15  C   LIG d   1      -6.024  81.250 117.700  0.00  0.00     0.109 C 
ATOM     16  O   LIG d   1      -5.781  79.320 119.119  0.00  0.00    -0.276 OA
ATOM     17  H   LIG d   1      -4.709  79.726 116.175  0.00  0.00     0.149 HD
ENDBRANCH   6  13
BRANCH   5  18
ATOM     18  N   LIG d   1      -2.842  78.272 119.097  0.00  0.00     0.381 N 
ATOM     19  H   LIG d   1      -1.958  78.712 119.257  0.00  0.00    -0.090 HD
ATOM     20  H   LIG d   1      -2.918  77.483 119.714  0.00  0.00    -0.090 HD
ATOM     21  H   LIG d   1      -3.579  78.917 119.277  0.00  0.00    -0.090 HD
ENDBRANCH   5  18
BRANCH   3  22
ATOM     22  C   LIG d   1      -1.651  74.751 116.076  0.00  0.00     0.382 C 
ATOM     23  O   LIG d   1      -1.159  74.007 116.957  0.00  0.00    -0.241 OA
ATOM     24  O   LIG d   1      -1.282  74.628 114.892  0.00  0.00    -0.241 OA
ENDBRANCH   3  22
TORSDOF 7
ENDMDL
MODEL 3
REMARK VINA RESULT:      -5.3     13.556     16.053
REMARK  7 active torsions:
REMARK  status: ('A' for Active; 'I' for Inactive)
REMARK    1  A    between atoms: C_2  and  C_3 
REMARK    2  A    between atoms: C_3  and  O_6 
REMARK    3  A    between atoms: C_3  and  C_4 
REMARK    4  A    between atoms: C_7  and  O_6 
REMARK    5  A    between atoms: C_9  and  C_10 
REMARK    6  A    between atoms: N_15  and  C_14 
REMARK    7  A    between atoms: N_20  and  C_19 
REMARK       I    between atoms: C_22  and  N_20 
ROOT
ATOM      1  C   LIG d   1      -5.552  93.627 118.680  0.00  0.00     0.161 C 
ATOM      2  C   LIG d   1      -6.286  93.019 117.648  0.00  0.00     0.016 C 
ATOM      3  C   LIG d   1      -5.713  92.139 116.701  0.00  0.00     0.038 C 
ATOM      4  C   LIG d   1      -4.390  91.687 116.814  0.00  0.00     0.028 C 
ATOM      5  C   LIG d   1      -3.476  92.665 117.543  0.00  0.00    -0.047 C 
ATOM      6  C   LIG d   1      -4.132  93.059 118.886  0.00  0.00     0.091 C 
ENDROOT
BRANCH   1   7
ATOM      7  O   LIG d   1      -6.299  93.567 119.912  0.00  0.00    -0.368 OA
BRANCH   7   8
ATOM      8  C   LIG d   1      -6.812  94.828 120.408  0.00  0.00     0.119 C 
BRANCH   8   9
ATOM      9  C   LIG d   1      -8.345  94.796 120.256  0.00  0.00     0.028 C 
ATOM     10  C   LIG d   1      -8.834  95.622 119.055  0.00  0.00     0.006 C 
ENDBRANCH   8   9
BRANCH   8  11
ATOM     11  C   LIG d   1      -6.343  96.001 119.541  0.00  0.00     0.028 C 
ATOM     12  C   LIG d   1      -5.397  96.953 120.288  0.00  0.00     0.006 C 
ENDBRANCH   8  11
ENDBRANCH   7   8
ENDBRANCH   1   7
BRANCH   6  13
ATOM     13  N   LIG d   1      -3.342  94.079 119.625  0.00  0.00    -0.311 N 
ATOM     14  C   LIG d   1      -2.431  93.773 120.547  0.00  0.00     0.210 C 
ATOM     15  C   LIG d   1      -1.746  94.976 121.202  0.00  0.00     0.109 C 
ATOM     16  O   LIG d   1      -2.101  92.619 120.861  0.00  0.00    -0.276 OA
ATOM     17  H   LIG d   1      -3.524  95.040 119.410  0.00  0.00     0.149 HD
ENDBRANCH   6  13
BRANCH   5  18
ATOM     18  N   LIG d   1      -2.165  92.009 117.711  0.00  0.00     0.381 N 
ATOM     19  H   LIG d   1      -1.450  92.571 117.294  0.00  0.00    -0.090 HD
ATOM     20  H   LIG d   1      -2.183  91.122 117.240  0.00  0.00    -0.090 HD
ATOM     21  H   LIG d   1      -1.971  91.876 118.679  0.00  0.00    -0.090 HD
ENDBRANCH   5  18
BRANCH   3  22
ATOM     22  C   LIG d   1      -6.457  91.734 115.603  0.00  0.00     0.382 C 
ATOM     23  O   LIG d   1      -6.455  92.424 114.555  0.00  0.00    -0.241 OA
ATOM     24  O   LIG d   1      -7.164  90.710 115.662  0.00  0.00    -0.241 OA
ENDBRANCH   3  22
TORSDOF 7
ENDMDL
MODEL 4
REMARK VINA RESULT:      -5.2     13.365     16.391
REMARK  7 active torsions:
REMARK  status: ('A' for Active; 'I' for Inactive)
REMARK    1  A    between atoms: C_2  and  C_3 
REMARK    2  A    between atoms: C_3  and  O_6 
REMARK    3  A    between atoms: C_3  and  C_4 
REMARK    4  A    between atoms: C_7  and  O_6 
REMARK    5  A    between atoms: C_9  and  C_10 
REMARK    6  A    between atoms: N_15  and  C_14 
REMARK    7  A    between atoms: N_20  and  C_19 
REMARK       I    between atoms: C_22  and  N_20 
ROOT
ATOM      1  C   LIG d   1      -5.271  92.902 119.598  0.00  0.00     0.161 C 
ATOM      2  C   LIG d   1      -4.151  92.194 119.131  0.00  0.00     0.016 C 
ATOM      3  C   LIG d   1      -4.018  91.739 117.799  0.00  0.00     0.038 C 
ATOM      4  C   LIG d   1      -4.935  92.094 116.799  0.00  0.00     0.028 C 
ATOM      5  C   LIG d   1      -6.334  92.379 117.334  0.00  0.00    -0.047 C 
ATOM      6  C   LIG d   1      -6.230  93.395 118.495  0.00  0.00     0.091 C 
ENDROOT
BRANCH   1   7
ATOM      7  O   LIG d   1      -4.843  94.006 120.420  0.00  0.00    -0.368 OA
BRANCH   7   8
ATOM      8  C   LIG d   1      -4.380  95.184 119.715  0.00  0.00     0.119 C 
BRANCH   8   9
ATOM      9  C   LIG d   1      -2.887  95.365 120.048  0.00  0.00     0.028 C 
ATOM     10  C   LIG d   1      -1.981  95.134 118.827  0.00  0.00     0.006 C 
ENDBRANCH   8   9
BRANCH   8  11
ATOM     11  C   LIG d   1      -5.068  96.450 120.234  0.00  0.00     0.028 C 
ATOM     12  C   LIG d   1      -5.857  96.211 121.532  0.00  0.00     0.006 C 
ENDBRANCH   8  11
ENDBRANCH   7   8
ENDBRANCH   1   7
BRANCH   6  13
ATOM     13  N   LIG d   1      -7.546  93.665 119.131  0.00  0.00    -0.311 N 
ATOM     14  C   LIG d   1      -8.210  94.810 118.984  0.00  0.00     0.210 C 
ATOM     15  C   LIG d   1      -9.539  94.890 119.742  0.00  0.00     0.109 C 
ATOM     16  O   LIG d   1      -7.840  95.756 118.271  0.00  0.00    -0.276 OA
ATOM     17  H   LIG d   1      -7.935  92.940 119.701  0.00  0.00     0.149 HD
ENDBRANCH   6  13
BRANCH   5  18
ATOM     18  N   LIG d   1      -7.151  92.870 116.208  0.00  0.00     0.381 N 
ATOM     19  H   LIG d   1      -8.006  93.257 116.553  0.00  0.00    -0.090 HD
ATOM     20  H   LIG d   1      -7.374  92.096 115.607  0.00  0.00    -0.090 HD
ATOM     21  H   LIG d   1      -6.647  93.561 115.697  0.00  0.00    -0.090 HD
ENDBRANCH   5  18
BRANCH   3  22
ATOM     22  C   LIG d   1      -2.978  90.885 117.465  0.00  0.00     0.382 C 
ATOM     23  O   LIG d   1      -1.794  91.301 117.484  0.00  0.00    -0.241 OA
ATOM     24  O   LIG d   1      -3.211  89.716 117.103  0.00  0.00    -0.241 OA
ENDBRANCH   3  22
TORSDOF 7
ENDMDL
MODEL 5
REMARK VINA RESULT:      -5.0     12.440     14.805
REMARK  7 active torsions:
REMARK  status: ('A' for Active; 'I' for Inactive)
REMARK    1  A    between atoms: C_2  and  C_3 
REMARK    2  A    between atoms: C_3  and  O_6 
REMARK    3  A    between atoms: C_3  and  C_4 
REMARK    4  A    between atoms: C_7  and  O_6 
REMARK    5  A    between atoms: C_9  and  C_10 
REMARK    6  A    between atoms: N_15  and  C_14 
REMARK    7  A    between atoms: N_20  and  C_19 
REMARK       I    between atoms: C_22  and  N_20 
ROOT
ATOM      1  C   LIG d   1      -4.238  92.045 117.997  0.00  0.00     0.161 C 
ATOM      2  C   LIG d   1      -4.667  91.319 116.873  0.00  0.00     0.016 C 
ATOM      3  C   LIG d   1      -5.816  91.655 116.121  0.00  0.00     0.038 C 
ATOM      4  C   LIG d   1      -6.535  92.836 116.354  0.00  0.00     0.028 C 
ATOM      5  C   LIG d   1      -6.436  93.332 117.793  0.00  0.00    -0.047 C 
ATOM      6  C   LIG d   1      -4.946  93.401 118.199  0.00  0.00     0.091 C 
ENDROOT
BRANCH   1   7
ATOM      7  O   LIG d   1      -2.810  92.229 117.944  0.00  0.00    -0.368 OA
BRANCH   7   8
ATOM      8  C   LIG d   1      -2.041  91.537 118.959  0.00  0.00     0.119 C 
BRANCH   8   9
ATOM      9  C   LIG d   1      -0.925  92.492 119.425  0.00  0.00     0.028 C 
ATOM     10  C   LIG d   1      -0.869  92.627 120.956  0.00  0.00     0.006 C 
ENDBRANCH   8   9
BRANCH   8  11
ATOM     11  C   LIG d   1      -1.315  90.321 118.376  0.00  0.00     0.028 C 
ATOM     12  C   LIG d   1      -2.120  89.020 118.525  0.00  0.00     0.006 C 
ENDBRANCH   8  11
ENDBRANCH   7   8
ENDBRANCH   1   7
BRANCH   6  13
ATOM     13  N   LIG d   1      -4.764  93.797 119.620  0.00  0.00    -0.311 N 
ATOM     14  C   LIG d   1      -3.873  94.703 120.020  0.00  0.00     0.210 C 
ATOM     15  C   LIG d   1      -3.835  94.948 121.531  0.00  0.00     0.109 C 
ATOM     16  O   LIG d   1      -3.135  95.351 119.263  0.00  0.00    -0.276 OA
ATOM     17  H   LIG d   1      -5.344  93.343 120.298  0.00  0.00     0.149 HD
ENDBRANCH   6  13
BRANCH   5  18
ATOM     18  N   LIG d   1      -7.115  94.640 117.861  0.00  0.00     0.381 N 
ATOM     19  H   LIG d   1      -6.444  95.361 118.035  0.00  0.00    -0.090 HD
ATOM     20  H   LIG d   1      -7.769  94.627 118.624  0.00  0.00    -0.090 HD
ATOM     21  H   LIG d   1      -7.594  94.821 117.006  0.00  0.00    -0.090 HD
ENDBRANCH   5  18
BRANCH   3  22
ATOM     22  C   LIG d   1      -6.280  90.782 115.149  0.00  0.00     0.382 C 
ATOM     23  O   LIG d   1      -7.444  90.908 114.698  0.00  0.00    -0.241 OA
ATOM     24  O   LIG d   1      -5.566  89.843 114.749  0.00  0.00    -0.241 OA
ENDBRANCH   3  22
TORSDOF 7
ENDMDL
MODEL 6
REMARK VINA RESULT:      -5.0      2.266      2.956
REMARK  7 active torsions:
REMARK  status: ('A' for Active; 'I' for Inactive)
REMARK    1  A    between atoms: C_2  and  C_3 
REMARK    2  A    between atoms: C_3  and  O_6 
REMARK    3  A    between atoms: C_3  and  C_4 
REMARK    4  A    between atoms: C_7  and  O_6 
REMARK    5  A    between atoms: C_9  and  C_10 
REMARK    6  A    between atoms: N_15  and  C_14 
REMARK    7  A    between atoms: N_20  and  C_19 
REMARK       I    between atoms: C_22  and  N_20 
ROOT
ATOM      1  C   LIG d   1      -5.596  78.067 116.837  0.00  0.00     0.161 C 
ATOM      2  C   LIG d   1      -6.324  79.251 117.042  0.00  0.00     0.016 C 
ATOM      3  C   LIG d   1      -5.791  80.390 117.688  0.00  0.00     0.038 C 
ATOM      4  C   LIG d   1      -4.436  80.478 118.039  0.00  0.00     0.028 C 
ATOM      5  C   LIG d   1      -3.791  79.122 118.307  0.00  0.00    -0.047 C 
ATOM      6  C   LIG d   1      -4.082  78.183 117.114  0.00  0.00     0.091 C 
ENDROOT
BRANCH   1   7
ATOM      7  O   LIG d   1      -5.824  77.579 115.500  0.00  0.00    -0.368 OA
BRANCH   7   8
ATOM      8  C   LIG d   1      -6.802  76.517 115.368  0.00  0.00     0.119 C 
BRANCH   8   9
ATOM      9  C   LIG d   1      -7.445  76.306 116.752  0.00  0.00     0.028 C 
ATOM     10  C   LIG d   1      -8.926  76.720 116.780  0.00  0.00     0.006 C 
ENDBRANCH   8   9
BRANCH   8  11
ATOM     11  C   LIG d   1      -6.132  75.183 115.025  0.00  0.00     0.028 C 
ATOM     12  C   LIG d   1      -6.293  74.132 116.135  0.00  0.00     0.006 C 
ENDBRANCH   8  11
ENDBRANCH   7   8
ENDBRANCH   1   7
BRANCH   6  13
ATOM     13  N   LIG d   1      -3.558  76.810 117.332  0.00  0.00    -0.311 N 
ATOM     14  C   LIG d   1      -2.822  76.155 116.436  0.00  0.00     0.210 C 
ATOM     15  C   LIG d   1      -2.401  74.742 116.853  0.00  0.00     0.109 C 
ATOM     16  O   LIG d   1      -2.450  76.622 115.349  0.00  0.00    -0.276 OA
ATOM     17  H   LIG d   1      -3.787  76.367 118.201  0.00  0.00     0.149 HD
ENDBRANCH   6  13
BRANCH   5  18
ATOM     18  N   LIG d   1      -2.350  79.349 118.526  0.00  0.00     0.381 N 
ATOM     19  H   LIG d   1      -1.959  78.579 119.031  0.00  0.00    -0.090 HD
ATOM     20  H   LIG d   1      -2.232  80.181 119.077  0.00  0.00    -0.090 HD
ATOM     21  H   LIG d   1      -1.884  79.453 117.651  0.00  0.00    -0.090 HD
ENDBRANCH   5  18
BRANCH   3  22
ATOM     22  C   LIG d   1      -6.628  81.444 118.024  0.00  0.00     0.382 C 
ATOM     23  O   LIG d   1      -6.930  81.646 119.225  0.00  0.00    -0.241 OA
ATOM     24  O   LIG d   1      -7.119  82.168 117.137  0.00  0.00    -0.241 OA
ENDBRANCH   3  22
TORSDOF 7
ENDMDL
MODEL 7
REMARK VINA RESULT:      -5.0     13.229     15.455
REMARK  7 active torsions:
REMARK  status: ('A' for Active; 'I' for Inactive)
REMARK    1  A    between atoms: C_2  and  C_3 
REMARK    2  A    between atoms: C_3  and  O_6 
REMARK    3  A    between atoms: C_3  and  C_4 
REMARK    4  A    between atoms: C_7  and  O_6 
REMARK    5  A    between atoms: C_9  and  C_10 
REMARK    6  A    between atoms: N_15  and  C_14 
REMARK    7  A    between atoms: N_20  and  C_19 
REMARK       I    between atoms: C_22  and  N_20 
ROOT
ATOM      1  C   LIG d   1      -3.942  92.727 118.247  0.00  0.00     0.161 C 
ATOM      2  C   LIG d   1      -4.570  92.290 117.069  0.00  0.00     0.016 C 
ATOM      3  C   LIG d   1      -5.939  92.508 116.790  0.00  0.00     0.038 C 
ATOM      4  C   LIG d   1      -6.743  93.316 117.609  0.00  0.00     0.028 C 
ATOM      5  C   LIG d   1      -6.281  93.356 119.061  0.00  0.00    -0.047 C 
ATOM      6  C   LIG d   1      -4.776  93.706 119.100  0.00  0.00     0.091 C 
ENDROOT
BRANCH   1   7
ATOM      7  O   LIG d   1      -2.660  93.305 117.931  0.00  0.00    -0.368 OA
BRANCH   7   8
ATOM      8  C   LIG d   1      -1.499  92.514 118.287  0.00  0.00     0.119 C 
BRANCH   8   9
ATOM      9  C   LIG d   1      -2.002  91.267 119.039  0.00  0.00     0.028 C 
ATOM     10  C   LIG d   1      -1.468  89.959 118.430  0.00  0.00     0.006 C 
ENDBRANCH   8   9
BRANCH   8  11
ATOM     11  C   LIG d   1      -0.604  93.255 119.284  0.00  0.00     0.028 C 
ATOM     12  C   LIG d   1      -0.086  94.595 118.738  0.00  0.00     0.006 C 
ENDBRANCH   8  11
ENDBRANCH   7   8
ENDBRANCH   1   7
BRANCH   6  13
ATOM     13  N   LIG d   1      -4.223  93.684 120.479  0.00  0.00    -0.311 N 
ATOM     14  C   LIG d   1      -3.501  94.676 120.996  0.00  0.00     0.210 C 
ATOM     15  C   LIG d   1      -3.012  94.442 122.429  0.00  0.00     0.109 C 
ATOM     16  O   LIG d   1      -3.246  95.742 120.416  0.00  0.00    -0.276 OA
ATOM     17  H   LIG d   1      -4.409  92.870 121.032  0.00  0.00     0.149 HD
ENDBRANCH   6  13
BRANCH   5  18
ATOM     18  N   LIG d   1      -7.122  94.340 119.769  0.00  0.00     0.381 N 
ATOM     19  H   LIG d   1      -7.043  95.234 119.327  0.00  0.00    -0.090 HD
ATOM     20  H   LIG d   1      -6.794  94.426 120.715  0.00  0.00    -0.090 HD
ATOM     21  H   LIG d   1      -8.072  94.042 119.765  0.00  0.00    -0.090 HD
ENDBRANCH   5  18
BRANCH   3  22
ATOM     22  C   LIG d   1      -6.527  91.881 115.702  0.00  0.00     0.382 C 
ATOM     23  O   LIG d   1      -7.166  90.813 115.864  0.00  0.00    -0.241 OA
ATOM     24  O   LIG d   1      -6.390  92.347 114.555  0.00  0.00    -0.241 OA
ENDBRANCH   3  22
TORSDOF 7
ENDMDL
MODEL 8
REMARK VINA RESULT:      -4.8     13.846     16.713
REMARK  7 active torsions:
REMARK  status: ('A' for Active; 'I' for Inactive)
REMARK    1  A    between atoms: C_2  and  C_3 
REMARK    2  A    between atoms: C_3  and  O_6 
REMARK    3  A    between atoms: C_3  and  C_4 
REMARK    4  A    between atoms: C_7  and  O_6 
REMARK    5  A    between atoms: C_9  and  C_10 
REMARK    6  A    between atoms: N_15  and  C_14 
REMARK    7  A    between atoms: N_20  and  C_19 
REMARK       I    between atoms: C_22  and  N_20 
ROOT
ATOM      1  C   LIG d   1      -4.609  93.633 119.110  0.00  0.00     0.161 C 
ATOM      2  C   LIG d   1      -4.243  92.673 118.152  0.00  0.00     0.016 C 
ATOM      3  C   LIG d   1      -5.123  92.198 117.152  0.00  0.00     0.038 C 
ATOM      4  C   LIG d   1      -6.389  92.766 116.947  0.00  0.00     0.028 C 
ATOM      5  C   LIG d   1      -6.986  93.385 118.207  0.00  0.00    -0.047 C 
ATOM      6  C   LIG d   1      -5.950  94.345 118.834  0.00  0.00     0.091 C 
ENDROOT
BRANCH   1   7
ATOM      7  O   LIG d   1      -3.551  94.600 119.262  0.00  0.00    -0.368 OA
BRANCH   7   8
ATOM      8  C   LIG d   1      -2.440  94.202 120.103  0.00  0.00     0.119 C 
BRANCH   8   9
ATOM      9  C   LIG d   1      -2.536  95.013 121.410  0.00  0.00     0.028 C 
ATOM     10  C   LIG d   1      -2.872  96.492 121.160  0.00  0.00     0.006 C 
ENDBRANCH   8   9
BRANCH   8  11
ATOM     11  C   LIG d   1      -1.099  94.597 119.478  0.00  0.00     0.028 C 
ATOM     12  C   LIG d   1      -1.240  95.098 118.032  0.00  0.00     0.006 C 
ENDBRANCH   8  11
ENDBRANCH   7   8
ENDBRANCH   1   7
BRANCH   6  13
ATOM     13  N   LIG d   1      -6.422  94.929 120.117  0.00  0.00    -0.311 N 
ATOM     14  C   LIG d   1      -7.025  96.113 120.206  0.00  0.00     0.210 C 
ATOM     15  C   LIG d   1      -7.413  96.536 121.626  0.00  0.00     0.109 C 
ATOM     16  O   LIG d   1      -7.304  96.839 119.239  0.00  0.00    -0.276 OA
ATOM     17  H   LIG d   1      -6.264  94.392 120.948  0.00  0.00     0.149 HD
ENDBRANCH   6  13
BRANCH   5  18
ATOM     18  N   LIG d   1      -8.240  94.059 117.821  0.00  0.00     0.381 N 
ATOM     19  H   LIG d   1      -8.915  93.965 118.554  0.00  0.00    -0.090 HD
ATOM     20  H   LIG d   1      -8.606  93.617 116.996  0.00  0.00    -0.090 HD
ATOM     21  H   LIG d   1      -8.067  95.023 117.641  0.00  0.00    -0.090 HD
ENDBRANCH   5  18
BRANCH   3  22
ATOM     22  C   LIG d   1      -4.752  91.116 116.368  0.00  0.00     0.382 C 
ATOM     23  O   LIG d   1      -5.528  90.691 115.478  0.00  0.00    -0.241 OA
ATOM     24  O   LIG d   1      -3.671  90.532 116.570  0.00  0.00    -0.241 OA
ENDBRANCH   3  22
TORSDOF 7
ENDMDL
MODEL 9
REMARK VINA RESULT:      -4.8      2.221      5.694
REMARK  7 active torsions:
REMARK  status: ('A' for Active; 'I' for Inactive)
REMARK    1  A    between atoms: C_2  and  C_3 
REMARK    2  A    between atoms: C_3  and  O_6 
REMARK    3  A    between atoms: C_3  and  C_4 
REMARK    4  A    between atoms: C_7  and  O_6 
REMARK    5  A    between atoms: C_9  and  C_10 
REMARK    6  A    between atoms: N_15  and  C_14 
REMARK    7  A    between atoms: N_20  and  C_19 
REMARK       I    between atoms: C_22  and  N_20 
ROOT
ATOM      1  C   LIG d   1      -8.208  79.766 118.217  0.00  0.00     0.161 C 
ATOM      2  C   LIG d   1      -8.186  78.540 117.531  0.00  0.00     0.016 C 
ATOM      3  C   LIG d   1      -7.012  77.977 116.980  0.00  0.00     0.038 C 
ATOM      4  C   LIG d   1      -5.745  78.533 117.211  0.00  0.00     0.028 C 
ATOM      5  C   LIG d   1      -5.780  80.036 117.468  0.00  0.00    -0.047 C 
ATOM      6  C   LIG d   1      -6.817  80.331 118.575  0.00  0.00     0.091 C 
ENDROOT
BRANCH   1   7
ATOM      7  O   LIG d   1      -9.021  79.649 119.402  0.00  0.00    -0.368 OA
BRANCH   7   8
ATOM      8  C   LIG d   1     -10.264  80.393 119.398  0.00  0.00     0.119 C 
BRANCH   8   9
ATOM      9  C   LIG d   1     -10.286  81.250 118.117  0.00  0.00     0.028 C 
ATOM     10  C   LIG d   1     -10.596  82.728 118.406  0.00  0.00     0.006 C 
ENDBRANCH   8   9
BRANCH   8  11
ATOM     11  C   LIG d   1     -10.318  81.393 120.556  0.00  0.00     0.028 C 
ATOM     12  C   LIG d   1      -9.278  81.098 121.648  0.00  0.00     0.006 C 
ENDBRANCH   8  11
ENDBRANCH   7   8
ENDBRANCH   1   7
BRANCH   6  13
ATOM     13  N   LIG d   1      -6.975  81.787 118.830  0.00  0.00    -0.311 N 
ATOM     14  C   LIG d   1      -6.311  82.442 119.781  0.00  0.00     0.210 C 
ATOM     15  C   LIG d   1      -6.637  83.935 119.886  0.00  0.00     0.109 C 
ATOM     16  O   LIG d   1      -5.459  81.934 120.525  0.00  0.00    -0.276 OA
ATOM     17  H   LIG d   1      -7.624  82.283 118.251  0.00  0.00     0.149 HD
ENDBRANCH   6  13
BRANCH   5  18
ATOM     18  N   LIG d   1      -4.413  80.458 117.829  0.00  0.00     0.381 N 
ATOM     19  H   LIG d   1      -4.368  80.661 118.807  0.00  0.00    -0.090 HD
ATOM     20  H   LIG d   1      -4.188  81.297 117.323  0.00  0.00    -0.090 HD
ATOM     21  H   LIG d   1      -3.763  79.739 117.601  0.00  0.00    -0.090 HD
ENDBRANCH   5  18
BRANCH   3  22
ATOM     22  C   LIG d   1      -7.104  76.867 116.155  0.00  0.00     0.382 C 
ATOM     23  O   LIG d   1      -7.596  75.799 116.593  0.00  0.00    -0.241 OA
ATOM     24  O   LIG d   1      -6.661  76.906 114.991  0.00  0.00    -0.241 OA
ENDBRANCH   3  22
TORSDOF 7
ENDMDL
