MODEL 1
REMARK VINA RESULT:      -6.5      0.000      0.000
REMARK  7 active torsions:
REMARK  status: ('A' for Active; 'I' for Inactive)
REMARK    1  A    between atoms: C_2  and  C_3 
REMARK    2  A    between atoms: C_3  and  O_6 
REMARK    3  A    between atoms: C_3  and  C_4 
REMARK    4  A    between atoms: C_7  and  O_6 
REMARK    5  A    between atoms: C_9  and  C_10 
REMARK    6  A    between atoms: N_15  and  C_14 
REMARK    7  A    between atoms: N_20  and  C_19 
REMARK       I    between atoms: C_22  and  N_20 
ROOT
ATOM      1  C   LIG d   1      -8.111  76.176 117.097  0.00  0.00     0.161 C 
ATOM      2  C   LIG d   1      -9.235  76.694 117.762  0.00  0.00     0.016 C 
ATOM      3  C   LIG d   1      -9.277  77.991 118.323  0.00  0.00     0.038 C 
ATOM      4  C   LIG d   1      -8.245  78.920 118.124  0.00  0.00     0.028 C 
ATOM      5  C   LIG d   1      -6.884  78.272 117.892  0.00  0.00    -0.047 C 
ATOM      6  C   LIG d   1      -7.016  77.214 116.773  0.00  0.00     0.091 C 
ENDROOT
BRANCH   1   7
ATOM      7  O   LIG d   1      -8.526  75.494 115.897  0.00  0.00    -0.368 OA
BRANCH   7   8
ATOM      8  C   LIG d   1      -8.514  74.046 115.951  0.00  0.00     0.119 C 
BRANCH   8   9
ATOM      9  C   LIG d   1      -9.755  73.602 116.749  0.00  0.00     0.028 C 
ATOM     10  C   LIG d   1      -9.669  72.135 117.201  0.00  0.00     0.006 C 
ENDBRANCH   8   9
BRANCH   8  11
ATOM     11  C   LIG d   1      -7.313  73.528 116.748  0.00  0.00     0.028 C 
ATOM     12  C   LIG d   1      -6.382  72.636 115.911  0.00  0.00     0.006 C 
ENDBRANCH   8  11
ENDBRANCH   7   8
ENDBRANCH   1   7
BRANCH   6  13
ATOM     13  N   LIG d   1      -5.749  76.473 116.540  0.00  0.00    -0.311 N 
ATOM     14  C   LIG d   1      -5.269  76.204 115.328  0.00  0.00     0.210 C 
ATOM     15  C   LIG d   1      -3.958  75.412 115.313  0.00  0.00     0.109 C 
ATOM     16  O   LIG d   1      -5.787  76.575 114.264  0.00  0.00    -0.276 OA
ATOM     17  H   LIG d   1      -5.248  76.162 117.349  0.00  0.00     0.149 HD
ENDBRANCH   6  13
BRANCH   5  18
ATOM     18  N   LIG d   1      -5.929  79.347 117.562  0.00  0.00     0.381 N 
ATOM     19  H   LIG d   1      -5.847  79.976 118.335  0.00  0.00    -0.090 HD
ATOM     20  H   LIG d   1      -6.278  79.860 116.772  0.00  0.00    -0.090 HD
ATOM     21  H   LIG d   1      -5.038  78.957 117.346  0.00  0.00    -0.090 HD
ENDBRANCH   5  18
BRANCH   3  22
ATOM     22  C   LIG d   1     -10.346  78.357 119.128  0.00  0.00     0.382 C 
ATOM     23  O   LIG d   1     -11.430  77.731 119.053  0.00  0.00    -0.241 OA
ATOM     24  O   LIG d   1     -10.253  79.334 119.896  0.00  0.00    -0.241 OA
ENDBRANCH   3  22
TORSDOF 7
ENDMDL
MODEL 2
REMARK VINA RESULT:      -6.4      1.263      2.036
REMARK  7 active torsions:
REMARK  status: ('A' for Active; 'I' for Inactive)
REMARK    1  A    between atoms: C_2  and  C_3 
REMARK    2  A    between atoms: C_3  and  O_6 
REMARK    3  A    between atoms: C_3  and  C_4 
REMARK    4  A    between atoms: C_7  and  O_6 
REMARK    5  A    between atoms: C_9  and  C_10 
REMARK    6  A    between atoms: N_15  and  C_14 
REMARK    7  A    between atoms: N_20  and  C_19 
REMARK       I    between atoms: C_22  and  N_20 
ROOT
ATOM      1  C   LIG d   1      -7.569  76.687 117.575  0.00  0.00     0.161 C 
ATOM      2  C   LIG d   1      -8.823  77.184 117.965  0.00  0.00     0.016 C 
ATOM      3  C   LIG d   1      -9.054  78.539 118.298  0.00  0.00     0.038 C 
ATOM      4  C   LIG d   1      -8.072  79.524 118.116  0.00  0.00     0.028 C 
ATOM      5  C   LIG d   1      -6.648  78.985 118.206  0.00  0.00    -0.047 C 
ATOM      6  C   LIG d   1      -6.513  77.767 117.263  0.00  0.00     0.091 C 
ENDROOT
BRANCH   1   7
ATOM      7  O   LIG d   1      -7.724  75.799 116.450  0.00  0.00    -0.368 OA
BRANCH   7   8
ATOM      8  C   LIG d   1      -7.822  74.387 116.761  0.00  0.00     0.119 C 
BRANCH   8   9
ATOM      9  C   LIG d   1      -6.927  73.630 115.760  0.00  0.00     0.028 C 
ATOM     10  C   LIG d   1      -6.018  74.573 114.955  0.00  0.00     0.006 C 
ENDBRANCH   8   9
BRANCH   8  11
ATOM     11  C   LIG d   1      -9.239  73.860 116.518  0.00  0.00     0.028 C 
ATOM     12  C   LIG d   1      -9.399  72.381 116.905  0.00  0.00     0.006 C 
ENDBRANCH   8  11
ENDBRANCH   7   8
ENDBRANCH   1   7
BRANCH   6  13
ATOM     13  N   LIG d   1      -5.174  77.127 117.354  0.00  0.00    -0.311 N 
ATOM     14  C   LIG d   1      -4.144  77.470 116.581  0.00  0.00     0.210 C 
ATOM     15  C   LIG d   1      -2.860  76.670 116.824  0.00  0.00     0.109 C 
ATOM     16  O   LIG d   1      -4.163  78.381 115.740  0.00  0.00    -0.276 OA
ATOM     17  H   LIG d   1      -5.062  76.399 118.031  0.00  0.00     0.149 HD
ENDBRANCH   6  13
BRANCH   5  18
ATOM     18  N   LIG d   1      -5.731  80.088 117.861  0.00  0.00     0.381 N 
ATOM     19  H   LIG d   1      -4.987  80.131 118.529  0.00  0.00    -0.090 HD
ATOM     20  H   LIG d   1      -6.238  80.955 117.897  0.00  0.00    -0.090 HD
ATOM     21  H   LIG d   1      -5.359  79.949 116.948  0.00  0.00    -0.090 HD
ENDBRANCH   5  18
BRANCH   3  22
ATOM     22  C   LIG d   1     -10.266  78.913 118.857  0.00  0.00     0.382 C 
ATOM     23  O   LIG d   1     -10.450  80.100 119.219  0.00  0.00    -0.241 OA
ATOM     24  O   LIG d   1     -11.162  78.068 119.044  0.00  0.00    -0.241 OA
ENDBRANCH   3  22
TORSDOF 7
ENDMDL
MODEL 3
REMARK VINA RESULT:      -6.2      1.932      5.032
REMARK  7 active torsions:
REMARK  status: ('A' for Active; 'I' for Inactive)
REMARK    1  A    between atoms: C_2  and  C_3 
REMARK    2  A    between atoms: C_3  and  O_6 
REMARK    3  A    between atoms: C_3  and  C_4 
REMARK    4  A    between atoms: C_7  and  O_6 
REMARK    5  A    between atoms: C_9  and  C_10 
REMARK    6  A    between atoms: N_15  and  C_14 
REMARK    7  A    between atoms: N_20  and  C_19 
REMARK       I    between atoms: C_22  and  N_20 
ROOT
ATOM      1  C   LIG d   1      -6.986  76.816 116.618  0.00  0.00     0.161 C 
ATOM      2  C   LIG d   1      -6.013  76.148 115.856  0.00  0.00     0.016 C 
ATOM      3  C   LIG d   1      -4.654  76.536 115.814  0.00  0.00     0.038 C 
ATOM      4  C   LIG d   1      -4.143  77.535 116.656  0.00  0.00     0.028 C 
ATOM      5  C   LIG d   1      -5.184  78.571 117.069  0.00  0.00    -0.047 C 
ATOM      6  C   LIG d   1      -6.425  77.839 117.628  0.00  0.00     0.091 C 
ENDROOT
BRANCH   1   7
ATOM      7  O   LIG d   1      -7.825  75.856 117.290  0.00  0.00    -0.368 OA
BRANCH   7   8
ATOM      8  C   LIG d   1      -8.714  75.085 116.445  0.00  0.00     0.119 C 
BRANCH   8   9
ATOM      9  C   LIG d   1     -10.120  75.152 117.071  0.00  0.00     0.028 C 
ATOM     10  C   LIG d   1     -10.305  76.387 117.969  0.00  0.00     0.006 C 
ENDBRANCH   8   9
BRANCH   8  11
ATOM     11  C   LIG d   1      -8.338  73.600 116.450  0.00  0.00     0.028 C 
ATOM     12  C   LIG d   1      -9.545  72.681 116.698  0.00  0.00     0.006 C 
ENDBRANCH   8  11
ENDBRANCH   7   8
ENDBRANCH   1   7
BRANCH   6  13
ATOM     13  N   LIG d   1      -7.525  78.775 117.978  0.00  0.00    -0.311 N 
ATOM     14  C   LIG d   1      -7.656  79.338 119.178  0.00  0.00     0.210 C 
ATOM     15  C   LIG d   1      -8.872  80.256 119.333  0.00  0.00     0.109 C 
ATOM     16  O   LIG d   1      -6.862  79.188 120.119  0.00  0.00    -0.276 OA
ATOM     17  H   LIG d   1      -8.197  78.977 117.263  0.00  0.00     0.149 HD
ENDBRANCH   6  13
BRANCH   5  18
ATOM     18  N   LIG d   1      -4.551  79.471 118.052  0.00  0.00     0.381 N 
ATOM     19  H   LIG d   1      -4.135  80.249 117.581  0.00  0.00    -0.090 HD
ATOM     20  H   LIG d   1      -3.825  78.969 118.533  0.00  0.00    -0.090 HD
ATOM     21  H   LIG d   1      -5.231  79.793 118.705  0.00  0.00    -0.090 HD
ENDBRANCH   5  18
BRANCH   3  22
ATOM     22  C   LIG d   1      -3.799  75.950 114.894  0.00  0.00     0.382 C 
ATOM     23  O   LIG d   1      -3.765  76.371 113.713  0.00  0.00    -0.241 OA
ATOM     24  O   LIG d   1      -3.095  74.975 115.218  0.00  0.00    -0.241 OA
ENDBRANCH   3  22
TORSDOF 7
ENDMDL
MODEL 4
REMARK VINA RESULT:      -5.8      2.617      6.061
REMARK  7 active torsions:
REMARK  status: ('A' for Active; 'I' for Inactive)
REMARK    1  A    between atoms: C_2  and  C_3 
REMARK    2  A    between atoms: C_3  and  O_6 
REMARK    3  A    between atoms: C_3  and  C_4 
REMARK    4  A    between atoms: C_7  and  O_6 
REMARK    5  A    between atoms: C_9  and  C_10 
REMARK    6  A    between atoms: N_15  and  C_14 
REMARK    7  A    between atoms: N_20  and  C_19 
REMARK       I    between atoms: C_22  and  N_20 
ROOT
ATOM      1  C   LIG d   1      -8.075  77.595 117.905  0.00  0.00     0.161 C 
ATOM      2  C   LIG d   1      -7.871  76.406 117.184  0.00  0.00     0.016 C 
ATOM      3  C   LIG d   1      -8.890  75.454 116.949  0.00  0.00     0.038 C 
ATOM      4  C   LIG d   1     -10.228  75.700 117.292  0.00  0.00     0.028 C 
ATOM      5  C   LIG d   1     -10.386  76.659 118.467  0.00  0.00    -0.047 C 
ATOM      6  C   LIG d   1      -9.554  77.932 118.191  0.00  0.00     0.091 C 
ENDROOT
BRANCH   1   7
ATOM      7  O   LIG d   1      -7.432  78.693 117.228  0.00  0.00    -0.368 OA
BRANCH   7   8
ATOM      8  C   LIG d   1      -6.352  79.339 117.946  0.00  0.00     0.119 C 
BRANCH   8   9
ATOM      9  C   LIG d   1      -6.600  80.859 117.885  0.00  0.00     0.028 C 
ATOM     10  C   LIG d   1      -6.296  81.557 119.221  0.00  0.00     0.006 C 
ENDBRANCH   8   9
BRANCH   8  11
ATOM     11  C   LIG d   1      -5.008  79.119 117.245  0.00  0.00     0.028 C 
ATOM     12  C   LIG d   1      -4.111  78.111 117.981  0.00  0.00     0.006 C 
ENDBRANCH   8  11
ENDBRANCH   7   8
ENDBRANCH   1   7
BRANCH   6  13
ATOM     13  N   LIG d   1      -9.585  78.888 119.329  0.00  0.00    -0.311 N 
ATOM     14  C   LIG d   1     -10.026  80.140 119.222  0.00  0.00     0.210 C 
ATOM     15  C   LIG d   1      -9.953  80.963 120.513  0.00  0.00     0.109 C 
ATOM     16  O   LIG d   1     -10.500  80.638 118.190  0.00  0.00    -0.276 OA
ATOM     17  H   LIG d   1      -9.247  78.557 120.211  0.00  0.00     0.149 HD
ENDBRANCH   6  13
BRANCH   5  18
ATOM     18  N   LIG d   1     -11.826  76.933 118.628  0.00  0.00     0.381 N 
ATOM     19  H   LIG d   1     -12.225  77.181 117.744  0.00  0.00    -0.090 HD
ATOM     20  H   LIG d   1     -11.941  77.711 119.254  0.00  0.00    -0.090 HD
ATOM     21  H   LIG d   1     -12.287  76.130 118.995  0.00  0.00    -0.090 HD
ENDBRANCH   5  18
BRANCH   3  22
ATOM     22  C   LIG d   1      -8.566  74.223 116.399  0.00  0.00     0.382 C 
ATOM     23  O   LIG d   1      -7.468  74.067 115.814  0.00  0.00    -0.241 OA
ATOM     24  O   LIG d   1      -9.378  73.279 116.443  0.00  0.00    -0.241 OA
ENDBRANCH   3  22
TORSDOF 7
ENDMDL
MODEL 5
REMARK VINA RESULT:      -5.8      1.476      2.274
REMARK  7 active torsions:
REMARK  status: ('A' for Active; 'I' for Inactive)
REMARK    1  A    between atoms: C_2  and  C_3 
REMARK    2  A    between atoms: C_3  and  O_6 
REMARK    3  A    between atoms: C_3  and  C_4 
REMARK    4  A    between atoms: C_7  and  O_6 
REMARK    5  A    between atoms: C_9  and  C_10 
REMARK    6  A    between atoms: N_15  and  C_14 
REMARK    7  A    between atoms: N_20  and  C_19 
REMARK       I    between atoms: C_22  and  N_20 
ROOT
ATOM      1  C   LIG d   1      -7.079  77.103 117.382  0.00  0.00     0.161 C 
ATOM      2  C   LIG d   1      -7.939  78.024 118.002  0.00  0.00     0.016 C 
ATOM      3  C   LIG d   1      -7.582  79.367 118.265  0.00  0.00     0.038 C 
ATOM      4  C   LIG d   1      -6.387  79.924 117.785  0.00  0.00     0.028 C 
ATOM      5  C   LIG d   1      -5.274  78.899 117.596  0.00  0.00    -0.047 C 
ATOM      6  C   LIG d   1      -5.814  77.722 116.752  0.00  0.00     0.091 C 
ENDROOT
BRANCH   1   7
ATOM      7  O   LIG d   1      -7.807  76.340 116.399  0.00  0.00    -0.368 OA
BRANCH   7   8
ATOM      8  C   LIG d   1      -8.131  74.976 116.762  0.00  0.00     0.119 C 
BRANCH   8   9
ATOM      9  C   LIG d   1      -7.433  74.048 115.749  0.00  0.00     0.028 C 
ATOM     10  C   LIG d   1      -6.945  72.739 116.392  0.00  0.00     0.006 C 
ENDBRANCH   8   9
BRANCH   8  11
ATOM     11  C   LIG d   1      -9.628  74.698 116.602  0.00  0.00     0.028 C 
ATOM     12  C   LIG d   1     -10.501  75.611 117.477  0.00  0.00     0.006 C 
ENDBRANCH   8  11
ENDBRANCH   7   8
ENDBRANCH   1   7
BRANCH   6  13
ATOM     13  N   LIG d   1      -4.813  76.635 116.590  0.00  0.00    -0.311 N 
ATOM     14  C   LIG d   1      -4.377  76.210 115.406  0.00  0.00     0.210 C 
ATOM     15  C   LIG d   1      -3.361  75.065 115.464  0.00  0.00     0.109 C 
ATOM     16  O   LIG d   1      -4.711  76.693 114.314  0.00  0.00    -0.276 OA
ATOM     17  H   LIG d   1      -4.465  76.207 117.426  0.00  0.00     0.149 HD
ENDBRANCH   6  13
BRANCH   5  18
ATOM     18  N   LIG d   1      -4.135  79.590 116.963  0.00  0.00     0.381 N 
ATOM     19  H   LIG d   1      -4.447  80.443 116.543  0.00  0.00    -0.090 HD
ATOM     20  H   LIG d   1      -3.759  79.002 116.240  0.00  0.00    -0.090 HD
ATOM     21  H   LIG d   1      -3.433  79.784 117.643  0.00  0.00    -0.090 HD
ENDBRANCH   5  18
BRANCH   3  22
ATOM     22  C   LIG d   1      -8.408  80.156 119.050  0.00  0.00     0.382 C 
ATOM     23  O   LIG d   1      -9.574  79.774 119.315  0.00  0.00    -0.241 OA
ATOM     24  O   LIG d   1      -8.019  81.266 119.460  0.00  0.00    -0.241 OA
ENDBRANCH   3  22
TORSDOF 7
ENDMDL
MODEL 6
REMARK VINA RESULT:      -5.7      1.895      3.241
REMARK  7 active torsions:
REMARK  status: ('A' for Active; 'I' for Inactive)
REMARK    1  A    between atoms: C_2  and  C_3 
REMARK    2  A    between atoms: C_3  and  O_6 
REMARK    3  A    between atoms: C_3  and  C_4 
REMARK    4  A    between atoms: C_7  and  O_6 
REMARK    5  A    between atoms: C_9  and  C_10 
REMARK    6  A    between atoms: N_15  and  C_14 
REMARK    7  A    between atoms: N_20  and  C_19 
REMARK       I    between atoms: C_22  and  N_20 
ROOT
ATOM      1  C   LIG d   1      -6.391  77.247 117.190  0.00  0.00     0.161 C 
ATOM      2  C   LIG d   1      -7.773  77.074 117.377  0.00  0.00     0.016 C 
ATOM      3  C   LIG d   1      -8.598  78.031 118.011  0.00  0.00     0.038 C 
ATOM      4  C   LIG d   1      -8.121  79.301 118.369  0.00  0.00     0.028 C 
ATOM      5  C   LIG d   1      -6.623  79.326 118.657  0.00  0.00    -0.047 C 
ATOM      6  C   LIG d   1      -5.874  78.672 117.474  0.00  0.00     0.091 C 
ENDROOT
BRANCH   1   7
ATOM      7  O   LIG d   1      -6.024  76.836 115.858  0.00  0.00    -0.368 OA
BRANCH   7   8
ATOM      8  C   LIG d   1      -5.345  75.561 115.749  0.00  0.00     0.119 C 
BRANCH   8   9
ATOM      9  C   LIG d   1      -4.088  75.777 114.884  0.00  0.00     0.028 C 
ATOM     10  C   LIG d   1      -2.794  75.398 115.622  0.00  0.00     0.006 C 
ENDBRANCH   8   9
BRANCH   8  11
ATOM     11  C   LIG d   1      -6.194  74.541 114.983  0.00  0.00     0.028 C 
ATOM     12  C   LIG d   1      -6.892  73.532 115.909  0.00  0.00     0.006 C 
ENDBRANCH   8  11
ENDBRANCH   7   8
ENDBRANCH   1   7
BRANCH   6  13
ATOM     13  N   LIG d   1      -4.410  78.580 117.712  0.00  0.00    -0.311 N 
ATOM     14  C   LIG d   1      -3.496  78.906 116.799  0.00  0.00     0.210 C 
ATOM     15  C   LIG d   1      -2.042  78.718 117.243  0.00  0.00     0.109 C 
ATOM     16  O   LIG d   1      -3.752  79.364 115.675  0.00  0.00    -0.276 OA
ATOM     17  H   LIG d   1      -4.113  78.247 118.609  0.00  0.00     0.149 HD
ENDBRANCH   6  13
BRANCH   5  18
ATOM     18  N   LIG d   1      -6.236  80.731 118.881  0.00  0.00     0.381 N 
ATOM     19  H   LIG d   1      -5.240  80.819 118.843  0.00  0.00    -0.090 HD
ATOM     20  H   LIG d   1      -6.542  81.010 119.797  0.00  0.00    -0.090 HD
ATOM     21  H   LIG d   1      -6.655  81.315 118.191  0.00  0.00    -0.090 HD
ENDBRANCH   5  18
BRANCH   3  22
ATOM     22  C   LIG d   1      -9.908  77.706 118.330  0.00  0.00     0.382 C 
ATOM     23  O   LIG d   1     -10.681  78.586 118.779  0.00  0.00    -0.241 OA
ATOM     24  O   LIG d   1     -10.313  76.534 118.216  0.00  0.00    -0.241 OA
ENDBRANCH   3  22
TORSDOF 7
ENDMDL
MODEL 7
REMARK VINA RESULT:      -5.4      2.210      5.009
REMARK  7 active torsions:
REMARK  status: ('A' for Active; 'I' for Inactive)
REMARK    1  A    between atoms: C_2  and  C_3 
REMARK    2  A    between atoms: C_3  and  O_6 
REMARK    3  A    between atoms: C_3  and  C_4 
REMARK    4  A    between atoms: C_7  and  O_6 
REMARK    5  A    between atoms: C_9  and  C_10 
REMARK    6  A    between atoms: N_15  and  C_14 
REMARK    7  A    between atoms: N_20  and  C_19 
REMARK       I    between atoms: C_22  and  N_20 
ROOT
ATOM      1  C   LIG d   1      -6.685  76.936 116.584  0.00  0.00     0.161 C 
ATOM      2  C   LIG d   1      -7.924  76.363 116.916  0.00  0.00     0.016 C 
ATOM      3  C   LIG d   1      -8.296  75.048 116.551  0.00  0.00     0.038 C 
ATOM      4  C   LIG d   1      -7.388  74.159 115.956  0.00  0.00     0.028 C 
ATOM      5  C   LIG d   1      -6.297  74.856 115.151  0.00  0.00    -0.047 C 
ATOM      6  C   LIG d   1      -5.640  75.944 116.032  0.00  0.00     0.091 C 
ENDROOT
BRANCH   1   7
ATOM      7  O   LIG d   1      -6.153  77.642 117.722  0.00  0.00    -0.368 OA
BRANCH   7   8
ATOM      8  C   LIG d   1      -6.246  79.087 117.676  0.00  0.00     0.119 C 
BRANCH   8   9
ATOM      9  C   LIG d   1      -4.840  79.651 117.960  0.00  0.00     0.028 C 
ATOM     10  C   LIG d   1      -3.843  78.557 118.379  0.00  0.00     0.006 C 
ENDBRANCH   8   9
BRANCH   8  11
ATOM     11  C   LIG d   1      -7.133  79.625 118.803  0.00  0.00     0.028 C 
ATOM     12  C   LIG d   1      -8.577  79.892 118.349  0.00  0.00     0.006 C 
ENDBRANCH   8  11
ENDBRANCH   7   8
ENDBRANCH   1   7
BRANCH   6  13
ATOM     13  N   LIG d   1      -4.618  76.731 115.294  0.00  0.00    -0.311 N 
ATOM     14  C   LIG d   1      -3.321  76.428 115.292  0.00  0.00     0.210 C 
ATOM     15  C   LIG d   1      -2.437  77.382 114.482  0.00  0.00     0.109 C 
ATOM     16  O   LIG d   1      -2.824  75.443 115.856  0.00  0.00    -0.276 OA
ATOM     17  H   LIG d   1      -4.939  77.530 114.783  0.00  0.00     0.149 HD
ENDBRANCH   6  13
BRANCH   5  18
ATOM     18  N   LIG d   1      -5.345  73.823 114.703  0.00  0.00     0.381 N 
ATOM     19  H   LIG d   1      -5.198  73.157 115.435  0.00  0.00    -0.090 HD
ATOM     20  H   LIG d   1      -4.465  74.260 114.493  0.00  0.00    -0.090 HD
ATOM     21  H   LIG d   1      -5.697  73.363 113.892  0.00  0.00    -0.090 HD
ENDBRANCH   5  18
BRANCH   3  22
ATOM     22  C   LIG d   1      -9.602  74.624 116.746  0.00  0.00     0.382 C 
ATOM     23  O   LIG d   1     -10.468  75.433 117.158  0.00  0.00    -0.241 OA
ATOM     24  O   LIG d   1      -9.914  73.434 116.557  0.00  0.00    -0.241 OA
ENDBRANCH   3  22
TORSDOF 7
ENDMDL
MODEL 8
REMARK VINA RESULT:      -5.3      2.362      5.188
REMARK  7 active torsions:
REMARK  status: ('A' for Active; 'I' for Inactive)
REMARK    1  A    between atoms: C_2  and  C_3 
REMARK    2  A    between atoms: C_3  and  O_6 
REMARK    3  A    between atoms: C_3  and  C_4 
REMARK    4  A    between atoms: C_7  and  O_6 
REMARK    5  A    between atoms: C_9  and  C_10 
REMARK    6  A    between atoms: N_15  and  C_14 
REMARK    7  A    between atoms: N_20  and  C_19 
REMARK       I    between atoms: C_22  and  N_20 
ROOT
ATOM      1  C   LIG d   1      -6.437  77.266 117.239  0.00  0.00     0.161 C 
ATOM      2  C   LIG d   1      -7.000  76.077 116.746  0.00  0.00     0.016 C 
ATOM      3  C   LIG d   1      -8.367  75.746 116.890  0.00  0.00     0.038 C 
ATOM      4  C   LIG d   1      -9.300  76.656 117.407  0.00  0.00     0.028 C 
ATOM      5  C   LIG d   1      -8.691  77.664 118.375  0.00  0.00    -0.047 C 
ATOM      6  C   LIG d   1      -7.461  78.321 117.707  0.00  0.00     0.091 C 
ENDROOT
BRANCH   1   7
ATOM      7  O   LIG d   1      -5.550  77.832 116.253  0.00  0.00    -0.368 OA
BRANCH   7   8
ATOM      8  C   LIG d   1      -4.137  77.579 116.448  0.00  0.00     0.119 C 
BRANCH   8   9
ATOM      9  C   LIG d   1      -3.422  78.944 116.469  0.00  0.00     0.028 C 
ATOM     10  C   LIG d   1      -2.425  79.103 115.308  0.00  0.00     0.006 C 
ENDBRANCH   8   9
BRANCH   8  11
ATOM     11  C   LIG d   1      -3.537  76.826 115.257  0.00  0.00     0.028 C 
ATOM     12  C   LIG d   1      -3.098  75.397 115.616  0.00  0.00     0.006 C 
ENDBRANCH   8  11
ENDBRANCH   7   8
ENDBRANCH   1   7
BRANCH   6  13
ATOM     13  N   LIG d   1      -6.755  79.260 118.618  0.00  0.00    -0.311 N 
ATOM     14  C   LIG d   1      -6.478  80.523 118.298  0.00  0.00     0.210 C 
ATOM     15  C   LIG d   1      -5.726  81.312 119.373  0.00  0.00     0.109 C 
ATOM     16  O   LIG d   1      -6.812  81.073 117.237  0.00  0.00    -0.276 OA
ATOM     17  H   LIG d   1      -6.476  78.905 119.511  0.00  0.00     0.149 HD
ENDBRANCH   6  13
BRANCH   5  18
ATOM     18  N   LIG d   1      -9.744  78.635 118.729  0.00  0.00     0.381 N 
ATOM     19  H   LIG d   1      -9.693  79.427 118.120  0.00  0.00    -0.090 HD
ATOM     20  H   LIG d   1      -9.591  78.951 119.670  0.00  0.00    -0.090 HD
ATOM     21  H   LIG d   1     -10.640  78.207 118.656  0.00  0.00    -0.090 HD
ENDBRANCH   5  18
BRANCH   3  22
ATOM     22  C   LIG d   1      -8.805  74.475 116.550  0.00  0.00     0.382 C 
ATOM     23  O   LIG d   1      -8.018  73.666 116.002  0.00  0.00    -0.241 OA
ATOM     24  O   LIG d   1      -9.989  74.142 116.744  0.00  0.00    -0.241 OA
ENDBRANCH   3  22
TORSDOF 7
ENDMDL
MODEL 9
REMARK VINA RESULT:      -5.3      2.860      5.970
REMARK  7 active torsions:
REMARK  status: ('A' for Active; 'I' for Inactive)
REMARK    1  A    between atoms: C_2  and  C_3 
REMARK    2  A    between atoms: C_3  and  O_6 
REMARK    3  A    between atoms: C_3  and  C_4 
REMARK    4  A    between atoms: C_7  and  O_6 
REMARK    5  A    between atoms: C_9  and  C_10 
REMARK    6  A    between atoms: N_15  and  C_14 
REMARK    7  A    between atoms: N_20  and  C_19 
REMARK       I    between atoms: C_22  and  N_20 
ROOT
ATOM      1  C   LIG d   1      -4.640  76.552 116.126  0.00  0.00     0.161 C 
ATOM      2  C   LIG d   1      -3.687  75.585 115.767  0.00  0.00     0.016 C 
ATOM      3  C   LIG d   1      -2.322  75.665 116.129  0.00  0.00     0.038 C 
ATOM      4  C   LIG d   1      -1.846  76.648 117.010  0.00  0.00     0.028 C 
ATOM      5  C   LIG d   1      -2.670  77.931 116.990  0.00  0.00    -0.047 C 
ATOM      6  C   LIG d   1      -4.162  77.572 117.180  0.00  0.00     0.091 C 
ENDROOT
BRANCH   1   7
ATOM      7  O   LIG d   1      -5.850  75.904 116.569  0.00  0.00    -0.368 OA
BRANCH   7   8
ATOM      8  C   LIG d   1      -6.721  75.401 115.527  0.00  0.00     0.119 C 
BRANCH   8   9
ATOM      9  C   LIG d   1      -8.169  75.737 115.932  0.00  0.00     0.028 C 
ATOM     10  C   LIG d   1      -8.238  76.609 117.197  0.00  0.00     0.006 C 
ENDBRANCH   8   9
BRANCH   8  11
ATOM     11  C   LIG d   1      -6.667  73.872 115.445  0.00  0.00     0.028 C 
ATOM     12  C   LIG d   1      -7.307  73.188 116.663  0.00  0.00     0.006 C 
ENDBRANCH   8  11
ENDBRANCH   7   8
ENDBRANCH   1   7
BRANCH   6  13
ATOM     13  N   LIG d   1      -5.047  78.762 117.088  0.00  0.00    -0.311 N 
ATOM     14  C   LIG d   1      -5.436  79.470 118.148  0.00  0.00     0.210 C 
ATOM     15  C   LIG d   1      -6.365  80.647 117.833  0.00  0.00     0.109 C 
ATOM     16  O   LIG d   1      -5.075  79.253 119.314  0.00  0.00    -0.276 OA
ATOM     17  H   LIG d   1      -5.362  79.027 116.176  0.00  0.00     0.149 HD
ENDBRANCH   6  13
BRANCH   5  18
ATOM     18  N   LIG d   1      -2.148  78.813 118.050  0.00  0.00     0.381 N 
ATOM     19  H   LIG d   1      -2.854  78.966 118.742  0.00  0.00    -0.090 HD
ATOM     20  H   LIG d   1      -1.905  79.700 117.645  0.00  0.00    -0.090 HD
ATOM     21  H   LIG d   1      -1.344  78.401 118.471  0.00  0.00    -0.090 HD
ENDBRANCH   5  18
BRANCH   3  22
ATOM     22  C   LIG d   1      -1.411  74.778 115.577  0.00  0.00     0.382 C 
ATOM     23  O   LIG d   1      -1.165  73.692 116.153  0.00  0.00    -0.241 OA
ATOM     24  O   LIG d   1      -0.799  75.071 114.532  0.00  0.00    -0.241 OA
ENDBRANCH   3  22
TORSDOF 7
ENDMDL
