MODEL 1
REMARK VINA RESULT:      -5.6      0.000      0.000
REMARK  7 active torsions:
REMARK  status: ('A' for Active; 'I' for Inactive)
REMARK    1  A    between atoms: C_2  and  C_3 
REMARK    2  A    between atoms: C_3  and  O_6 
REMARK    3  A    between atoms: C_3  and  C_4 
REMARK    4  A    between atoms: C_7  and  O_6 
REMARK    5  A    between atoms: C_9  and  C_10 
REMARK    6  A    between atoms: N_15  and  C_14 
REMARK    7  A    between atoms: N_20  and  C_19 
REMARK       I    between atoms: C_22  and  N_20 
ROOT
ATOM      1  C   LIG d   1      -7.630  76.463 117.561  0.00  0.00     0.161 C 
ATOM      2  C   LIG d   1      -8.721  77.258 117.949  0.00  0.00     0.016 C 
ATOM      3  C   LIG d   1      -8.699  78.672 117.932  0.00  0.00     0.038 C 
ATOM      4  C   LIG d   1      -7.628  79.390 117.378  0.00  0.00     0.028 C 
ATOM      5  C   LIG d   1      -6.301  78.642 117.441  0.00  0.00    -0.047 C 
ATOM      6  C   LIG d   1      -6.494  77.227 116.849  0.00  0.00     0.091 C 
ENDROOT
BRANCH   1   7
ATOM      7  O   LIG d   1      -8.089  75.370 116.741  0.00  0.00    -0.368 OA
BRANCH   7   8
ATOM      8  C   LIG d   1      -7.979  74.047 117.321  0.00  0.00     0.119 C 
BRANCH   8   9
ATOM      9  C   LIG d   1      -6.962  73.255 116.477  0.00  0.00     0.028 C 
ATOM     10  C   LIG d   1      -7.412  71.806 116.224  0.00  0.00     0.006 C 
ENDBRANCH   8   9
BRANCH   8  11
ATOM     11  C   LIG d   1      -9.295  73.274 117.202  0.00  0.00     0.028 C 
ATOM     12  C   LIG d   1     -10.484  74.175 116.830  0.00  0.00     0.006 C 
ENDBRANCH   8  11
ENDBRANCH   7   8
ENDBRANCH   1   7
BRANCH   6  13
ATOM     13  N   LIG d   1      -5.264  76.398 116.949  0.00  0.00    -0.311 N 
ATOM     14  C   LIG d   1      -4.363  76.303 115.973  0.00  0.00     0.210 C 
ATOM     15  C   LIG d   1      -3.179  75.379 116.274  0.00  0.00     0.109 C 
ATOM     16  O   LIG d   1      -4.415  76.922 114.899  0.00  0.00    -0.276 OA
ATOM     17  H   LIG d   1      -5.126  75.887 117.799  0.00  0.00     0.149 HD
ENDBRANCH   6  13
BRANCH   5  18
ATOM     18  N   LIG d   1      -5.302  79.443 116.708  0.00  0.00     0.381 N 
ATOM     19  H   LIG d   1      -4.504  79.603 117.289  0.00  0.00    -0.090 HD
ATOM     20  H   LIG d   1      -5.707  80.334 116.477  0.00  0.00    -0.090 HD
ATOM     21  H   LIG d   1      -5.028  78.969 115.876  0.00  0.00    -0.090 HD
ENDBRANCH   5  18
BRANCH   3  22
ATOM     22  C   LIG d   1      -9.740  79.383 118.509  0.00  0.00     0.382 C 
ATOM     23  O   LIG d   1     -10.205  79.024 119.618  0.00  0.00    -0.241 OA
ATOM     24  O   LIG d   1     -10.250  80.351 117.915  0.00  0.00    -0.241 OA
ENDBRANCH   3  22
TORSDOF 7
ENDMDL
MODEL 2
REMARK VINA RESULT:      -5.5     13.570     15.428
REMARK  7 active torsions:
REMARK  status: ('A' for Active; 'I' for Inactive)
REMARK    1  A    between atoms: C_2  and  C_3 
REMARK    2  A    between atoms: C_3  and  O_6 
REMARK    3  A    between atoms: C_3  and  C_4 
REMARK    4  A    between atoms: C_7  and  O_6 
REMARK    5  A    between atoms: C_9  and  C_10 
REMARK    6  A    between atoms: N_15  and  C_14 
REMARK    7  A    between atoms: N_20  and  C_19 
REMARK       I    between atoms: C_22  and  N_20 
ROOT
ATOM      1  C   LIG d   1      -3.578  90.196 118.224  0.00  0.00     0.161 C 
ATOM      2  C   LIG d   1      -3.886  89.708 116.943  0.00  0.00     0.016 C 
ATOM      3  C   LIG d   1      -5.097  89.994 116.272  0.00  0.00     0.038 C 
ATOM      4  C   LIG d   1      -6.025  90.916 116.777  0.00  0.00     0.028 C 
ATOM      5  C   LIG d   1      -5.988  91.042 118.296  0.00  0.00    -0.047 C 
ATOM      6  C   LIG d   1      -4.530  91.294 118.744  0.00  0.00     0.091 C 
ENDROOT
BRANCH   1   7
ATOM      7  O   LIG d   1      -2.214  90.660 118.256  0.00  0.00    -0.368 OA
BRANCH   7   8
ATOM      8  C   LIG d   1      -1.198  89.641 118.422  0.00  0.00     0.119 C 
BRANCH   8   9
ATOM      9  C   LIG d   1      -0.592  89.816 119.828  0.00  0.00     0.028 C 
ATOM     10  C   LIG d   1      -0.409  91.296 120.208  0.00  0.00     0.006 C 
ENDBRANCH   8   9
BRANCH   8  11
ATOM     11  C   LIG d   1      -0.033  89.851 117.450  0.00  0.00     0.028 C 
ATOM     12  C   LIG d   1       1.075  88.799 117.612  0.00  0.00     0.006 C 
ENDBRANCH   8  11
ENDBRANCH   7   8
ENDBRANCH   1   7
BRANCH   6  13
ATOM     13  N   LIG d   1      -4.392  91.346 120.223  0.00  0.00    -0.311 N 
ATOM     14  C   LIG d   1      -3.853  92.376 120.873  0.00  0.00     0.210 C 
ATOM     15  C   LIG d   1      -3.789  92.218 122.395  0.00  0.00     0.109 C 
ATOM     16  O   LIG d   1      -3.452  93.420 120.336  0.00  0.00    -0.276 OA
ATOM     17  H   LIG d   1      -4.720  90.554 120.740  0.00  0.00     0.149 HD
ENDBRANCH   6  13
BRANCH   5  18
ATOM     18  N   LIG d   1      -6.906  92.134 118.675  0.00  0.00     0.381 N 
ATOM     19  H   LIG d   1      -6.693  92.448 119.601  0.00  0.00    -0.090 HD
ATOM     20  H   LIG d   1      -7.847  91.783 118.670  0.00  0.00    -0.090 HD
ATOM     21  H   LIG d   1      -6.821  92.889 118.032  0.00  0.00    -0.090 HD
ENDBRANCH   5  18
BRANCH   3  22
ATOM     22  C   LIG d   1      -5.408  89.321 115.100  0.00  0.00     0.382 C 
ATOM     23  O   LIG d   1      -4.553  88.582 114.556  0.00  0.00    -0.241 OA
ATOM     24  O   LIG d   1      -6.517  89.480 114.555  0.00  0.00    -0.241 OA
ENDBRANCH   3  22
TORSDOF 7
ENDMDL
MODEL 3
REMARK VINA RESULT:      -5.4      1.527      2.210
REMARK  7 active torsions:
REMARK  status: ('A' for Active; 'I' for Inactive)
REMARK    1  A    between atoms: C_2  and  C_3 
REMARK    2  A    between atoms: C_3  and  O_6 
REMARK    3  A    between atoms: C_3  and  C_4 
REMARK    4  A    between atoms: C_7  and  O_6 
REMARK    5  A    between atoms: C_9  and  C_10 
REMARK    6  A    between atoms: N_15  and  C_14 
REMARK    7  A    between atoms: N_20  and  C_19 
REMARK       I    between atoms: C_22  and  N_20 
ROOT
ATOM      1  C   LIG d   1      -6.946  77.737 117.301  0.00  0.00     0.161 C 
ATOM      2  C   LIG d   1      -8.243  78.129 117.673  0.00  0.00     0.016 C 
ATOM      3  C   LIG d   1      -8.630  79.479 117.836  0.00  0.00     0.038 C 
ATOM      4  C   LIG d   1      -7.782  80.541 117.490  0.00  0.00     0.028 C 
ATOM      5  C   LIG d   1      -6.301  80.192 117.594  0.00  0.00    -0.047 C 
ATOM      6  C   LIG d   1      -6.038  78.885 116.812  0.00  0.00     0.091 C 
ENDROOT
BRANCH   1   7
ATOM      7  O   LIG d   1      -7.016  76.695 116.308  0.00  0.00    -0.368 OA
BRANCH   7   8
ATOM      8  C   LIG d   1      -6.533  75.392 116.715  0.00  0.00     0.119 C 
BRANCH   8   9
ATOM      9  C   LIG d   1      -5.982  74.689 115.459  0.00  0.00     0.028 C 
ATOM     10  C   LIG d   1      -5.183  75.643 114.555  0.00  0.00     0.006 C 
ENDBRANCH   8   9
BRANCH   8  11
ATOM     11  C   LIG d   1      -7.677  74.502 117.208  0.00  0.00     0.028 C 
ATOM     12  C   LIG d   1      -7.518  73.034 116.781  0.00  0.00     0.006 C 
ENDBRANCH   8  11
ENDBRANCH   7   8
ENDBRANCH   1   7
BRANCH   6  13
ATOM     13  N   LIG d   1      -4.629  78.426 116.932  0.00  0.00    -0.311 N 
ATOM     14  C   LIG d   1      -3.688  78.705 116.031  0.00  0.00     0.210 C 
ATOM     15  C   LIG d   1      -2.307  78.118 116.337  0.00  0.00     0.109 C 
ATOM     16  O   LIG d   1      -3.859  79.409 115.025  0.00  0.00    -0.276 OA
ATOM     17  H   LIG d   1      -4.396  77.875 117.735  0.00  0.00     0.149 HD
ENDBRANCH   6  13
BRANCH   5  18
ATOM     18  N   LIG d   1      -5.535  81.340 117.074  0.00  0.00     0.381 N 
ATOM     19  H   LIG d   1      -5.178  81.126 116.164  0.00  0.00    -0.090 HD
ATOM     20  H   LIG d   1      -4.756  81.515 117.685  0.00  0.00    -0.090 HD
ATOM     21  H   LIG d   1      -6.118  82.147 117.029  0.00  0.00    -0.090 HD
ENDBRANCH   5  18
BRANCH   3  22
ATOM     22  C   LIG d   1      -9.866  79.777 118.389  0.00  0.00     0.382 C 
ATOM     23  O   LIG d   1     -10.532  80.746 117.950  0.00  0.00    -0.241 OA
ATOM     24  O   LIG d   1     -10.304  79.117 119.350  0.00  0.00    -0.241 OA
ENDBRANCH   3  22
TORSDOF 7
ENDMDL
MODEL 4
REMARK VINA RESULT:      -5.4     17.752     19.344
REMARK  7 active torsions:
REMARK  status: ('A' for Active; 'I' for Inactive)
REMARK    1  A    between atoms: C_2  and  C_3 
REMARK    2  A    between atoms: C_3  and  O_6 
REMARK    3  A    between atoms: C_3  and  C_4 
REMARK    4  A    between atoms: C_7  and  O_6 
REMARK    5  A    between atoms: C_9  and  C_10 
REMARK    6  A    between atoms: N_15  and  C_14 
REMARK    7  A    between atoms: N_20  and  C_19 
REMARK       I    between atoms: C_22  and  N_20 
ROOT
ATOM      1  C   LIG d   1       0.972  59.071 120.030  0.00  0.00     0.161 C 
ATOM      2  C   LIG d   1       2.117  59.709 120.535  0.00  0.00     0.016 C 
ATOM      3  C   LIG d   1       3.018  60.443 119.730  0.00  0.00     0.038 C 
ATOM      4  C   LIG d   1       2.751  60.718 118.381  0.00  0.00     0.028 C 
ATOM      5  C   LIG d   1       1.866  59.672 117.713  0.00  0.00    -0.047 C 
ATOM      6  C   LIG d   1       0.605  59.453 118.581  0.00  0.00     0.091 C 
ENDROOT
BRANCH   1   7
ATOM      7  O   LIG d   1      -0.146  59.306 120.908  0.00  0.00    -0.368 OA
BRANCH   7   8
ATOM      8  C   LIG d   1      -0.700  60.645 120.890  0.00  0.00     0.119 C 
BRANCH   8   9
ATOM      9  C   LIG d   1      -0.783  61.132 122.350  0.00  0.00     0.028 C 
ATOM     10  C   LIG d   1       0.411  62.019 122.741  0.00  0.00     0.006 C 
ENDBRANCH   8   9
BRANCH   8  11
ATOM     11  C   LIG d   1      -2.145  60.643 120.380  0.00  0.00     0.028 C 
ATOM     12  C   LIG d   1      -2.846  59.290 120.580  0.00  0.00     0.006 C 
ENDBRANCH   8  11
ENDBRANCH   7   8
ENDBRANCH   1   7
BRANCH   6  13
ATOM     13  N   LIG d   1      -0.275  58.383 118.042  0.00  0.00    -0.311 N 
ATOM     14  C   LIG d   1      -1.304  58.620 117.231  0.00  0.00     0.210 C 
ATOM     15  C   LIG d   1      -2.093  57.377 116.808  0.00  0.00     0.109 C 
ATOM     16  O   LIG d   1      -1.618  59.737 116.794  0.00  0.00    -0.276 OA
ATOM     17  H   LIG d   1      -0.072  57.443 118.321  0.00  0.00     0.149 HD
ENDBRANCH   6  13
BRANCH   5  18
ATOM     18  N   LIG d   1       1.555  60.153 116.353  0.00  0.00     0.381 N 
ATOM     19  H   LIG d   1       2.381  60.129 115.789  0.00  0.00    -0.090 HD
ATOM     20  H   LIG d   1       1.239  61.105 116.410  0.00  0.00    -0.090 HD
ATOM     21  H   LIG d   1       0.848  59.584 115.944  0.00  0.00    -0.090 HD
ENDBRANCH   5  18
BRANCH   3  22
ATOM     22  C   LIG d   1       4.221  60.878 120.266  0.00  0.00     0.382 C 
ATOM     23  O   LIG d   1       5.081  61.410 119.524  0.00  0.00    -0.241 OA
ATOM     24  O   LIG d   1       4.474  60.704 121.473  0.00  0.00    -0.241 OA
ENDBRANCH   3  22
TORSDOF 7
ENDMDL
MODEL 5
REMARK VINA RESULT:      -5.3     13.816     15.731
REMARK  7 active torsions:
REMARK  status: ('A' for Active; 'I' for Inactive)
REMARK    1  A    between atoms: C_2  and  C_3 
REMARK    2  A    between atoms: C_3  and  O_6 
REMARK    3  A    between atoms: C_3  and  C_4 
REMARK    4  A    between atoms: C_7  and  O_6 
REMARK    5  A    between atoms: C_9  and  C_10 
REMARK    6  A    between atoms: N_15  and  C_14 
REMARK    7  A    between atoms: N_20  and  C_19 
REMARK       I    between atoms: C_22  and  N_20 
ROOT
ATOM      1  C   LIG d   1      -4.756  90.646 119.066  0.00  0.00     0.161 C 
ATOM      2  C   LIG d   1      -3.561  90.477 119.785  0.00  0.00     0.016 C 
ATOM      3  C   LIG d   1      -2.395  89.900 119.233  0.00  0.00     0.038 C 
ATOM      4  C   LIG d   1      -2.298  89.587 117.869  0.00  0.00     0.028 C 
ATOM      5  C   LIG d   1      -3.642  89.272 117.222  0.00  0.00    -0.047 C 
ATOM      6  C   LIG d   1      -4.634  90.412 117.546  0.00  0.00     0.091 C 
ENDROOT
BRANCH   1   7
ATOM      7  O   LIG d   1      -5.306  91.952 119.330  0.00  0.00    -0.368 OA
BRANCH   7   8
ATOM      8  C   LIG d   1      -4.917  92.565 120.584  0.00  0.00     0.119 C 
BRANCH   8   9
ATOM      9  C   LIG d   1      -6.137  92.508 121.524  0.00  0.00     0.028 C 
ATOM     10  C   LIG d   1      -5.914  91.562 122.717  0.00  0.00     0.006 C 
ENDBRANCH   8   9
BRANCH   8  11
ATOM     11  C   LIG d   1      -4.613  94.055 120.404  0.00  0.00     0.028 C 
ATOM     12  C   LIG d   1      -3.528  94.562 121.367  0.00  0.00     0.006 C 
ENDBRANCH   8  11
ENDBRANCH   7   8
ENDBRANCH   1   7
BRANCH   6  13
ATOM     13  N   LIG d   1      -5.998  90.143 117.021  0.00  0.00    -0.311 N 
ATOM     14  C   LIG d   1      -6.435  90.595 115.847  0.00  0.00     0.210 C 
ATOM     15  C   LIG d   1      -7.880  90.219 115.506  0.00  0.00     0.109 C 
ATOM     16  O   LIG d   1      -5.751  91.244 115.040  0.00  0.00    -0.276 OA
ATOM     17  H   LIG d   1      -6.609  89.597 117.597  0.00  0.00     0.149 HD
ENDBRANCH   6  13
BRANCH   5  18
ATOM     18  N   LIG d   1      -3.411  89.099 115.775  0.00  0.00     0.381 N 
ATOM     19  H   LIG d   1      -2.979  88.214 115.605  0.00  0.00    -0.090 HD
ATOM     20  H   LIG d   1      -2.789  89.821 115.457  0.00  0.00    -0.090 HD
ATOM     21  H   LIG d   1      -4.276  89.156 115.283  0.00  0.00    -0.090 HD
ENDBRANCH   5  18
BRANCH   3  22
ATOM     22  C   LIG d   1      -1.324  89.592 120.058  0.00  0.00     0.382 C 
ATOM     23  O   LIG d   1      -0.178  89.446 119.568  0.00  0.00    -0.241 OA
ATOM     24  O   LIG d   1      -1.496  89.416 121.278  0.00  0.00    -0.241 OA
ENDBRANCH   3  22
TORSDOF 7
ENDMDL
MODEL 6
REMARK VINA RESULT:      -5.1      2.541      5.140
REMARK  7 active torsions:
REMARK  status: ('A' for Active; 'I' for Inactive)
REMARK    1  A    between atoms: C_2  and  C_3 
REMARK    2  A    between atoms: C_3  and  O_6 
REMARK    3  A    between atoms: C_3  and  C_4 
REMARK    4  A    between atoms: C_7  and  O_6 
REMARK    5  A    between atoms: C_9  and  C_10 
REMARK    6  A    between atoms: N_15  and  C_14 
REMARK    7  A    between atoms: N_20  and  C_19 
REMARK       I    between atoms: C_22  and  N_20 
ROOT
ATOM      1  C   LIG d   1      -5.215  75.703 116.411  0.00  0.00     0.161 C 
ATOM      2  C   LIG d   1      -5.017  77.091 116.504  0.00  0.00     0.016 C 
ATOM      3  C   LIG d   1      -6.051  78.005 116.810  0.00  0.00     0.038 C 
ATOM      4  C   LIG d   1      -7.330  77.577 117.195  0.00  0.00     0.028 C 
ATOM      5  C   LIG d   1      -7.709  76.214 116.626  0.00  0.00    -0.047 C 
ATOM      6  C   LIG d   1      -6.578  75.207 116.937  0.00  0.00     0.091 C 
ENDROOT
BRANCH   1   7
ATOM      7  O   LIG d   1      -4.139  75.011 117.077  0.00  0.00    -0.368 OA
BRANCH   7   8
ATOM      8  C   LIG d   1      -2.830  75.624 116.978  0.00  0.00     0.119 C 
BRANCH   8   9
ATOM      9  C   LIG d   1      -2.158  75.078 115.704  0.00  0.00     0.028 C 
ATOM     10  C   LIG d   1      -1.868  76.182 114.674  0.00  0.00     0.006 C 
ENDBRANCH   8   9
BRANCH   8  11
ATOM     11  C   LIG d   1      -1.923  75.188 118.133  0.00  0.00     0.028 C 
ATOM     12  C   LIG d   1      -0.891  74.129 117.714  0.00  0.00     0.006 C 
ENDBRANCH   8  11
ENDBRANCH   7   8
ENDBRANCH   1   7
BRANCH   6  13
ATOM     13  N   LIG d   1      -6.830  73.869 116.342  0.00  0.00    -0.311 N 
ATOM     14  C   LIG d   1      -7.397  72.865 117.009  0.00  0.00     0.210 C 
ATOM     15  C   LIG d   1      -7.547  71.564 116.214  0.00  0.00     0.109 C 
ATOM     16  O   LIG d   1      -7.821  72.939 118.172  0.00  0.00    -0.276 OA
ATOM     17  H   LIG d   1      -6.546  73.732 115.392  0.00  0.00     0.149 HD
ENDBRANCH   6  13
BRANCH   5  18
ATOM     18  N   LIG d   1      -9.005  75.829 117.216  0.00  0.00     0.381 N 
ATOM     19  H   LIG d   1      -9.503  75.235 116.583  0.00  0.00    -0.090 HD
ATOM     20  H   LIG d   1      -9.552  76.658 117.368  0.00  0.00    -0.090 HD
ATOM     21  H   LIG d   1      -8.858  75.356 118.081  0.00  0.00    -0.090 HD
ENDBRANCH   5  18
BRANCH   3  22
ATOM     22  C   LIG d   1      -5.820  79.368 116.694  0.00  0.00     0.382 C 
ATOM     23  O   LIG d   1      -4.702  79.783 116.306  0.00  0.00    -0.241 OA
ATOM     24  O   LIG d   1      -6.702  80.187 117.014  0.00  0.00    -0.241 OA
ENDBRANCH   3  22
TORSDOF 7
ENDMDL
MODEL 7
REMARK VINA RESULT:      -5.1      1.813      4.997
REMARK  7 active torsions:
REMARK  status: ('A' for Active; 'I' for Inactive)
REMARK    1  A    between atoms: C_2  and  C_3 
REMARK    2  A    between atoms: C_3  and  O_6 
REMARK    3  A    between atoms: C_3  and  C_4 
REMARK    4  A    between atoms: C_7  and  O_6 
REMARK    5  A    between atoms: C_9  and  C_10 
REMARK    6  A    between atoms: N_15  and  C_14 
REMARK    7  A    between atoms: N_20  and  C_19 
REMARK       I    between atoms: C_22  and  N_20 
ROOT
ATOM      1  C   LIG d   1      -7.864  76.874 117.360  0.00  0.00     0.161 C 
ATOM      2  C   LIG d   1      -8.947  75.981 117.288  0.00  0.00     0.016 C 
ATOM      3  C   LIG d   1      -8.795  74.577 117.219  0.00  0.00     0.038 C 
ATOM      4  C   LIG d   1      -7.545  73.958 117.372  0.00  0.00     0.028 C 
ATOM      5  C   LIG d   1      -6.377  74.838 116.942  0.00  0.00    -0.047 C 
ATOM      6  C   LIG d   1      -6.499  76.212 117.640  0.00  0.00     0.091 C 
ENDROOT
BRANCH   1   7
ATOM      7  O   LIG d   1      -8.137  77.894 118.341  0.00  0.00    -0.368 OA
BRANCH   7   8
ATOM      8  C   LIG d   1      -8.416  79.218 117.822  0.00  0.00     0.119 C 
BRANCH   8   9
ATOM      9  C   LIG d   1      -7.375  80.180 118.427  0.00  0.00     0.028 C 
ATOM     10  C   LIG d   1      -6.533  80.885 117.350  0.00  0.00     0.006 C 
ENDBRANCH   8   9
BRANCH   8  11
ATOM     11  C   LIG d   1      -9.774  79.733 118.308  0.00  0.00     0.028 C 
ATOM     12  C   LIG d   1     -10.094  81.145 117.795  0.00  0.00     0.006 C 
ENDBRANCH   8  11
ENDBRANCH   7   8
ENDBRANCH   1   7
BRANCH   6  13
ATOM     13  N   LIG d   1      -5.441  77.163 117.209  0.00  0.00    -0.311 N 
ATOM     14  C   LIG d   1      -5.306  77.590 115.955  0.00  0.00     0.210 C 
ATOM     15  C   LIG d   1      -4.138  78.552 115.721  0.00  0.00     0.109 C 
ATOM     16  O   LIG d   1      -6.063  77.288 115.019  0.00  0.00    -0.276 OA
ATOM     17  H   LIG d   1      -4.803  77.484 117.910  0.00  0.00     0.149 HD
ENDBRANCH   6  13
BRANCH   5  18
ATOM     18  N   LIG d   1      -5.132  74.125 117.283  0.00  0.00     0.381 N 
ATOM     19  H   LIG d   1      -4.870  73.521 116.529  0.00  0.00    -0.090 HD
ATOM     20  H   LIG d   1      -5.294  73.560 118.098  0.00  0.00    -0.090 HD
ATOM     21  H   LIG d   1      -4.402  74.779 117.462  0.00  0.00    -0.090 HD
ENDBRANCH   5  18
BRANCH   3  22
ATOM     22  C   LIG d   1      -9.898  73.779 116.956  0.00  0.00     0.382 C 
ATOM     23  O   LIG d   1      -9.756  72.540 116.817  0.00  0.00    -0.241 OA
ATOM     24  O   LIG d   1     -11.025  74.287 116.811  0.00  0.00    -0.241 OA
ENDBRANCH   3  22
TORSDOF 7
ENDMDL
MODEL 8
REMARK VINA RESULT:      -5.0      2.765      5.698
REMARK  7 active torsions:
REMARK  status: ('A' for Active; 'I' for Inactive)
REMARK    1  A    between atoms: C_2  and  C_3 
REMARK    2  A    between atoms: C_3  and  O_6 
REMARK    3  A    between atoms: C_3  and  C_4 
REMARK    4  A    between atoms: C_7  and  O_6 
REMARK    5  A    between atoms: C_9  and  C_10 
REMARK    6  A    between atoms: N_15  and  C_14 
REMARK    7  A    between atoms: N_20  and  C_19 
REMARK       I    between atoms: C_22  and  N_20 
ROOT
ATOM      1  C   LIG d   1      -4.767  75.413 117.394  0.00  0.00     0.161 C 
ATOM      2  C   LIG d   1      -3.753  74.449 117.527  0.00  0.00     0.016 C 
ATOM      3  C   LIG d   1      -2.475  74.734 118.061  0.00  0.00     0.038 C 
ATOM      4  C   LIG d   1      -2.173  75.974 118.641  0.00  0.00     0.028 C 
ATOM      5  C   LIG d   1      -2.996  77.125 118.073  0.00  0.00    -0.047 C 
ATOM      6  C   LIG d   1      -4.493  76.744 118.124  0.00  0.00     0.091 C 
ENDROOT
BRANCH   1   7
ATOM      7  O   LIG d   1      -6.027  74.858 117.820  0.00  0.00    -0.368 OA
BRANCH   7   8
ATOM      8  C   LIG d   1      -6.997  74.602 116.774  0.00  0.00     0.119 C 
BRANCH   8   9
ATOM      9  C   LIG d   1      -8.392  74.904 117.353  0.00  0.00     0.028 C 
ATOM     10  C   LIG d   1      -8.756  76.395 117.259  0.00  0.00     0.006 C 
ENDBRANCH   8   9
BRANCH   8  11
ATOM     11  C   LIG d   1      -7.028  73.119 116.394  0.00  0.00     0.028 C 
ATOM     12  C   LIG d   1      -8.349  72.433 116.776  0.00  0.00     0.006 C 
ENDBRANCH   8  11
ENDBRANCH   7   8
ENDBRANCH   1   7
BRANCH   6  13
ATOM     13  N   LIG d   1      -5.363  77.781 117.510  0.00  0.00    -0.311 N 
ATOM     14  C   LIG d   1      -5.954  78.750 118.207  0.00  0.00     0.210 C 
ATOM     15  C   LIG d   1      -6.824  79.702 117.382  0.00  0.00     0.109 C 
ATOM     16  O   LIG d   1      -5.813  78.930 119.426  0.00  0.00    -0.276 OA
ATOM     17  H   LIG d   1      -5.506  77.728 116.520  0.00  0.00     0.149 HD
ENDBRANCH   6  13
BRANCH   5  18
ATOM     18  N   LIG d   1      -2.679  78.332 118.861  0.00  0.00     0.381 N 
ATOM     19  H   LIG d   1      -2.048  78.915 118.349  0.00  0.00    -0.090 HD
ATOM     20  H   LIG d   1      -2.228  78.053 119.715  0.00  0.00    -0.090 HD
ATOM     21  H   LIG d   1      -3.515  78.834 119.066  0.00  0.00    -0.090 HD
ENDBRANCH   5  18
BRANCH   3  22
ATOM     22  C   LIG d   1      -1.469  73.782 117.981  0.00  0.00     0.382 C 
ATOM     23  O   LIG d   1      -1.209  73.060 118.973  0.00  0.00    -0.241 OA
ATOM     24  O   LIG d   1      -0.790  73.667 116.943  0.00  0.00    -0.241 OA
ENDBRANCH   3  22
TORSDOF 7
ENDMDL
MODEL 9
REMARK VINA RESULT:      -4.8     13.507     15.703
REMARK  7 active torsions:
REMARK  status: ('A' for Active; 'I' for Inactive)
REMARK    1  A    between atoms: C_2  and  C_3 
REMARK    2  A    between atoms: C_3  and  O_6 
REMARK    3  A    between atoms: C_3  and  C_4 
REMARK    4  A    between atoms: C_7  and  O_6 
REMARK    5  A    between atoms: C_9  and  C_10 
REMARK    6  A    between atoms: N_15  and  C_14 
REMARK    7  A    between atoms: N_20  and  C_19 
REMARK       I    between atoms: C_22  and  N_20 
ROOT
ATOM      1  C   LIG d   1      -4.766  91.390 119.310  0.00  0.00     0.161 C 
ATOM      2  C   LIG d   1      -5.896  91.067 118.540  0.00  0.00     0.016 C 
ATOM      3  C   LIG d   1      -5.840  90.279 117.368  0.00  0.00     0.038 C 
ATOM      4  C   LIG d   1      -4.663  89.630 116.966  0.00  0.00     0.028 C 
ATOM      5  C   LIG d   1      -3.393  90.337 117.430  0.00  0.00    -0.047 C 
ATOM      6  C   LIG d   1      -3.491  90.599 118.950  0.00  0.00     0.091 C 
ENDROOT
BRANCH   1   7
ATOM      7  O   LIG d   1      -5.070  91.239 120.711  0.00  0.00    -0.368 OA
BRANCH   7   8
ATOM      8  C   LIG d   1      -5.566  92.421 121.386  0.00  0.00     0.119 C 
BRANCH   8   9
ATOM      9  C   LIG d   1      -4.792  93.632 120.829  0.00  0.00     0.028 C 
ATOM     10  C   LIG d   1      -5.711  94.826 120.524  0.00  0.00     0.006 C 
ENDBRANCH   8   9
BRANCH   8  11
ATOM     11  C   LIG d   1      -5.242  92.386 122.882  0.00  0.00     0.028 C 
ATOM     12  C   LIG d   1      -6.438  92.784 123.761  0.00  0.00     0.006 C 
ENDBRANCH   8  11
ENDBRANCH   7   8
ENDBRANCH   1   7
BRANCH   6  13
ATOM     13  N   LIG d   1      -2.327  91.362 119.470  0.00  0.00    -0.311 N 
ATOM     14  C   LIG d   1      -1.262  90.786 120.026  0.00  0.00     0.210 C 
ATOM     15  C   LIG d   1      -0.183  91.758 120.513  0.00  0.00     0.109 C 
ATOM     16  O   LIG d   1      -1.095  89.562 120.132  0.00  0.00    -0.276 OA
ATOM     17  H   LIG d   1      -2.365  92.360 119.395  0.00  0.00     0.149 HD
ENDBRANCH   6  13
BRANCH   5  18
ATOM     18  N   LIG d   1      -2.248  89.482 117.063  0.00  0.00     0.381 N 
ATOM     19  H   LIG d   1      -1.560  90.026 116.582  0.00  0.00    -0.090 HD
ATOM     20  H   LIG d   1      -2.568  88.759 116.443  0.00  0.00    -0.090 HD
ATOM     21  H   LIG d   1      -1.850  89.077 117.880  0.00  0.00    -0.090 HD
ENDBRANCH   5  18
BRANCH   3  22
ATOM     22  C   LIG d   1      -6.962  90.167 116.561  0.00  0.00     0.382 C 
ATOM     23  O   LIG d   1      -7.534  89.058 116.433  0.00  0.00    -0.241 OA
ATOM     24  O   LIG d   1      -7.383  91.151 115.924  0.00  0.00    -0.241 OA
ENDBRANCH   3  22
TORSDOF 7
ENDMDL
