MODEL 1
REMARK VINA RESULT:      -4.8      0.000      0.000
REMARK  7 active torsions:
REMARK  status: ('A' for Active; 'I' for Inactive)
REMARK    1  A    between atoms: C_2  and  C_3 
REMARK    2  A    between atoms: C_3  and  O_6 
REMARK    3  A    between atoms: C_3  and  C_4 
REMARK    4  A    between atoms: C_7  and  O_6 
REMARK    5  A    between atoms: C_9  and  C_10 
REMARK    6  A    between atoms: N_15  and  C_14 
REMARK    7  A    between atoms: N_20  and  C_19 
REMARK       I    between atoms: C_22  and  N_20 
ROOT
ATOM      1  C   LIG d   1      -3.542  78.518 115.926  0.00  0.00     0.161 C 
ATOM      2  C   LIG d   1      -3.513  79.525 114.947  0.00  0.00     0.016 C 
ATOM      3  C   LIG d   1      -2.612  79.526 113.858  0.00  0.00     0.038 C 
ATOM      4  C   LIG d   1      -1.772  78.434 113.589  0.00  0.00     0.028 C 
ATOM      5  C   LIG d   1      -1.411  77.627 114.832  0.00  0.00    -0.047 C 
ATOM      6  C   LIG d   1      -2.709  77.263 115.588  0.00  0.00     0.091 C 
ENDROOT
BRANCH   1   7
ATOM      7  O   LIG d   1      -4.907  78.152 116.211  0.00  0.00    -0.368 OA
BRANCH   7   8
ATOM      8  C   LIG d   1      -5.398  78.500 117.529  0.00  0.00     0.119 C 
BRANCH   8   9
ATOM      9  C   LIG d   1      -6.620  77.606 117.818  0.00  0.00     0.028 C 
ATOM     10  C   LIG d   1      -6.902  76.611 116.679  0.00  0.00     0.006 C 
ENDBRANCH   8   9
BRANCH   8  11
ATOM     11  C   LIG d   1      -5.929  79.936 117.564  0.00  0.00     0.028 C 
ATOM     12  C   LIG d   1      -7.374  80.024 118.078  0.00  0.00     0.006 C 
ENDBRANCH   8  11
ENDBRANCH   7   8
ENDBRANCH   1   7
BRANCH   6  13
ATOM     13  N   LIG d   1      -2.441  76.545 116.861  0.00  0.00    -0.311 N 
ATOM     14  C   LIG d   1      -2.735  75.260 117.054  0.00  0.00     0.210 C 
ATOM     15  C   LIG d   1      -2.394  74.721 118.447  0.00  0.00     0.109 C 
ATOM     16  O   LIG d   1      -3.216  74.508 116.194  0.00  0.00    -0.276 OA
ATOM     17  H   LIG d   1      -2.023  77.072 117.603  0.00  0.00     0.149 HD
ENDBRANCH   6  13
BRANCH   5  18
ATOM     18  N   LIG d   1      -0.649  76.445 114.389  0.00  0.00     0.381 N 
ATOM     19  H   LIG d   1      -0.225  76.628 113.501  0.00  0.00    -0.090 HD
ATOM     20  H   LIG d   1      -1.282  75.671 114.283  0.00  0.00    -0.090 HD
ATOM     21  H   LIG d   1       0.052  76.220 115.060  0.00  0.00    -0.090 HD
ENDBRANCH   5  18
BRANCH   3  22
ATOM     22  C   LIG d   1      -2.515  80.646 113.047  0.00  0.00     0.382 C 
ATOM     23  O   LIG d   1      -3.513  81.390 112.883  0.00  0.00    -0.241 OA
ATOM     24  O   LIG d   1      -1.457  80.898 112.441  0.00  0.00    -0.241 OA
ENDBRANCH   3  22
TORSDOF 7
ENDMDL
MODEL 2
REMARK VINA RESULT:      -4.5      2.549      3.026
REMARK  7 active torsions:
REMARK  status: ('A' for Active; 'I' for Inactive)
REMARK    1  A    between atoms: C_2  and  C_3 
REMARK    2  A    between atoms: C_3  and  O_6 
REMARK    3  A    between atoms: C_3  and  C_4 
REMARK    4  A    between atoms: C_7  and  O_6 
REMARK    5  A    between atoms: C_9  and  C_10 
REMARK    6  A    between atoms: N_15  and  C_14 
REMARK    7  A    between atoms: N_20  and  C_19 
REMARK       I    between atoms: C_22  and  N_20 
ROOT
ATOM      1  C   LIG d   1      -3.848  78.344 116.990  0.00  0.00     0.161 C 
ATOM      2  C   LIG d   1      -3.148  79.429 117.543  0.00  0.00     0.016 C 
ATOM      3  C   LIG d   1      -1.833  79.783 117.162  0.00  0.00     0.038 C 
ATOM      4  C   LIG d   1      -1.181  79.162 116.086  0.00  0.00     0.028 C 
ATOM      5  C   LIG d   1      -1.652  77.733 115.835  0.00  0.00    -0.047 C 
ATOM      6  C   LIG d   1      -3.195  77.724 115.737  0.00  0.00     0.091 C 
ENDROOT
BRANCH   1   7
ATOM      7  O   LIG d   1      -5.207  78.732 116.706  0.00  0.00    -0.368 OA
BRANCH   7   8
ATOM      8  C   LIG d   1      -6.020  79.089 117.850  0.00  0.00     0.119 C 
BRANCH   8   9
ATOM      9  C   LIG d   1      -7.271  78.188 117.828  0.00  0.00     0.028 C 
ATOM     10  C   LIG d   1      -7.059  76.911 116.998  0.00  0.00     0.006 C 
ENDBRANCH   8   9
BRANCH   8  11
ATOM     11  C   LIG d   1      -6.550  80.521 117.733  0.00  0.00     0.028 C 
ATOM     12  C   LIG d   1      -8.026  80.646 118.141  0.00  0.00     0.006 C 
ENDBRANCH   8  11
ENDBRANCH   7   8
ENDBRANCH   1   7
BRANCH   6  13
ATOM     13  N   LIG d   1      -3.744  76.352 115.576  0.00  0.00    -0.311 N 
ATOM     14  C   LIG d   1      -4.416  75.954 114.497  0.00  0.00     0.210 C 
ATOM     15  C   LIG d   1      -4.913  74.505 114.543  0.00  0.00     0.109 C 
ATOM     16  O   LIG d   1      -4.621  76.653 113.494  0.00  0.00    -0.276 OA
ATOM     17  H   LIG d   1      -3.596  75.710 116.330  0.00  0.00     0.149 HD
ENDBRANCH   6  13
BRANCH   5  18
ATOM     18  N   LIG d   1      -0.991  77.256 114.606  0.00  0.00     0.381 N 
ATOM     19  H   LIG d   1      -0.192  76.703 114.843  0.00  0.00    -0.090 HD
ATOM     20  H   LIG d   1      -0.679  78.050 114.075  0.00  0.00    -0.090 HD
ATOM     21  H   LIG d   1      -1.629  76.715 114.064  0.00  0.00    -0.090 HD
ENDBRANCH   5  18
BRANCH   3  22
ATOM     22  C   LIG d   1      -1.142  80.742 117.887  0.00  0.00     0.382 C 
ATOM     23  O   LIG d   1      -0.061  81.202 117.447  0.00  0.00    -0.241 OA
ATOM     24  O   LIG d   1      -1.564  81.120 118.996  0.00  0.00    -0.241 OA
ENDBRANCH   3  22
TORSDOF 7
ENDMDL
MODEL 3
REMARK VINA RESULT:      -4.5      2.333      3.312
REMARK  7 active torsions:
REMARK  status: ('A' for Active; 'I' for Inactive)
REMARK    1  A    between atoms: C_2  and  C_3 
REMARK    2  A    between atoms: C_3  and  O_6 
REMARK    3  A    between atoms: C_3  and  C_4 
REMARK    4  A    between atoms: C_7  and  O_6 
REMARK    5  A    between atoms: C_9  and  C_10 
REMARK    6  A    between atoms: N_15  and  C_14 
REMARK    7  A    between atoms: N_20  and  C_19 
REMARK       I    between atoms: C_22  and  N_20 
ROOT
ATOM      1  C   LIG d   1      -3.702  77.351 114.165  0.00  0.00     0.161 C 
ATOM      2  C   LIG d   1      -3.024  77.633 112.967  0.00  0.00     0.016 C 
ATOM      3  C   LIG d   1      -1.955  78.554 112.876  0.00  0.00     0.038 C 
ATOM      4  C   LIG d   1      -1.388  79.147 114.014  0.00  0.00     0.028 C 
ATOM      5  C   LIG d   1      -2.364  79.279 115.178  0.00  0.00    -0.047 C 
ATOM      6  C   LIG d   1      -3.025  77.906 115.436  0.00  0.00     0.091 C 
ENDROOT
BRANCH   1   7
ATOM      7  O   LIG d   1      -3.909  75.930 114.287  0.00  0.00    -0.368 OA
BRANCH   7   8
ATOM      8  C   LIG d   1      -5.250  75.456 114.011  0.00  0.00     0.119 C 
BRANCH   8   9
ATOM      9  C   LIG d   1      -6.107  76.681 113.640  0.00  0.00     0.028 C 
ATOM     10  C   LIG d   1      -6.833  76.504 112.296  0.00  0.00     0.006 C 
ENDBRANCH   8   9
BRANCH   8  11
ATOM     11  C   LIG d   1      -5.902  74.869 115.266  0.00  0.00     0.028 C 
ATOM     12  C   LIG d   1      -6.903  75.833 115.923  0.00  0.00     0.006 C 
ENDBRANCH   8  11
ENDBRANCH   7   8
ENDBRANCH   1   7
BRANCH   6  13
ATOM     13  N   LIG d   1      -4.057  77.965 116.505  0.00  0.00    -0.311 N 
ATOM     14  C   LIG d   1      -3.969  77.285 117.647  0.00  0.00     0.210 C 
ATOM     15  C   LIG d   1      -5.151  77.473 118.603  0.00  0.00     0.109 C 
ATOM     16  O   LIG d   1      -3.010  76.569 117.972  0.00  0.00    -0.276 OA
ATOM     17  H   LIG d   1      -4.854  78.547 116.337  0.00  0.00     0.149 HD
ENDBRANCH   6  13
BRANCH   5  18
ATOM     18  N   LIG d   1      -1.608  79.784 116.339  0.00  0.00     0.381 N 
ATOM     19  H   LIG d   1      -1.082  80.593 116.075  0.00  0.00    -0.090 HD
ATOM     20  H   LIG d   1      -0.963  79.075 116.641  0.00  0.00    -0.090 HD
ATOM     21  H   LIG d   1      -2.233  80.012 117.080  0.00  0.00    -0.090 HD
ENDBRANCH   5  18
BRANCH   3  22
ATOM     22  C   LIG d   1      -1.467  78.920 111.630  0.00  0.00     0.382 C 
ATOM     23  O   LIG d   1      -0.775  79.959 111.509  0.00  0.00    -0.241 OA
ATOM     24  O   LIG d   1      -1.748  78.247 110.620  0.00  0.00    -0.241 OA
ENDBRANCH   3  22
TORSDOF 7
ENDMDL
MODEL 4
REMARK VINA RESULT:      -4.4      1.341      2.124
REMARK  7 active torsions:
REMARK  status: ('A' for Active; 'I' for Inactive)
REMARK    1  A    between atoms: C_2  and  C_3 
REMARK    2  A    between atoms: C_3  and  O_6 
REMARK    3  A    between atoms: C_3  and  C_4 
REMARK    4  A    between atoms: C_7  and  O_6 
REMARK    5  A    between atoms: C_9  and  C_10 
REMARK    6  A    between atoms: N_15  and  C_14 
REMARK    7  A    between atoms: N_20  and  C_19 
REMARK       I    between atoms: C_22  and  N_20 
ROOT
ATOM      1  C   LIG d   1      -2.803  78.593 115.332  0.00  0.00     0.161 C 
ATOM      2  C   LIG d   1      -3.083  79.787 114.647  0.00  0.00     0.016 C 
ATOM      3  C   LIG d   1      -2.782  79.990 113.281  0.00  0.00     0.038 C 
ATOM      4  C   LIG d   1      -2.314  78.951 112.463  0.00  0.00     0.028 C 
ATOM      5  C   LIG d   1      -1.544  77.879 113.226  0.00  0.00    -0.047 C 
ATOM      6  C   LIG d   1      -2.395  77.410 114.428  0.00  0.00     0.091 C 
ENDROOT
BRANCH   1   7
ATOM      7  O   LIG d   1      -3.927  78.228 116.157  0.00  0.00    -0.368 OA
BRANCH   7   8
ATOM      8  C   LIG d   1      -4.508  79.292 116.950  0.00  0.00     0.119 C 
BRANCH   8   9
ATOM      9  C   LIG d   1      -3.733  79.355 118.280  0.00  0.00     0.028 C 
ATOM     10  C   LIG d   1      -4.076  80.610 119.101  0.00  0.00     0.006 C 
ENDBRANCH   8   9
BRANCH   8  11
ATOM     11  C   LIG d   1      -5.955  78.972 117.338  0.00  0.00     0.028 C 
ATOM     12  C   LIG d   1      -6.277  77.472 117.251  0.00  0.00     0.006 C 
ENDBRANCH   8  11
ENDBRANCH   7   8
ENDBRANCH   1   7
BRANCH   6  13
ATOM     13  N   LIG d   1      -1.681  76.421 115.277  0.00  0.00    -0.311 N 
ATOM     14  C   LIG d   1      -2.138  75.193 115.514  0.00  0.00     0.210 C 
ATOM     15  C   LIG d   1      -1.256  74.341 116.433  0.00  0.00     0.109 C 
ATOM     16  O   LIG d   1      -3.173  74.717 115.025  0.00  0.00    -0.276 OA
ATOM     17  H   LIG d   1      -0.816  76.714 115.689  0.00  0.00     0.149 HD
ENDBRANCH   6  13
BRANCH   5  18
ATOM     18  N   LIG d   1      -1.235  76.792 112.278  0.00  0.00     0.381 N 
ATOM     19  H   LIG d   1      -0.755  77.162 111.482  0.00  0.00    -0.090 HD
ATOM     20  H   LIG d   1      -2.096  76.380 111.963  0.00  0.00    -0.090 HD
ATOM     21  H   LIG d   1      -0.672  76.101 112.723  0.00  0.00    -0.090 HD
ENDBRANCH   5  18
BRANCH   3  22
ATOM     22  C   LIG d   1      -2.910  81.256 112.729  0.00  0.00     0.382 C 
ATOM     23  O   LIG d   1      -1.891  81.883 112.354  0.00  0.00    -0.241 OA
ATOM     24  O   LIG d   1      -4.029  81.796 112.643  0.00  0.00    -0.241 OA
ENDBRANCH   3  22
TORSDOF 7
ENDMDL
MODEL 5
REMARK VINA RESULT:      -4.2      2.413      3.323
REMARK  7 active torsions:
REMARK  status: ('A' for Active; 'I' for Inactive)
REMARK    1  A    between atoms: C_2  and  C_3 
REMARK    2  A    between atoms: C_3  and  O_6 
REMARK    3  A    between atoms: C_3  and  C_4 
REMARK    4  A    between atoms: C_7  and  O_6 
REMARK    5  A    between atoms: C_9  and  C_10 
REMARK    6  A    between atoms: N_15  and  C_14 
REMARK    7  A    between atoms: N_20  and  C_19 
REMARK       I    between atoms: C_22  and  N_20 
ROOT
ATOM      1  C   LIG d   1      -3.596  77.881 114.914  0.00  0.00     0.161 C 
ATOM      2  C   LIG d   1      -3.232  77.797 113.560  0.00  0.00     0.016 C 
ATOM      3  C   LIG d   1      -2.046  78.362 113.037  0.00  0.00     0.038 C 
ATOM      4  C   LIG d   1      -1.063  78.922 113.866  0.00  0.00     0.028 C 
ATOM      5  C   LIG d   1      -1.617  79.477 115.173  0.00  0.00    -0.047 C 
ATOM      6  C   LIG d   1      -2.482  78.391 115.853  0.00  0.00     0.091 C 
ENDROOT
BRANCH   1   7
ATOM      7  O   LIG d   1      -4.087  76.604 115.368  0.00  0.00    -0.368 OA
BRANCH   7   8
ATOM      8  C   LIG d   1      -5.524  76.491 115.520  0.00  0.00     0.119 C 
BRANCH   8   9
ATOM      9  C   LIG d   1      -5.844  76.649 117.019  0.00  0.00     0.028 C 
ATOM     10  C   LIG d   1      -7.310  77.043 117.268  0.00  0.00     0.006 C 
ENDBRANCH   8   9
BRANCH   8  11
ATOM     11  C   LIG d   1      -6.016  75.090 115.145  0.00  0.00     0.028 C 
ATOM     12  C   LIG d   1      -4.891  74.185 114.617  0.00  0.00     0.006 C 
ENDBRANCH   8  11
ENDBRANCH   7   8
ENDBRANCH   1   7
BRANCH   6  13
ATOM     13  N   LIG d   1      -3.131  78.879 117.097  0.00  0.00    -0.311 N 
ATOM     14  C   LIG d   1      -2.618  78.696 118.313  0.00  0.00     0.210 C 
ATOM     15  C   LIG d   1      -3.459  79.262 119.462  0.00  0.00     0.109 C 
ATOM     16  O   LIG d   1      -1.532  78.146 118.546  0.00  0.00    -0.276 OA
ATOM     17  H   LIG d   1      -4.002  79.364 116.998  0.00  0.00     0.149 HD
ENDBRANCH   6  13
BRANCH   5  18
ATOM     18  N   LIG d   1      -0.471  79.903 115.998  0.00  0.00     0.381 N 
ATOM     19  H   LIG d   1       0.197  79.161 116.059  0.00  0.00    -0.090 HD
ATOM     20  H   LIG d   1      -0.797  80.110 116.926  0.00  0.00    -0.090 HD
ATOM     21  H   LIG d   1      -0.046  80.711 115.600  0.00  0.00    -0.090 HD
ENDBRANCH   5  18
BRANCH   3  22
ATOM     22  C   LIG d   1      -1.854  78.406 111.664  0.00  0.00     0.382 C 
ATOM     23  O   LIG d   1      -2.385  77.539 110.929  0.00  0.00    -0.241 OA
ATOM     24  O   LIG d   1      -1.119  79.274 111.157  0.00  0.00    -0.241 OA
ENDBRANCH   3  22
TORSDOF 7
ENDMDL
MODEL 6
REMARK VINA RESULT:      -4.2      3.219      5.753
REMARK  7 active torsions:
REMARK  status: ('A' for Active; 'I' for Inactive)
REMARK    1  A    between atoms: C_2  and  C_3 
REMARK    2  A    between atoms: C_3  and  O_6 
REMARK    3  A    between atoms: C_3  and  C_4 
REMARK    4  A    between atoms: C_7  and  O_6 
REMARK    5  A    between atoms: C_9  and  C_10 
REMARK    6  A    between atoms: N_15  and  C_14 
REMARK    7  A    between atoms: N_20  and  C_19 
REMARK       I    between atoms: C_22  and  N_20 
ROOT
ATOM      1  C   LIG d   1      -1.813  79.682 114.656  0.00  0.00     0.161 C 
ATOM      2  C   LIG d   1      -2.615  78.592 115.032  0.00  0.00     0.016 C 
ATOM      3  C   LIG d   1      -3.031  77.584 114.131  0.00  0.00     0.038 C 
ATOM      4  C   LIG d   1      -2.543  77.517 112.818  0.00  0.00     0.028 C 
ATOM      5  C   LIG d   1      -2.134  78.873 112.253  0.00  0.00    -0.047 C 
ATOM      6  C   LIG d   1      -1.181  79.566 113.253  0.00  0.00     0.091 C 
ENDROOT
BRANCH   1   7
ATOM      7  O   LIG d   1      -0.793  79.904 115.649  0.00  0.00    -0.368 OA
BRANCH   7   8
ATOM      8  C   LIG d   1      -1.018  79.290 116.942  0.00  0.00     0.119 C 
BRANCH   8   9
ATOM      9  C   LIG d   1      -1.187  80.425 117.970  0.00  0.00     0.028 C 
ATOM     10  C   LIG d   1      -2.585  80.432 118.611  0.00  0.00     0.006 C 
ENDBRANCH   8   9
BRANCH   8  11
ATOM     11  C   LIG d   1       0.211  78.502 117.406  0.00  0.00     0.028 C 
ATOM     12  C   LIG d   1       0.179  77.031 116.962  0.00  0.00     0.006 C 
ENDBRANCH   8  11
ENDBRANCH   7   8
ENDBRANCH   1   7
BRANCH   6  13
ATOM     13  N   LIG d   1      -0.799  80.935 112.817  0.00  0.00    -0.311 N 
ATOM     14  C   LIG d   1       0.234  81.187 112.016  0.00  0.00     0.210 C 
ATOM     15  C   LIG d   1       0.465  82.670 111.706  0.00  0.00     0.109 C 
ATOM     16  O   LIG d   1       0.962  80.322 111.506  0.00  0.00    -0.276 OA
ATOM     17  H   LIG d   1      -1.355  81.694 113.159  0.00  0.00     0.149 HD
ENDBRANCH   6  13
BRANCH   5  18
ATOM     18  N   LIG d   1      -1.518  78.640 110.933  0.00  0.00     0.381 N 
ATOM     19  H   LIG d   1      -2.223  78.382 110.271  0.00  0.00    -0.090 HD
ATOM     20  H   LIG d   1      -0.865  77.880 111.010  0.00  0.00    -0.090 HD
ATOM     21  H   LIG d   1      -1.048  79.462 110.626  0.00  0.00    -0.090 HD
ENDBRANCH   5  18
BRANCH   3  22
ATOM     22  C   LIG d   1      -3.975  76.651 114.532  0.00  0.00     0.382 C 
ATOM     23  O   LIG d   1      -4.620  76.003 113.672  0.00  0.00    -0.241 OA
ATOM     24  O   LIG d   1      -4.222  76.482 115.741  0.00  0.00    -0.241 OA
ENDBRANCH   3  22
TORSDOF 7
ENDMDL
MODEL 7
REMARK VINA RESULT:      -4.2      2.857      4.821
REMARK  7 active torsions:
REMARK  status: ('A' for Active; 'I' for Inactive)
REMARK    1  A    between atoms: C_2  and  C_3 
REMARK    2  A    between atoms: C_3  and  O_6 
REMARK    3  A    between atoms: C_3  and  C_4 
REMARK    4  A    between atoms: C_7  and  O_6 
REMARK    5  A    between atoms: C_9  and  C_10 
REMARK    6  A    between atoms: N_15  and  C_14 
REMARK    7  A    between atoms: N_20  and  C_19 
REMARK       I    between atoms: C_22  and  N_20 
ROOT
ATOM      1  C   LIG d   1      -3.246  78.205 117.045  0.00  0.00     0.161 C 
ATOM      2  C   LIG d   1      -3.905  77.300 116.196  0.00  0.00     0.016 C 
ATOM      3  C   LIG d   1      -3.605  77.163 114.821  0.00  0.00     0.038 C 
ATOM      4  C   LIG d   1      -2.515  77.820 114.231  0.00  0.00     0.028 C 
ATOM      5  C   LIG d   1      -2.141  79.122 114.931  0.00  0.00    -0.047 C 
ATOM      6  C   LIG d   1      -1.979  78.850 116.444  0.00  0.00     0.091 C 
ENDROOT
BRANCH   1   7
ATOM      7  O   LIG d   1      -2.935  77.563 118.297  0.00  0.00    -0.368 OA
BRANCH   7   8
ATOM      8  C   LIG d   1      -1.789  76.676 118.292  0.00  0.00     0.119 C 
BRANCH   8   9
ATOM      9  C   LIG d   1      -2.281  75.281 118.724  0.00  0.00     0.028 C 
ATOM     10  C   LIG d   1      -2.243  74.263 117.572  0.00  0.00     0.006 C 
ENDBRANCH   8   9
BRANCH   8  11
ATOM     11  C   LIG d   1      -0.761  77.089 119.349  0.00  0.00     0.028 C 
ATOM     12  C   LIG d   1       0.482  76.184 119.357  0.00  0.00     0.006 C 
ENDBRANCH   8  11
ENDBRANCH   7   8
ENDBRANCH   1   7
BRANCH   6  13
ATOM     13  N   LIG d   1      -1.696  80.088 117.216  0.00  0.00    -0.311 N 
ATOM     14  C   LIG d   1      -0.471  80.459 117.583  0.00  0.00     0.210 C 
ATOM     15  C   LIG d   1      -0.403  81.760 118.389  0.00  0.00     0.109 C 
ATOM     16  O   LIG d   1       0.570  79.852 117.289  0.00  0.00    -0.276 OA
ATOM     17  H   LIG d   1      -2.480  80.657 117.469  0.00  0.00     0.149 HD
ENDBRANCH   6  13
BRANCH   5  18
ATOM     18  N   LIG d   1      -0.908  79.630 114.300  0.00  0.00     0.381 N 
ATOM     19  H   LIG d   1      -0.204  79.769 114.996  0.00  0.00    -0.090 HD
ATOM     20  H   LIG d   1      -1.105  80.516 113.869  0.00  0.00    -0.090 HD
ATOM     21  H   LIG d   1      -0.585  78.983 113.614  0.00  0.00    -0.090 HD
ENDBRANCH   5  18
BRANCH   3  22
ATOM     22  C   LIG d   1      -4.425  76.392 114.012  0.00  0.00     0.382 C 
ATOM     23  O   LIG d   1      -4.564  75.167 114.247  0.00  0.00    -0.241 OA
ATOM     24  O   LIG d   1      -4.993  76.895 113.025  0.00  0.00    -0.241 OA
ENDBRANCH   3  22
TORSDOF 7
ENDMDL
MODEL 8
REMARK VINA RESULT:      -4.1      2.227      3.145
REMARK  7 active torsions:
REMARK  status: ('A' for Active; 'I' for Inactive)
REMARK    1  A    between atoms: C_2  and  C_3 
REMARK    2  A    between atoms: C_3  and  O_6 
REMARK    3  A    between atoms: C_3  and  C_4 
REMARK    4  A    between atoms: C_7  and  O_6 
REMARK    5  A    between atoms: C_9  and  C_10 
REMARK    6  A    between atoms: N_15  and  C_14 
REMARK    7  A    between atoms: N_20  and  C_19 
REMARK       I    between atoms: C_22  and  N_20 
ROOT
ATOM      1  C   LIG d   1      -1.462  77.934 116.035  0.00  0.00     0.161 C 
ATOM      2  C   LIG d   1      -1.494  78.896 115.012  0.00  0.00     0.016 C 
ATOM      3  C   LIG d   1      -2.372  78.826 113.906  0.00  0.00     0.038 C 
ATOM      4  C   LIG d   1      -3.388  77.862 113.826  0.00  0.00     0.028 C 
ATOM      5  C   LIG d   1      -3.065  76.577 114.581  0.00  0.00    -0.047 C 
ATOM      6  C   LIG d   1      -2.638  76.936 116.022  0.00  0.00     0.091 C 
ENDROOT
BRANCH   1   7
ATOM      7  O   LIG d   1      -1.373  78.588 117.317  0.00  0.00    -0.368 OA
BRANCH   7   8
ATOM      8  C   LIG d   1      -2.083  79.844 117.442  0.00  0.00     0.119 C 
BRANCH   8   9
ATOM      9  C   LIG d   1      -1.204  80.791 118.283  0.00  0.00     0.028 C 
ATOM     10  C   LIG d   1       0.199  80.978 117.681  0.00  0.00     0.006 C 
ENDBRANCH   8   9
BRANCH   8  11
ATOM     11  C   LIG d   1      -3.378  79.676 118.242  0.00  0.00     0.028 C 
ATOM     12  C   LIG d   1      -4.629  79.639 117.350  0.00  0.00     0.006 C 
ENDBRANCH   8  11
ENDBRANCH   7   8
ENDBRANCH   1   7
BRANCH   6  13
ATOM     13  N   LIG d   1      -2.223  75.742 116.804  0.00  0.00    -0.311 N 
ATOM     14  C   LIG d   1      -2.714  75.447 118.007  0.00  0.00     0.210 C 
ATOM     15  C   LIG d   1      -2.136  74.181 118.648  0.00  0.00     0.109 C 
ATOM     16  O   LIG d   1      -3.597  76.095 118.589  0.00  0.00    -0.276 OA
ATOM     17  H   LIG d   1      -1.534  75.144 116.393  0.00  0.00     0.149 HD
ENDBRANCH   6  13
BRANCH   5  18
ATOM     18  N   LIG d   1      -4.262  75.717 114.529  0.00  0.00     0.381 N 
ATOM     19  H   LIG d   1      -4.133  74.997 113.846  0.00  0.00    -0.090 HD
ATOM     20  H   LIG d   1      -5.052  76.275 114.255  0.00  0.00    -0.090 HD
ATOM     21  H   LIG d   1      -4.429  75.310 115.424  0.00  0.00    -0.090 HD
ENDBRANCH   5  18
BRANCH   3  22
ATOM     22  C   LIG d   1      -2.212  79.704 112.845  0.00  0.00     0.382 C 
ATOM     23  O   LIG d   1      -2.725  80.848 112.895  0.00  0.00    -0.241 OA
ATOM     24  O   LIG d   1      -1.599  79.351 111.820  0.00  0.00    -0.241 OA
ENDBRANCH   3  22
TORSDOF 7
ENDMDL
MODEL 9
REMARK VINA RESULT:      -4.0      2.875      3.845
REMARK  7 active torsions:
REMARK  status: ('A' for Active; 'I' for Inactive)
REMARK    1  A    between atoms: C_2  and  C_3 
REMARK    2  A    between atoms: C_3  and  O_6 
REMARK    3  A    between atoms: C_3  and  C_4 
REMARK    4  A    between atoms: C_7  and  O_6 
REMARK    5  A    between atoms: C_9  and  C_10 
REMARK    6  A    between atoms: N_15  and  C_14 
REMARK    7  A    between atoms: N_20  and  C_19 
REMARK       I    between atoms: C_22  and  N_20 
ROOT
ATOM      1  C   LIG d   1      -2.294  76.838 114.913  0.00  0.00     0.161 C 
ATOM      2  C   LIG d   1      -2.224  77.094 113.534  0.00  0.00     0.016 C 
ATOM      3  C   LIG d   1      -1.637  78.258 112.987  0.00  0.00     0.038 C 
ATOM      4  C   LIG d   1      -0.940  79.180 113.782  0.00  0.00     0.028 C 
ATOM      5  C   LIG d   1      -1.422  79.219 115.228  0.00  0.00    -0.047 C 
ATOM      6  C   LIG d   1      -1.441  77.779 115.790  0.00  0.00     0.091 C 
ENDROOT
BRANCH   1   7
ATOM      7  O   LIG d   1      -1.950  75.463 115.173  0.00  0.00    -0.368 OA
BRANCH   7   8
ATOM      8  C   LIG d   1      -3.001  74.638 115.735  0.00  0.00     0.119 C 
BRANCH   8   9
ATOM      9  C   LIG d   1      -4.253  75.523 115.887  0.00  0.00     0.028 C 
ATOM     10  C   LIG d   1      -5.484  74.923 115.189  0.00  0.00     0.006 C 
ENDBRANCH   8   9
BRANCH   8  11
ATOM     11  C   LIG d   1      -2.652  74.181 117.154  0.00  0.00     0.028 C 
ATOM     12  C   LIG d   1      -1.139  74.183 117.426  0.00  0.00     0.006 C 
ENDBRANCH   8  11
ENDBRANCH   7   8
ENDBRANCH   1   7
BRANCH   6  13
ATOM     13  N   LIG d   1      -1.981  77.717 117.173  0.00  0.00    -0.311 N 
ATOM     14  C   LIG d   1      -1.213  77.725 118.261  0.00  0.00     0.210 C 
ATOM     15  C   LIG d   1      -1.971  77.634 119.589  0.00  0.00     0.109 C 
ATOM     16  O   LIG d   1       0.023  77.832 118.253  0.00  0.00    -0.276 OA
ATOM     17  H   LIG d   1      -2.976  77.661 117.272  0.00  0.00     0.149 HD
ENDBRANCH   6  13
BRANCH   5  18
ATOM     18  N   LIG d   1      -0.522  80.119 115.974  0.00  0.00     0.381 N 
ATOM     19  H   LIG d   1      -0.192  79.659 116.799  0.00  0.00    -0.090 HD
ATOM     20  H   LIG d   1      -1.037  80.936 116.253  0.00  0.00    -0.090 HD
ATOM     21  H   LIG d   1       0.248  80.383 115.400  0.00  0.00    -0.090 HD
ENDBRANCH   5  18
BRANCH   3  22
ATOM     22  C   LIG d   1      -1.778  78.529 111.634  0.00  0.00     0.382 C 
ATOM     23  O   LIG d   1      -2.419  77.738 110.900  0.00  0.00    -0.241 OA
ATOM     24  O   LIG d   1      -1.235  79.530 111.130  0.00  0.00    -0.241 OA
ENDBRANCH   3  22
TORSDOF 7
ENDMDL
