MODEL 1
REMARK VINA RESULT:      -5.3      0.000      0.000
REMARK  7 active torsions:
REMARK  status: ('A' for Active; 'I' for Inactive)
REMARK    1  A    between atoms: C_2  and  C_3 
REMARK    2  A    between atoms: C_3  and  O_6 
REMARK    3  A    between atoms: C_3  and  C_4 
REMARK    4  A    between atoms: C_7  and  O_6 
REMARK    5  A    between atoms: C_9  and  C_10 
REMARK    6  A    between atoms: N_15  and  C_14 
REMARK    7  A    between atoms: N_20  and  C_19 
REMARK       I    between atoms: C_22  and  N_20 
ROOT
ATOM      1  C   LIG d   1      -2.595  78.514 115.255  0.00  0.00     0.161 C 
ATOM      2  C   LIG d   1      -2.863  79.724 114.593  0.00  0.00     0.016 C 
ATOM      3  C   LIG d   1      -2.645  79.919 113.210  0.00  0.00     0.038 C 
ATOM      4  C   LIG d   1      -2.284  78.863 112.360  0.00  0.00     0.028 C 
ATOM      5  C   LIG d   1      -1.517  77.751 113.068  0.00  0.00    -0.047 C 
ATOM      6  C   LIG d   1      -2.305  77.318 114.324  0.00  0.00     0.091 C 
ENDROOT
BRANCH   1   7
ATOM      7  O   LIG d   1      -3.676  78.199 116.155  0.00  0.00    -0.368 OA
BRANCH   7   8
ATOM      8  C   LIG d   1      -3.377  78.297 117.569  0.00  0.00     0.119 C 
BRANCH   8   9
ATOM      9  C   LIG d   1      -3.902  77.015 118.243  0.00  0.00     0.028 C 
ATOM     10  C   LIG d   1      -2.808  76.278 119.035  0.00  0.00     0.006 C 
ENDBRANCH   8   9
BRANCH   8  11
ATOM     11  C   LIG d   1      -4.151  79.445 118.224  0.00  0.00     0.028 C 
ATOM     12  C   LIG d   1      -5.436  79.808 117.463  0.00  0.00     0.006 C 
ENDBRANCH   8  11
ENDBRANCH   7   8
ENDBRANCH   1   7
BRANCH   6  13
ATOM     13  N   LIG d   1      -1.583  76.292 115.121  0.00  0.00    -0.311 N 
ATOM     14  C   LIG d   1      -2.097  75.100 115.420  0.00  0.00     0.210 C 
ATOM     15  C   LIG d   1      -1.193  74.201 116.269  0.00  0.00     0.109 C 
ATOM     16  O   LIG d   1      -3.203  74.690 115.036  0.00  0.00    -0.276 OA
ATOM     17  H   LIG d   1      -0.667  76.530 115.447  0.00  0.00     0.149 HD
ENDBRANCH   6  13
BRANCH   5  18
ATOM     18  N   LIG d   1      -1.325  76.655 112.099  0.00  0.00     0.381 N 
ATOM     19  H   LIG d   1      -1.209  75.789 112.586  0.00  0.00    -0.090 HD
ATOM     20  H   LIG d   1      -0.490  76.833 111.568  0.00  0.00    -0.090 HD
ATOM     21  H   LIG d   1      -2.110  76.599 111.488  0.00  0.00    -0.090 HD
ENDBRANCH   5  18
BRANCH   3  22
ATOM     22  C   LIG d   1      -2.751  81.192 112.670  0.00  0.00     0.382 C 
ATOM     23  O   LIG d   1      -3.872  81.748 112.591  0.00  0.00    -0.241 OA
ATOM     24  O   LIG d   1      -1.745  81.773 112.221  0.00  0.00    -0.241 OA
ENDBRANCH   3  22
TORSDOF 7
ENDMDL
MODEL 2
REMARK VINA RESULT:      -5.1      2.583      5.177
REMARK  7 active torsions:
REMARK  status: ('A' for Active; 'I' for Inactive)
REMARK    1  A    between atoms: C_2  and  C_3 
REMARK    2  A    between atoms: C_3  and  O_6 
REMARK    3  A    between atoms: C_3  and  C_4 
REMARK    4  A    between atoms: C_7  and  O_6 
REMARK    5  A    between atoms: C_9  and  C_10 
REMARK    6  A    between atoms: N_15  and  C_14 
REMARK    7  A    between atoms: N_20  and  C_19 
REMARK       I    between atoms: C_22  and  N_20 
ROOT
ATOM      1  C   LIG d   1      -1.883  79.580 114.205  0.00  0.00     0.161 C 
ATOM      2  C   LIG d   1      -2.375  78.339 114.641  0.00  0.00     0.016 C 
ATOM      3  C   LIG d   1      -2.501  77.212 113.796  0.00  0.00     0.038 C 
ATOM      4  C   LIG d   1      -1.998  77.207 112.486  0.00  0.00     0.028 C 
ATOM      5  C   LIG d   1      -1.953  78.592 111.850  0.00  0.00    -0.047 C 
ATOM      6  C   LIG d   1      -1.226  79.562 112.809  0.00  0.00     0.091 C 
ENDROOT
BRANCH   1   7
ATOM      7  O   LIG d   1      -0.967  80.113 115.183  0.00  0.00    -0.368 OA
BRANCH   7   8
ATOM      8  C   LIG d   1      -0.828  79.352 116.407  0.00  0.00     0.119 C 
BRANCH   8   9
ATOM      9  C   LIG d   1      -1.199  80.284 117.577  0.00  0.00     0.028 C 
ATOM     10  C   LIG d   1      -2.557  79.928 118.204  0.00  0.00     0.006 C 
ENDBRANCH   8   9
BRANCH   8  11
ATOM     11  C   LIG d   1       0.630  78.953 116.653  0.00  0.00     0.028 C 
ATOM     12  C   LIG d   1       0.785  77.932 117.792  0.00  0.00     0.006 C 
ENDBRANCH   8  11
ENDBRANCH   7   8
ENDBRANCH   1   7
BRANCH   6  13
ATOM     13  N   LIG d   1      -1.212  80.959 112.300  0.00  0.00    -0.311 N 
ATOM     14  C   LIG d   1      -0.201  81.475 111.604  0.00  0.00     0.210 C 
ATOM     15  C   LIG d   1      -0.381  82.940 111.193  0.00  0.00     0.109 C 
ATOM     16  O   LIG d   1       0.814  80.850 111.261  0.00  0.00    -0.276 OA
ATOM     17  H   LIG d   1      -2.010  81.527 112.507  0.00  0.00     0.149 HD
ENDBRANCH   6  13
BRANCH   5  18
ATOM     18  N   LIG d   1      -1.283  78.461 110.543  0.00  0.00     0.381 N 
ATOM     19  H   LIG d   1      -0.358  78.838 110.597  0.00  0.00    -0.090 HD
ATOM     20  H   LIG d   1      -1.798  78.986 109.858  0.00  0.00    -0.090 HD
ATOM     21  H   LIG d   1      -1.243  77.502 110.275  0.00  0.00    -0.090 HD
ENDBRANCH   5  18
BRANCH   3  22
ATOM     22  C   LIG d   1      -3.172  76.086 114.248  0.00  0.00     0.382 C 
ATOM     23  O   LIG d   1      -2.556  75.209 114.900  0.00  0.00    -0.241 OA
ATOM     24  O   LIG d   1      -4.375  75.915 113.974  0.00  0.00    -0.241 OA
ENDBRANCH   3  22
TORSDOF 7
ENDMDL
MODEL 3
REMARK VINA RESULT:      -4.9      2.744      5.472
REMARK  7 active torsions:
REMARK  status: ('A' for Active; 'I' for Inactive)
REMARK    1  A    between atoms: C_2  and  C_3 
REMARK    2  A    between atoms: C_3  and  O_6 
REMARK    3  A    between atoms: C_3  and  C_4 
REMARK    4  A    between atoms: C_7  and  O_6 
REMARK    5  A    between atoms: C_9  and  C_10 
REMARK    6  A    between atoms: N_15  and  C_14 
REMARK    7  A    between atoms: N_20  and  C_19 
REMARK       I    between atoms: C_22  and  N_20 
ROOT
ATOM      1  C   LIG d   1      -1.732  75.231 115.559  0.00  0.00     0.161 C 
ATOM      2  C   LIG d   1      -1.483  74.893 116.900  0.00  0.00     0.016 C 
ATOM      3  C   LIG d   1      -1.066  75.829 117.874  0.00  0.00     0.038 C 
ATOM      4  C   LIG d   1      -1.016  77.205 117.606  0.00  0.00     0.028 C 
ATOM      5  C   LIG d   1      -0.771  77.528 116.136  0.00  0.00    -0.047 C 
ATOM      6  C   LIG d   1      -1.790  76.747 115.275  0.00  0.00     0.091 C 
ENDROOT
BRANCH   1   7
ATOM      7  O   LIG d   1      -2.943  74.591 115.110  0.00  0.00    -0.368 OA
BRANCH   7   8
ATOM      8  C   LIG d   1      -4.178  75.293 115.392  0.00  0.00     0.119 C 
BRANCH   8   9
ATOM      9  C   LIG d   1      -4.654  74.850 116.789  0.00  0.00     0.028 C 
ATOM     10  C   LIG d   1      -4.865  76.039 117.742  0.00  0.00     0.006 C 
ENDBRANCH   8   9
BRANCH   8  11
ATOM     11  C   LIG d   1      -5.292  74.869 114.431  0.00  0.00     0.028 C 
ATOM     12  C   LIG d   1      -6.442  75.887 114.365  0.00  0.00     0.006 C 
ENDBRANCH   8  11
ENDBRANCH   7   8
ENDBRANCH   1   7
BRANCH   6  13
ATOM     13  N   LIG d   1      -1.567  76.940 113.818  0.00  0.00    -0.311 N 
ATOM     14  C   LIG d   1      -2.428  77.570 113.022  0.00  0.00     0.210 C 
ATOM     15  C   LIG d   1      -2.014  77.641 111.549  0.00  0.00     0.109 C 
ATOM     16  O   LIG d   1      -3.482  78.104 113.401  0.00  0.00    -0.276 OA
ATOM     17  H   LIG d   1      -0.722  76.565 113.433  0.00  0.00     0.149 HD
ENDBRANCH   6  13
BRANCH   5  18
ATOM     18  N   LIG d   1      -0.880  78.990 115.977  0.00  0.00     0.381 N 
ATOM     19  H   LIG d   1      -1.540  79.204 115.256  0.00  0.00    -0.090 HD
ATOM     20  H   LIG d   1       0.015  79.355 115.704  0.00  0.00    -0.090 HD
ATOM     21  H   LIG d   1      -1.169  79.406 116.835  0.00  0.00    -0.090 HD
ENDBRANCH   5  18
BRANCH   3  22
ATOM     22  C   LIG d   1      -0.656  75.385 119.122  0.00  0.00     0.382 C 
ATOM     23  O   LIG d   1      -1.442  74.723 119.841  0.00  0.00    -0.241 OA
ATOM     24  O   LIG d   1       0.475  75.676 119.556  0.00  0.00    -0.241 OA
ENDBRANCH   3  22
TORSDOF 7
ENDMDL
MODEL 4
REMARK VINA RESULT:      -4.7      2.202      3.027
REMARK  7 active torsions:
REMARK  status: ('A' for Active; 'I' for Inactive)
REMARK    1  A    between atoms: C_2  and  C_3 
REMARK    2  A    between atoms: C_3  and  O_6 
REMARK    3  A    between atoms: C_3  and  C_4 
REMARK    4  A    between atoms: C_7  and  O_6 
REMARK    5  A    between atoms: C_9  and  C_10 
REMARK    6  A    between atoms: N_15  and  C_14 
REMARK    7  A    between atoms: N_20  and  C_19 
REMARK       I    between atoms: C_22  and  N_20 
ROOT
ATOM      1  C   LIG d   1      -2.970  77.393 115.210  0.00  0.00     0.161 C 
ATOM      2  C   LIG d   1      -3.128  78.304 114.152  0.00  0.00     0.016 C 
ATOM      3  C   LIG d   1      -2.172  79.294 113.829  0.00  0.00     0.038 C 
ATOM      4  C   LIG d   1      -0.915  79.343 114.450  0.00  0.00     0.028 C 
ATOM      5  C   LIG d   1      -0.915  78.765 115.862  0.00  0.00    -0.047 C 
ATOM      6  C   LIG d   1      -1.557  77.359 115.828  0.00  0.00     0.091 C 
ENDROOT
BRANCH   1   7
ATOM      7  O   LIG d   1      -3.361  76.074 114.781  0.00  0.00    -0.368 OA
BRANCH   7   8
ATOM      8  C   LIG d   1      -4.442  75.457 115.523  0.00  0.00     0.119 C 
BRANCH   8   9
ATOM      9  C   LIG d   1      -5.465  74.930 114.498  0.00  0.00     0.028 C 
ATOM     10  C   LIG d   1      -6.615  75.922 114.254  0.00  0.00     0.006 C 
ENDBRANCH   8   9
BRANCH   8  11
ATOM     11  C   LIG d   1      -5.202  76.488 116.362  0.00  0.00     0.028 C 
ATOM     12  C   LIG d   1      -5.206  76.151 117.861  0.00  0.00     0.006 C 
ENDBRANCH   8  11
ENDBRANCH   7   8
ENDBRANCH   1   7
BRANCH   6  13
ATOM     13  N   LIG d   1      -1.673  76.757 117.182  0.00  0.00    -0.311 N 
ATOM     14  C   LIG d   1      -1.325  75.501 117.458  0.00  0.00     0.210 C 
ATOM     15  C   LIG d   1      -1.544  75.075 118.913  0.00  0.00     0.109 C 
ATOM     16  O   LIG d   1      -0.825  74.710 116.644  0.00  0.00    -0.276 OA
ATOM     17  H   LIG d   1      -2.040  77.338 117.910  0.00  0.00     0.149 HD
ENDBRANCH   6  13
BRANCH   5  18
ATOM     18  N   LIG d   1       0.481  78.752 116.338  0.00  0.00     0.381 N 
ATOM     19  H   LIG d   1       0.676  77.883 116.793  0.00  0.00    -0.090 HD
ATOM     20  H   LIG d   1       0.603  79.492 117.007  0.00  0.00    -0.090 HD
ATOM     21  H   LIG d   1       1.104  78.882 115.572  0.00  0.00    -0.090 HD
ENDBRANCH   5  18
BRANCH   3  22
ATOM     22  C   LIG d   1      -2.485  80.275 112.900  0.00  0.00     0.382 C 
ATOM     23  O   LIG d   1      -3.494  81.001 113.070  0.00  0.00    -0.241 OA
ATOM     24  O   LIG d   1      -1.797  80.414 111.871  0.00  0.00    -0.241 OA
ENDBRANCH   3  22
TORSDOF 7
ENDMDL
MODEL 5
REMARK VINA RESULT:      -4.7      2.697      5.258
REMARK  7 active torsions:
REMARK  status: ('A' for Active; 'I' for Inactive)
REMARK    1  A    between atoms: C_2  and  C_3 
REMARK    2  A    between atoms: C_3  and  O_6 
REMARK    3  A    between atoms: C_3  and  C_4 
REMARK    4  A    between atoms: C_7  and  O_6 
REMARK    5  A    between atoms: C_9  and  C_10 
REMARK    6  A    between atoms: N_15  and  C_14 
REMARK    7  A    between atoms: N_20  and  C_19 
REMARK       I    between atoms: C_22  and  N_20 
ROOT
ATOM      1  C   LIG d   1      -2.919  78.172 115.493  0.00  0.00     0.161 C 
ATOM      2  C   LIG d   1      -1.637  78.493 115.968  0.00  0.00     0.016 C 
ATOM      3  C   LIG d   1      -0.836  77.598 116.715  0.00  0.00     0.038 C 
ATOM      4  C   LIG d   1      -1.206  76.259 116.909  0.00  0.00     0.028 C 
ATOM      5  C   LIG d   1      -2.714  76.036 116.881  0.00  0.00    -0.047 C 
ATOM      6  C   LIG d   1      -3.292  76.678 115.599  0.00  0.00     0.091 C 
ENDROOT
BRANCH   1   7
ATOM      7  O   LIG d   1      -3.065  78.629 114.133  0.00  0.00    -0.368 OA
BRANCH   7   8
ATOM      8  C   LIG d   1      -1.872  78.579 113.313  0.00  0.00     0.119 C 
BRANCH   8   9
ATOM      9  C   LIG d   1      -1.875  79.832 112.415  0.00  0.00     0.028 C 
ATOM     10  C   LIG d   1      -2.881  80.893 112.892  0.00  0.00     0.006 C 
ENDBRANCH   8   9
BRANCH   8  11
ATOM     11  C   LIG d   1      -1.908  77.389 112.349  0.00  0.00     0.028 C 
ATOM     12  C   LIG d   1      -1.993  77.819 110.875  0.00  0.00     0.006 C 
ENDBRANCH   8  11
ENDBRANCH   7   8
ENDBRANCH   1   7
BRANCH   6  13
ATOM     13  N   LIG d   1      -4.774  76.579 115.535  0.00  0.00    -0.311 N 
ATOM     14  C   LIG d   1      -5.416  75.625 114.863  0.00  0.00     0.210 C 
ATOM     15  C   LIG d   1      -6.944  75.719 114.909  0.00  0.00     0.109 C 
ATOM     16  O   LIG d   1      -4.865  74.692 114.260  0.00  0.00    -0.276 OA
ATOM     17  H   LIG d   1      -5.299  77.278 116.022  0.00  0.00     0.149 HD
ENDBRANCH   6  13
BRANCH   5  18
ATOM     18  N   LIG d   1      -2.951  74.582 116.958  0.00  0.00     0.381 N 
ATOM     19  H   LIG d   1      -2.404  74.188 117.696  0.00  0.00    -0.090 HD
ATOM     20  H   LIG d   1      -2.664  74.160 116.092  0.00  0.00    -0.090 HD
ATOM     21  H   LIG d   1      -3.918  74.403 117.119  0.00  0.00    -0.090 HD
ENDBRANCH   5  18
BRANCH   3  22
ATOM     22  C   LIG d   1       0.330  78.053 117.311  0.00  0.00     0.382 C 
ATOM     23  O   LIG d   1       0.802  77.451 118.305  0.00  0.00    -0.241 OA
ATOM     24  O   LIG d   1       0.892  79.084 116.894  0.00  0.00    -0.241 OA
ENDBRANCH   3  22
TORSDOF 7
ENDMDL
MODEL 6
REMARK VINA RESULT:      -4.6      2.612      3.908
REMARK  7 active torsions:
REMARK  status: ('A' for Active; 'I' for Inactive)
REMARK    1  A    between atoms: C_2  and  C_3 
REMARK    2  A    between atoms: C_3  and  O_6 
REMARK    3  A    between atoms: C_3  and  C_4 
REMARK    4  A    between atoms: C_7  and  O_6 
REMARK    5  A    between atoms: C_9  and  C_10 
REMARK    6  A    between atoms: N_15  and  C_14 
REMARK    7  A    between atoms: N_20  and  C_19 
REMARK       I    between atoms: C_22  and  N_20 
ROOT
ATOM      1  C   LIG d   1      -3.535  76.979 114.509  0.00  0.00     0.161 C 
ATOM      2  C   LIG d   1      -3.116  77.171 113.181  0.00  0.00     0.016 C 
ATOM      3  C   LIG d   1      -2.177  78.156 112.796  0.00  0.00     0.038 C 
ATOM      4  C   LIG d   1      -1.475  78.920 113.740  0.00  0.00     0.028 C 
ATOM      5  C   LIG d   1      -2.233  79.110 115.050  0.00  0.00    -0.047 C 
ATOM      6  C   LIG d   1      -2.698  77.729 115.566  0.00  0.00     0.091 C 
ENDROOT
BRANCH   1   7
ATOM      7  O   LIG d   1      -3.576  75.570 114.809  0.00  0.00    -0.368 OA
BRANCH   7   8
ATOM      8  C   LIG d   1      -4.888  74.956 114.807  0.00  0.00     0.119 C 
BRANCH   8   9
ATOM      9  C   LIG d   1      -5.930  76.090 114.800  0.00  0.00     0.028 C 
ATOM     10  C   LIG d   1      -6.828  76.055 113.552  0.00  0.00     0.006 C 
ENDBRANCH   8   9
BRANCH   8  11
ATOM     11  C   LIG d   1      -5.142  74.180 116.103  0.00  0.00     0.028 C 
ATOM     12  C   LIG d   1      -6.104  74.908 117.055  0.00  0.00     0.006 C 
ENDBRANCH   8  11
ENDBRANCH   7   8
ENDBRANCH   1   7
BRANCH   6  13
ATOM     13  N   LIG d   1      -3.519  77.832 116.800  0.00  0.00    -0.311 N 
ATOM     14  C   LIG d   1      -3.204  77.226 117.943  0.00  0.00     0.210 C 
ATOM     15  C   LIG d   1      -4.198  77.447 119.088  0.00  0.00     0.109 C 
ATOM     16  O   LIG d   1      -2.179  76.553 118.128  0.00  0.00    -0.276 OA
ATOM     17  H   LIG d   1      -4.353  78.384 116.748  0.00  0.00     0.149 HD
ENDBRANCH   6  13
BRANCH   5  18
ATOM     18  N   LIG d   1      -1.332  79.805 115.989  0.00  0.00     0.381 N 
ATOM     19  H   LIG d   1      -0.383  79.686 115.698  0.00  0.00    -0.090 HD
ATOM     20  H   LIG d   1      -1.437  79.397 116.901  0.00  0.00    -0.090 HD
ATOM     21  H   LIG d   1      -1.558  80.775 116.023  0.00  0.00    -0.090 HD
ENDBRANCH   5  18
BRANCH   3  22
ATOM     22  C   LIG d   1      -1.962  78.411 111.451  0.00  0.00     0.382 C 
ATOM     23  O   LIG d   1      -2.323  77.574 110.588  0.00  0.00    -0.241 OA
ATOM     24  O   LIG d   1      -1.371  79.446 111.091  0.00  0.00    -0.241 OA
ENDBRANCH   3  22
TORSDOF 7
ENDMDL
MODEL 7
REMARK VINA RESULT:      -4.5      2.775      3.430
REMARK  7 active torsions:
REMARK  status: ('A' for Active; 'I' for Inactive)
REMARK    1  A    between atoms: C_2  and  C_3 
REMARK    2  A    between atoms: C_3  and  O_6 
REMARK    3  A    between atoms: C_3  and  C_4 
REMARK    4  A    between atoms: C_7  and  O_6 
REMARK    5  A    between atoms: C_9  and  C_10 
REMARK    6  A    between atoms: N_15  and  C_14 
REMARK    7  A    between atoms: N_20  and  C_19 
REMARK       I    between atoms: C_22  and  N_20 
ROOT
ATOM      1  C   LIG d   1      -3.806  78.104 116.729  0.00  0.00     0.161 C 
ATOM      2  C   LIG d   1      -2.963  79.154 117.130  0.00  0.00     0.016 C 
ATOM      3  C   LIG d   1      -1.673  79.365 116.591  0.00  0.00     0.038 C 
ATOM      4  C   LIG d   1      -1.195  78.626 115.499  0.00  0.00     0.028 C 
ATOM      5  C   LIG d   1      -1.806  77.232 115.397  0.00  0.00    -0.047 C 
ATOM      6  C   LIG d   1      -3.346  77.354 115.461  0.00  0.00     0.091 C 
ENDROOT
BRANCH   1   7
ATOM      7  O   LIG d   1      -5.151  78.593 116.561  0.00  0.00    -0.368 OA
BRANCH   7   8
ATOM      8  C   LIG d   1      -6.027  78.455 117.707  0.00  0.00     0.119 C 
BRANCH   8   9
ATOM      9  C   LIG d   1      -6.987  77.286 117.417  0.00  0.00     0.028 C 
ATOM     10  C   LIG d   1      -6.623  76.018 118.207  0.00  0.00     0.006 C 
ENDBRANCH   8   9
BRANCH   8  11
ATOM     11  C   LIG d   1      -6.924  79.685 117.874  0.00  0.00     0.028 C 
ATOM     12  C   LIG d   1      -6.144  80.938 118.304  0.00  0.00     0.006 C 
ENDBRANCH   8  11
ENDBRANCH   7   8
ENDBRANCH   1   7
BRANCH   6  13
ATOM     13  N   LIG d   1      -4.020  76.029 115.452  0.00  0.00    -0.311 N 
ATOM     14  C   LIG d   1      -4.960  75.691 114.571  0.00  0.00     0.210 C 
ATOM     15  C   LIG d   1      -5.539  74.284 114.752  0.00  0.00     0.109 C 
ATOM     16  O   LIG d   1      -5.347  76.410 113.638  0.00  0.00    -0.276 OA
ATOM     17  H   LIG d   1      -3.745  75.373 116.156  0.00  0.00     0.149 HD
ENDBRANCH   6  13
BRANCH   5  18
ATOM     18  N   LIG d   1      -1.325  76.626 114.141  0.00  0.00     0.381 N 
ATOM     19  H   LIG d   1      -1.912  75.854 113.892  0.00  0.00    -0.090 HD
ATOM     20  H   LIG d   1      -0.393  76.280 114.284  0.00  0.00    -0.090 HD
ATOM     21  H   LIG d   1      -1.328  77.304 113.412  0.00  0.00    -0.090 HD
ENDBRANCH   5  18
BRANCH   3  22
ATOM     22  C   LIG d   1      -0.831  80.301 117.172  0.00  0.00     0.382 C 
ATOM     23  O   LIG d   1       0.230  80.636 116.592  0.00  0.00    -0.241 OA
ATOM     24  O   LIG d   1      -1.095  80.781 118.291  0.00  0.00    -0.241 OA
ENDBRANCH   3  22
TORSDOF 7
ENDMDL
MODEL 8
REMARK VINA RESULT:      -4.5      2.396      3.727
REMARK  7 active torsions:
REMARK  status: ('A' for Active; 'I' for Inactive)
REMARK    1  A    between atoms: C_2  and  C_3 
REMARK    2  A    between atoms: C_3  and  O_6 
REMARK    3  A    between atoms: C_3  and  C_4 
REMARK    4  A    between atoms: C_7  and  O_6 
REMARK    5  A    between atoms: C_9  and  C_10 
REMARK    6  A    between atoms: N_15  and  C_14 
REMARK    7  A    between atoms: N_20  and  C_19 
REMARK       I    between atoms: C_22  and  N_20 
ROOT
ATOM      1  C   LIG d   1      -2.973  77.062 114.904  0.00  0.00     0.161 C 
ATOM      2  C   LIG d   1      -2.807  77.198 113.516  0.00  0.00     0.016 C 
ATOM      3  C   LIG d   1      -2.011  78.204 112.921  0.00  0.00     0.038 C 
ATOM      4  C   LIG d   1      -1.200  79.056 113.686  0.00  0.00     0.028 C 
ATOM      5  C   LIG d   1      -1.725  79.284 115.099  0.00  0.00    -0.047 C 
ATOM      6  C   LIG d   1      -2.008  77.913 115.756  0.00  0.00     0.091 C 
ENDROOT
BRANCH   1   7
ATOM      7  O   LIG d   1      -2.876  75.673 115.275  0.00  0.00    -0.368 OA
BRANCH   7   8
ATOM      8  C   LIG d   1      -3.829  75.208 116.261  0.00  0.00     0.119 C 
BRANCH   8   9
ATOM      9  C   LIG d   1      -3.054  74.369 117.295  0.00  0.00     0.028 C 
ATOM     10  C   LIG d   1      -1.538  74.378 117.040  0.00  0.00     0.006 C 
ENDBRANCH   8   9
BRANCH   8  11
ATOM     11  C   LIG d   1      -4.849  74.248 115.642  0.00  0.00     0.028 C 
ATOM     12  C   LIG d   1      -5.754  74.929 114.602  0.00  0.00     0.006 C 
ENDBRANCH   8  11
ENDBRANCH   7   8
ENDBRANCH   1   7
BRANCH   6  13
ATOM     13  N   LIG d   1      -2.603  78.047 117.112  0.00  0.00    -0.311 N 
ATOM     14  C   LIG d   1      -1.891  77.979 118.235  0.00  0.00     0.210 C 
ATOM     15  C   LIG d   1      -2.704  78.121 119.526  0.00  0.00     0.109 C 
ATOM     16  O   LIG d   1      -0.659  77.846 118.285  0.00  0.00    -0.276 OA
ATOM     17  H   LIG d   1      -3.593  78.188 117.163  0.00  0.00     0.149 HD
ENDBRANCH   6  13
BRANCH   5  18
ATOM     18  N   LIG d   1      -0.715  80.076 115.827  0.00  0.00     0.381 N 
ATOM     19  H   LIG d   1      -0.254  80.699 115.195  0.00  0.00    -0.090 HD
ATOM     20  H   LIG d   1      -0.029  79.452 116.213  0.00  0.00    -0.090 HD
ATOM     21  H   LIG d   1      -1.151  80.595 116.557  0.00  0.00    -0.090 HD
ENDBRANCH   5  18
BRANCH   3  22
ATOM     22  C   LIG d   1      -2.052  78.391 111.548  0.00  0.00     0.382 C 
ATOM     23  O   LIG d   1      -1.483  79.383 111.033  0.00  0.00    -0.241 OA
ATOM     24  O   LIG d   1      -2.689  77.604 110.822  0.00  0.00    -0.241 OA
ENDBRANCH   3  22
TORSDOF 7
ENDMDL
MODEL 9
REMARK VINA RESULT:      -4.4      2.559      3.453
REMARK  7 active torsions:
REMARK  status: ('A' for Active; 'I' for Inactive)
REMARK    1  A    between atoms: C_2  and  C_3 
REMARK    2  A    between atoms: C_3  and  O_6 
REMARK    3  A    between atoms: C_3  and  C_4 
REMARK    4  A    between atoms: C_7  and  O_6 
REMARK    5  A    between atoms: C_9  and  C_10 
REMARK    6  A    between atoms: N_15  and  C_14 
REMARK    7  A    between atoms: N_20  and  C_19 
REMARK       I    between atoms: C_22  and  N_20 
ROOT
ATOM      1  C   LIG d   1      -3.761  76.142 115.584  0.00  0.00     0.161 C 
ATOM      2  C   LIG d   1      -3.844  76.925 114.420  0.00  0.00     0.016 C 
ATOM      3  C   LIG d   1      -2.764  77.108 113.527  0.00  0.00     0.038 C 
ATOM      4  C   LIG d   1      -1.564  76.392 113.657  0.00  0.00     0.028 C 
ATOM      5  C   LIG d   1      -1.259  75.979 115.093  0.00  0.00    -0.047 C 
ATOM      6  C   LIG d   1      -2.496  75.265 115.684  0.00  0.00     0.091 C 
ENDROOT
BRANCH   1   7
ATOM      7  O   LIG d   1      -4.945  75.330 115.711  0.00  0.00    -0.368 OA
BRANCH   7   8
ATOM      8  C   LIG d   1      -6.109  75.983 116.276  0.00  0.00     0.119 C 
BRANCH   8   9
ATOM      9  C   LIG d   1      -6.151  75.637 117.777  0.00  0.00     0.028 C 
ATOM     10  C   LIG d   1      -5.665  76.797 118.661  0.00  0.00     0.006 C 
ENDBRANCH   8   9
BRANCH   8  11
ATOM     11  C   LIG d   1      -7.405  75.415 115.691  0.00  0.00     0.028 C 
ATOM     12  C   LIG d   1      -8.625  75.668 116.591  0.00  0.00     0.006 C 
ENDBRANCH   8  11
ENDBRANCH   7   8
ENDBRANCH   1   7
BRANCH   6  13
ATOM     13  N   LIG d   1      -2.312  74.902 117.113  0.00  0.00    -0.311 N 
ATOM     14  C   LIG d   1      -2.072  75.795 118.071  0.00  0.00     0.210 C 
ATOM     15  C   LIG d   1      -1.895  75.207 119.475  0.00  0.00     0.109 C 
ATOM     16  O   LIG d   1      -2.020  77.022 117.897  0.00  0.00    -0.276 OA
ATOM     17  H   LIG d   1      -2.369  73.930 117.348  0.00  0.00     0.149 HD
ENDBRANCH   6  13
BRANCH   5  18
ATOM     18  N   LIG d   1      -0.057  75.125 115.065  0.00  0.00     0.381 N 
ATOM     19  H   LIG d   1       0.628  75.482 115.701  0.00  0.00    -0.090 HD
ATOM     20  H   LIG d   1       0.334  75.143 114.139  0.00  0.00    -0.090 HD
ATOM     21  H   LIG d   1      -0.296  74.190 115.314  0.00  0.00    -0.090 HD
ENDBRANCH   5  18
BRANCH   3  22
ATOM     22  C   LIG d   1      -2.864  78.045 112.510  0.00  0.00     0.382 C 
ATOM     23  O   LIG d   1      -2.717  77.692 111.315  0.00  0.00    -0.241 OA
ATOM     24  O   LIG d   1      -3.055  79.247 112.775  0.00  0.00    -0.241 OA
ENDBRANCH   3  22
TORSDOF 7
ENDMDL
