MODEL 1
REMARK VINA RESULT:      -5.0      0.000      0.000
REMARK  7 active torsions:
REMARK  status: ('A' for Active; 'I' for Inactive)
REMARK    1  A    between atoms: C_2  and  C_3 
REMARK    2  A    between atoms: C_3  and  O_6 
REMARK    3  A    between atoms: C_3  and  C_4 
REMARK    4  A    between atoms: C_7  and  O_6 
REMARK    5  A    between atoms: C_9  and  C_10 
REMARK    6  A    between atoms: N_15  and  C_14 
REMARK    7  A    between atoms: N_20  and  C_19 
REMARK       I    between atoms: C_22  and  N_20 
ROOT
ATOM      1  C   LIG d   1      -3.435  79.347 115.496  0.00  0.00     0.161 C 
ATOM      2  C   LIG d   1      -3.209  80.280 114.471  0.00  0.00     0.016 C 
ATOM      3  C   LIG d   1      -2.317  80.057 113.397  0.00  0.00     0.038 C 
ATOM      4  C   LIG d   1      -1.698  78.815 113.193  0.00  0.00     0.028 C 
ATOM      5  C   LIG d   1      -1.505  78.016 114.478  0.00  0.00    -0.047 C 
ATOM      6  C   LIG d   1      -2.853  77.942 115.230  0.00  0.00     0.091 C 
ENDROOT
BRANCH   1   7
ATOM      7  O   LIG d   1      -4.846  79.260 115.777  0.00  0.00    -0.368 OA
BRANCH   7   8
ATOM      8  C   LIG d   1      -5.245  79.562 117.136  0.00  0.00     0.119 C 
BRANCH   8   9
ATOM      9  C   LIG d   1      -6.560  78.807 117.411  0.00  0.00     0.028 C 
ATOM     10  C   LIG d   1      -6.556  77.387 116.821  0.00  0.00     0.006 C 
ENDBRANCH   8   9
BRANCH   8  11
ATOM     11  C   LIG d   1      -5.587  81.046 117.300  0.00  0.00     0.028 C 
ATOM     12  C   LIG d   1      -7.100  81.314 117.275  0.00  0.00     0.006 C 
ENDBRANCH   8  11
ENDBRANCH   7   8
ENDBRANCH   1   7
BRANCH   6  13
ATOM     13  N   LIG d   1      -2.734  77.250 116.540  0.00  0.00    -0.311 N 
ATOM     14  C   LIG d   1      -3.007  75.958 116.714  0.00  0.00     0.210 C 
ATOM     15  C   LIG d   1      -2.838  75.449 118.149  0.00  0.00     0.109 C 
ATOM     16  O   LIG d   1      -3.342  75.178 115.810  0.00  0.00    -0.276 OA
ATOM     17  H   LIG d   1      -2.437  77.801 117.322  0.00  0.00     0.149 HD
ENDBRANCH   6  13
BRANCH   5  18
ATOM     18  N   LIG d   1      -0.978  76.691 114.103  0.00  0.00     0.381 N 
ATOM     19  H   LIG d   1      -0.051  76.785 113.739  0.00  0.00    -0.090 HD
ATOM     20  H   LIG d   1      -1.561  76.300 113.384  0.00  0.00    -0.090 HD
ATOM     21  H   LIG d   1      -0.971  76.090 114.898  0.00  0.00    -0.090 HD
ENDBRANCH   5  18
BRANCH   3  22
ATOM     22  C   LIG d   1      -2.005  81.098 112.535  0.00  0.00     0.382 C 
ATOM     23  O   LIG d   1      -2.694  82.146 112.543  0.00  0.00    -0.241 OA
ATOM     24  O   LIG d   1      -1.071  80.984 111.720  0.00  0.00    -0.241 OA
ENDBRANCH   3  22
TORSDOF 7
ENDMDL
MODEL 2
REMARK VINA RESULT:      -5.0      1.457      2.393
REMARK  7 active torsions:
REMARK  status: ('A' for Active; 'I' for Inactive)
REMARK    1  A    between atoms: C_2  and  C_3 
REMARK    2  A    between atoms: C_3  and  O_6 
REMARK    3  A    between atoms: C_3  and  C_4 
REMARK    4  A    between atoms: C_7  and  O_6 
REMARK    5  A    between atoms: C_9  and  C_10 
REMARK    6  A    between atoms: N_15  and  C_14 
REMARK    7  A    between atoms: N_20  and  C_19 
REMARK       I    between atoms: C_22  and  N_20 
ROOT
ATOM      1  C   LIG d   1      -2.106  78.813 115.110  0.00  0.00     0.161 C 
ATOM      2  C   LIG d   1      -2.513  80.056 114.596  0.00  0.00     0.016 C 
ATOM      3  C   LIG d   1      -2.601  80.335 113.213  0.00  0.00     0.038 C 
ATOM      4  C   LIG d   1      -2.433  79.336 112.243  0.00  0.00     0.028 C 
ATOM      5  C   LIG d   1      -1.529  78.195 112.698  0.00  0.00    -0.047 C 
ATOM      6  C   LIG d   1      -2.026  77.678 114.068  0.00  0.00     0.091 C 
ENDROOT
BRANCH   1   7
ATOM      7  O   LIG d   1      -2.966  78.431 116.202  0.00  0.00    -0.368 OA
BRANCH   7   8
ATOM      8  C   LIG d   1      -4.339  78.887 116.122  0.00  0.00     0.119 C 
BRANCH   8   9
ATOM      9  C   LIG d   1      -4.632  79.699 117.398  0.00  0.00     0.028 C 
ATOM     10  C   LIG d   1      -5.915  80.539 117.278  0.00  0.00     0.006 C 
ENDBRANCH   8   9
BRANCH   8  11
ATOM     11  C   LIG d   1      -5.319  77.711 116.155  0.00  0.00     0.028 C 
ATOM     12  C   LIG d   1      -5.010  76.709 117.279  0.00  0.00     0.006 C 
ENDBRANCH   8  11
ENDBRANCH   7   8
ENDBRANCH   1   7
BRANCH   6  13
ATOM     13  N   LIG d   1      -1.147  76.617 114.625  0.00  0.00    -0.311 N 
ATOM     14  C   LIG d   1      -1.602  75.446 115.068  0.00  0.00     0.210 C 
ATOM     15  C   LIG d   1      -0.530  74.503 115.622  0.00  0.00     0.109 C 
ATOM     16  O   LIG d   1      -2.789  75.086 115.026  0.00  0.00    -0.276 OA
ATOM     17  H   LIG d   1      -0.166  76.813 114.668  0.00  0.00     0.149 HD
ENDBRANCH   6  13
BRANCH   5  18
ATOM     18  N   LIG d   1      -1.552  77.161 111.647  0.00  0.00     0.381 N 
ATOM     19  H   LIG d   1      -0.657  76.717 111.588  0.00  0.00    -0.090 HD
ATOM     20  H   LIG d   1      -1.745  77.600 110.763  0.00  0.00    -0.090 HD
ATOM     21  H   LIG d   1      -2.254  76.484 111.849  0.00  0.00    -0.090 HD
ENDBRANCH   5  18
BRANCH   3  22
ATOM     22  C   LIG d   1      -2.821  81.636 112.787  0.00  0.00     0.382 C 
ATOM     23  O   LIG d   1      -1.946  82.232 112.114  0.00  0.00    -0.241 OA
ATOM     24  O   LIG d   1      -3.865  82.237 113.105  0.00  0.00    -0.241 OA
ENDBRANCH   3  22
TORSDOF 7
ENDMDL
MODEL 3
REMARK VINA RESULT:      -4.9      2.464      5.410
REMARK  7 active torsions:
REMARK  status: ('A' for Active; 'I' for Inactive)
REMARK    1  A    between atoms: C_2  and  C_3 
REMARK    2  A    between atoms: C_3  and  O_6 
REMARK    3  A    between atoms: C_3  and  C_4 
REMARK    4  A    between atoms: C_7  and  O_6 
REMARK    5  A    between atoms: C_9  and  C_10 
REMARK    6  A    between atoms: N_15  and  C_14 
REMARK    7  A    between atoms: N_20  and  C_19 
REMARK       I    between atoms: C_22  and  N_20 
ROOT
ATOM      1  C   LIG d   1      -1.883  76.398 115.068  0.00  0.00     0.161 C 
ATOM      2  C   LIG d   1      -1.826  75.876 116.370  0.00  0.00     0.016 C 
ATOM      3  C   LIG d   1      -1.435  76.635 117.497  0.00  0.00     0.038 C 
ATOM      4  C   LIG d   1      -1.218  78.019 117.420  0.00  0.00     0.028 C 
ATOM      5  C   LIG d   1      -0.773  78.486 116.038  0.00  0.00    -0.047 C 
ATOM      6  C   LIG d   1      -1.757  77.934 114.981  0.00  0.00     0.091 C 
ENDROOT
BRANCH   1   7
ATOM      7  O   LIG d   1      -3.090  75.957 114.416  0.00  0.00    -0.368 OA
BRANCH   7   8
ATOM      8  C   LIG d   1      -4.211  75.661 115.285  0.00  0.00     0.119 C 
BRANCH   8   9
ATOM      9  C   LIG d   1      -5.012  74.517 114.634  0.00  0.00     0.028 C 
ATOM     10  C   LIG d   1      -6.294  74.180 115.414  0.00  0.00     0.006 C 
ENDBRANCH   8   9
BRANCH   8  11
ATOM     11  C   LIG d   1      -5.183  76.843 115.362  0.00  0.00     0.028 C 
ATOM     12  C   LIG d   1      -5.107  77.590 116.703  0.00  0.00     0.006 C 
ENDBRANCH   8  11
ENDBRANCH   7   8
ENDBRANCH   1   7
BRANCH   6  13
ATOM     13  N   LIG d   1      -1.348  78.274 113.593  0.00  0.00    -0.311 N 
ATOM     14  C   LIG d   1      -2.141  78.904 112.729  0.00  0.00     0.210 C 
ATOM     15  C   LIG d   1      -1.530  79.140 111.344  0.00  0.00     0.109 C 
ATOM     16  O   LIG d   1      -3.281  79.320 112.987  0.00  0.00    -0.276 OA
ATOM     17  H   LIG d   1      -0.427  78.001 113.310  0.00  0.00     0.149 HD
ENDBRANCH   6  13
BRANCH   5  18
ATOM     18  N   LIG d   1      -0.718  79.960 116.062  0.00  0.00     0.381 N 
ATOM     19  H   LIG d   1       0.180  80.270 115.749  0.00  0.00    -0.090 HD
ATOM     20  H   LIG d   1      -0.849  80.275 117.007  0.00  0.00    -0.090 HD
ATOM     21  H   LIG d   1      -1.430  80.337 115.477  0.00  0.00    -0.090 HD
ENDBRANCH   5  18
BRANCH   3  22
ATOM     22  C   LIG d   1      -1.218  76.001 118.711  0.00  0.00     0.382 C 
ATOM     23  O   LIG d   1      -0.184  76.254 119.375  0.00  0.00    -0.241 OA
ATOM     24  O   LIG d   1      -2.022  75.147 119.130  0.00  0.00    -0.241 OA
ENDBRANCH   3  22
TORSDOF 7
ENDMDL
MODEL 4
REMARK VINA RESULT:      -4.9      3.286      5.766
REMARK  7 active torsions:
REMARK  status: ('A' for Active; 'I' for Inactive)
REMARK    1  A    between atoms: C_2  and  C_3 
REMARK    2  A    between atoms: C_3  and  O_6 
REMARK    3  A    between atoms: C_3  and  C_4 
REMARK    4  A    between atoms: C_7  and  O_6 
REMARK    5  A    between atoms: C_9  and  C_10 
REMARK    6  A    between atoms: N_15  and  C_14 
REMARK    7  A    between atoms: N_20  and  C_19 
REMARK       I    between atoms: C_22  and  N_20 
ROOT
ATOM      1  C   LIG d   1      -1.647  80.165 114.306  0.00  0.00     0.161 C 
ATOM      2  C   LIG d   1      -2.395  79.042 114.697  0.00  0.00     0.016 C 
ATOM      3  C   LIG d   1      -2.733  77.988 113.817  0.00  0.00     0.038 C 
ATOM      4  C   LIG d   1      -2.213  77.913 112.516  0.00  0.00     0.028 C 
ATOM      5  C   LIG d   1      -1.868  79.275 111.922  0.00  0.00    -0.047 C 
ATOM      6  C   LIG d   1      -0.977  80.047 112.921  0.00  0.00     0.091 C 
ENDROOT
BRANCH   1   7
ATOM      7  O   LIG d   1      -0.662  80.471 115.314  0.00  0.00    -0.368 OA
BRANCH   7   8
ATOM      8  C   LIG d   1      -0.836  79.815 116.594  0.00  0.00     0.119 C 
BRANCH   8   9
ATOM      9  C   LIG d   1      -0.836  80.909 117.679  0.00  0.00     0.028 C 
ATOM     10  C   LIG d   1      -1.999  80.751 118.672  0.00  0.00     0.006 C 
ENDBRANCH   8   9
BRANCH   8  11
ATOM     11  C   LIG d   1       0.359  78.915 116.926  0.00  0.00     0.028 C 
ATOM     12  C   LIG d   1      -0.043  77.449 117.148  0.00  0.00     0.006 C 
ENDBRANCH   8  11
ENDBRANCH   7   8
ENDBRANCH   1   7
BRANCH   6  13
ATOM     13  N   LIG d   1      -0.663  81.423 112.455  0.00  0.00    -0.311 N 
ATOM     14  C   LIG d   1       0.455  81.739 111.803  0.00  0.00     0.210 C 
ATOM     15  C   LIG d   1       0.590  83.218 111.431  0.00  0.00     0.109 C 
ATOM     16  O   LIG d   1       1.333  80.928 111.471  0.00  0.00    -0.276 OA
ATOM     17  H   LIG d   1      -1.336  82.137 112.655  0.00  0.00     0.149 HD
ENDBRANCH   6  13
BRANCH   5  18
ATOM     18  N   LIG d   1      -1.211  79.040 110.622  0.00  0.00     0.381 N 
ATOM     19  H   LIG d   1      -1.278  78.072 110.378  0.00  0.00    -0.090 HD
ATOM     20  H   LIG d   1      -0.238  79.279 110.703  0.00  0.00    -0.090 HD
ATOM     21  H   LIG d   1      -1.640  79.598 109.917  0.00  0.00    -0.090 HD
ENDBRANCH   5  18
BRANCH   3  22
ATOM     22  C   LIG d   1      -3.632  77.015 114.224  0.00  0.00     0.382 C 
ATOM     23  O   LIG d   1      -3.552  76.531 115.379  0.00  0.00    -0.241 OA
ATOM     24  O   LIG d   1      -4.495  76.583 113.436  0.00  0.00    -0.241 OA
ENDBRANCH   3  22
TORSDOF 7
ENDMDL
MODEL 5
REMARK VINA RESULT:      -4.8      2.556      5.951
REMARK  7 active torsions:
REMARK  status: ('A' for Active; 'I' for Inactive)
REMARK    1  A    between atoms: C_2  and  C_3 
REMARK    2  A    between atoms: C_3  and  O_6 
REMARK    3  A    between atoms: C_3  and  C_4 
REMARK    4  A    between atoms: C_7  and  O_6 
REMARK    5  A    between atoms: C_9  and  C_10 
REMARK    6  A    between atoms: N_15  and  C_14 
REMARK    7  A    between atoms: N_20  and  C_19 
REMARK       I    between atoms: C_22  and  N_20 
ROOT
ATOM      1  C   LIG d   1      -4.215  78.572 115.989  0.00  0.00     0.161 C 
ATOM      2  C   LIG d   1      -4.041  77.277 115.472  0.00  0.00     0.016 C 
ATOM      3  C   LIG d   1      -5.004  76.251 115.603  0.00  0.00     0.038 C 
ATOM      4  C   LIG d   1      -6.280  76.495 116.134  0.00  0.00     0.028 C 
ATOM      5  C   LIG d   1      -6.312  77.655 117.124  0.00  0.00    -0.047 C 
ATOM      6  C   LIG d   1      -5.645  78.888 116.474  0.00  0.00     0.091 C 
ENDROOT
BRANCH   1   7
ATOM      7  O   LIG d   1      -3.788  79.548 115.018  0.00  0.00    -0.368 OA
BRANCH   7   8
ATOM      8  C   LIG d   1      -2.588  79.223 114.273  0.00  0.00     0.119 C 
BRANCH   8   9
ATOM      9  C   LIG d   1      -1.464  80.148 114.779  0.00  0.00     0.028 C 
ATOM     10  C   LIG d   1      -0.642  79.508 115.911  0.00  0.00     0.006 C 
ENDBRANCH   8   9
BRANCH   8  11
ATOM     11  C   LIG d   1      -2.748  79.555 112.787  0.00  0.00     0.028 C 
ATOM     12  C   LIG d   1      -2.658  78.313 111.886  0.00  0.00     0.006 C 
ENDBRANCH   8  11
ENDBRANCH   7   8
ENDBRANCH   1   7
BRANCH   6  13
ATOM     13  N   LIG d   1      -5.560  80.043 117.405  0.00  0.00    -0.311 N 
ATOM     14  C   LIG d   1      -6.469  81.015 117.453  0.00  0.00     0.210 C 
ATOM     15  C   LIG d   1      -6.179  82.122 118.472  0.00  0.00     0.109 C 
ATOM     16  O   LIG d   1      -7.505  81.049 116.772  0.00  0.00    -0.276 OA
ATOM     17  H   LIG d   1      -4.767  80.079 118.015  0.00  0.00     0.149 HD
ENDBRANCH   6  13
BRANCH   5  18
ATOM     18  N   LIG d   1      -7.722  77.887 117.492  0.00  0.00     0.381 N 
ATOM     19  H   LIG d   1      -7.783  78.656 118.129  0.00  0.00    -0.090 HD
ATOM     20  H   LIG d   1      -8.077  77.067 117.953  0.00  0.00    -0.090 HD
ATOM     21  H   LIG d   1      -8.260  78.078 116.677  0.00  0.00    -0.090 HD
ENDBRANCH   5  18
BRANCH   3  22
ATOM     22  C   LIG d   1      -4.680  74.953 115.238  0.00  0.00     0.382 C 
ATOM     23  O   LIG d   1      -4.012  74.231 116.016  0.00  0.00    -0.241 OA
ATOM     24  O   LIG d   1      -5.010  74.511 114.121  0.00  0.00    -0.241 OA
ENDBRANCH   3  22
TORSDOF 7
ENDMDL
MODEL 6
REMARK VINA RESULT:      -4.8      1.982      3.134
REMARK  7 active torsions:
REMARK  status: ('A' for Active; 'I' for Inactive)
REMARK    1  A    between atoms: C_2  and  C_3 
REMARK    2  A    between atoms: C_3  and  O_6 
REMARK    3  A    between atoms: C_3  and  C_4 
REMARK    4  A    between atoms: C_7  and  O_6 
REMARK    5  A    between atoms: C_9  and  C_10 
REMARK    6  A    between atoms: N_15  and  C_14 
REMARK    7  A    between atoms: N_20  and  C_19 
REMARK       I    between atoms: C_22  and  N_20 
ROOT
ATOM      1  C   LIG d   1      -2.763  78.406 114.802  0.00  0.00     0.161 C 
ATOM      2  C   LIG d   1      -3.049  79.383 113.834  0.00  0.00     0.016 C 
ATOM      3  C   LIG d   1      -2.162  80.432 113.502  0.00  0.00     0.038 C 
ATOM      4  C   LIG d   1      -0.856  80.488 114.011  0.00  0.00     0.028 C 
ATOM      5  C   LIG d   1      -0.706  79.811 115.369  0.00  0.00    -0.047 C 
ATOM      6  C   LIG d   1      -1.299  78.386 115.288  0.00  0.00     0.091 C 
ENDROOT
BRANCH   1   7
ATOM      7  O   LIG d   1      -3.146  77.105 114.312  0.00  0.00    -0.368 OA
BRANCH   7   8
ATOM      8  C   LIG d   1      -4.447  76.624 114.731  0.00  0.00     0.119 C 
BRANCH   8   9
ATOM      9  C   LIG d   1      -4.673  77.101 116.179  0.00  0.00     0.028 C 
ATOM     10  C   LIG d   1      -6.084  77.673 116.395  0.00  0.00     0.006 C 
ENDBRANCH   8   9
BRANCH   8  11
ATOM     11  C   LIG d   1      -4.480  75.094 114.799  0.00  0.00     0.028 C 
ATOM     12  C   LIG d   1      -3.840  74.541 116.082  0.00  0.00     0.006 C 
ENDBRANCH   8  11
ENDBRANCH   7   8
ENDBRANCH   1   7
BRANCH   6  13
ATOM     13  N   LIG d   1      -1.269  77.684 116.598  0.00  0.00    -0.311 N 
ATOM     14  C   LIG d   1      -0.758  76.465 116.765  0.00  0.00     0.210 C 
ATOM     15  C   LIG d   1      -0.846  75.917 118.193  0.00  0.00     0.109 C 
ATOM     16  O   LIG d   1      -0.212  75.799 115.873  0.00  0.00    -0.276 OA
ATOM     17  H   LIG d   1      -1.663  78.165 117.382  0.00  0.00     0.149 HD
ENDBRANCH   6  13
BRANCH   5  18
ATOM     18  N   LIG d   1       0.728  79.822 115.717  0.00  0.00     0.381 N 
ATOM     19  H   LIG d   1       0.935  80.628 116.272  0.00  0.00    -0.090 HD
ATOM     20  H   LIG d   1       1.267  79.874 114.871  0.00  0.00    -0.090 HD
ATOM     21  H   LIG d   1       0.963  78.994 116.219  0.00  0.00    -0.090 HD
ENDBRANCH   5  18
BRANCH   3  22
ATOM     22  C   LIG d   1      -2.593  81.462 112.681  0.00  0.00     0.382 C 
ATOM     23  O   LIG d   1      -1.756  82.173 112.074  0.00  0.00    -0.241 OA
ATOM     24  O   LIG d   1      -3.807  81.719 112.574  0.00  0.00    -0.241 OA
ENDBRANCH   3  22
TORSDOF 7
ENDMDL
MODEL 7
REMARK VINA RESULT:      -4.7      2.951      4.566
REMARK  7 active torsions:
REMARK  status: ('A' for Active; 'I' for Inactive)
REMARK    1  A    between atoms: C_2  and  C_3 
REMARK    2  A    between atoms: C_3  and  O_6 
REMARK    3  A    between atoms: C_3  and  C_4 
REMARK    4  A    between atoms: C_7  and  O_6 
REMARK    5  A    between atoms: C_9  and  C_10 
REMARK    6  A    between atoms: N_15  and  C_14 
REMARK    7  A    between atoms: N_20  and  C_19 
REMARK       I    between atoms: C_22  and  N_20 
ROOT
ATOM      1  C   LIG d   1      -5.609  77.431 116.656  0.00  0.00     0.161 C 
ATOM      2  C   LIG d   1      -6.256  78.649 116.924  0.00  0.00     0.016 C 
ATOM      3  C   LIG d   1      -5.589  79.895 116.949  0.00  0.00     0.038 C 
ATOM      4  C   LIG d   1      -4.249  80.027 116.556  0.00  0.00     0.028 C 
ATOM      5  C   LIG d   1      -3.429  78.758 116.765  0.00  0.00    -0.047 C 
ATOM      6  C   LIG d   1      -4.171  77.568 116.115  0.00  0.00     0.091 C 
ENDROOT
BRANCH   1   7
ATOM      7  O   LIG d   1      -6.410  76.641 115.755  0.00  0.00    -0.368 OA
BRANCH   7   8
ATOM      8  C   LIG d   1      -7.029  75.460 116.321  0.00  0.00     0.119 C 
BRANCH   8   9
ATOM      9  C   LIG d   1      -6.756  75.475 117.837  0.00  0.00     0.028 C 
ATOM     10  C   LIG d   1      -8.047  75.379 118.667  0.00  0.00     0.006 C 
ENDBRANCH   8   9
BRANCH   8  11
ATOM     11  C   LIG d   1      -6.366  74.180 115.802  0.00  0.00     0.028 C 
ATOM     12  C   LIG d   1      -5.816  74.330 114.375  0.00  0.00     0.006 C 
ENDBRANCH   8  11
ENDBRANCH   7   8
ENDBRANCH   1   7
BRANCH   6  13
ATOM     13  N   LIG d   1      -3.478  76.273 116.347  0.00  0.00    -0.311 N 
ATOM     14  C   LIG d   1      -2.646  75.720 115.466  0.00  0.00     0.210 C 
ATOM     15  C   LIG d   1      -2.054  74.373 115.894  0.00  0.00     0.109 C 
ATOM     16  O   LIG d   1      -2.317  76.231 114.385  0.00  0.00    -0.276 OA
ATOM     17  H   LIG d   1      -3.664  75.805 117.212  0.00  0.00     0.149 HD
ENDBRANCH   6  13
BRANCH   5  18
ATOM     18  N   LIG d   1      -2.092  78.991 116.187  0.00  0.00     0.381 N 
ATOM     19  H   LIG d   1      -2.122  78.853 115.196  0.00  0.00    -0.090 HD
ATOM     20  H   LIG d   1      -1.448  78.327 116.578  0.00  0.00    -0.090 HD
ATOM     21  H   LIG d   1      -1.789  79.918 116.391  0.00  0.00    -0.090 HD
ENDBRANCH   5  18
BRANCH   3  22
ATOM     22  C   LIG d   1      -6.253  81.021 117.410  0.00  0.00     0.382 C 
ATOM     23  O   LIG d   1      -7.054  81.628 116.658  0.00  0.00    -0.241 OA
ATOM     24  O   LIG d   1      -6.029  81.464 118.552  0.00  0.00    -0.241 OA
ENDBRANCH   3  22
TORSDOF 7
ENDMDL
MODEL 8
REMARK VINA RESULT:      -4.5      2.458      2.908
REMARK  7 active torsions:
REMARK  status: ('A' for Active; 'I' for Inactive)
REMARK    1  A    between atoms: C_2  and  C_3 
REMARK    2  A    between atoms: C_3  and  O_6 
REMARK    3  A    between atoms: C_3  and  C_4 
REMARK    4  A    between atoms: C_7  and  O_6 
REMARK    5  A    between atoms: C_9  and  C_10 
REMARK    6  A    between atoms: N_15  and  C_14 
REMARK    7  A    between atoms: N_20  and  C_19 
REMARK       I    between atoms: C_22  and  N_20 
ROOT
ATOM      1  C   LIG d   1      -3.755  78.264 116.464  0.00  0.00     0.161 C 
ATOM      2  C   LIG d   1      -2.976  79.359 116.874  0.00  0.00     0.016 C 
ATOM      3  C   LIG d   1      -1.662  79.596 116.409  0.00  0.00     0.038 C 
ATOM      4  C   LIG d   1      -1.089  78.832 115.381  0.00  0.00     0.028 C 
ATOM      5  C   LIG d   1      -1.645  77.415 115.299  0.00  0.00    -0.047 C 
ATOM      6  C   LIG d   1      -3.189  77.483 115.260  0.00  0.00     0.091 C 
ENDROOT
BRANCH   1   7
ATOM      7  O   LIG d   1      -5.102  78.698 116.192  0.00  0.00    -0.368 OA
BRANCH   7   8
ATOM      8  C   LIG d   1      -6.032  78.621 117.300  0.00  0.00     0.119 C 
BRANCH   8   9
ATOM      9  C   LIG d   1      -6.999  77.456 117.013  0.00  0.00     0.028 C 
ATOM     10  C   LIG d   1      -6.580  76.158 117.722  0.00  0.00     0.006 C 
ENDBRANCH   8   9
BRANCH   8  11
ATOM     11  C   LIG d   1      -6.914  79.871 117.374  0.00  0.00     0.028 C 
ATOM     12  C   LIG d   1      -8.377  79.549 117.718  0.00  0.00     0.006 C 
ENDBRANCH   8  11
ENDBRANCH   7   8
ENDBRANCH   1   7
BRANCH   6  13
ATOM     13  N   LIG d   1      -3.816  76.135 115.264  0.00  0.00    -0.311 N 
ATOM     14  C   LIG d   1      -4.797  75.781 114.436  0.00  0.00     0.210 C 
ATOM     15  C   LIG d   1      -5.315  74.351 114.621  0.00  0.00     0.109 C 
ATOM     16  O   LIG d   1      -5.266  76.504 113.544  0.00  0.00    -0.276 OA
ATOM     17  H   LIG d   1      -3.475  75.475 115.935  0.00  0.00     0.149 HD
ENDBRANCH   6  13
BRANCH   5  18
ATOM     18  N   LIG d   1      -1.064  76.777 114.102  0.00  0.00     0.381 N 
ATOM     19  H   LIG d   1      -0.155  77.154 113.926  0.00  0.00    -0.090 HD
ATOM     20  H   LIG d   1      -1.649  76.979 113.310  0.00  0.00    -0.090 HD
ATOM     21  H   LIG d   1      -1.004  75.792 114.236  0.00  0.00    -0.090 HD
ENDBRANCH   5  18
BRANCH   3  22
ATOM     22  C   LIG d   1      -0.890  80.584 117.003  0.00  0.00     0.382 C 
ATOM     23  O   LIG d   1       0.044  81.121 116.361  0.00  0.00    -0.241 OA
ATOM     24  O   LIG d   1      -1.089  80.913 118.188  0.00  0.00    -0.241 OA
ENDBRANCH   3  22
TORSDOF 7
ENDMDL
MODEL 9
REMARK VINA RESULT:      -4.4      2.572      5.031
REMARK  7 active torsions:
REMARK  status: ('A' for Active; 'I' for Inactive)
REMARK    1  A    between atoms: C_2  and  C_3 
REMARK    2  A    between atoms: C_3  and  O_6 
REMARK    3  A    between atoms: C_3  and  C_4 
REMARK    4  A    between atoms: C_7  and  O_6 
REMARK    5  A    between atoms: C_9  and  C_10 
REMARK    6  A    between atoms: N_15  and  C_14 
REMARK    7  A    between atoms: N_20  and  C_19 
REMARK       I    between atoms: C_22  and  N_20 
ROOT
ATOM      1  C   LIG d   1      -2.291  76.609 115.006  0.00  0.00     0.161 C 
ATOM      2  C   LIG d   1      -3.561  76.426 114.433  0.00  0.00     0.016 C 
ATOM      3  C   LIG d   1      -4.644  75.827 115.118  0.00  0.00     0.038 C 
ATOM      4  C   LIG d   1      -4.573  75.506 116.481  0.00  0.00     0.028 C 
ATOM      5  C   LIG d   1      -3.157  75.209 116.961  0.00  0.00    -0.047 C 
ATOM      6  C   LIG d   1      -2.227  76.366 116.528  0.00  0.00     0.091 C 
ENDROOT
BRANCH   1   7
ATOM      7  O   LIG d   1      -1.797  77.924 114.687  0.00  0.00    -0.368 OA
BRANCH   7   8
ATOM      8  C   LIG d   1      -2.714  78.797 113.983  0.00  0.00     0.119 C 
BRANCH   8   9
ATOM      9  C   LIG d   1      -2.000  79.289 112.709  0.00  0.00     0.028 C 
ATOM     10  C   LIG d   1      -2.245  78.365 111.505  0.00  0.00     0.006 C 
ENDBRANCH   8   9
BRANCH   8  11
ATOM     11  C   LIG d   1      -3.014  80.061 114.794  0.00  0.00     0.028 C 
ATOM     12  C   LIG d   1      -3.875  79.782 116.036  0.00  0.00     0.006 C 
ENDBRANCH   8  11
ENDBRANCH   7   8
ENDBRANCH   1   7
BRANCH   6  13
ATOM     13  N   LIG d   1      -0.806  76.115 116.884  0.00  0.00    -0.311 N 
ATOM     14  C   LIG d   1      -0.253  76.525 118.025  0.00  0.00     0.210 C 
ATOM     15  C   LIG d   1       1.231  76.179 118.184  0.00  0.00     0.109 C 
ATOM     16  O   LIG d   1      -0.858  77.114 118.933  0.00  0.00    -0.276 OA
ATOM     17  H   LIG d   1      -0.250  75.617 116.218  0.00  0.00     0.149 HD
ENDBRANCH   6  13
BRANCH   5  18
ATOM     18  N   LIG d   1      -3.210  75.026 118.424  0.00  0.00     0.381 N 
ATOM     19  H   LIG d   1      -2.667  74.228 118.685  0.00  0.00    -0.090 HD
ATOM     20  H   LIG d   1      -4.163  74.863 118.696  0.00  0.00    -0.090 HD
ATOM     21  H   LIG d   1      -2.861  75.839 118.882  0.00  0.00    -0.090 HD
ENDBRANCH   5  18
BRANCH   3  22
ATOM     22  C   LIG d   1      -5.802  75.508 114.425  0.00  0.00     0.382 C 
ATOM     23  O   LIG d   1      -6.526  74.560 114.817  0.00  0.00    -0.241 OA
ATOM     24  O   LIG d   1      -6.109  76.126 113.388  0.00  0.00    -0.241 OA
ENDBRANCH   3  22
TORSDOF 7
ENDMDL
