MODEL 1
REMARK VINA RESULT:      -5.1      0.000      0.000
REMARK  7 active torsions:
REMARK  status: ('A' for Active; 'I' for Inactive)
REMARK    1  A    between atoms: C_2  and  C_3 
REMARK    2  A    between atoms: C_3  and  O_6 
REMARK    3  A    between atoms: C_3  and  C_4 
REMARK    4  A    between atoms: C_7  and  O_6 
REMARK    5  A    between atoms: C_9  and  C_10 
REMARK    6  A    between atoms: N_15  and  C_14 
REMARK    7  A    between atoms: N_20  and  C_19 
REMARK       I    between atoms: C_22  and  N_20 
ROOT
ATOM      1  C   LIG d   1      -1.722  75.169 115.702  0.00  0.00     0.161 C 
ATOM      2  C   LIG d   1      -1.287  74.720 116.960  0.00  0.00     0.016 C 
ATOM      3  C   LIG d   1      -0.633  75.549 117.900  0.00  0.00     0.038 C 
ATOM      4  C   LIG d   1      -0.504  76.932 117.704  0.00  0.00     0.028 C 
ATOM      5  C   LIG d   1      -0.476  77.336 116.234  0.00  0.00    -0.047 C 
ATOM      6  C   LIG d   1      -1.689  76.701 115.516  0.00  0.00     0.091 C 
ENDROOT
BRANCH   1   7
ATOM      7  O   LIG d   1      -3.043  74.660 115.431  0.00  0.00    -0.368 OA
BRANCH   7   8
ATOM      8  C   LIG d   1      -4.139  75.583 115.646  0.00  0.00     0.119 C 
BRANCH   8   9
ATOM      9  C   LIG d   1      -4.719  75.295 117.044  0.00  0.00     0.028 C 
ATOM     10  C   LIG d   1      -4.451  76.438 118.038  0.00  0.00     0.006 C 
ENDBRANCH   8   9
BRANCH   8  11
ATOM     11  C   LIG d   1      -5.288  75.322 114.668  0.00  0.00     0.028 C 
ATOM     12  C   LIG d   1      -6.581  76.055 115.058  0.00  0.00     0.006 C 
ENDBRANCH   8  11
ENDBRANCH   7   8
ENDBRANCH   1   7
BRANCH   6  13
ATOM     13  N   LIG d   1      -1.692  76.977 114.056  0.00  0.00    -0.311 N 
ATOM     14  C   LIG d   1      -2.383  77.969 113.498  0.00  0.00     0.210 C 
ATOM     15  C   LIG d   1      -2.263  78.065 111.974  0.00  0.00     0.109 C 
ATOM     16  O   LIG d   1      -3.059  78.799 114.125  0.00  0.00    -0.276 OA
ATOM     17  H   LIG d   1      -1.145  76.370 113.476  0.00  0.00     0.149 HD
ENDBRANCH   6  13
BRANCH   5  18
ATOM     18  N   LIG d   1      -0.477  78.810 116.176  0.00  0.00     0.381 N 
ATOM     19  H   LIG d   1      -0.033  79.117 115.334  0.00  0.00    -0.090 HD
ATOM     20  H   LIG d   1       0.046  79.166 116.957  0.00  0.00    -0.090 HD
ATOM     21  H   LIG d   1      -1.413  79.152 116.210  0.00  0.00    -0.090 HD
ENDBRANCH   5  18
BRANCH   3  22
ATOM     22  C   LIG d   1      -0.065  74.988 119.033  0.00  0.00     0.382 C 
ATOM     23  O   LIG d   1       1.121  75.260 119.340  0.00  0.00    -0.241 OA
ATOM     24  O   LIG d   1      -0.709  74.180 119.729  0.00  0.00    -0.241 OA
ENDBRANCH   3  22
TORSDOF 7
ENDMDL
MODEL 2
REMARK VINA RESULT:      -5.0      3.231      5.413
REMARK  7 active torsions:
REMARK  status: ('A' for Active; 'I' for Inactive)
REMARK    1  A    between atoms: C_2  and  C_3 
REMARK    2  A    between atoms: C_3  and  O_6 
REMARK    3  A    between atoms: C_3  and  C_4 
REMARK    4  A    between atoms: C_7  and  O_6 
REMARK    5  A    between atoms: C_9  and  C_10 
REMARK    6  A    between atoms: N_15  and  C_14 
REMARK    7  A    between atoms: N_20  and  C_19 
REMARK       I    between atoms: C_22  and  N_20 
ROOT
ATOM      1  C   LIG d   1      -4.629  77.778 116.764  0.00  0.00     0.161 C 
ATOM      2  C   LIG d   1      -5.973  78.165 116.898  0.00  0.00     0.016 C 
ATOM      3  C   LIG d   1      -6.383  79.322 117.600  0.00  0.00     0.038 C 
ATOM      4  C   LIG d   1      -5.461  80.259 118.089  0.00  0.00     0.028 C 
ATOM      5  C   LIG d   1      -4.099  79.654 118.416  0.00  0.00    -0.047 C 
ATOM      6  C   LIG d   1      -3.602  78.847 117.195  0.00  0.00     0.091 C 
ENDROOT
BRANCH   1   7
ATOM      7  O   LIG d   1      -4.375  77.358 115.409  0.00  0.00    -0.368 OA
BRANCH   7   8
ATOM      8  C   LIG d   1      -4.153  75.940 115.213  0.00  0.00     0.119 C 
BRANCH   8   9
ATOM      9  C   LIG d   1      -5.493  75.319 114.772  0.00  0.00     0.028 C 
ATOM     10  C   LIG d   1      -6.042  74.317 115.801  0.00  0.00     0.006 C 
ENDBRANCH   8   9
BRANCH   8  11
ATOM     11  C   LIG d   1      -3.798  75.244 116.530  0.00  0.00     0.028 C 
ATOM     12  C   LIG d   1      -2.395  74.616 116.512  0.00  0.00     0.006 C 
ENDBRANCH   8  11
ENDBRANCH   7   8
ENDBRANCH   1   7
BRANCH   6  13
ATOM     13  N   LIG d   1      -2.315  78.153 117.461  0.00  0.00    -0.311 N 
ATOM     14  C   LIG d   1      -1.231  78.303 116.702  0.00  0.00     0.210 C 
ATOM     15  C   LIG d   1      -0.016  77.480 117.140  0.00  0.00     0.109 C 
ATOM     16  O   LIG d   1      -1.151  79.064 115.726  0.00  0.00    -0.276 OA
ATOM     17  H   LIG d   1      -2.282  77.540 118.252  0.00  0.00     0.149 HD
ENDBRANCH   6  13
BRANCH   5  18
ATOM     18  N   LIG d   1      -3.197  80.762 118.783  0.00  0.00     0.381 N 
ATOM     19  H   LIG d   1      -2.496  80.876 118.078  0.00  0.00    -0.090 HD
ATOM     20  H   LIG d   1      -2.739  80.535 119.648  0.00  0.00    -0.090 HD
ATOM     21  H   LIG d   1      -3.716  81.606 118.885  0.00  0.00    -0.090 HD
ENDBRANCH   5  18
BRANCH   3  22
ATOM     22  C   LIG d   1      -7.731  79.530 117.853  0.00  0.00     0.382 C 
ATOM     23  O   LIG d   1      -8.322  80.507 117.332  0.00  0.00    -0.241 OA
ATOM     24  O   LIG d   1      -8.351  78.780 118.630  0.00  0.00    -0.241 OA
ENDBRANCH   3  22
TORSDOF 7
ENDMDL
MODEL 3
REMARK VINA RESULT:      -4.9      2.177      5.188
REMARK  7 active torsions:
REMARK  status: ('A' for Active; 'I' for Inactive)
REMARK    1  A    between atoms: C_2  and  C_3 
REMARK    2  A    between atoms: C_3  and  O_6 
REMARK    3  A    between atoms: C_3  and  C_4 
REMARK    4  A    between atoms: C_7  and  O_6 
REMARK    5  A    between atoms: C_9  and  C_10 
REMARK    6  A    between atoms: N_15  and  C_14 
REMARK    7  A    between atoms: N_20  and  C_19 
REMARK       I    between atoms: C_22  and  N_20 
ROOT
ATOM      1  C   LIG d   1      -3.252  77.303 117.207  0.00  0.00     0.161 C 
ATOM      2  C   LIG d   1      -4.030  76.441 116.417  0.00  0.00     0.016 C 
ATOM      3  C   LIG d   1      -3.994  76.435 115.004  0.00  0.00     0.038 C 
ATOM      4  C   LIG d   1      -3.060  77.193 114.283  0.00  0.00     0.028 C 
ATOM      5  C   LIG d   1      -2.603  78.449 115.017  0.00  0.00    -0.047 C 
ATOM      6  C   LIG d   1      -2.146  78.059 116.442  0.00  0.00     0.091 C 
ENDROOT
BRANCH   1   7
ATOM      7  O   LIG d   1      -2.686  76.574 118.315  0.00  0.00    -0.368 OA
BRANCH   7   8
ATOM      8  C   LIG d   1      -1.357  76.035 118.110  0.00  0.00     0.119 C 
BRANCH   8   9
ATOM      9  C   LIG d   1      -1.509  74.528 117.822  0.00  0.00     0.028 C 
ATOM     10  C   LIG d   1      -1.219  74.180 116.353  0.00  0.00     0.006 C 
ENDBRANCH   8   9
BRANCH   8  11
ATOM     11  C   LIG d   1      -0.518  76.121 119.389  0.00  0.00     0.028 C 
ATOM     12  C   LIG d   1       0.778  75.300 119.307  0.00  0.00     0.006 C 
ENDBRANCH   8  11
ENDBRANCH   7   8
ENDBRANCH   1   7
BRANCH   6  13
ATOM     13  N   LIG d   1      -1.761  79.241 117.257  0.00  0.00    -0.311 N 
ATOM     14  C   LIG d   1      -0.504  79.520 117.595  0.00  0.00     0.210 C 
ATOM     15  C   LIG d   1      -0.330  80.775 118.456  0.00  0.00     0.109 C 
ATOM     16  O   LIG d   1       0.487  78.866 117.237  0.00  0.00    -0.276 OA
ATOM     17  H   LIG d   1      -2.500  79.843 117.564  0.00  0.00     0.149 HD
ENDBRANCH   6  13
BRANCH   5  18
ATOM     18  N   LIG d   1      -1.531  79.069 114.215  0.00  0.00     0.381 N 
ATOM     19  H   LIG d   1      -1.833  79.961 113.878  0.00  0.00    -0.090 HD
ATOM     20  H   LIG d   1      -1.336  78.482 113.424  0.00  0.00    -0.090 HD
ATOM     21  H   LIG d   1      -0.709  79.175 114.769  0.00  0.00    -0.090 HD
ENDBRANCH   5  18
BRANCH   3  22
ATOM     22  C   LIG d   1      -4.928  75.694 114.296  0.00  0.00     0.382 C 
ATOM     23  O   LIG d   1      -4.936  74.443 114.387  0.00  0.00    -0.241 OA
ATOM     24  O   LIG d   1      -5.735  76.258 113.533  0.00  0.00    -0.241 OA
ENDBRANCH   3  22
TORSDOF 7
ENDMDL
MODEL 4
REMARK VINA RESULT:      -4.6      2.553      4.976
REMARK  7 active torsions:
REMARK  status: ('A' for Active; 'I' for Inactive)
REMARK    1  A    between atoms: C_2  and  C_3 
REMARK    2  A    between atoms: C_3  and  O_6 
REMARK    3  A    between atoms: C_3  and  C_4 
REMARK    4  A    between atoms: C_7  and  O_6 
REMARK    5  A    between atoms: C_9  and  C_10 
REMARK    6  A    between atoms: N_15  and  C_14 
REMARK    7  A    between atoms: N_20  and  C_19 
REMARK       I    between atoms: C_22  and  N_20 
ROOT
ATOM      1  C   LIG d   1      -2.809  78.685 116.140  0.00  0.00     0.161 C 
ATOM      2  C   LIG d   1      -3.900  77.889 115.754  0.00  0.00     0.016 C 
ATOM      3  C   LIG d   1      -3.769  76.553 115.310  0.00  0.00     0.038 C 
ATOM      4  C   LIG d   1      -2.546  75.869 115.368  0.00  0.00     0.028 C 
ATOM      5  C   LIG d   1      -1.333  76.788 115.274  0.00  0.00    -0.047 C 
ATOM      6  C   LIG d   1      -1.480  77.921 116.315  0.00  0.00     0.091 C 
ENDROOT
BRANCH   1   7
ATOM      7  O   LIG d   1      -3.134  79.408 117.344  0.00  0.00    -0.368 OA
BRANCH   7   8
ATOM      8  C   LIG d   1      -4.313  78.960 118.057  0.00  0.00     0.119 C 
BRANCH   8   9
ATOM      9  C   LIG d   1      -5.242  80.179 118.226  0.00  0.00     0.028 C 
ATOM     10  C   LIG d   1      -6.635  79.943 117.621  0.00  0.00     0.006 C 
ENDBRANCH   8   9
BRANCH   8  11
ATOM     11  C   LIG d   1      -3.968  78.513 119.480  0.00  0.00     0.028 C 
ATOM     12  C   LIG d   1      -3.164  77.203 119.515  0.00  0.00     0.006 C 
ENDBRANCH   8  11
ENDBRANCH   7   8
ENDBRANCH   1   7
BRANCH   6  13
ATOM     13  N   LIG d   1      -0.376  78.913 116.233  0.00  0.00    -0.311 N 
ATOM     14  C   LIG d   1       0.368  79.270 117.279  0.00  0.00     0.210 C 
ATOM     15  C   LIG d   1       1.439  80.323 116.980  0.00  0.00     0.109 C 
ATOM     16  O   LIG d   1       0.263  78.790 118.418  0.00  0.00    -0.276 OA
ATOM     17  H   LIG d   1      -0.202  79.329 115.339  0.00  0.00     0.149 HD
ENDBRANCH   6  13
BRANCH   5  18
ATOM     18  N   LIG d   1      -0.129  75.961 115.485  0.00  0.00     0.381 N 
ATOM     19  H   LIG d   1      -0.329  75.235 116.144  0.00  0.00    -0.090 HD
ATOM     20  H   LIG d   1       0.600  76.539 115.865  0.00  0.00    -0.090 HD
ATOM     21  H   LIG d   1       0.167  75.564 114.621  0.00  0.00    -0.090 HD
ENDBRANCH   5  18
BRANCH   3  22
ATOM     22  C   LIG d   1      -4.864  75.899 114.765  0.00  0.00     0.382 C 
ATOM     23  O   LIG d   1      -5.977  76.476 114.715  0.00  0.00    -0.241 OA
ATOM     24  O   LIG d   1      -4.763  74.725 114.364  0.00  0.00    -0.241 OA
ENDBRANCH   3  22
TORSDOF 7
ENDMDL
MODEL 5
REMARK VINA RESULT:      -4.5      1.842      2.448
REMARK  7 active torsions:
REMARK  status: ('A' for Active; 'I' for Inactive)
REMARK    1  A    between atoms: C_2  and  C_3 
REMARK    2  A    between atoms: C_3  and  O_6 
REMARK    3  A    between atoms: C_3  and  C_4 
REMARK    4  A    between atoms: C_7  and  O_6 
REMARK    5  A    between atoms: C_9  and  C_10 
REMARK    6  A    between atoms: N_15  and  C_14 
REMARK    7  A    between atoms: N_20  and  C_19 
REMARK       I    between atoms: C_22  and  N_20 
ROOT
ATOM      1  C   LIG d   1      -3.293  77.290 115.625  0.00  0.00     0.161 C 
ATOM      2  C   LIG d   1      -3.133  76.465 116.750  0.00  0.00     0.016 C 
ATOM      3  C   LIG d   1      -2.062  76.595 117.664  0.00  0.00     0.038 C 
ATOM      4  C   LIG d   1      -1.156  77.664 117.597  0.00  0.00     0.028 C 
ATOM      5  C   LIG d   1      -0.983  78.224 116.190  0.00  0.00    -0.047 C 
ATOM      6  C   LIG d   1      -2.377  78.531 115.597  0.00  0.00     0.091 C 
ENDROOT
BRANCH   1   7
ATOM      7  O   LIG d   1      -4.674  77.683 115.500  0.00  0.00    -0.368 OA
BRANCH   7   8
ATOM      8  C   LIG d   1      -5.574  77.180 116.518  0.00  0.00     0.119 C 
BRANCH   8   9
ATOM      9  C   LIG d   1      -6.612  76.284 115.816  0.00  0.00     0.028 C 
ATOM     10  C   LIG d   1      -6.342  74.786 116.040  0.00  0.00     0.006 C 
ENDBRANCH   8   9
BRANCH   8  11
ATOM     11  C   LIG d   1      -6.383  78.314 117.156  0.00  0.00     0.028 C 
ATOM     12  C   LIG d   1      -5.532  79.558 117.453  0.00  0.00     0.006 C 
ENDBRANCH   8  11
ENDBRANCH   7   8
ENDBRANCH   1   7
BRANCH   6  13
ATOM     13  N   LIG d   1      -2.303  79.004 114.190  0.00  0.00    -0.311 N 
ATOM     14  C   LIG d   1      -2.033  78.203 113.160  0.00  0.00     0.210 C 
ATOM     15  C   LIG d   1      -1.985  78.898 111.796  0.00  0.00     0.109 C 
ATOM     16  O   LIG d   1      -1.861  76.978 113.244  0.00  0.00    -0.276 OA
ATOM     17  H   LIG d   1      -2.461  79.979 114.027  0.00  0.00     0.149 HD
ENDBRANCH   6  13
BRANCH   5  18
ATOM     18  N   LIG d   1      -0.121  79.417 116.287  0.00  0.00     0.381 N 
ATOM     19  H   LIG d   1      -0.205  79.822 117.198  0.00  0.00    -0.090 HD
ATOM     20  H   LIG d   1      -0.426  80.095 115.611  0.00  0.00    -0.090 HD
ATOM     21  H   LIG d   1       0.828  79.167 116.113  0.00  0.00    -0.090 HD
ENDBRANCH   5  18
BRANCH   3  22
ATOM     22  C   LIG d   1      -1.866  75.626 118.637  0.00  0.00     0.382 C 
ATOM     23  O   LIG d   1      -1.937  75.933 119.851  0.00  0.00    -0.241 OA
ATOM     24  O   LIG d   1      -1.576  74.458 118.315  0.00  0.00    -0.241 OA
ENDBRANCH   3  22
TORSDOF 7
ENDMDL
MODEL 6
REMARK VINA RESULT:      -4.5      2.960      5.381
REMARK  7 active torsions:
REMARK  status: ('A' for Active; 'I' for Inactive)
REMARK    1  A    between atoms: C_2  and  C_3 
REMARK    2  A    between atoms: C_3  and  O_6 
REMARK    3  A    between atoms: C_3  and  C_4 
REMARK    4  A    between atoms: C_7  and  O_6 
REMARK    5  A    between atoms: C_9  and  C_10 
REMARK    6  A    between atoms: N_15  and  C_14 
REMARK    7  A    between atoms: N_20  and  C_19 
REMARK       I    between atoms: C_22  and  N_20 
ROOT
ATOM      1  C   LIG d   1      -3.003  77.683 116.924  0.00  0.00     0.161 C 
ATOM      2  C   LIG d   1      -4.061  77.160 116.162  0.00  0.00     0.016 C 
ATOM      3  C   LIG d   1      -4.046  75.864 115.597  0.00  0.00     0.038 C 
ATOM      4  C   LIG d   1      -3.029  74.942 115.883  0.00  0.00     0.028 C 
ATOM      5  C   LIG d   1      -1.698  75.597 116.234  0.00  0.00    -0.047 C 
ATOM      6  C   LIG d   1      -1.934  76.651 117.340  0.00  0.00     0.091 C 
ENDROOT
BRANCH   1   7
ATOM      7  O   LIG d   1      -3.524  78.360 118.085  0.00  0.00    -0.368 OA
BRANCH   7   8
ATOM      8  C   LIG d   1      -3.690  79.794 117.965  0.00  0.00     0.119 C 
BRANCH   8   9
ATOM      9  C   LIG d   1      -2.538  80.460 118.743  0.00  0.00     0.028 C 
ATOM     10  C   LIG d   1      -2.983  81.742 119.466  0.00  0.00     0.006 C 
ENDBRANCH   8   9
BRANCH   8  11
ATOM     11  C   LIG d   1      -4.973  80.266 118.656  0.00  0.00     0.028 C 
ATOM     12  C   LIG d   1      -6.144  80.448 117.679  0.00  0.00     0.006 C 
ENDBRANCH   8  11
ENDBRANCH   7   8
ENDBRANCH   1   7
BRANCH   6  13
ATOM     13  N   LIG d   1      -0.696  77.399 117.683  0.00  0.00    -0.311 N 
ATOM     14  C   LIG d   1      -0.241  77.532 118.928  0.00  0.00     0.210 C 
ATOM     15  C   LIG d   1       1.041  78.360 119.063  0.00  0.00     0.109 C 
ATOM     16  O   LIG d   1      -0.760  77.017 119.930  0.00  0.00    -0.276 OA
ATOM     17  H   LIG d   1      -0.195  77.824 116.927  0.00  0.00     0.149 HD
ENDBRANCH   6  13
BRANCH   5  18
ATOM     18  N   LIG d   1      -0.768  74.527 116.644  0.00  0.00     0.381 N 
ATOM     19  H   LIG d   1      -0.683  73.853 115.909  0.00  0.00    -0.090 HD
ATOM     20  H   LIG d   1      -1.141  74.065 117.454  0.00  0.00    -0.090 HD
ATOM     21  H   LIG d   1       0.125  74.914 116.855  0.00  0.00    -0.090 HD
ENDBRANCH   5  18
BRANCH   3  22
ATOM     22  C   LIG d   1      -5.038  75.494 114.701  0.00  0.00     0.382 C 
ATOM     23  O   LIG d   1      -5.946  76.306 114.400  0.00  0.00    -0.241 OA
ATOM     24  O   LIG d   1      -5.062  74.343 114.225  0.00  0.00    -0.241 OA
ENDBRANCH   3  22
TORSDOF 7
ENDMDL
MODEL 7
REMARK VINA RESULT:      -4.4      2.832      5.433
REMARK  7 active torsions:
REMARK  status: ('A' for Active; 'I' for Inactive)
REMARK    1  A    between atoms: C_2  and  C_3 
REMARK    2  A    between atoms: C_3  and  O_6 
REMARK    3  A    between atoms: C_3  and  C_4 
REMARK    4  A    between atoms: C_7  and  O_6 
REMARK    5  A    between atoms: C_9  and  C_10 
REMARK    6  A    between atoms: N_15  and  C_14 
REMARK    7  A    between atoms: N_20  and  C_19 
REMARK       I    between atoms: C_22  and  N_20 
ROOT
ATOM      1  C   LIG d   1      -4.314  76.807 118.237  0.00  0.00     0.161 C 
ATOM      2  C   LIG d   1      -5.542  77.389 117.880  0.00  0.00     0.016 C 
ATOM      3  C   LIG d   1      -5.715  78.777 117.677  0.00  0.00     0.038 C 
ATOM      4  C   LIG d   1      -4.630  79.667 117.670  0.00  0.00     0.028 C 
ATOM      5  C   LIG d   1      -3.456  79.197 118.523  0.00  0.00    -0.047 C 
ATOM      6  C   LIG d   1      -3.096  77.747 118.125  0.00  0.00     0.091 C 
ENDROOT
BRANCH   1   7
ATOM      7  O   LIG d   1      -4.096  75.611 117.463  0.00  0.00    -0.368 OA
BRANCH   7   8
ATOM      8  C   LIG d   1      -3.751  75.808 116.069  0.00  0.00     0.119 C 
BRANCH   8   9
ATOM      9  C   LIG d   1      -4.673  74.900 115.232  0.00  0.00     0.028 C 
ATOM     10  C   LIG d   1      -5.788  75.688 114.524  0.00  0.00     0.006 C 
ENDBRANCH   8   9
BRANCH   8  11
ATOM     11  C   LIG d   1      -2.328  75.325 115.774  0.00  0.00     0.028 C 
ATOM     12  C   LIG d   1      -1.884  74.180 116.698  0.00  0.00     0.006 C 
ENDBRANCH   8  11
ENDBRANCH   7   8
ENDBRANCH   1   7
BRANCH   6  13
ATOM     13  N   LIG d   1      -2.011  77.181 118.969  0.00  0.00    -0.311 N 
ATOM     14  C   LIG d   1      -0.725  77.204 118.623  0.00  0.00     0.210 C 
ATOM     15  C   LIG d   1       0.226  76.548 119.629  0.00  0.00     0.109 C 
ATOM     16  O   LIG d   1      -0.279  77.733 117.594  0.00  0.00    -0.276 OA
ATOM     17  H   LIG d   1      -2.281  76.760 119.837  0.00  0.00     0.149 HD
ENDBRANCH   6  13
BRANCH   5  18
ATOM     18  N   LIG d   1      -2.347  80.147 118.315  0.00  0.00     0.381 N 
ATOM     19  H   LIG d   1      -2.565  80.762 117.557  0.00  0.00    -0.090 HD
ATOM     20  H   LIG d   1      -1.518  79.631 118.076  0.00  0.00    -0.090 HD
ATOM     21  H   LIG d   1      -2.190  80.674 119.146  0.00  0.00    -0.090 HD
ENDBRANCH   5  18
BRANCH   3  22
ATOM     22  C   LIG d   1      -6.992  79.294 117.518  0.00  0.00     0.382 C 
ATOM     23  O   LIG d   1      -7.147  80.511 117.256  0.00  0.00    -0.241 OA
ATOM     24  O   LIG d   1      -7.992  78.568 117.676  0.00  0.00    -0.241 OA
ENDBRANCH   3  22
TORSDOF 7
ENDMDL
MODEL 8
REMARK VINA RESULT:      -4.4      2.621      5.652
REMARK  7 active torsions:
REMARK  status: ('A' for Active; 'I' for Inactive)
REMARK    1  A    between atoms: C_2  and  C_3 
REMARK    2  A    between atoms: C_3  and  O_6 
REMARK    3  A    between atoms: C_3  and  C_4 
REMARK    4  A    between atoms: C_7  and  O_6 
REMARK    5  A    between atoms: C_9  and  C_10 
REMARK    6  A    between atoms: N_15  and  C_14 
REMARK    7  A    between atoms: N_20  and  C_19 
REMARK       I    between atoms: C_22  and  N_20 
ROOT
ATOM      1  C   LIG d   1      -1.027  78.158 116.821  0.00  0.00     0.161 C 
ATOM      2  C   LIG d   1      -1.752  78.653 115.725  0.00  0.00     0.016 C 
ATOM      3  C   LIG d   1      -2.148  77.853 114.628  0.00  0.00     0.038 C 
ATOM      4  C   LIG d   1      -1.974  76.461 114.625  0.00  0.00     0.028 C 
ATOM      5  C   LIG d   1      -0.800  75.995 115.480  0.00  0.00    -0.047 C 
ATOM      6  C   LIG d   1      -0.925  76.620 116.888  0.00  0.00     0.091 C 
ENDROOT
BRANCH   1   7
ATOM      7  O   LIG d   1      -1.580  78.677 118.047  0.00  0.00    -0.368 OA
BRANCH   7   8
ATOM      8  C   LIG d   1      -2.481  79.804 117.914  0.00  0.00     0.119 C 
BRANCH   8   9
ATOM      9  C   LIG d   1      -1.945  80.934 118.813  0.00  0.00     0.028 C 
ATOM     10  C   LIG d   1      -3.068  81.676 119.556  0.00  0.00     0.006 C 
ENDBRANCH   8   9
BRANCH   8  11
ATOM     11  C   LIG d   1      -3.872  79.473 118.463  0.00  0.00     0.028 C 
ATOM     12  C   LIG d   1      -4.958  79.479 117.376  0.00  0.00     0.006 C 
ENDBRANCH   8  11
ENDBRANCH   7   8
ENDBRANCH   1   7
BRANCH   6  13
ATOM     13  N   LIG d   1       0.229  76.283 117.762  0.00  0.00    -0.311 N 
ATOM     14  C   LIG d   1       0.134  75.489 118.828  0.00  0.00     0.210 C 
ATOM     15  C   LIG d   1       1.440  75.289 119.603  0.00  0.00     0.109 C 
ATOM     16  O   LIG d   1      -0.901  74.907 119.186  0.00  0.00    -0.276 OA
ATOM     17  H   LIG d   1       1.113  76.688 117.526  0.00  0.00     0.149 HD
ENDBRANCH   6  13
BRANCH   5  18
ATOM     18  N   LIG d   1      -0.818  74.520 115.497  0.00  0.00     0.381 N 
ATOM     19  H   LIG d   1      -0.091  74.179 116.093  0.00  0.00    -0.090 HD
ATOM     20  H   LIG d   1      -0.648  74.182 114.566  0.00  0.00    -0.090 HD
ATOM     21  H   LIG d   1      -1.702  74.194 115.820  0.00  0.00    -0.090 HD
ENDBRANCH   5  18
BRANCH   3  22
ATOM     22  C   LIG d   1      -2.689  78.451 113.501  0.00  0.00     0.382 C 
ATOM     23  O   LIG d   1      -3.224  77.746 112.612  0.00  0.00    -0.241 OA
ATOM     24  O   LIG d   1      -2.609  79.684 113.340  0.00  0.00    -0.241 OA
ENDBRANCH   3  22
TORSDOF 7
ENDMDL
MODEL 9
REMARK VINA RESULT:      -4.4      4.040      6.285
REMARK  7 active torsions:
REMARK  status: ('A' for Active; 'I' for Inactive)
REMARK    1  A    between atoms: C_2  and  C_3 
REMARK    2  A    between atoms: C_3  and  O_6 
REMARK    3  A    between atoms: C_3  and  C_4 
REMARK    4  A    between atoms: C_7  and  O_6 
REMARK    5  A    between atoms: C_9  and  C_10 
REMARK    6  A    between atoms: N_15  and  C_14 
REMARK    7  A    between atoms: N_20  and  C_19 
REMARK       I    between atoms: C_22  and  N_20 
ROOT
ATOM      1  C   LIG d   1      -5.343  78.787 117.554  0.00  0.00     0.161 C 
ATOM      2  C   LIG d   1      -6.631  79.339 117.462  0.00  0.00     0.016 C 
ATOM      3  C   LIG d   1      -6.979  80.597 118.005  0.00  0.00     0.038 C 
ATOM      4  C   LIG d   1      -6.017  81.461 118.548  0.00  0.00     0.028 C 
ATOM      5  C   LIG d   1      -4.802  80.736 119.115  0.00  0.00    -0.047 C 
ATOM      6  C   LIG d   1      -4.254  79.763 118.045  0.00  0.00     0.091 C 
ENDROOT
BRANCH   1   7
ATOM      7  O   LIG d   1      -4.965  78.213 116.286  0.00  0.00    -0.368 OA
BRANCH   7   8
ATOM      8  C   LIG d   1      -4.774  76.777 116.269  0.00  0.00     0.119 C 
BRANCH   8   9
ATOM      9  C   LIG d   1      -3.624  76.475 115.288  0.00  0.00     0.028 C 
ATOM     10  C   LIG d   1      -2.492  75.665 115.943  0.00  0.00     0.006 C 
ENDBRANCH   8   9
BRANCH   8  11
ATOM     11  C   LIG d   1      -5.998  76.058 115.692  0.00  0.00     0.028 C 
ATOM     12  C   LIG d   1      -5.846  75.729 114.199  0.00  0.00     0.006 C 
ENDBRANCH   8  11
ENDBRANCH   7   8
ENDBRANCH   1   7
BRANCH   6  13
ATOM     13  N   LIG d   1      -3.115  78.952 118.547  0.00  0.00    -0.311 N 
ATOM     14  C   LIG d   1      -1.960  78.827 117.895  0.00  0.00     0.210 C 
ATOM     15  C   LIG d   1      -0.926  77.927 118.579  0.00  0.00     0.109 C 
ATOM     16  O   LIG d   1      -1.683  79.401 116.832  0.00  0.00    -0.276 OA
ATOM     17  H   LIG d   1      -3.243  78.476 119.419  0.00  0.00     0.149 HD
ENDBRANCH   6  13
BRANCH   5  18
ATOM     18  N   LIG d   1      -3.821  81.760 119.522  0.00  0.00     0.381 N 
ATOM     19  H   LIG d   1      -3.396  81.496 120.388  0.00  0.00    -0.090 HD
ATOM     20  H   LIG d   1      -4.300  82.632 119.658  0.00  0.00    -0.090 HD
ATOM     21  H   LIG d   1      -3.123  81.862 118.818  0.00  0.00    -0.090 HD
ENDBRANCH   5  18
BRANCH   3  22
ATOM     22  C   LIG d   1      -8.310  80.985 118.043  0.00  0.00     0.382 C 
ATOM     23  O   LIG d   1      -8.873  81.397 117.000  0.00  0.00    -0.241 OA
ATOM     24  O   LIG d   1      -8.942  80.970 119.116  0.00  0.00    -0.241 OA
ENDBRANCH   3  22
TORSDOF 7
ENDMDL
