MODEL 1
REMARK VINA RESULT:      -4.5      0.000      0.000
REMARK  7 active torsions:
REMARK  status: ('A' for Active; 'I' for Inactive)
REMARK    1  A    between atoms: C_2  and  C_3 
REMARK    2  A    between atoms: C_3  and  O_6 
REMARK    3  A    between atoms: C_3  and  C_4 
REMARK    4  A    between atoms: C_7  and  O_6 
REMARK    5  A    between atoms: C_9  and  C_10 
REMARK    6  A    between atoms: N_15  and  C_14 
REMARK    7  A    between atoms: N_20  and  C_19 
REMARK       I    between atoms: C_22  and  N_20 
ROOT
ATOM      1  C   LIG d   1      -2.819  79.536 115.628  0.00  0.00     0.161 C 
ATOM      2  C   LIG d   1      -2.724  80.780 114.983  0.00  0.00     0.016 C 
ATOM      3  C   LIG d   1      -2.132  80.955 113.711  0.00  0.00     0.038 C 
ATOM      4  C   LIG d   1      -1.728  79.865 112.926  0.00  0.00     0.028 C 
ATOM      5  C   LIG d   1      -1.343  78.638 113.745  0.00  0.00    -0.047 C 
ATOM      6  C   LIG d   1      -2.484  78.320 114.738  0.00  0.00     0.091 C 
ENDROOT
BRANCH   1   7
ATOM      7  O   LIG d   1      -4.130  79.385 116.209  0.00  0.00    -0.368 OA
BRANCH   7   8
ATOM      8  C   LIG d   1      -4.181  79.312 117.655  0.00  0.00     0.119 C 
BRANCH   8   9
ATOM      9  C   LIG d   1      -5.059  78.101 118.026  0.00  0.00     0.028 C 
ATOM     10  C   LIG d   1      -5.882  77.585 116.833  0.00  0.00     0.006 C 
ENDBRANCH   8   9
BRANCH   8  11
ATOM     11  C   LIG d   1      -4.897  80.528 118.249  0.00  0.00     0.028 C 
ATOM     12  C   LIG d   1      -5.713  81.308 117.207  0.00  0.00     0.006 C 
ENDBRANCH   8  11
ENDBRANCH   7   8
ENDBRANCH   1   7
BRANCH   6  13
ATOM     13  N   LIG d   1      -2.153  77.183 115.637  0.00  0.00    -0.311 N 
ATOM     14  C   LIG d   1      -2.766  76.002 115.580  0.00  0.00     0.210 C 
ATOM     15  C   LIG d   1      -2.286  74.975 116.611  0.00  0.00     0.109 C 
ATOM     16  O   LIG d   1      -3.638  75.696 114.754  0.00  0.00    -0.276 OA
ATOM     17  H   LIG d   1      -1.435  77.334 116.318  0.00  0.00     0.149 HD
ENDBRANCH   6  13
BRANCH   5  18
ATOM     18  N   LIG d   1      -1.076  77.537 112.800  0.00  0.00     0.381 N 
ATOM     19  H   LIG d   1      -0.370  76.934 113.173  0.00  0.00    -0.090 HD
ATOM     20  H   LIG d   1      -0.737  77.924 111.937  0.00  0.00    -0.090 HD
ATOM     21  H   LIG d   1      -1.911  77.019 112.635  0.00  0.00    -0.090 HD
ENDBRANCH   5  18
BRANCH   3  22
ATOM     22  C   LIG d   1      -1.903  82.235 113.230  0.00  0.00     0.382 C 
ATOM     23  O   LIG d   1      -1.867  83.206 114.023  0.00  0.00    -0.241 OA
ATOM     24  O   LIG d   1      -1.775  82.436 112.007  0.00  0.00    -0.241 OA
ENDBRANCH   3  22
TORSDOF 7
ENDMDL
MODEL 2
REMARK VINA RESULT:      -4.5      1.238      1.874
REMARK  7 active torsions:
REMARK  status: ('A' for Active; 'I' for Inactive)
REMARK    1  A    between atoms: C_2  and  C_3 
REMARK    2  A    between atoms: C_3  and  O_6 
REMARK    3  A    between atoms: C_3  and  C_4 
REMARK    4  A    between atoms: C_7  and  O_6 
REMARK    5  A    between atoms: C_9  and  C_10 
REMARK    6  A    between atoms: N_15  and  C_14 
REMARK    7  A    between atoms: N_20  and  C_19 
REMARK       I    between atoms: C_22  and  N_20 
ROOT
ATOM      1  C   LIG d   1      -2.622  80.201 115.392  0.00  0.00     0.161 C 
ATOM      2  C   LIG d   1      -2.285  81.352 114.660  0.00  0.00     0.016 C 
ATOM      3  C   LIG d   1      -1.622  81.314 113.412  0.00  0.00     0.038 C 
ATOM      4  C   LIG d   1      -1.385  80.109 112.735  0.00  0.00     0.028 C 
ATOM      5  C   LIG d   1      -1.254  78.907 113.664  0.00  0.00    -0.047 C 
ATOM      6  C   LIG d   1      -2.471  78.875 114.617  0.00  0.00     0.091 C 
ENDROOT
BRANCH   1   7
ATOM      7  O   LIG d   1      -3.960  80.327 115.912  0.00  0.00    -0.368 OA
BRANCH   7   8
ATOM      8  C   LIG d   1      -4.231  81.518 116.691  0.00  0.00     0.119 C 
BRANCH   8   9
ATOM      9  C   LIG d   1      -3.495  81.370 118.036  0.00  0.00     0.028 C 
ATOM     10  C   LIG d   1      -2.938  82.707 118.551  0.00  0.00     0.006 C 
ENDBRANCH   8   9
BRANCH   8  11
ATOM     11  C   LIG d   1      -5.716  81.623 117.051  0.00  0.00     0.028 C 
ATOM     12  C   LIG d   1      -6.328  80.272 117.453  0.00  0.00     0.006 C 
ENDBRANCH   8  11
ENDBRANCH   7   8
ENDBRANCH   1   7
BRANCH   6  13
ATOM     13  N   LIG d   1      -2.380  77.778 115.616  0.00  0.00    -0.311 N 
ATOM     14  C   LIG d   1      -2.922  76.575 115.435  0.00  0.00     0.210 C 
ATOM     15  C   LIG d   1      -2.728  75.597 116.599  0.00  0.00     0.109 C 
ATOM     16  O   LIG d   1      -3.517  76.215 114.409  0.00  0.00    -0.276 OA
ATOM     17  H   LIG d   1      -1.887  77.975 116.465  0.00  0.00     0.149 HD
ENDBRANCH   6  13
BRANCH   5  18
ATOM     18  N   LIG d   1      -1.147  77.701 112.822  0.00  0.00     0.381 N 
ATOM     19  H   LIG d   1      -0.568  77.022 113.274  0.00  0.00    -0.090 HD
ATOM     20  H   LIG d   1      -0.718  77.951 111.949  0.00  0.00    -0.090 HD
ATOM     21  H   LIG d   1      -2.053  77.319 112.657  0.00  0.00    -0.090 HD
ENDBRANCH   5  18
BRANCH   3  22
ATOM     22  C   LIG d   1      -1.153  82.490 112.847  0.00  0.00     0.382 C 
ATOM     23  O   LIG d   1      -0.385  83.237 113.500  0.00  0.00    -0.241 OA
ATOM     24  O   LIG d   1      -1.524  82.836 111.709  0.00  0.00    -0.241 OA
ENDBRANCH   3  22
TORSDOF 7
ENDMDL
MODEL 3
REMARK VINA RESULT:      -4.3      2.533      5.629
REMARK  7 active torsions:
REMARK  status: ('A' for Active; 'I' for Inactive)
REMARK    1  A    between atoms: C_2  and  C_3 
REMARK    2  A    between atoms: C_3  and  O_6 
REMARK    3  A    between atoms: C_3  and  C_4 
REMARK    4  A    between atoms: C_7  and  O_6 
REMARK    5  A    between atoms: C_9  and  C_10 
REMARK    6  A    between atoms: N_15  and  C_14 
REMARK    7  A    between atoms: N_20  and  C_19 
REMARK       I    between atoms: C_22  and  N_20 
ROOT
ATOM      1  C   LIG d   1      -2.127  81.289 114.517  0.00  0.00     0.161 C 
ATOM      2  C   LIG d   1      -2.523  80.039 115.021  0.00  0.00     0.016 C 
ATOM      3  C   LIG d   1      -2.266  78.816 114.360  0.00  0.00     0.038 C 
ATOM      4  C   LIG d   1      -1.457  78.748 113.216  0.00  0.00     0.028 C 
ATOM      5  C   LIG d   1      -1.460  80.032 112.394  0.00  0.00    -0.047 C 
ATOM      6  C   LIG d   1      -1.147  81.225 113.327  0.00  0.00     0.091 C 
ENDROOT
BRANCH   1   7
ATOM      7  O   LIG d   1      -1.574  82.092 115.578  0.00  0.00    -0.368 OA
BRANCH   7   8
ATOM      8  C   LIG d   1      -2.395  83.193 116.039  0.00  0.00     0.119 C 
BRANCH   8   9
ATOM      9  C   LIG d   1      -1.486  84.431 116.156  0.00  0.00     0.028 C 
ATOM     10  C   LIG d   1      -0.724  84.476 117.491  0.00  0.00     0.006 C 
ENDBRANCH   8   9
BRANCH   8  11
ATOM     11  C   LIG d   1      -2.922  82.941 117.455  0.00  0.00     0.028 C 
ATOM     12  C   LIG d   1      -4.379  82.454 117.471  0.00  0.00     0.006 C 
ENDBRANCH   8  11
ENDBRANCH   7   8
ENDBRANCH   1   7
BRANCH   6  13
ATOM     13  N   LIG d   1      -1.213  82.530 112.619  0.00  0.00    -0.311 N 
ATOM     14  C   LIG d   1      -0.191  83.382 112.555  0.00  0.00     0.210 C 
ATOM     15  C   LIG d   1      -0.478  84.680 111.793  0.00  0.00     0.109 C 
ATOM     16  O   LIG d   1       0.935  83.172 113.029  0.00  0.00    -0.276 OA
ATOM     17  H   LIG d   1      -2.081  82.767 112.179  0.00  0.00     0.149 HD
ENDBRANCH   6  13
BRANCH   5  18
ATOM     18  N   LIG d   1      -0.472  79.871 111.311  0.00  0.00     0.381 N 
ATOM     19  H   LIG d   1      -0.452  78.917 111.010  0.00  0.00    -0.090 HD
ATOM     20  H   LIG d   1       0.439  80.109 111.663  0.00  0.00    -0.090 HD
ATOM     21  H   LIG d   1      -0.705  80.463 110.545  0.00  0.00    -0.090 HD
ENDBRANCH   5  18
BRANCH   3  22
ATOM     22  C   LIG d   1      -2.854  77.649 114.821  0.00  0.00     0.382 C 
ATOM     23  O   LIG d   1      -2.440  76.536 114.418  0.00  0.00    -0.241 OA
ATOM     24  O   LIG d   1      -3.824  77.696 115.602  0.00  0.00    -0.241 OA
ENDBRANCH   3  22
TORSDOF 7
ENDMDL
MODEL 4
REMARK VINA RESULT:      -4.2      1.243      2.080
REMARK  7 active torsions:
REMARK  status: ('A' for Active; 'I' for Inactive)
REMARK    1  A    between atoms: C_2  and  C_3 
REMARK    2  A    between atoms: C_3  and  O_6 
REMARK    3  A    between atoms: C_3  and  C_4 
REMARK    4  A    between atoms: C_7  and  O_6 
REMARK    5  A    between atoms: C_9  and  C_10 
REMARK    6  A    between atoms: N_15  and  C_14 
REMARK    7  A    between atoms: N_20  and  C_19 
REMARK       I    between atoms: C_22  and  N_20 
ROOT
ATOM      1  C   LIG d   1      -2.110  79.147 116.144  0.00  0.00     0.161 C 
ATOM      2  C   LIG d   1      -2.514  80.332 115.507  0.00  0.00     0.016 C 
ATOM      3  C   LIG d   1      -2.421  80.536 114.111  0.00  0.00     0.038 C 
ATOM      4  C   LIG d   1      -2.055  79.504 113.234  0.00  0.00     0.028 C 
ATOM      5  C   LIG d   1      -1.158  78.452 113.877  0.00  0.00    -0.047 C 
ATOM      6  C   LIG d   1      -1.812  77.970 115.192  0.00  0.00     0.091 C 
ENDROOT
BRANCH   1   7
ATOM      7  O   LIG d   1      -3.092  78.760 117.126  0.00  0.00    -0.368 OA
BRANCH   7   8
ATOM      8  C   LIG d   1      -4.407  78.430 116.616  0.00  0.00     0.119 C 
BRANCH   8   9
ATOM      9  C   LIG d   1      -5.444  79.091 117.546  0.00  0.00     0.028 C 
ATOM     10  C   LIG d   1      -5.605  80.595 117.268  0.00  0.00     0.006 C 
ENDBRANCH   8   9
BRANCH   8  11
ATOM     11  C   LIG d   1      -4.679  76.925 116.711  0.00  0.00     0.028 C 
ATOM     12  C   LIG d   1      -4.096  76.293 117.984  0.00  0.00     0.006 C 
ENDBRANCH   8  11
ENDBRANCH   7   8
ENDBRANCH   1   7
BRANCH   6  13
ATOM     13  N   LIG d   1      -0.959  77.000 115.928  0.00  0.00    -0.311 N 
ATOM     14  C   LIG d   1      -1.106  75.680 115.839  0.00  0.00     0.210 C 
ATOM     15  C   LIG d   1      -0.135  74.862 116.696  0.00  0.00     0.109 C 
ATOM     16  O   LIG d   1      -1.928  75.107 115.107  0.00  0.00    -0.276 OA
ATOM     17  H   LIG d   1      -0.247  77.378 116.521  0.00  0.00     0.149 HD
ENDBRANCH   6  13
BRANCH   5  18
ATOM     18  N   LIG d   1      -0.967  77.368 112.895  0.00  0.00     0.381 N 
ATOM     19  H   LIG d   1      -1.185  76.487 113.315  0.00  0.00    -0.090 HD
ATOM     20  H   LIG d   1      -0.003  77.352 112.612  0.00  0.00    -0.090 HD
ATOM     21  H   LIG d   1      -1.551  77.520 112.102  0.00  0.00    -0.090 HD
ENDBRANCH   5  18
BRANCH   3  22
ATOM     22  C   LIG d   1      -2.658  81.796 113.584  0.00  0.00     0.382 C 
ATOM     23  O   LIG d   1      -2.318  82.056 112.404  0.00  0.00    -0.241 OA
ATOM     24  O   LIG d   1      -3.166  82.690 114.287  0.00  0.00    -0.241 OA
ENDBRANCH   3  22
TORSDOF 7
ENDMDL
MODEL 5
REMARK VINA RESULT:      -3.9      1.926      2.407
REMARK  7 active torsions:
REMARK  status: ('A' for Active; 'I' for Inactive)
REMARK    1  A    between atoms: C_2  and  C_3 
REMARK    2  A    between atoms: C_3  and  O_6 
REMARK    3  A    between atoms: C_3  and  C_4 
REMARK    4  A    between atoms: C_7  and  O_6 
REMARK    5  A    between atoms: C_9  and  C_10 
REMARK    6  A    between atoms: N_15  and  C_14 
REMARK    7  A    between atoms: N_20  and  C_19 
REMARK       I    between atoms: C_22  and  N_20 
ROOT
ATOM      1  C   LIG d   1      -2.905  79.194 116.033  0.00  0.00     0.161 C 
ATOM      2  C   LIG d   1      -3.433  80.492 115.927  0.00  0.00     0.016 C 
ATOM      3  C   LIG d   1      -2.743  81.565 115.317  0.00  0.00     0.038 C 
ATOM      4  C   LIG d   1      -1.533  81.375 114.633  0.00  0.00     0.028 C 
ATOM      5  C   LIG d   1      -0.724  80.191 115.151  0.00  0.00    -0.047 C 
ATOM      6  C   LIG d   1      -1.634  78.942 115.195  0.00  0.00     0.091 C 
ENDROOT
BRANCH   1   7
ATOM      7  O   LIG d   1      -3.920  78.225 115.707  0.00  0.00    -0.368 OA
BRANCH   7   8
ATOM      8  C   LIG d   1      -4.485  77.493 116.822  0.00  0.00     0.119 C 
BRANCH   8   9
ATOM      9  C   LIG d   1      -4.195  75.998 116.588  0.00  0.00     0.028 C 
ATOM     10  C   LIG d   1      -4.409  75.581 115.123  0.00  0.00     0.006 C 
ENDBRANCH   8   9
BRANCH   8  11
ATOM     11  C   LIG d   1      -6.011  77.611 116.851  0.00  0.00     0.028 C 
ATOM     12  C   LIG d   1      -6.495  78.929 117.476  0.00  0.00     0.006 C 
ENDBRANCH   8  11
ENDBRANCH   7   8
ENDBRANCH   1   7
BRANCH   6  13
ATOM     13  N   LIG d   1      -0.944  77.758 115.770  0.00  0.00    -0.311 N 
ATOM     14  C   LIG d   1      -0.772  76.616 115.106  0.00  0.00     0.210 C 
ATOM     15  C   LIG d   1      -0.053  75.514 115.890  0.00  0.00     0.109 C 
ATOM     16  O   LIG d   1      -1.119  76.422 113.931  0.00  0.00    -0.276 OA
ATOM     17  H   LIG d   1      -0.603  77.839 116.708  0.00  0.00     0.149 HD
ENDBRANCH   6  13
BRANCH   5  18
ATOM     18  N   LIG d   1       0.442  80.025 114.262  0.00  0.00     0.381 N 
ATOM     19  H   LIG d   1       1.067  80.799 114.375  0.00  0.00    -0.090 HD
ATOM     20  H   LIG d   1       0.125  80.012 113.309  0.00  0.00    -0.090 HD
ATOM     21  H   LIG d   1       0.915  79.174 114.475  0.00  0.00    -0.090 HD
ENDBRANCH   5  18
BRANCH   3  22
ATOM     22  C   LIG d   1      -3.245  82.853 115.422  0.00  0.00     0.382 C 
ATOM     23  O   LIG d   1      -4.436  83.035 115.772  0.00  0.00    -0.241 OA
ATOM     24  O   LIG d   1      -2.536  83.834 115.128  0.00  0.00    -0.241 OA
ENDBRANCH   3  22
TORSDOF 7
ENDMDL
MODEL 6
REMARK VINA RESULT:      -3.9      2.838      5.444
REMARK  7 active torsions:
REMARK  status: ('A' for Active; 'I' for Inactive)
REMARK    1  A    between atoms: C_2  and  C_3 
REMARK    2  A    between atoms: C_3  and  O_6 
REMARK    3  A    between atoms: C_3  and  C_4 
REMARK    4  A    between atoms: C_7  and  O_6 
REMARK    5  A    between atoms: C_9  and  C_10 
REMARK    6  A    between atoms: N_15  and  C_14 
REMARK    7  A    between atoms: N_20  and  C_19 
REMARK       I    between atoms: C_22  and  N_20 
ROOT
ATOM      1  C   LIG d   1      -2.299  80.734 114.764  0.00  0.00     0.161 C 
ATOM      2  C   LIG d   1      -2.676  79.394 114.953  0.00  0.00     0.016 C 
ATOM      3  C   LIG d   1      -2.328  78.355 114.060  0.00  0.00     0.038 C 
ATOM      4  C   LIG d   1      -1.444  78.561 112.990  0.00  0.00     0.028 C 
ATOM      5  C   LIG d   1      -1.445  79.995 112.472  0.00  0.00    -0.047 C 
ATOM      6  C   LIG d   1      -1.242  80.959 113.663  0.00  0.00     0.091 C 
ENDROOT
BRANCH   1   7
ATOM      7  O   LIG d   1      -1.848  81.295 116.013  0.00  0.00    -0.368 OA
BRANCH   7   8
ATOM      8  C   LIG d   1      -0.420  81.253 116.253  0.00  0.00     0.119 C 
BRANCH   8   9
ATOM      9  C   LIG d   1      -0.178  80.308 117.446  0.00  0.00     0.028 C 
ATOM     10  C   LIG d   1       0.371  78.940 117.010  0.00  0.00     0.006 C 
ENDBRANCH   8   9
BRANCH   8  11
ATOM     11  C   LIG d   1       0.110  82.617 116.702  0.00  0.00     0.028 C 
ATOM     12  C   LIG d   1      -0.969  83.711 116.685  0.00  0.00     0.006 C 
ENDBRANCH   8  11
ENDBRANCH   7   8
ENDBRANCH   1   7
BRANCH   6  13
ATOM     13  N   LIG d   1      -1.314  82.387 113.256  0.00  0.00    -0.311 N 
ATOM     14  C   LIG d   1      -0.241  83.124 112.975  0.00  0.00     0.210 C 
ATOM     15  C   LIG d   1      -0.537  84.579 112.596  0.00  0.00     0.109 C 
ATOM     16  O   LIG d   1       0.926  82.703 112.973  0.00  0.00    -0.276 OA
ATOM     17  H   LIG d   1      -2.224  82.800 113.201  0.00  0.00     0.149 HD
ENDBRANCH   6  13
BRANCH   5  18
ATOM     18  N   LIG d   1      -0.383  80.102 111.454  0.00  0.00     0.381 N 
ATOM     19  H   LIG d   1      -0.543  80.906 110.880  0.00  0.00    -0.090 HD
ATOM     20  H   LIG d   1      -0.411  79.286 110.868  0.00  0.00    -0.090 HD
ATOM     21  H   LIG d   1       0.507  80.172 111.896  0.00  0.00    -0.090 HD
ENDBRANCH   5  18
BRANCH   3  22
ATOM     22  C   LIG d   1      -2.898  77.099 114.210  0.00  0.00     0.382 C 
ATOM     23  O   LIG d   1      -2.378  76.264 114.988  0.00  0.00    -0.241 OA
ATOM     24  O   LIG d   1      -3.900  76.777 113.544  0.00  0.00    -0.241 OA
ENDBRANCH   3  22
TORSDOF 7
ENDMDL
MODEL 7
REMARK VINA RESULT:      -3.9      2.439      5.628
REMARK  7 active torsions:
REMARK  status: ('A' for Active; 'I' for Inactive)
REMARK    1  A    between atoms: C_2  and  C_3 
REMARK    2  A    between atoms: C_3  and  O_6 
REMARK    3  A    between atoms: C_3  and  C_4 
REMARK    4  A    between atoms: C_7  and  O_6 
REMARK    5  A    between atoms: C_9  and  C_10 
REMARK    6  A    between atoms: N_15  and  C_14 
REMARK    7  A    between atoms: N_20  and  C_19 
REMARK       I    between atoms: C_22  and  N_20 
ROOT
ATOM      1  C   LIG d   1      -3.045  79.857 116.054  0.00  0.00     0.161 C 
ATOM      2  C   LIG d   1      -3.876  79.609 117.159  0.00  0.00     0.016 C 
ATOM      3  C   LIG d   1      -4.743  80.579 117.713  0.00  0.00     0.038 C 
ATOM      4  C   LIG d   1      -4.950  81.824 117.102  0.00  0.00     0.028 C 
ATOM      5  C   LIG d   1      -3.759  82.300 116.278  0.00  0.00    -0.047 C 
ATOM      6  C   LIG d   1      -3.339  81.175 115.306  0.00  0.00     0.091 C 
ENDROOT
BRANCH   1   7
ATOM      7  O   LIG d   1      -3.097  78.742 115.143  0.00  0.00    -0.368 OA
BRANCH   7   8
ATOM      8  C   LIG d   1      -2.897  77.431 115.728  0.00  0.00     0.119 C 
BRANCH   8   9
ATOM      9  C   LIG d   1      -1.637  76.824 115.081  0.00  0.00     0.028 C 
ATOM     10  C   LIG d   1      -1.279  77.498 113.746  0.00  0.00     0.006 C 
ENDBRANCH   8   9
BRANCH   8  11
ATOM     11  C   LIG d   1      -4.039  76.478 115.364  0.00  0.00     0.028 C 
ATOM     12  C   LIG d   1      -3.720  75.012 115.696  0.00  0.00     0.006 C 
ENDBRANCH   8  11
ENDBRANCH   7   8
ENDBRANCH   1   7
BRANCH   6  13
ATOM     13  N   LIG d   1      -2.128  81.526 114.520  0.00  0.00    -0.311 N 
ATOM     14  C   LIG d   1      -2.143  81.741 113.206  0.00  0.00     0.210 C 
ATOM     15  C   LIG d   1      -0.780  82.071 112.589  0.00  0.00     0.109 C 
ATOM     16  O   LIG d   1      -3.161  81.720 112.498  0.00  0.00    -0.276 OA
ATOM     17  H   LIG d   1      -1.263  81.595 115.021  0.00  0.00     0.149 HD
ENDBRANCH   6  13
BRANCH   5  18
ATOM     18  N   LIG d   1      -4.161  83.540 115.588  0.00  0.00     0.381 N 
ATOM     19  H   LIG d   1      -3.735  84.329 116.032  0.00  0.00    -0.090 HD
ATOM     20  H   LIG d   1      -5.159  83.641 115.656  0.00  0.00    -0.090 HD
ATOM     21  H   LIG d   1      -3.889  83.502 114.630  0.00  0.00    -0.090 HD
ENDBRANCH   5  18
BRANCH   3  22
ATOM     22  C   LIG d   1      -5.384  80.320 118.916  0.00  0.00     0.382 C 
ATOM     23  O   LIG d   1      -6.153  81.177 119.413  0.00  0.00    -0.241 OA
ATOM     24  O   LIG d   1      -5.168  79.259 119.531  0.00  0.00    -0.241 OA
ENDBRANCH   3  22
TORSDOF 7
ENDMDL
MODEL 8
REMARK VINA RESULT:      -3.8      3.093      6.017
REMARK  7 active torsions:
REMARK  status: ('A' for Active; 'I' for Inactive)
REMARK    1  A    between atoms: C_2  and  C_3 
REMARK    2  A    between atoms: C_3  and  O_6 
REMARK    3  A    between atoms: C_3  and  C_4 
REMARK    4  A    between atoms: C_7  and  O_6 
REMARK    5  A    between atoms: C_9  and  C_10 
REMARK    6  A    between atoms: N_15  and  C_14 
REMARK    7  A    between atoms: N_20  and  C_19 
REMARK       I    between atoms: C_22  and  N_20 
ROOT
ATOM      1  C   LIG d   1      -4.653  78.296 116.903  0.00  0.00     0.161 C 
ATOM      2  C   LIG d   1      -4.152  77.246 116.115  0.00  0.00     0.016 C 
ATOM      3  C   LIG d   1      -4.930  76.137 115.709  0.00  0.00     0.038 C 
ATOM      4  C   LIG d   1      -6.313  76.078 115.939  0.00  0.00     0.028 C 
ATOM      5  C   LIG d   1      -6.757  76.869 117.164  0.00  0.00    -0.047 C 
ATOM      6  C   LIG d   1      -6.187  78.303 117.070  0.00  0.00     0.091 C 
ENDROOT
BRANCH   1   7
ATOM      7  O   LIG d   1      -4.200  79.559 116.379  0.00  0.00    -0.368 OA
BRANCH   7   8
ATOM      8  C   LIG d   1      -3.034  80.134 117.019  0.00  0.00     0.119 C 
BRANCH   8   9
ATOM      9  C   LIG d   1      -3.430  81.531 117.535  0.00  0.00     0.028 C 
ATOM     10  C   LIG d   1      -4.526  82.184 116.676  0.00  0.00     0.006 C 
ENDBRANCH   8   9
BRANCH   8  11
ATOM     11  C   LIG d   1      -1.908  80.378 116.010  0.00  0.00     0.028 C 
ATOM     12  C   LIG d   1      -2.357  80.170 114.555  0.00  0.00     0.006 C 
ENDBRANCH   8  11
ENDBRANCH   7   8
ENDBRANCH   1   7
BRANCH   6  13
ATOM     13  N   LIG d   1      -6.505  79.120 118.270  0.00  0.00    -0.311 N 
ATOM     14  C   LIG d   1      -7.208  80.250 118.223  0.00  0.00     0.210 C 
ATOM     15  C   LIG d   1      -7.405  80.947 119.573  0.00  0.00     0.109 C 
ATOM     16  O   LIG d   1      -7.715  80.725 117.195  0.00  0.00    -0.276 OA
ATOM     17  H   LIG d   1      -6.159  78.791 119.150  0.00  0.00     0.149 HD
ENDBRANCH   6  13
BRANCH   5  18
ATOM     18  N   LIG d   1      -8.231  76.835 117.206  0.00  0.00     0.381 N 
ATOM     19  H   LIG d   1      -8.578  77.670 117.635  0.00  0.00    -0.090 HD
ATOM     20  H   LIG d   1      -8.523  76.050 117.762  0.00  0.00    -0.090 HD
ATOM     21  H   LIG d   1      -8.597  76.751 116.283  0.00  0.00    -0.090 HD
ENDBRANCH   5  18
BRANCH   3  22
ATOM     22  C   LIG d   1      -4.316  75.053 115.100  0.00  0.00     0.382 C 
ATOM     23  O   LIG d   1      -4.964  74.332 114.303  0.00  0.00    -0.241 OA
ATOM     24  O   LIG d   1      -3.136  74.761 115.370  0.00  0.00    -0.241 OA
ENDBRANCH   3  22
TORSDOF 7
ENDMDL
MODEL 9
REMARK VINA RESULT:      -3.7      2.064      2.369
REMARK  7 active torsions:
REMARK  status: ('A' for Active; 'I' for Inactive)
REMARK    1  A    between atoms: C_2  and  C_3 
REMARK    2  A    between atoms: C_3  and  O_6 
REMARK    3  A    between atoms: C_3  and  C_4 
REMARK    4  A    between atoms: C_7  and  O_6 
REMARK    5  A    between atoms: C_9  and  C_10 
REMARK    6  A    between atoms: N_15  and  C_14 
REMARK    7  A    between atoms: N_20  and  C_19 
REMARK       I    between atoms: C_22  and  N_20 
ROOT
ATOM      1  C   LIG d   1      -1.134  80.598 115.402  0.00  0.00     0.161 C 
ATOM      2  C   LIG d   1      -1.222  81.984 115.190  0.00  0.00     0.016 C 
ATOM      3  C   LIG d   1      -1.169  82.580 113.908  0.00  0.00     0.038 C 
ATOM      4  C   LIG d   1      -1.177  81.813 112.733  0.00  0.00     0.028 C 
ATOM      5  C   LIG d   1      -0.580  80.422 112.914  0.00  0.00    -0.047 C 
ATOM      6  C   LIG d   1      -1.255  79.739 114.126  0.00  0.00     0.091 C 
ENDROOT
BRANCH   1   7
ATOM      7  O   LIG d   1      -2.116  80.190 116.375  0.00  0.00    -0.368 OA
BRANCH   7   8
ATOM      8  C   LIG d   1      -1.605  79.809 117.676  0.00  0.00     0.119 C 
BRANCH   8   9
ATOM      9  C   LIG d   1      -1.839  78.295 117.840  0.00  0.00     0.028 C 
ATOM     10  C   LIG d   1      -3.142  77.827 117.170  0.00  0.00     0.006 C 
ENDBRANCH   8   9
BRANCH   8  11
ATOM     11  C   LIG d   1      -2.404  80.468 118.804  0.00  0.00     0.028 C 
ATOM     12  C   LIG d   1      -3.400  81.521 118.292  0.00  0.00     0.006 C 
ENDBRANCH   8  11
ENDBRANCH   7   8
ENDBRANCH   1   7
BRANCH   6  13
ATOM     13  N   LIG d   1      -0.670  78.406 114.424  0.00  0.00    -0.311 N 
ATOM     14  C   LIG d   1      -1.215  77.260 114.020  0.00  0.00     0.210 C 
ATOM     15  C   LIG d   1      -0.461  75.998 114.452  0.00  0.00     0.109 C 
ATOM     16  O   LIG d   1      -2.233  77.169 113.318  0.00  0.00    -0.276 OA
ATOM     17  H   LIG d   1       0.174  78.388 114.962  0.00  0.00     0.149 HD
ENDBRANCH   6  13
BRANCH   5  18
ATOM     18  N   LIG d   1      -0.778  79.685 111.651  0.00  0.00     0.381 N 
ATOM     19  H   LIG d   1      -1.753  79.508 111.511  0.00  0.00    -0.090 HD
ATOM     20  H   LIG d   1      -0.303  78.802 111.713  0.00  0.00    -0.090 HD
ATOM     21  H   LIG d   1      -0.416  80.213 110.888  0.00  0.00    -0.090 HD
ENDBRANCH   5  18
BRANCH   3  22
ATOM     22  C   LIG d   1      -1.067  83.958 113.795  0.00  0.00     0.382 C 
ATOM     23  O   LIG d   1      -1.152  84.679 114.818  0.00  0.00    -0.241 OA
ATOM     24  O   LIG d   1      -0.936  84.492 112.677  0.00  0.00    -0.241 OA
ENDBRANCH   3  22
TORSDOF 7
ENDMDL
