MODEL 1
REMARK VINA RESULT:      -4.8      0.000      0.000
REMARK  7 active torsions:
REMARK  status: ('A' for Active; 'I' for Inactive)
REMARK    1  A    between atoms: C_2  and  C_3 
REMARK    2  A    between atoms: C_3  and  O_6 
REMARK    3  A    between atoms: C_3  and  C_4 
REMARK    4  A    between atoms: C_7  and  O_6 
REMARK    5  A    between atoms: C_9  and  C_10 
REMARK    6  A    between atoms: N_15  and  C_14 
REMARK    7  A    between atoms: N_20  and  C_19 
REMARK       I    between atoms: C_22  and  N_20 
ROOT
ATOM      1  C   LIG d   1      -2.059  82.189 113.714  0.00  0.00     0.161 C 
ATOM      2  C   LIG d   1      -2.450  81.193 114.624  0.00  0.00     0.016 C 
ATOM      3  C   LIG d   1      -2.283  79.810 114.383  0.00  0.00     0.038 C 
ATOM      4  C   LIG d   1      -1.572  79.331 113.272  0.00  0.00     0.028 C 
ATOM      5  C   LIG d   1      -1.603  80.280 112.079  0.00  0.00    -0.047 C 
ATOM      6  C   LIG d   1      -1.181  81.691 112.547  0.00  0.00     0.091 C 
ENDROOT
BRANCH   1   7
ATOM      7  O   LIG d   1      -1.398  83.260 114.417  0.00  0.00    -0.368 OA
BRANCH   7   8
ATOM      8  C   LIG d   1      -0.595  82.874 115.559  0.00  0.00     0.119 C 
BRANCH   8   9
ATOM      9  C   LIG d   1      -0.716  83.994 116.610  0.00  0.00     0.028 C 
ATOM     10  C   LIG d   1      -0.711  83.451 118.049  0.00  0.00     0.006 C 
ENDBRANCH   8   9
BRANCH   8  11
ATOM     11  C   LIG d   1       0.893  82.813 115.201  0.00  0.00     0.028 C 
ATOM     12  C   LIG d   1       1.438  81.377 115.162  0.00  0.00     0.006 C 
ENDBRANCH   8  11
ENDBRANCH   7   8
ENDBRANCH   1   7
BRANCH   6  13
ATOM     13  N   LIG d   1      -1.265  82.699 111.459  0.00  0.00    -0.311 N 
ATOM     14  C   LIG d   1      -0.294  83.570 111.189  0.00  0.00     0.210 C 
ATOM     15  C   LIG d   1      -0.593  84.536 110.038  0.00  0.00     0.109 C 
ATOM     16  O   LIG d   1       0.799  83.614 111.774  0.00  0.00    -0.276 OA
ATOM     17  H   LIG d   1      -2.105  82.713 110.914  0.00  0.00     0.149 HD
ENDBRANCH   6  13
BRANCH   5  18
ATOM     18  N   LIG d   1      -0.712  79.723 111.044  0.00  0.00     0.381 N 
ATOM     19  H   LIG d   1      -1.000  80.042 110.141  0.00  0.00    -0.090 HD
ATOM     20  H   LIG d   1      -0.780  78.721 111.061  0.00  0.00    -0.090 HD
ATOM     21  H   LIG d   1       0.229  80.002 111.218  0.00  0.00    -0.090 HD
ENDBRANCH   5  18
BRANCH   3  22
ATOM     22  C   LIG d   1      -2.867  78.888 115.238  0.00  0.00     0.382 C 
ATOM     23  O   LIG d   1      -3.955  79.157 115.802  0.00  0.00    -0.241 OA
ATOM     24  O   LIG d   1      -2.297  77.809 115.488  0.00  0.00    -0.241 OA
ENDBRANCH   3  22
TORSDOF 7
ENDMDL
MODEL 2
REMARK VINA RESULT:      -4.7      3.343      6.822
REMARK  7 active torsions:
REMARK  status: ('A' for Active; 'I' for Inactive)
REMARK    1  A    between atoms: C_2  and  C_3 
REMARK    2  A    between atoms: C_3  and  O_6 
REMARK    3  A    between atoms: C_3  and  C_4 
REMARK    4  A    between atoms: C_7  and  O_6 
REMARK    5  A    between atoms: C_9  and  C_10 
REMARK    6  A    between atoms: N_15  and  C_14 
REMARK    7  A    between atoms: N_20  and  C_19 
REMARK       I    between atoms: C_22  and  N_20 
ROOT
ATOM      1  C   LIG d   1      -2.467  78.392 114.524  0.00  0.00     0.161 C 
ATOM      2  C   LIG d   1      -2.854  79.316 113.539  0.00  0.00     0.016 C 
ATOM      3  C   LIG d   1      -2.121  80.488 113.242  0.00  0.00     0.038 C 
ATOM      4  C   LIG d   1      -0.863  80.740 113.809  0.00  0.00     0.028 C 
ATOM      5  C   LIG d   1      -0.674  80.091 115.176  0.00  0.00    -0.047 C 
ATOM      6  C   LIG d   1      -1.040  78.593 115.075  0.00  0.00     0.091 C 
ENDROOT
BRANCH   1   7
ATOM      7  O   LIG d   1      -2.626  77.049 114.024  0.00  0.00    -0.368 OA
BRANCH   7   8
ATOM      8  C   LIG d   1      -3.650  76.248 114.663  0.00  0.00     0.119 C 
BRANCH   8   9
ATOM      9  C   LIG d   1      -2.976  74.961 115.178  0.00  0.00     0.028 C 
ATOM     10  C   LIG d   1      -1.982  74.373 114.162  0.00  0.00     0.006 C 
ENDBRANCH   8   9
BRANCH   8  11
ATOM     11  C   LIG d   1      -4.702  75.779 113.654  0.00  0.00     0.028 C 
ATOM     12  C   LIG d   1      -6.020  75.356 114.320  0.00  0.00     0.006 C 
ENDBRANCH   8  11
ENDBRANCH   7   8
ENDBRANCH   1   7
BRANCH   6  13
ATOM     13  N   LIG d   1      -0.964  77.901 116.389  0.00  0.00    -0.311 N 
ATOM     14  C   LIG d   1      -0.307  76.758 116.578  0.00  0.00     0.210 C 
ATOM     15  C   LIG d   1      -0.371  76.204 118.005  0.00  0.00     0.109 C 
ATOM     16  O   LIG d   1       0.349  76.167 115.707  0.00  0.00    -0.276 OA
ATOM     17  H   LIG d   1      -1.442  78.328 117.158  0.00  0.00     0.149 HD
ENDBRANCH   6  13
BRANCH   5  18
ATOM     18  N   LIG d   1       0.724  80.319 115.588  0.00  0.00     0.381 N 
ATOM     19  H   LIG d   1       1.241  80.713 114.828  0.00  0.00    -0.090 HD
ATOM     20  H   LIG d   1       1.140  79.436 115.828  0.00  0.00    -0.090 HD
ATOM     21  H   LIG d   1       0.753  80.932 116.373  0.00  0.00    -0.090 HD
ENDBRANCH   5  18
BRANCH   3  22
ATOM     22  C   LIG d   1      -2.666  81.443 112.397  0.00  0.00     0.382 C 
ATOM     23  O   LIG d   1      -1.914  82.159 111.693  0.00  0.00    -0.241 OA
ATOM     24  O   LIG d   1      -3.897  81.628 112.364  0.00  0.00    -0.241 OA
ENDBRANCH   3  22
TORSDOF 7
ENDMDL
MODEL 3
REMARK VINA RESULT:      -4.6      2.258      5.308
REMARK  7 active torsions:
REMARK  status: ('A' for Active; 'I' for Inactive)
REMARK    1  A    between atoms: C_2  and  C_3 
REMARK    2  A    between atoms: C_3  and  O_6 
REMARK    3  A    between atoms: C_3  and  C_4 
REMARK    4  A    between atoms: C_7  and  O_6 
REMARK    5  A    between atoms: C_9  and  C_10 
REMARK    6  A    between atoms: N_15  and  C_14 
REMARK    7  A    between atoms: N_20  and  C_19 
REMARK       I    between atoms: C_22  and  N_20 
ROOT
ATOM      1  C   LIG d   1      -2.175  81.093 114.902  0.00  0.00     0.161 C 
ATOM      2  C   LIG d   1      -1.835  82.412 114.559  0.00  0.00     0.016 C 
ATOM      3  C   LIG d   1      -1.307  82.777 113.299  0.00  0.00     0.038 C 
ATOM      4  C   LIG d   1      -1.224  81.864 112.237  0.00  0.00     0.028 C 
ATOM      5  C   LIG d   1      -1.083  80.416 112.693  0.00  0.00    -0.047 C 
ATOM      6  C   LIG d   1      -2.196  80.102 113.719  0.00  0.00     0.091 C 
ENDROOT
BRANCH   1   7
ATOM      7  O   LIG d   1      -3.441  81.078 115.590  0.00  0.00    -0.368 OA
BRANCH   7   8
ATOM      8  C   LIG d   1      -3.398  80.736 116.997  0.00  0.00     0.119 C 
BRANCH   8   9
ATOM      9  C   LIG d   1      -4.690  79.964 117.327  0.00  0.00     0.028 C 
ATOM     10  C   LIG d   1      -4.611  78.484 116.917  0.00  0.00     0.006 C 
ENDBRANCH   8   9
BRANCH   8  11
ATOM     11  C   LIG d   1      -3.438  81.989 117.877  0.00  0.00     0.028 C 
ATOM     12  C   LIG d   1      -4.840  82.278 118.438  0.00  0.00     0.006 C 
ENDBRANCH   8  11
ENDBRANCH   7   8
ENDBRANCH   1   7
BRANCH   6  13
ATOM     13  N   LIG d   1      -2.080  78.731 114.280  0.00  0.00    -0.311 N 
ATOM     14  C   LIG d   1      -2.712  77.675 113.770  0.00  0.00     0.210 C 
ATOM     15  C   LIG d   1      -2.470  76.356 114.512  0.00  0.00     0.109 C 
ATOM     16  O   LIG d   1      -3.424  77.698 112.755  0.00  0.00    -0.276 OA
ATOM     17  H   LIG d   1      -1.497  78.615 115.085  0.00  0.00     0.149 HD
ENDBRANCH   6  13
BRANCH   5  18
ATOM     18  N   LIG d   1      -1.147  79.562 111.492  0.00  0.00     0.381 N 
ATOM     19  H   LIG d   1      -0.750  78.666 111.692  0.00  0.00    -0.090 HD
ATOM     20  H   LIG d   1      -0.607  79.990 110.760  0.00  0.00    -0.090 HD
ATOM     21  H   LIG d   1      -2.093  79.457 111.198  0.00  0.00    -0.090 HD
ENDBRANCH   5  18
BRANCH   3  22
ATOM     22  C   LIG d   1      -0.818  84.060 113.104  0.00  0.00     0.382 C 
ATOM     23  O   LIG d   1      -0.901  84.598 111.974  0.00  0.00    -0.241 OA
ATOM     24  O   LIG d   1      -0.255  84.669 114.034  0.00  0.00    -0.241 OA
ENDBRANCH   3  22
TORSDOF 7
ENDMDL
MODEL 4
REMARK VINA RESULT:      -4.5      1.545      2.134
REMARK  7 active torsions:
REMARK  status: ('A' for Active; 'I' for Inactive)
REMARK    1  A    between atoms: C_2  and  C_3 
REMARK    2  A    between atoms: C_3  and  O_6 
REMARK    3  A    between atoms: C_3  and  C_4 
REMARK    4  A    between atoms: C_7  and  O_6 
REMARK    5  A    between atoms: C_9  and  C_10 
REMARK    6  A    between atoms: N_15  and  C_14 
REMARK    7  A    between atoms: N_20  and  C_19 
REMARK       I    between atoms: C_22  and  N_20 
ROOT
ATOM      1  C   LIG d   1      -2.117  80.885 114.476  0.00  0.00     0.161 C 
ATOM      2  C   LIG d   1      -2.612  79.625 114.851  0.00  0.00     0.016 C 
ATOM      3  C   LIG d   1      -2.518  78.477 114.032  0.00  0.00     0.038 C 
ATOM      4  C   LIG d   1      -1.784  78.477 112.837  0.00  0.00     0.028 C 
ATOM      5  C   LIG d   1      -1.699  79.850 112.178  0.00  0.00    -0.047 C 
ATOM      6  C   LIG d   1      -1.215  80.879 113.224  0.00  0.00     0.091 C 
ENDROOT
BRANCH   1   7
ATOM      7  O   LIG d   1      -1.428  81.490 115.588  0.00  0.00    -0.368 OA
BRANCH   7   8
ATOM      8  C   LIG d   1      -2.082  82.629 116.200  0.00  0.00     0.119 C 
BRANCH   8   9
ATOM      9  C   LIG d   1      -1.043  83.763 116.295  0.00  0.00     0.028 C 
ATOM     10  C   LIG d   1      -0.378  83.836 117.680  0.00  0.00     0.006 C 
ENDBRANCH   8   9
BRANCH   8  11
ATOM     11  C   LIG d   1      -2.487  82.328 117.646  0.00  0.00     0.028 C 
ATOM     12  C   LIG d   1      -3.979  81.986 117.787  0.00  0.00     0.006 C 
ENDBRANCH   8  11
ENDBRANCH   7   8
ENDBRANCH   1   7
BRANCH   6  13
ATOM     13  N   LIG d   1      -1.185  82.264 112.685  0.00  0.00    -0.311 N 
ATOM     14  C   LIG d   1      -0.100  82.817 112.146  0.00  0.00     0.210 C 
ATOM     15  C   LIG d   1      -0.280  84.262 111.670  0.00  0.00     0.109 C 
ATOM     16  O   LIG d   1       0.985  82.238 111.988  0.00  0.00    -0.276 OA
ATOM     17  H   LIG d   1      -2.032  82.795 112.744  0.00  0.00     0.149 HD
ENDBRANCH   6  13
BRANCH   5  18
ATOM     18  N   LIG d   1      -0.794  79.733 111.019  0.00  0.00     0.381 N 
ATOM     19  H   LIG d   1       0.140  79.963 111.295  0.00  0.00    -0.090 HD
ATOM     20  H   LIG d   1      -1.084  80.386 110.313  0.00  0.00    -0.090 HD
ATOM     21  H   LIG d   1      -0.822  78.805 110.657  0.00  0.00    -0.090 HD
ENDBRANCH   5  18
BRANCH   3  22
ATOM     22  C   LIG d   1      -3.198  77.322 114.387  0.00  0.00     0.382 C 
ATOM     23  O   LIG d   1      -4.222  77.394 115.108  0.00  0.00    -0.241 OA
ATOM     24  O   LIG d   1      -2.774  76.205 114.033  0.00  0.00    -0.241 OA
ENDBRANCH   3  22
TORSDOF 7
ENDMDL
MODEL 5
REMARK VINA RESULT:      -4.5      2.747      4.942
REMARK  7 active torsions:
REMARK  status: ('A' for Active; 'I' for Inactive)
REMARK    1  A    between atoms: C_2  and  C_3 
REMARK    2  A    between atoms: C_3  and  O_6 
REMARK    3  A    between atoms: C_3  and  C_4 
REMARK    4  A    between atoms: C_7  and  O_6 
REMARK    5  A    between atoms: C_9  and  C_10 
REMARK    6  A    between atoms: N_15  and  C_14 
REMARK    7  A    between atoms: N_20  and  C_19 
REMARK       I    between atoms: C_22  and  N_20 
ROOT
ATOM      1  C   LIG d   1      -0.388  80.869 115.271  0.00  0.00     0.161 C 
ATOM      2  C   LIG d   1      -1.127  81.583 114.313  0.00  0.00     0.016 C 
ATOM      3  C   LIG d   1      -2.134  80.998 113.513  0.00  0.00     0.038 C 
ATOM      4  C   LIG d   1      -2.580  79.685 113.723  0.00  0.00     0.028 C 
ATOM      5  C   LIG d   1      -1.519  78.777 114.336  0.00  0.00    -0.047 C 
ATOM      6  C   LIG d   1      -0.936  79.463 115.593  0.00  0.00     0.091 C 
ENDROOT
BRANCH   1   7
ATOM      7  O   LIG d   1      -0.270  81.648 116.478  0.00  0.00    -0.368 OA
BRANCH   7   8
ATOM      8  C   LIG d   1      -1.232  82.720 116.641  0.00  0.00     0.119 C 
BRANCH   8   9
ATOM      9  C   LIG d   1      -0.468  83.951 117.166  0.00  0.00     0.028 C 
ATOM     10  C   LIG d   1      -0.325  83.944 118.698  0.00  0.00     0.006 C 
ENDBRANCH   8   9
BRANCH   8  11
ATOM     11  C   LIG d   1      -2.259  82.386 117.727  0.00  0.00     0.028 C 
ATOM     12  C   LIG d   1      -3.553  81.782 117.158  0.00  0.00     0.006 C 
ENDBRANCH   8  11
ENDBRANCH   7   8
ENDBRANCH   1   7
BRANCH   6  13
ATOM     13  N   LIG d   1       0.168  78.679 116.206  0.00  0.00    -0.311 N 
ATOM     14  C   LIG d   1      -0.009  77.829 117.216  0.00  0.00     0.210 C 
ATOM     15  C   LIG d   1       1.266  77.139 117.711  0.00  0.00     0.109 C 
ATOM     16  O   LIG d   1      -1.106  77.557 117.727  0.00  0.00    -0.276 OA
ATOM     17  H   LIG d   1       1.086  78.815 115.832  0.00  0.00     0.149 HD
ENDBRANCH   6  13
BRANCH   5  18
ATOM     18  N   LIG d   1      -2.157  77.480 114.629  0.00  0.00     0.381 N 
ATOM     19  H   LIG d   1      -2.700  77.551 115.466  0.00  0.00    -0.090 HD
ATOM     20  H   LIG d   1      -1.441  76.790 114.775  0.00  0.00    -0.090 HD
ATOM     21  H   LIG d   1      -2.740  77.207 113.868  0.00  0.00    -0.090 HD
ENDBRANCH   5  18
BRANCH   3  22
ATOM     22  C   LIG d   1      -2.681  81.718 112.461  0.00  0.00     0.382 C 
ATOM     23  O   LIG d   1      -1.963  82.510 111.803  0.00  0.00    -0.241 OA
ATOM     24  O   LIG d   1      -3.892  81.618 112.189  0.00  0.00    -0.241 OA
ENDBRANCH   3  22
TORSDOF 7
ENDMDL
MODEL 6
REMARK VINA RESULT:      -4.5      2.129      4.964
REMARK  7 active torsions:
REMARK  status: ('A' for Active; 'I' for Inactive)
REMARK    1  A    between atoms: C_2  and  C_3 
REMARK    2  A    between atoms: C_3  and  O_6 
REMARK    3  A    between atoms: C_3  and  C_4 
REMARK    4  A    between atoms: C_7  and  O_6 
REMARK    5  A    between atoms: C_9  and  C_10 
REMARK    6  A    between atoms: N_15  and  C_14 
REMARK    7  A    between atoms: N_20  and  C_19 
REMARK       I    between atoms: C_22  and  N_20 
ROOT
ATOM      1  C   LIG d   1      -0.413  80.635 114.684  0.00  0.00     0.161 C 
ATOM      2  C   LIG d   1      -0.555  81.829 113.958  0.00  0.00     0.016 C 
ATOM      3  C   LIG d   1      -1.278  81.922 112.746  0.00  0.00     0.038 C 
ATOM      4  C   LIG d   1      -2.039  80.851 112.254  0.00  0.00     0.028 C 
ATOM      5  C   LIG d   1      -1.516  79.486 112.686  0.00  0.00    -0.047 C 
ATOM      6  C   LIG d   1      -1.329  79.483 114.221  0.00  0.00     0.091 C 
ENDROOT
BRANCH   1   7
ATOM      7  O   LIG d   1      -0.603  80.892 116.090  0.00  0.00    -0.368 OA
BRANCH   7   8
ATOM      8  C   LIG d   1      -1.655  81.830 116.429  0.00  0.00     0.119 C 
BRANCH   8   9
ATOM      9  C   LIG d   1      -1.127  82.725 117.567  0.00  0.00     0.028 C 
ATOM     10  C   LIG d   1      -0.377  83.961 117.041  0.00  0.00     0.006 C 
ENDBRANCH   8   9
BRANCH   8  11
ATOM     11  C   LIG d   1      -2.875  81.111 117.012  0.00  0.00     0.028 C 
ATOM     12  C   LIG d   1      -4.074  82.049 117.222  0.00  0.00     0.006 C 
ENDBRANCH   8  11
ENDBRANCH   7   8
ENDBRANCH   1   7
BRANCH   6  13
ATOM     13  N   LIG d   1      -0.740  78.212 114.718  0.00  0.00    -0.311 N 
ATOM     14  C   LIG d   1      -1.470  77.179 115.132  0.00  0.00     0.210 C 
ATOM     15  C   LIG d   1      -0.664  75.973 115.624  0.00  0.00     0.109 C 
ATOM     16  O   LIG d   1      -2.710  77.134 115.109  0.00  0.00    -0.276 OA
ATOM     17  H   LIG d   1       0.259  78.151 114.741  0.00  0.00     0.149 HD
ENDBRANCH   6  13
BRANCH   5  18
ATOM     18  N   LIG d   1      -2.479  78.471 112.219  0.00  0.00     0.381 N 
ATOM     19  H   LIG d   1      -3.344  78.573 112.712  0.00  0.00    -0.090 HD
ATOM     20  H   LIG d   1      -2.110  77.558 112.416  0.00  0.00    -0.090 HD
ATOM     21  H   LIG d   1      -2.633  78.572 111.240  0.00  0.00    -0.090 HD
ENDBRANCH   5  18
BRANCH   3  22
ATOM     22  C   LIG d   1      -1.211  83.084 111.993  0.00  0.00     0.382 C 
ATOM     23  O   LIG d   1      -1.121  84.197 112.565  0.00  0.00    -0.241 OA
ATOM     24  O   LIG d   1      -1.283  83.036 110.751  0.00  0.00    -0.241 OA
ENDBRANCH   3  22
TORSDOF 7
ENDMDL
MODEL 7
REMARK VINA RESULT:      -4.3      4.304      7.335
REMARK  7 active torsions:
REMARK  status: ('A' for Active; 'I' for Inactive)
REMARK    1  A    between atoms: C_2  and  C_3 
REMARK    2  A    between atoms: C_3  and  O_6 
REMARK    3  A    between atoms: C_3  and  C_4 
REMARK    4  A    between atoms: C_7  and  O_6 
REMARK    5  A    between atoms: C_9  and  C_10 
REMARK    6  A    between atoms: N_15  and  C_14 
REMARK    7  A    between atoms: N_20  and  C_19 
REMARK       I    between atoms: C_22  and  N_20 
ROOT
ATOM      1  C   LIG d   1      -4.004  77.881 116.478  0.00  0.00     0.161 C 
ATOM      2  C   LIG d   1      -4.404  79.183 116.824  0.00  0.00     0.016 C 
ATOM      3  C   LIG d   1      -3.558  80.310 116.717  0.00  0.00     0.038 C 
ATOM      4  C   LIG d   1      -2.295  80.235 116.111  0.00  0.00     0.028 C 
ATOM      5  C   LIG d   1      -1.657  78.854 116.210  0.00  0.00    -0.047 C 
ATOM      6  C   LIG d   1      -2.668  77.797 115.711  0.00  0.00     0.091 C 
ENDROOT
BRANCH   1   7
ATOM      7  O   LIG d   1      -5.052  77.230 115.732  0.00  0.00    -0.368 OA
BRANCH   7   8
ATOM      8  C   LIG d   1      -5.635  76.054 116.346  0.00  0.00     0.119 C 
BRANCH   8   9
ATOM      9  C   LIG d   1      -5.913  75.036 115.224  0.00  0.00     0.028 C 
ATOM     10  C   LIG d   1      -5.130  75.350 113.938  0.00  0.00     0.006 C 
ENDBRANCH   8   9
BRANCH   8  11
ATOM     11  C   LIG d   1      -7.003  76.366 116.960  0.00  0.00     0.028 C 
ATOM     12  C   LIG d   1      -7.728  75.110 117.469  0.00  0.00     0.006 C 
ENDBRANCH   8  11
ENDBRANCH   7   8
ENDBRANCH   1   7
BRANCH   6  13
ATOM     13  N   LIG d   1      -2.155  76.409 115.853  0.00  0.00    -0.311 N 
ATOM     14  C   LIG d   1      -1.547  75.748 114.869  0.00  0.00     0.210 C 
ATOM     15  C   LIG d   1      -1.113  74.322 115.220  0.00  0.00     0.109 C 
ATOM     16  O   LIG d   1      -1.298  76.219 113.749  0.00  0.00    -0.276 OA
ATOM     17  H   LIG d   1      -2.287  75.962 116.739  0.00  0.00     0.149 HD
ENDBRANCH   6  13
BRANCH   5  18
ATOM     18  N   LIG d   1      -0.411  78.881 115.420  0.00  0.00     0.381 N 
ATOM     19  H   LIG d   1       0.229  78.199 115.774  0.00  0.00    -0.090 HD
ATOM     20  H   LIG d   1       0.012  79.788 115.510  0.00  0.00    -0.090 HD
ATOM     21  H   LIG d   1      -0.611  78.693 114.462  0.00  0.00    -0.090 HD
ENDBRANCH   5  18
BRANCH   3  22
ATOM     22  C   LIG d   1      -3.958  81.523 117.257  0.00  0.00     0.382 C 
ATOM     23  O   LIG d   1      -5.049  82.036 116.907  0.00  0.00    -0.241 OA
ATOM     24  O   LIG d   1      -3.222  82.133 118.056  0.00  0.00    -0.241 OA
ENDBRANCH   3  22
TORSDOF 7
ENDMDL
MODEL 8
REMARK VINA RESULT:      -4.1      3.866      6.067
REMARK  7 active torsions:
REMARK  status: ('A' for Active; 'I' for Inactive)
REMARK    1  A    between atoms: C_2  and  C_3 
REMARK    2  A    between atoms: C_3  and  O_6 
REMARK    3  A    between atoms: C_3  and  C_4 
REMARK    4  A    between atoms: C_7  and  O_6 
REMARK    5  A    between atoms: C_9  and  C_10 
REMARK    6  A    between atoms: N_15  and  C_14 
REMARK    7  A    between atoms: N_20  and  C_19 
REMARK       I    between atoms: C_22  and  N_20 
ROOT
ATOM      1  C   LIG d   1      -3.454  78.402 115.744  0.00  0.00     0.161 C 
ATOM      2  C   LIG d   1      -3.274  77.350 114.831  0.00  0.00     0.016 C 
ATOM      3  C   LIG d   1      -4.014  76.146 114.874  0.00  0.00     0.038 C 
ATOM      4  C   LIG d   1      -5.097  75.973 115.748  0.00  0.00     0.028 C 
ATOM      5  C   LIG d   1      -4.988  76.807 117.020  0.00  0.00    -0.047 C 
ATOM      6  C   LIG d   1      -4.708  78.277 116.635  0.00  0.00     0.091 C 
ENDROOT
BRANCH   1   7
ATOM      7  O   LIG d   1      -3.462  79.662 115.043  0.00  0.00    -0.368 OA
BRANCH   7   8
ATOM      8  C   LIG d   1      -2.289  80.494 115.215  0.00  0.00     0.119 C 
BRANCH   8   9
ATOM      9  C   LIG d   1      -2.766  81.868 115.723  0.00  0.00     0.028 C 
ATOM     10  C   LIG d   1      -2.123  82.254 117.065  0.00  0.00     0.006 C 
ENDBRANCH   8   9
BRANCH   8  11
ATOM     11  C   LIG d   1      -1.602  80.773 113.875  0.00  0.00     0.028 C 
ATOM     12  C   LIG d   1      -2.525  81.477 112.867  0.00  0.00     0.006 C 
ENDBRANCH   8  11
ENDBRANCH   7   8
ENDBRANCH   1   7
BRANCH   6  13
ATOM     13  N   LIG d   1      -4.504  79.146 117.823  0.00  0.00    -0.311 N 
ATOM     14  C   LIG d   1      -5.206  80.254 118.051  0.00  0.00     0.210 C 
ATOM     15  C   LIG d   1      -4.821  81.013 119.324  0.00  0.00     0.109 C 
ATOM     16  O   LIG d   1      -6.132  80.664 117.335  0.00  0.00    -0.276 OA
ATOM     17  H   LIG d   1      -3.792  78.871 118.472  0.00  0.00     0.149 HD
ENDBRANCH   6  13
BRANCH   5  18
ATOM     18  N   LIG d   1      -6.245  76.636 117.774  0.00  0.00     0.381 N 
ATOM     19  H   LIG d   1      -6.859  77.403 117.587  0.00  0.00    -0.090 HD
ATOM     20  H   LIG d   1      -6.037  76.632 118.757  0.00  0.00    -0.090 HD
ATOM     21  H   LIG d   1      -6.684  75.780 117.516  0.00  0.00    -0.090 HD
ENDBRANCH   5  18
BRANCH   3  22
ATOM     22  C   LIG d   1      -3.645  75.084 114.063  0.00  0.00     0.382 C 
ATOM     23  O   LIG d   1      -4.470  74.601 113.249  0.00  0.00    -0.241 OA
ATOM     24  O   LIG d   1      -2.514  74.573 114.166  0.00  0.00    -0.241 OA
ENDBRANCH   3  22
TORSDOF 7
ENDMDL
MODEL 9
REMARK VINA RESULT:      -4.1      3.606      6.903
REMARK  7 active torsions:
REMARK  status: ('A' for Active; 'I' for Inactive)
REMARK    1  A    between atoms: C_2  and  C_3 
REMARK    2  A    between atoms: C_3  and  O_6 
REMARK    3  A    between atoms: C_3  and  C_4 
REMARK    4  A    between atoms: C_7  and  O_6 
REMARK    5  A    between atoms: C_9  and  C_10 
REMARK    6  A    between atoms: N_15  and  C_14 
REMARK    7  A    between atoms: N_20  and  C_19 
REMARK       I    between atoms: C_22  and  N_20 
ROOT
ATOM      1  C   LIG d   1      -2.655  78.208 115.169  0.00  0.00     0.161 C 
ATOM      2  C   LIG d   1      -2.532  78.922 113.966  0.00  0.00     0.016 C 
ATOM      3  C   LIG d   1      -2.515  80.334 113.897  0.00  0.00     0.038 C 
ATOM      4  C   LIG d   1      -2.470  81.132 115.049  0.00  0.00     0.028 C 
ATOM      5  C   LIG d   1      -3.101  80.470 116.270  0.00  0.00    -0.047 C 
ATOM      6  C   LIG d   1      -2.495  79.059 116.446  0.00  0.00     0.091 C 
ENDROOT
BRANCH   1   7
ATOM      7  O   LIG d   1      -1.726  77.106 115.182  0.00  0.00    -0.368 OA
BRANCH   7   8
ATOM      8  C   LIG d   1      -2.236  75.836 114.707  0.00  0.00     0.119 C 
BRANCH   8   9
ATOM      9  C   LIG d   1      -3.673  75.685 115.243  0.00  0.00     0.028 C 
ATOM     10  C   LIG d   1      -3.737  74.822 116.515  0.00  0.00     0.006 C 
ENDBRANCH   8   9
BRANCH   8  11
ATOM     11  C   LIG d   1      -1.455  74.663 115.306  0.00  0.00     0.028 C 
ATOM     12  C   LIG d   1      -0.309  74.186 114.400  0.00  0.00     0.006 C 
ENDBRANCH   8  11
ENDBRANCH   7   8
ENDBRANCH   1   7
BRANCH   6  13
ATOM     13  N   LIG d   1      -3.119  78.310 117.568  0.00  0.00    -0.311 N 
ATOM     14  C   LIG d   1      -2.418  77.706 118.525  0.00  0.00     0.210 C 
ATOM     15  C   LIG d   1      -3.257  76.973 119.576  0.00  0.00     0.109 C 
ATOM     16  O   LIG d   1      -1.181  77.735 118.622  0.00  0.00    -0.276 OA
ATOM     17  H   LIG d   1      -4.119  78.263 117.584  0.00  0.00     0.149 HD
ENDBRANCH   6  13
BRANCH   5  18
ATOM     18  N   LIG d   1      -2.862  81.351 117.428  0.00  0.00     0.381 N 
ATOM     19  H   LIG d   1      -3.703  81.841 117.660  0.00  0.00    -0.090 HD
ATOM     20  H   LIG d   1      -2.161  82.028 117.183  0.00  0.00    -0.090 HD
ATOM     21  H   LIG d   1      -2.556  80.813 118.209  0.00  0.00    -0.090 HD
ENDBRANCH   5  18
BRANCH   3  22
ATOM     22  C   LIG d   1      -2.585  80.962 112.663  0.00  0.00     0.382 C 
ATOM     23  O   LIG d   1      -3.486  81.806 112.439  0.00  0.00    -0.241 OA
ATOM     24  O   LIG d   1      -1.786  80.663 111.755  0.00  0.00    -0.241 OA
ENDBRANCH   3  22
TORSDOF 7
ENDMDL
