MODEL 1
REMARK VINA RESULT:      -5.3      0.000      0.000
REMARK  7 active torsions:
REMARK  status: ('A' for Active; 'I' for Inactive)
REMARK    1  A    between atoms: C_2  and  C_3 
REMARK    2  A    between atoms: C_3  and  O_6 
REMARK    3  A    between atoms: C_3  and  C_4 
REMARK    4  A    between atoms: C_7  and  O_6 
REMARK    5  A    between atoms: C_9  and  C_10 
REMARK    6  A    between atoms: N_15  and  C_14 
REMARK    7  A    between atoms: N_20  and  C_19 
REMARK       I    between atoms: C_22  and  N_20 
ROOT
ATOM      1  C   LIG d   1      -1.480  76.241 115.184  0.00  0.00     0.161 C 
ATOM      2  C   LIG d   1      -1.356  75.488 116.364  0.00  0.00     0.016 C 
ATOM      3  C   LIG d   1      -0.711  75.965 117.527  0.00  0.00     0.038 C 
ATOM      4  C   LIG d   1      -0.275  77.294 117.641  0.00  0.00     0.028 C 
ATOM      5  C   LIG d   1       0.073  77.934 116.302  0.00  0.00    -0.047 C 
ATOM      6  C   LIG d   1      -1.109  77.732 115.326  0.00  0.00     0.091 C 
ENDROOT
BRANCH   1   7
ATOM      7  O   LIG d   1      -2.814  76.104 114.655  0.00  0.00    -0.368 OA
BRANCH   7   8
ATOM      8  C   LIG d   1      -3.860  75.843 115.623  0.00  0.00     0.119 C 
BRANCH   8   9
ATOM      9  C   LIG d   1      -4.868  74.881 114.966  0.00  0.00     0.028 C 
ATOM     10  C   LIG d   1      -5.973  75.625 114.197  0.00  0.00     0.006 C 
ENDBRANCH   8   9
BRANCH   8  11
ATOM     11  C   LIG d   1      -4.656  77.112 115.939  0.00  0.00     0.028 C 
ATOM     12  C   LIG d   1      -4.138  77.846 117.186  0.00  0.00     0.006 C 
ENDBRANCH   8  11
ENDBRANCH   7   8
ENDBRANCH   1   7
BRANCH   6  13
ATOM     13  N   LIG d   1      -0.818  78.254 113.966  0.00  0.00    -0.311 N 
ATOM     14  C   LIG d   1      -1.640  79.063 113.300  0.00  0.00     0.210 C 
ATOM     15  C   LIG d   1      -1.157  79.469 111.903  0.00  0.00     0.109 C 
ATOM     16  O   LIG d   1      -2.708  79.508 113.745  0.00  0.00    -0.276 OA
ATOM     17  H   LIG d   1       0.043  77.968 113.542  0.00  0.00     0.149 HD
ENDBRANCH   6  13
BRANCH   5  18
ATOM     18  N   LIG d   1       0.378  79.355 116.553  0.00  0.00     0.381 N 
ATOM     19  H   LIG d   1       1.166  79.429 117.165  0.00  0.00    -0.090 HD
ATOM     20  H   LIG d   1      -0.412  79.783 117.002  0.00  0.00    -0.090 HD
ATOM     21  H   LIG d   1       0.572  79.819 115.693  0.00  0.00    -0.090 HD
ENDBRANCH   5  18
BRANCH   3  22
ATOM     22  C   LIG d   1      -0.460  75.098 118.579  0.00  0.00     0.382 C 
ATOM     23  O   LIG d   1      -1.412  74.646 119.260  0.00  0.00    -0.241 OA
ATOM     24  O   LIG d   1       0.709  74.796 118.884  0.00  0.00    -0.241 OA
ENDBRANCH   3  22
TORSDOF 7
ENDMDL
MODEL 2
REMARK VINA RESULT:      -5.1      2.348      5.470
REMARK  7 active torsions:
REMARK  status: ('A' for Active; 'I' for Inactive)
REMARK    1  A    between atoms: C_2  and  C_3 
REMARK    2  A    between atoms: C_3  and  O_6 
REMARK    3  A    between atoms: C_3  and  C_4 
REMARK    4  A    between atoms: C_7  and  O_6 
REMARK    5  A    between atoms: C_9  and  C_10 
REMARK    6  A    between atoms: N_15  and  C_14 
REMARK    7  A    between atoms: N_20  and  C_19 
REMARK       I    between atoms: C_22  and  N_20 
ROOT
ATOM      1  C   LIG d   1      -2.658  78.193 116.116  0.00  0.00     0.161 C 
ATOM      2  C   LIG d   1      -2.927  79.020 115.012  0.00  0.00     0.016 C 
ATOM      3  C   LIG d   1      -2.337  78.837 113.741  0.00  0.00     0.038 C 
ATOM      4  C   LIG d   1      -1.549  77.715 113.444  0.00  0.00     0.028 C 
ATOM      5  C   LIG d   1      -0.845  77.129 114.663  0.00  0.00    -0.047 C 
ATOM      6  C   LIG d   1      -1.888  76.899 115.781  0.00  0.00     0.091 C 
ENDROOT
BRANCH   1   7
ATOM      7  O   LIG d   1      -3.886  77.881 116.803  0.00  0.00    -0.368 OA
BRANCH   7   8
ATOM      8  C   LIG d   1      -4.352  78.869 117.755  0.00  0.00     0.119 C 
BRANCH   8   9
ATOM      9  C   LIG d   1      -3.602  78.627 119.078  0.00  0.00     0.028 C 
ATOM     10  C   LIG d   1      -2.766  79.844 119.510  0.00  0.00     0.006 C 
ENDBRANCH   8   9
BRANCH   8  11
ATOM     11  C   LIG d   1      -5.834  78.668 118.086  0.00  0.00     0.028 C 
ATOM     12  C   LIG d   1      -6.539  79.975 118.483  0.00  0.00     0.006 C 
ENDBRANCH   8  11
ENDBRANCH   7   8
ENDBRANCH   1   7
BRANCH   6  13
ATOM     13  N   LIG d   1      -1.269  76.406 117.039  0.00  0.00    -0.311 N 
ATOM     14  C   LIG d   1      -1.172  75.114 117.351  0.00  0.00     0.210 C 
ATOM     15  C   LIG d   1      -0.518  74.824 118.705  0.00  0.00     0.109 C 
ATOM     16  O   LIG d   1      -1.536  74.181 116.620  0.00  0.00    -0.276 OA
ATOM     17  H   LIG d   1      -0.920  77.094 117.676  0.00  0.00     0.149 HD
ENDBRANCH   6  13
BRANCH   5  18
ATOM     18  N   LIG d   1      -0.172  75.888 114.235  0.00  0.00     0.381 N 
ATOM     19  H   LIG d   1      -0.481  75.123 114.801  0.00  0.00    -0.090 HD
ATOM     20  H   LIG d   1       0.818  75.995 114.363  0.00  0.00    -0.090 HD
ATOM     21  H   LIG d   1      -0.373  75.704 113.277  0.00  0.00    -0.090 HD
ENDBRANCH   5  18
BRANCH   3  22
ATOM     22  C   LIG d   1      -2.502  79.805 112.761  0.00  0.00     0.382 C 
ATOM     23  O   LIG d   1      -3.304  80.752 112.944  0.00  0.00    -0.241 OA
ATOM     24  O   LIG d   1      -1.891  79.718 111.679  0.00  0.00    -0.241 OA
ENDBRANCH   3  22
TORSDOF 7
ENDMDL
MODEL 3
REMARK VINA RESULT:      -5.1      1.765      5.103
REMARK  7 active torsions:
REMARK  status: ('A' for Active; 'I' for Inactive)
REMARK    1  A    between atoms: C_2  and  C_3 
REMARK    2  A    between atoms: C_3  and  O_6 
REMARK    3  A    between atoms: C_3  and  C_4 
REMARK    4  A    between atoms: C_7  and  O_6 
REMARK    5  A    between atoms: C_9  and  C_10 
REMARK    6  A    between atoms: N_15  and  C_14 
REMARK    7  A    between atoms: N_20  and  C_19 
REMARK       I    between atoms: C_22  and  N_20 
ROOT
ATOM      1  C   LIG d   1      -2.500  77.818 116.489  0.00  0.00     0.161 C 
ATOM      2  C   LIG d   1      -2.901  78.553 115.361  0.00  0.00     0.016 C 
ATOM      3  C   LIG d   1      -2.232  78.496 114.117  0.00  0.00     0.038 C 
ATOM      4  C   LIG d   1      -1.199  77.579 113.871  0.00  0.00     0.028 C 
ATOM      5  C   LIG d   1      -0.434  77.179 115.128  0.00  0.00    -0.047 C 
ATOM      6  C   LIG d   1      -1.444  76.729 116.209  0.00  0.00     0.091 C 
ENDROOT
BRANCH   1   7
ATOM      7  O   LIG d   1      -3.654  77.243 117.133  0.00  0.00    -0.368 OA
BRANCH   7   8
ATOM      8  C   LIG d   1      -4.939  77.572 116.551  0.00  0.00     0.119 C 
BRANCH   8   9
ATOM      9  C   LIG d   1      -5.823  78.147 117.674  0.00  0.00     0.028 C 
ATOM     10  C   LIG d   1      -5.258  79.455 118.254  0.00  0.00     0.006 C 
ENDBRANCH   8   9
BRANCH   8  11
ATOM     11  C   LIG d   1      -5.668  76.316 116.064  0.00  0.00     0.028 C 
ATOM     12  C   LIG d   1      -5.027  75.703 114.809  0.00  0.00     0.006 C 
ENDBRANCH   8  11
ENDBRANCH   7   8
ENDBRANCH   1   7
BRANCH   6  13
ATOM     13  N   LIG d   1      -0.784  76.400 117.499  0.00  0.00    -0.311 N 
ATOM     14  C   LIG d   1      -0.378  75.173 117.823  0.00  0.00     0.210 C 
ATOM     15  C   LIG d   1       0.260  75.049 119.210  0.00  0.00     0.109 C 
ATOM     16  O   LIG d   1      -0.457  74.183 117.081  0.00  0.00    -0.276 OA
ATOM     17  H   LIG d   1      -0.652  77.151 118.148  0.00  0.00     0.149 HD
ENDBRANCH   6  13
BRANCH   5  18
ATOM     18  N   LIG d   1       0.519  76.118 114.750  0.00  0.00     0.381 N 
ATOM     19  H   LIG d   1       1.373  76.529 114.429  0.00  0.00    -0.090 HD
ATOM     20  H   LIG d   1       0.126  75.580 113.999  0.00  0.00    -0.090 HD
ATOM     21  H   LIG d   1       0.700  75.528 115.532  0.00  0.00    -0.090 HD
ENDBRANCH   5  18
BRANCH   3  22
ATOM     22  C   LIG d   1      -2.569  79.392 113.113  0.00  0.00     0.382 C 
ATOM     23  O   LIG d   1      -3.179  80.451 113.398  0.00  0.00    -0.241 OA
ATOM     24  O   LIG d   1      -2.311  79.134 111.923  0.00  0.00    -0.241 OA
ENDBRANCH   3  22
TORSDOF 7
ENDMDL
MODEL 4
REMARK VINA RESULT:      -4.9      2.316      5.340
REMARK  7 active torsions:
REMARK  status: ('A' for Active; 'I' for Inactive)
REMARK    1  A    between atoms: C_2  and  C_3 
REMARK    2  A    between atoms: C_3  and  O_6 
REMARK    3  A    between atoms: C_3  and  C_4 
REMARK    4  A    between atoms: C_7  and  O_6 
REMARK    5  A    between atoms: C_9  and  C_10 
REMARK    6  A    between atoms: N_15  and  C_14 
REMARK    7  A    between atoms: N_20  and  C_19 
REMARK       I    between atoms: C_22  and  N_20 
ROOT
ATOM      1  C   LIG d   1      -2.863  78.183 115.707  0.00  0.00     0.161 C 
ATOM      2  C   LIG d   1      -2.943  79.010 114.574  0.00  0.00     0.016 C 
ATOM      3  C   LIG d   1      -2.141  78.833 113.424  0.00  0.00     0.038 C 
ATOM      4  C   LIG d   1      -1.304  77.718 113.267  0.00  0.00     0.028 C 
ATOM      5  C   LIG d   1      -0.817  77.136 114.590  0.00  0.00    -0.047 C 
ATOM      6  C   LIG d   1      -2.035  76.896 115.511  0.00  0.00     0.091 C 
ENDROOT
BRANCH   1   7
ATOM      7  O   LIG d   1      -4.189  77.861 116.172  0.00  0.00    -0.368 OA
BRANCH   7   8
ATOM      8  C   LIG d   1      -4.416  77.997 117.596  0.00  0.00     0.119 C 
BRANCH   8   9
ATOM      9  C   LIG d   1      -5.866  78.481 117.790  0.00  0.00     0.028 C 
ATOM     10  C   LIG d   1      -5.937  79.892 118.398  0.00  0.00     0.006 C 
ENDBRANCH   8   9
BRANCH   8  11
ATOM     11  C   LIG d   1      -3.537  79.098 118.198  0.00  0.00     0.028 C 
ATOM     12  C   LIG d   1      -2.702  78.608 119.392  0.00  0.00     0.006 C 
ENDBRANCH   8  11
ENDBRANCH   7   8
ENDBRANCH   1   7
BRANCH   6  13
ATOM     13  N   LIG d   1      -1.640  76.406 116.858  0.00  0.00    -0.311 N 
ATOM     14  C   LIG d   1      -1.538  75.114 117.167  0.00  0.00     0.210 C 
ATOM     15  C   LIG d   1      -1.136  74.826 118.617  0.00  0.00     0.109 C 
ATOM     16  O   LIG d   1      -1.712  74.180 116.370  0.00  0.00    -0.276 OA
ATOM     17  H   LIG d   1      -1.451  77.097 117.557  0.00  0.00     0.149 HD
ENDBRANCH   6  13
BRANCH   5  18
ATOM     18  N   LIG d   1      -0.071  75.901 114.286  0.00  0.00     0.381 N 
ATOM     19  H   LIG d   1      -0.446  75.139 114.814  0.00  0.00    -0.090 HD
ATOM     20  H   LIG d   1       0.890  76.027 114.554  0.00  0.00    -0.090 HD
ATOM     21  H   LIG d   1      -0.127  75.699 113.312  0.00  0.00    -0.090 HD
ENDBRANCH   5  18
BRANCH   3  22
ATOM     22  C   LIG d   1      -2.141  79.800 112.430  0.00  0.00     0.382 C 
ATOM     23  O   LIG d   1      -1.535  79.591 111.352  0.00  0.00    -0.241 OA
ATOM     24  O   LIG d   1      -2.702  80.897 112.616  0.00  0.00    -0.241 OA
ENDBRANCH   3  22
TORSDOF 7
ENDMDL
MODEL 5
REMARK VINA RESULT:      -4.8      2.909      4.711
REMARK  7 active torsions:
REMARK  status: ('A' for Active; 'I' for Inactive)
REMARK    1  A    between atoms: C_2  and  C_3 
REMARK    2  A    between atoms: C_3  and  O_6 
REMARK    3  A    between atoms: C_3  and  C_4 
REMARK    4  A    between atoms: C_7  and  O_6 
REMARK    5  A    between atoms: C_9  and  C_10 
REMARK    6  A    between atoms: N_15  and  C_14 
REMARK    7  A    between atoms: N_20  and  C_19 
REMARK       I    between atoms: C_22  and  N_20 
ROOT
ATOM      1  C   LIG d   1      -3.962  77.639 116.882  0.00  0.00     0.161 C 
ATOM      2  C   LIG d   1      -5.299  77.927 117.206  0.00  0.00     0.016 C 
ATOM      3  C   LIG d   1      -5.675  78.813 118.241  0.00  0.00     0.038 C 
ATOM      4  C   LIG d   1      -4.734  79.594 118.928  0.00  0.00     0.028 C 
ATOM      5  C   LIG d   1      -3.346  78.963 118.979  0.00  0.00    -0.047 C 
ATOM      6  C   LIG d   1      -2.922  78.565 117.547  0.00  0.00     0.091 C 
ENDROOT
BRANCH   1   7
ATOM      7  O   LIG d   1      -3.795  77.643 115.451  0.00  0.00    -0.368 OA
BRANCH   7   8
ATOM      8  C   LIG d   1      -3.662  76.345 114.821  0.00  0.00     0.119 C 
BRANCH   8   9
ATOM      9  C   LIG d   1      -5.065  75.910 114.356  0.00  0.00     0.028 C 
ATOM     10  C   LIG d   1      -5.565  74.657 115.094  0.00  0.00     0.006 C 
ENDBRANCH   8   9
BRANCH   8  11
ATOM     11  C   LIG d   1      -3.220  75.280 115.828  0.00  0.00     0.028 C 
ATOM     12  C   LIG d   1      -1.759  74.844 115.633  0.00  0.00     0.006 C 
ENDBRANCH   8  11
ENDBRANCH   7   8
ENDBRANCH   1   7
BRANCH   6  13
ATOM     13  N   LIG d   1      -1.612  77.864 117.517  0.00  0.00    -0.311 N 
ATOM     14  C   LIG d   1      -0.575  78.280 116.793  0.00  0.00     0.210 C 
ATOM     15  C   LIG d   1       0.676  77.401 116.891  0.00  0.00     0.109 C 
ATOM     16  O   LIG d   1      -0.560  79.312 116.105  0.00  0.00    -0.276 OA
ATOM     17  H   LIG d   1      -1.526  77.035 118.072  0.00  0.00     0.149 HD
ENDBRANCH   6  13
BRANCH   5  18
ATOM     18  N   LIG d   1      -2.434  79.941 119.601  0.00  0.00     0.381 N 
ATOM     19  H   LIG d   1      -1.490  79.734 119.346  0.00  0.00    -0.090 HD
ATOM     20  H   LIG d   1      -2.514  79.870 120.601  0.00  0.00    -0.090 HD
ATOM     21  H   LIG d   1      -2.671  80.863 119.307  0.00  0.00    -0.090 HD
ENDBRANCH   5  18
BRANCH   3  22
ATOM     22  C   LIG d   1      -7.005  78.896 118.625  0.00  0.00     0.382 C 
ATOM     23  O   LIG d   1      -7.753  79.762 118.111  0.00  0.00    -0.241 OA
ATOM     24  O   LIG d   1      -7.455  78.145 119.511  0.00  0.00    -0.241 OA
ENDBRANCH   3  22
TORSDOF 7
ENDMDL
MODEL 6
REMARK VINA RESULT:      -4.7      2.524      4.714
REMARK  7 active torsions:
REMARK  status: ('A' for Active; 'I' for Inactive)
REMARK    1  A    between atoms: C_2  and  C_3 
REMARK    2  A    between atoms: C_3  and  O_6 
REMARK    3  A    between atoms: C_3  and  C_4 
REMARK    4  A    between atoms: C_7  and  O_6 
REMARK    5  A    between atoms: C_9  and  C_10 
REMARK    6  A    between atoms: N_15  and  C_14 
REMARK    7  A    between atoms: N_20  and  C_19 
REMARK       I    between atoms: C_22  and  N_20 
ROOT
ATOM      1  C   LIG d   1      -1.569  77.904 114.765  0.00  0.00     0.161 C 
ATOM      2  C   LIG d   1      -2.754  78.350 115.373  0.00  0.00     0.016 C 
ATOM      3  C   LIG d   1      -3.159  77.958 116.669  0.00  0.00     0.038 C 
ATOM      4  C   LIG d   1      -2.326  77.207 117.511  0.00  0.00     0.028 C 
ATOM      5  C   LIG d   1      -1.346  76.317 116.755  0.00  0.00    -0.047 C 
ATOM      6  C   LIG d   1      -0.593  77.172 115.711  0.00  0.00     0.091 C 
ENDROOT
BRANCH   1   7
ATOM      7  O   LIG d   1      -0.906  79.008 114.118  0.00  0.00    -0.368 OA
BRANCH   7   8
ATOM      8  C   LIG d   1      -1.453  79.419 112.841  0.00  0.00     0.119 C 
BRANCH   8   9
ATOM      9  C   LIG d   1      -1.418  78.195 111.906  0.00  0.00     0.028 C 
ATOM     10  C   LIG d   1      -2.791  77.895 111.280  0.00  0.00     0.006 C 
ENDBRANCH   8   9
BRANCH   8  11
ATOM     11  C   LIG d   1      -0.565  80.469 112.167  0.00  0.00     0.028 C 
ATOM     12  C   LIG d   1       0.017  79.987 110.828  0.00  0.00     0.006 C 
ENDBRANCH   8  11
ENDBRANCH   7   8
ENDBRANCH   1   7
BRANCH   6  13
ATOM     13  N   LIG d   1       0.326  76.362 114.870  0.00  0.00    -0.311 N 
ATOM     14  C   LIG d   1       0.035  75.136 114.437  0.00  0.00     0.210 C 
ATOM     15  C   LIG d   1       1.130  74.469 113.600  0.00  0.00     0.109 C 
ATOM     16  O   LIG d   1      -1.040  74.551 114.640  0.00  0.00    -0.276 OA
ATOM     17  H   LIG d   1       1.208  76.772 114.632  0.00  0.00     0.149 HD
ENDBRANCH   6  13
BRANCH   5  18
ATOM     18  N   LIG d   1      -0.449  75.697 117.749  0.00  0.00     0.381 N 
ATOM     19  H   LIG d   1       0.504  75.839 117.481  0.00  0.00    -0.090 HD
ATOM     20  H   LIG d   1      -0.625  74.708 117.774  0.00  0.00    -0.090 HD
ATOM     21  H   LIG d   1      -0.611  76.093 118.649  0.00  0.00    -0.090 HD
ENDBRANCH   5  18
BRANCH   3  22
ATOM     22  C   LIG d   1      -4.429  78.286 117.121  0.00  0.00     0.382 C 
ATOM     23  O   LIG d   1      -5.435  77.725 116.624  0.00  0.00    -0.241 OA
ATOM     24  O   LIG d   1      -4.583  79.168 117.987  0.00  0.00    -0.241 OA
ENDBRANCH   3  22
TORSDOF 7
ENDMDL
MODEL 7
REMARK VINA RESULT:      -4.4      1.959      4.845
REMARK  7 active torsions:
REMARK  status: ('A' for Active; 'I' for Inactive)
REMARK    1  A    between atoms: C_2  and  C_3 
REMARK    2  A    between atoms: C_3  and  O_6 
REMARK    3  A    between atoms: C_3  and  C_4 
REMARK    4  A    between atoms: C_7  and  O_6 
REMARK    5  A    between atoms: C_9  and  C_10 
REMARK    6  A    between atoms: N_15  and  C_14 
REMARK    7  A    between atoms: N_20  and  C_19 
REMARK       I    between atoms: C_22  and  N_20 
ROOT
ATOM      1  C   LIG d   1      -1.551  76.814 116.664  0.00  0.00     0.161 C 
ATOM      2  C   LIG d   1      -2.808  76.360 116.233  0.00  0.00     0.016 C 
ATOM      3  C   LIG d   1      -3.376  76.709 114.986  0.00  0.00     0.038 C 
ATOM      4  C   LIG d   1      -2.654  77.419 114.016  0.00  0.00     0.028 C 
ATOM      5  C   LIG d   1      -1.577  78.325 114.604  0.00  0.00    -0.047 C 
ATOM      6  C   LIG d   1      -0.701  77.498 115.573  0.00  0.00     0.091 C 
ENDROOT
BRANCH   1   7
ATOM      7  O   LIG d   1      -0.817  75.727 117.262  0.00  0.00    -0.368 OA
BRANCH   7   8
ATOM      8  C   LIG d   1      -1.175  75.389 118.625  0.00  0.00     0.119 C 
BRANCH   8   9
ATOM      9  C   LIG d   1      -0.744  76.567 119.521  0.00  0.00     0.028 C 
ATOM     10  C   LIG d   1      -1.930  77.457 119.930  0.00  0.00     0.006 C 
ENDBRANCH   8   9
BRANCH   8  11
ATOM     11  C   LIG d   1      -0.377  74.183 119.128  0.00  0.00     0.028 C 
ATOM     12  C   LIG d   1       1.046  74.555 119.576  0.00  0.00     0.006 C 
ENDBRANCH   8  11
ENDBRANCH   7   8
ENDBRANCH   1   7
BRANCH   6  13
ATOM     13  N   LIG d   1       0.325  78.328 116.257  0.00  0.00    -0.311 N 
ATOM     14  C   LIG d   1       0.028  79.352 117.054  0.00  0.00     0.210 C 
ATOM     15  C   LIG d   1       1.238  80.086 117.641  0.00  0.00     0.109 C 
ATOM     16  O   LIG d   1      -1.123  79.703 117.355  0.00  0.00    -0.276 OA
ATOM     17  H   LIG d   1       1.285  78.093 116.092  0.00  0.00     0.149 HD
ENDBRANCH   6  13
BRANCH   5  18
ATOM     18  N   LIG d   1      -0.813  78.897 113.479  0.00  0.00     0.381 N 
ATOM     19  H   LIG d   1       0.141  79.031 113.751  0.00  0.00    -0.090 HD
ATOM     20  H   LIG d   1      -1.203  79.792 113.243  0.00  0.00    -0.090 HD
ATOM     21  H   LIG d   1      -0.859  78.288 112.691  0.00  0.00    -0.090 HD
ENDBRANCH   5  18
BRANCH   3  22
ATOM     22  C   LIG d   1      -4.696  76.381 114.716  0.00  0.00     0.382 C 
ATOM     23  O   LIG d   1      -5.034  76.048 113.555  0.00  0.00    -0.241 OA
ATOM     24  O   LIG d   1      -5.561  76.457 115.609  0.00  0.00    -0.241 OA
ENDBRANCH   3  22
TORSDOF 7
ENDMDL
MODEL 8
REMARK VINA RESULT:      -4.4      2.500      4.835
REMARK  7 active torsions:
REMARK  status: ('A' for Active; 'I' for Inactive)
REMARK    1  A    between atoms: C_2  and  C_3 
REMARK    2  A    between atoms: C_3  and  O_6 
REMARK    3  A    between atoms: C_3  and  C_4 
REMARK    4  A    between atoms: C_7  and  O_6 
REMARK    5  A    between atoms: C_9  and  C_10 
REMARK    6  A    between atoms: N_15  and  C_14 
REMARK    7  A    between atoms: N_20  and  C_19 
REMARK       I    between atoms: C_22  and  N_20 
ROOT
ATOM      1  C   LIG d   1      -1.649  77.048 114.734  0.00  0.00     0.161 C 
ATOM      2  C   LIG d   1      -2.853  76.499 114.263  0.00  0.00     0.016 C 
ATOM      3  C   LIG d   1      -4.047  76.476 115.020  0.00  0.00     0.038 C 
ATOM      4  C   LIG d   1      -4.157  77.139 116.251  0.00  0.00     0.028 C 
ATOM      5  C   LIG d   1      -2.829  77.271 116.989  0.00  0.00    -0.047 C 
ATOM      6  C   LIG d   1      -1.779  77.876 116.029  0.00  0.00     0.091 C 
ENDROOT
BRANCH   1   7
ATOM      7  O   LIG d   1      -1.032  77.836 113.696  0.00  0.00    -0.368 OA
BRANCH   7   8
ATOM      8  C   LIG d   1      -1.916  78.330 112.660  0.00  0.00     0.119 C 
BRANCH   8   9
ATOM      9  C   LIG d   1      -1.474  77.689 111.330  0.00  0.00     0.028 C 
ATOM     10  C   LIG d   1      -0.773  78.694 110.399  0.00  0.00     0.006 C 
ENDBRANCH   8   9
BRANCH   8  11
ATOM     11  C   LIG d   1      -1.750  79.839 112.458  0.00  0.00     0.028 C 
ATOM     12  C   LIG d   1      -3.041  80.623 112.741  0.00  0.00     0.006 C 
ENDBRANCH   8  11
ENDBRANCH   7   8
ENDBRANCH   1   7
BRANCH   6  13
ATOM     13  N   LIG d   1      -0.429  77.961 116.646  0.00  0.00    -0.311 N 
ATOM     14  C   LIG d   1       0.011  79.033 117.302  0.00  0.00     0.210 C 
ATOM     15  C   LIG d   1       1.440  78.919 117.842  0.00  0.00     0.109 C 
ATOM     16  O   LIG d   1      -0.658  80.055 117.515  0.00  0.00    -0.276 OA
ATOM     17  H   LIG d   1       0.168  77.163 116.548  0.00  0.00     0.149 HD
ENDBRANCH   6  13
BRANCH   5  18
ATOM     18  N   LIG d   1      -3.064  78.101 118.186  0.00  0.00     0.381 N 
ATOM     19  H   LIG d   1      -3.177  77.514 118.988  0.00  0.00    -0.090 HD
ATOM     20  H   LIG d   1      -3.912  78.624 118.057  0.00  0.00    -0.090 HD
ATOM     21  H   LIG d   1      -2.299  78.723 118.325  0.00  0.00    -0.090 HD
ENDBRANCH   5  18
BRANCH   3  22
ATOM     22  C   LIG d   1      -5.135  75.747 114.565  0.00  0.00     0.382 C 
ATOM     23  O   LIG d   1      -5.765  76.130 113.550  0.00  0.00    -0.241 OA
ATOM     24  O   LIG d   1      -5.523  74.737 115.183  0.00  0.00    -0.241 OA
ENDBRANCH   3  22
TORSDOF 7
ENDMDL
MODEL 9
REMARK VINA RESULT:      -4.2      2.187      5.200
REMARK  7 active torsions:
REMARK  status: ('A' for Active; 'I' for Inactive)
REMARK    1  A    between atoms: C_2  and  C_3 
REMARK    2  A    between atoms: C_3  and  O_6 
REMARK    3  A    between atoms: C_3  and  C_4 
REMARK    4  A    between atoms: C_7  and  O_6 
REMARK    5  A    between atoms: C_9  and  C_10 
REMARK    6  A    between atoms: N_15  and  C_14 
REMARK    7  A    between atoms: N_20  and  C_19 
REMARK       I    between atoms: C_22  and  N_20 
ROOT
ATOM      1  C   LIG d   1      -0.541  78.129 116.348  0.00  0.00     0.161 C 
ATOM      2  C   LIG d   1      -1.030  78.493 115.082  0.00  0.00     0.016 C 
ATOM      3  C   LIG d   1      -1.170  77.582 114.010  0.00  0.00     0.038 C 
ATOM      4  C   LIG d   1      -0.971  76.204 114.178  0.00  0.00     0.028 C 
ATOM      5  C   LIG d   1       0.007  75.865 115.297  0.00  0.00    -0.047 C 
ATOM      6  C   LIG d   1      -0.423  76.608 116.582  0.00  0.00     0.091 C 
ENDROOT
BRANCH   1   7
ATOM      7  O   LIG d   1      -1.348  78.734 117.377  0.00  0.00    -0.368 OA
BRANCH   7   8
ATOM      8  C   LIG d   1      -2.378  77.894 117.955  0.00  0.00     0.119 C 
BRANCH   8   9
ATOM      9  C   LIG d   1      -3.737  78.410 117.445  0.00  0.00     0.028 C 
ATOM     10  C   LIG d   1      -4.446  77.394 116.534  0.00  0.00     0.006 C 
ENDBRANCH   8   9
BRANCH   8  11
ATOM     11  C   LIG d   1      -2.431  78.047 119.478  0.00  0.00     0.028 C 
ATOM     12  C   LIG d   1      -3.274  79.252 119.927  0.00  0.00     0.006 C 
ENDBRANCH   8  11
ENDBRANCH   7   8
ENDBRANCH   1   7
BRANCH   6  13
ATOM     13  N   LIG d   1       0.528  76.399 117.705  0.00  0.00    -0.311 N 
ATOM     14  C   LIG d   1       0.345  75.491 118.661  0.00  0.00     0.210 C 
ATOM     15  C   LIG d   1       1.437  75.453 119.735  0.00  0.00     0.109 C 
ATOM     16  O   LIG d   1      -0.602  74.691 118.705  0.00  0.00    -0.276 OA
ATOM     17  H   LIG d   1       1.340  76.984 117.729  0.00  0.00     0.149 HD
ENDBRANCH   6  13
BRANCH   5  18
ATOM     18  N   LIG d   1       0.016  74.398 115.453  0.00  0.00     0.381 N 
ATOM     19  H   LIG d   1       0.838  74.115 115.948  0.00  0.00    -0.090 HD
ATOM     20  H   LIG d   1       0.034  73.975 114.542  0.00  0.00    -0.090 HD
ATOM     21  H   LIG d   1      -0.797  74.103 115.949  0.00  0.00    -0.090 HD
ENDBRANCH   5  18
BRANCH   3  22
ATOM     22  C   LIG d   1      -1.476  78.054 112.743  0.00  0.00     0.382 C 
ATOM     23  O   LIG d   1      -1.624  77.248 111.793  0.00  0.00    -0.241 OA
ATOM     24  O   LIG d   1      -1.560  79.278 112.528  0.00  0.00    -0.241 OA
ENDBRANCH   3  22
TORSDOF 7
ENDMDL
