MODEL 1
REMARK VINA RESULT:      -5.0      0.000      0.000
REMARK  7 active torsions:
REMARK  status: ('A' for Active; 'I' for Inactive)
REMARK    1  A    between atoms: C_2  and  C_3 
REMARK    2  A    between atoms: C_3  and  O_6 
REMARK    3  A    between atoms: C_3  and  C_4 
REMARK    4  A    between atoms: C_7  and  O_6 
REMARK    5  A    between atoms: C_9  and  C_10 
REMARK    6  A    between atoms: N_15  and  C_14 
REMARK    7  A    between atoms: N_20  and  C_19 
REMARK       I    between atoms: C_22  and  N_20 
ROOT
ATOM      1  C   LIG d   1      -1.540  80.073 113.476  0.00  0.00     0.161 C 
ATOM      2  C   LIG d   1      -2.192  78.959 114.030  0.00  0.00     0.016 C 
ATOM      3  C   LIG d   1      -2.447  77.769 113.311  0.00  0.00     0.038 C 
ATOM      4  C   LIG d   1      -1.929  77.555 112.025  0.00  0.00     0.028 C 
ATOM      5  C   LIG d   1      -1.700  78.843 111.242  0.00  0.00    -0.047 C 
ATOM      6  C   LIG d   1      -0.870  79.817 112.110  0.00  0.00     0.091 C 
ENDROOT
BRANCH   1   7
ATOM      7  O   LIG d   1      -0.580  80.595 114.415  0.00  0.00    -0.368 OA
BRANCH   7   8
ATOM      8  C   LIG d   1      -0.970  81.795 115.126  0.00  0.00     0.119 C 
BRANCH   8   9
ATOM      9  C   LIG d   1      -0.278  82.988 114.437  0.00  0.00     0.028 C 
ATOM     10  C   LIG d   1       1.216  82.731 114.182  0.00  0.00     0.006 C 
ENDBRANCH   8   9
BRANCH   8  11
ATOM     11  C   LIG d   1      -0.437  81.791 116.562  0.00  0.00     0.028 C 
ATOM     12  C   LIG d   1      -0.069  80.383 117.057  0.00  0.00     0.006 C 
ENDBRANCH   8  11
ENDBRANCH   7   8
ENDBRANCH   1   7
BRANCH   6  13
ATOM     13  N   LIG d   1      -0.672  81.135 111.451  0.00  0.00    -0.311 N 
ATOM     14  C   LIG d   1       0.421  81.452 110.760  0.00  0.00     0.210 C 
ATOM     15  C   LIG d   1       0.431  82.870 110.180  0.00  0.00     0.109 C 
ATOM     16  O   LIG d   1       1.370  80.683 110.546  0.00  0.00    -0.276 OA
ATOM     17  H   LIG d   1      -1.407  81.808 111.549  0.00  0.00     0.149 HD
ENDBRANCH   6  13
BRANCH   5  18
ATOM     18  N   LIG d   1      -1.031  78.483 109.977  0.00  0.00     0.381 N 
ATOM     19  H   LIG d   1      -1.712  78.187 109.307  0.00  0.00    -0.090 HD
ATOM     20  H   LIG d   1      -0.403  77.718 110.148  0.00  0.00    -0.090 HD
ATOM     21  H   LIG d   1      -0.525  79.265 109.624  0.00  0.00    -0.090 HD
ENDBRANCH   5  18
BRANCH   3  22
ATOM     22  C   LIG d   1      -3.262  76.793 113.864  0.00  0.00     0.382 C 
ATOM     23  O   LIG d   1      -4.185  76.287 113.182  0.00  0.00    -0.241 OA
ATOM     24  O   LIG d   1      -3.113  76.444 115.050  0.00  0.00    -0.241 OA
ENDBRANCH   3  22
TORSDOF 7
ENDMDL
MODEL 2
REMARK VINA RESULT:      -4.8      2.425      5.174
REMARK  7 active torsions:
REMARK  status: ('A' for Active; 'I' for Inactive)
REMARK    1  A    between atoms: C_2  and  C_3 
REMARK    2  A    between atoms: C_3  and  O_6 
REMARK    3  A    between atoms: C_3  and  C_4 
REMARK    4  A    between atoms: C_7  and  O_6 
REMARK    5  A    between atoms: C_9  and  C_10 
REMARK    6  A    between atoms: N_15  and  C_14 
REMARK    7  A    between atoms: N_20  and  C_19 
REMARK       I    between atoms: C_22  and  N_20 
ROOT
ATOM      1  C   LIG d   1      -0.779  79.244 114.949  0.00  0.00     0.161 C 
ATOM      2  C   LIG d   1      -0.983  80.553 114.482  0.00  0.00     0.016 C 
ATOM      3  C   LIG d   1      -1.744  80.859 113.331  0.00  0.00     0.038 C 
ATOM      4  C   LIG d   1      -2.483  79.881 112.649  0.00  0.00     0.028 C 
ATOM      5  C   LIG d   1      -1.901  78.478 112.784  0.00  0.00    -0.047 C 
ATOM      6  C   LIG d   1      -1.669  78.174 114.282  0.00  0.00     0.091 C 
ENDROOT
BRANCH   1   7
ATOM      7  O   LIG d   1      -0.937  79.205 116.381  0.00  0.00    -0.368 OA
BRANCH   7   8
ATOM      8  C   LIG d   1       0.235  78.819 117.141  0.00  0.00     0.119 C 
BRANCH   8   9
ATOM      9  C   LIG d   1      -0.136  77.564 117.955  0.00  0.00     0.028 C 
ATOM     10  C   LIG d   1      -1.657  77.372 118.078  0.00  0.00     0.006 C 
ENDBRANCH   8   9
BRANCH   8  11
ATOM     11  C   LIG d   1       0.601  79.883 118.179  0.00  0.00     0.028 C 
ATOM     12  C   LIG d   1      -0.420  81.029 118.244  0.00  0.00     0.006 C 
ENDBRANCH   8  11
ENDBRANCH   7   8
ENDBRANCH   1   7
BRANCH   6  13
ATOM     13  N   LIG d   1      -1.022  76.853 114.498  0.00  0.00    -0.311 N 
ATOM     14  C   LIG d   1      -1.705  75.723 114.673  0.00  0.00     0.210 C 
ATOM     15  C   LIG d   1      -0.844  74.476 114.900  0.00  0.00     0.109 C 
ATOM     16  O   LIG d   1      -2.940  75.629 114.629  0.00  0.00    -0.276 OA
ATOM     17  H   LIG d   1      -0.021  76.833 114.517  0.00  0.00     0.149 HD
ENDBRANCH   6  13
BRANCH   5  18
ATOM     18  N   LIG d   1      -2.842  77.541 112.143  0.00  0.00     0.381 N 
ATOM     19  H   LIG d   1      -3.023  77.833 111.203  0.00  0.00    -0.090 HD
ATOM     20  H   LIG d   1      -3.710  77.554 112.650  0.00  0.00    -0.090 HD
ATOM     21  H   LIG d   1      -2.461  76.620 112.145  0.00  0.00    -0.090 HD
ENDBRANCH   5  18
BRANCH   3  22
ATOM     22  C   LIG d   1      -1.739  82.151 112.827  0.00  0.00     0.382 C 
ATOM     23  O   LIG d   1      -1.986  83.121 113.584  0.00  0.00    -0.241 OA
ATOM     24  O   LIG d   1      -1.535  82.356 111.615  0.00  0.00    -0.241 OA
ENDBRANCH   3  22
TORSDOF 7
ENDMDL
MODEL 3
REMARK VINA RESULT:      -4.8      3.071      6.295
REMARK  7 active torsions:
REMARK  status: ('A' for Active; 'I' for Inactive)
REMARK    1  A    between atoms: C_2  and  C_3 
REMARK    2  A    between atoms: C_3  and  O_6 
REMARK    3  A    between atoms: C_3  and  C_4 
REMARK    4  A    between atoms: C_7  and  O_6 
REMARK    5  A    between atoms: C_9  and  C_10 
REMARK    6  A    between atoms: N_15  and  C_14 
REMARK    7  A    between atoms: N_20  and  C_19 
REMARK       I    between atoms: C_22  and  N_20 
ROOT
ATOM      1  C   LIG d   1      -2.157  78.223 114.961  0.00  0.00     0.161 C 
ATOM      2  C   LIG d   1      -2.505  79.139 113.954  0.00  0.00     0.016 C 
ATOM      3  C   LIG d   1      -1.814  80.353 113.734  0.00  0.00     0.038 C 
ATOM      4  C   LIG d   1      -0.626  80.663 114.412  0.00  0.00     0.028 C 
ATOM      5  C   LIG d   1      -0.523  80.006 115.785  0.00  0.00    -0.047 C 
ATOM      6  C   LIG d   1      -0.797  78.492 115.638  0.00  0.00     0.091 C 
ENDROOT
BRANCH   1   7
ATOM      7  O   LIG d   1      -2.199  76.881 114.436  0.00  0.00    -0.368 OA
BRANCH   7   8
ATOM      8  C   LIG d   1      -2.943  75.914 115.217  0.00  0.00     0.119 C 
BRANCH   8   9
ATOM      9  C   LIG d   1      -2.057  74.663 115.371  0.00  0.00     0.028 C 
ATOM     10  C   LIG d   1      -0.701  74.813 114.660  0.00  0.00     0.006 C 
ENDBRANCH   8   9
BRANCH   8  11
ATOM     11  C   LIG d   1      -4.192  75.437 114.470  0.00  0.00     0.028 C 
ATOM     12  C   LIG d   1      -5.278  74.893 115.412  0.00  0.00     0.006 C 
ENDBRANCH   8  11
ENDBRANCH   7   8
ENDBRANCH   1   7
BRANCH   6  13
ATOM     13  N   LIG d   1      -0.799  77.787 116.946  0.00  0.00    -0.311 N 
ATOM     14  C   LIG d   1       0.274  77.186 117.457  0.00  0.00     0.210 C 
ATOM     15  C   LIG d   1       0.050  76.501 118.809  0.00  0.00     0.109 C 
ATOM     16  O   LIG d   1       1.398  77.183 116.934  0.00  0.00    -0.276 OA
ATOM     17  H   LIG d   1      -1.663  77.768 117.453  0.00  0.00     0.149 HD
ENDBRANCH   6  13
BRANCH   5  18
ATOM     18  N   LIG d   1       0.819  80.301 116.321  0.00  0.00     0.381 N 
ATOM     19  H   LIG d   1       0.930  81.289 116.431  0.00  0.00    -0.090 HD
ATOM     20  H   LIG d   1       1.509  79.978 115.666  0.00  0.00    -0.090 HD
ATOM     21  H   LIG d   1       0.944  79.846 117.198  0.00  0.00    -0.090 HD
ENDBRANCH   5  18
BRANCH   3  22
ATOM     22  C   LIG d   1      -2.333  81.289 112.853  0.00  0.00     0.382 C 
ATOM     23  O   LIG d   1      -3.553  81.578 112.892  0.00  0.00    -0.241 OA
ATOM     24  O   LIG d   1      -1.605  81.816 111.990  0.00  0.00    -0.241 OA
ENDBRANCH   3  22
TORSDOF 7
ENDMDL
MODEL 4
REMARK VINA RESULT:      -4.7      1.314      1.465
REMARK  7 active torsions:
REMARK  status: ('A' for Active; 'I' for Inactive)
REMARK    1  A    between atoms: C_2  and  C_3 
REMARK    2  A    between atoms: C_3  and  O_6 
REMARK    3  A    between atoms: C_3  and  C_4 
REMARK    4  A    between atoms: C_7  and  O_6 
REMARK    5  A    between atoms: C_9  and  C_10 
REMARK    6  A    between atoms: N_15  and  C_14 
REMARK    7  A    between atoms: N_20  and  C_19 
REMARK       I    between atoms: C_22  and  N_20 
ROOT
ATOM      1  C   LIG d   1      -0.970  80.784 113.010  0.00  0.00     0.161 C 
ATOM      2  C   LIG d   1      -1.881  79.777 113.368  0.00  0.00     0.016 C 
ATOM      3  C   LIG d   1      -2.088  78.607 112.601  0.00  0.00     0.038 C 
ATOM      4  C   LIG d   1      -1.283  78.292 111.496  0.00  0.00     0.028 C 
ATOM      5  C   LIG d   1      -0.694  79.519 110.807  0.00  0.00    -0.047 C 
ATOM      6  C   LIG d   1      -0.004  80.407 111.867  0.00  0.00     0.091 C 
ENDROOT
BRANCH   1   7
ATOM      7  O   LIG d   1      -0.230  81.210 114.171  0.00  0.00    -0.368 OA
BRANCH   7   8
ATOM      8  C   LIG d   1      -0.789  82.323 114.910  0.00  0.00     0.119 C 
BRANCH   8   9
ATOM      9  C   LIG d   1       0.044  83.573 114.565  0.00  0.00     0.028 C 
ATOM     10  C   LIG d   1      -0.800  84.678 113.908  0.00  0.00     0.006 C 
ENDBRANCH   8   9
BRANCH   8  11
ATOM     11  C   LIG d   1      -0.623  82.129 116.420  0.00  0.00     0.028 C 
ATOM     12  C   LIG d   1      -0.156  80.713 116.791  0.00  0.00     0.006 C 
ENDBRANCH   8  11
ENDBRANCH   7   8
ENDBRANCH   1   7
BRANCH   6  13
ATOM     13  N   LIG d   1       0.527  81.670 111.291  0.00  0.00    -0.311 N 
ATOM     14  C   LIG d   1      -0.250  82.675 110.890  0.00  0.00     0.210 C 
ATOM     15  C   LIG d   1       0.500  83.877 110.307  0.00  0.00     0.109 C 
ATOM     16  O   LIG d   1      -1.485  82.699 110.992  0.00  0.00    -0.276 OA
ATOM     17  H   LIG d   1       1.521  81.748 111.200  0.00  0.00     0.149 HD
ENDBRANCH   6  13
BRANCH   5  18
ATOM     18  N   LIG d   1       0.231  79.041 109.761  0.00  0.00     0.381 N 
ATOM     19  H   LIG d   1       0.446  79.789 109.133  0.00  0.00    -0.090 HD
ATOM     20  H   LIG d   1      -0.219  78.310 109.239  0.00  0.00    -0.090 HD
ATOM     21  H   LIG d   1       1.067  78.696 110.178  0.00  0.00    -0.090 HD
ENDBRANCH   5  18
BRANCH   3  22
ATOM     22  C   LIG d   1      -3.137  77.756 112.915  0.00  0.00     0.382 C 
ATOM     23  O   LIG d   1      -3.808  77.223 111.999  0.00  0.00    -0.241 OA
ATOM     24  O   LIG d   1      -3.449  77.550 114.103  0.00  0.00    -0.241 OA
ENDBRANCH   3  22
TORSDOF 7
ENDMDL
MODEL 5
REMARK VINA RESULT:      -4.7      2.824      5.922
REMARK  7 active torsions:
REMARK  status: ('A' for Active; 'I' for Inactive)
REMARK    1  A    between atoms: C_2  and  C_3 
REMARK    2  A    between atoms: C_3  and  O_6 
REMARK    3  A    between atoms: C_3  and  C_4 
REMARK    4  A    between atoms: C_7  and  O_6 
REMARK    5  A    between atoms: C_9  and  C_10 
REMARK    6  A    between atoms: N_15  and  C_14 
REMARK    7  A    between atoms: N_20  and  C_19 
REMARK       I    between atoms: C_22  and  N_20 
ROOT
ATOM      1  C   LIG d   1      -1.122  77.993 115.882  0.00  0.00     0.161 C 
ATOM      2  C   LIG d   1      -0.511  78.478 117.050  0.00  0.00     0.016 C 
ATOM      3  C   LIG d   1      -0.034  79.802 117.187  0.00  0.00     0.038 C 
ATOM      4  C   LIG d   1      -0.275  80.781 116.212  0.00  0.00     0.028 C 
ATOM      5  C   LIG d   1      -0.442  80.210 114.808  0.00  0.00    -0.047 C 
ATOM      6  C   LIG d   1      -1.493  79.078 114.849  0.00  0.00     0.091 C 
ENDROOT
BRANCH   1   7
ATOM      7  O   LIG d   1      -2.283  77.211 116.226  0.00  0.00    -0.368 OA
BRANCH   7   8
ATOM      8  C   LIG d   1      -2.204  75.793 115.939  0.00  0.00     0.119 C 
BRANCH   8   9
ATOM      9  C   LIG d   1      -3.342  75.455 114.957  0.00  0.00     0.028 C 
ATOM     10  C   LIG d   1      -4.596  74.923 115.672  0.00  0.00     0.006 C 
ENDBRANCH   8   9
BRANCH   8  11
ATOM     11  C   LIG d   1      -2.486  74.955 117.190  0.00  0.00     0.028 C 
ATOM     12  C   LIG d   1      -1.205  74.545 117.934  0.00  0.00     0.006 C 
ENDBRANCH   8  11
ENDBRANCH   7   8
ENDBRANCH   1   7
BRANCH   6  13
ATOM     13  N   LIG d   1      -1.656  78.408 113.532  0.00  0.00    -0.311 N 
ATOM     14  C   LIG d   1      -2.597  78.741 112.651  0.00  0.00     0.210 C 
ATOM     15  C   LIG d   1      -2.601  77.911 111.364  0.00  0.00     0.109 C 
ATOM     16  O   LIG d   1      -3.408  79.668 112.799  0.00  0.00    -0.276 OA
ATOM     17  H   LIG d   1      -1.019  77.665 113.317  0.00  0.00     0.149 HD
ENDBRANCH   6  13
BRANCH   5  18
ATOM     18  N   LIG d   1      -0.823  81.322 113.917  0.00  0.00     0.381 N 
ATOM     19  H   LIG d   1      -0.005  81.819 113.627  0.00  0.00    -0.090 HD
ATOM     20  H   LIG d   1      -1.415  81.956 114.424  0.00  0.00    -0.090 HD
ATOM     21  H   LIG d   1      -1.306  80.970 113.120  0.00  0.00    -0.090 HD
ENDBRANCH   5  18
BRANCH   3  22
ATOM     22  C   LIG d   1       0.727  80.147 118.294  0.00  0.00     0.382 C 
ATOM     23  O   LIG d   1       1.013  79.279 119.154  0.00  0.00    -0.241 OA
ATOM     24  O   LIG d   1       1.094  81.325 118.465  0.00  0.00    -0.241 OA
ENDBRANCH   3  22
TORSDOF 7
ENDMDL
MODEL 6
REMARK VINA RESULT:      -4.7      3.838      5.982
REMARK  7 active torsions:
REMARK  status: ('A' for Active; 'I' for Inactive)
REMARK    1  A    between atoms: C_2  and  C_3 
REMARK    2  A    between atoms: C_3  and  O_6 
REMARK    3  A    between atoms: C_3  and  C_4 
REMARK    4  A    between atoms: C_7  and  O_6 
REMARK    5  A    between atoms: C_9  and  C_10 
REMARK    6  A    between atoms: N_15  and  C_14 
REMARK    7  A    between atoms: N_20  and  C_19 
REMARK       I    between atoms: C_22  and  N_20 
ROOT
ATOM      1  C   LIG d   1      -1.030  77.665 115.979  0.00  0.00     0.161 C 
ATOM      2  C   LIG d   1      -1.535  78.116 114.748  0.00  0.00     0.016 C 
ATOM      3  C   LIG d   1      -2.518  77.419 114.008  0.00  0.00     0.038 C 
ATOM      4  C   LIG d   1      -3.176  76.293 114.525  0.00  0.00     0.028 C 
ATOM      5  C   LIG d   1      -2.342  75.517 115.539  0.00  0.00    -0.047 C 
ATOM      6  C   LIG d   1      -1.816  76.498 116.612  0.00  0.00     0.091 C 
ENDROOT
BRANCH   1   7
ATOM      7  O   LIG d   1      -0.940  78.767 116.903  0.00  0.00    -0.368 OA
BRANCH   7   8
ATOM      8  C   LIG d   1       0.399  79.193 117.258  0.00  0.00     0.119 C 
BRANCH   8   9
ATOM      9  C   LIG d   1       0.422  79.425 118.781  0.00  0.00     0.028 C 
ATOM     10  C   LIG d   1      -0.876  78.965 119.465  0.00  0.00     0.006 C 
ENDBRANCH   8   9
BRANCH   8  11
ATOM     11  C   LIG d   1       0.735  80.552 116.636  0.00  0.00     0.028 C 
ATOM     12  C   LIG d   1      -0.421  81.559 116.746  0.00  0.00     0.006 C 
ENDBRANCH   8  11
ENDBRANCH   7   8
ENDBRANCH   1   7
BRANCH   6  13
ATOM     13  N   LIG d   1      -0.922  75.834 117.596  0.00  0.00    -0.311 N 
ATOM     14  C   LIG d   1      -1.350  75.326 118.750  0.00  0.00     0.210 C 
ATOM     15  C   LIG d   1      -0.259  74.705 119.628  0.00  0.00     0.109 C 
ATOM     16  O   LIG d   1      -2.535  75.303 119.116  0.00  0.00    -0.276 OA
ATOM     17  H   LIG d   1       0.051  75.782 117.365  0.00  0.00     0.149 HD
ENDBRANCH   6  13
BRANCH   5  18
ATOM     18  N   LIG d   1      -3.198  74.453 116.098  0.00  0.00     0.381 N 
ATOM     19  H   LIG d   1      -3.432  74.670 117.046  0.00  0.00    -0.090 HD
ATOM     20  H   LIG d   1      -2.688  73.587 116.089  0.00  0.00    -0.090 HD
ATOM     21  H   LIG d   1      -4.028  74.363 115.555  0.00  0.00    -0.090 HD
ENDBRANCH   5  18
BRANCH   3  22
ATOM     22  C   LIG d   1      -2.822  77.825 112.717  0.00  0.00     0.382 C 
ATOM     23  O   LIG d   1      -2.521  77.095 111.743  0.00  0.00    -0.241 OA
ATOM     24  O   LIG d   1      -3.355  78.932 112.513  0.00  0.00    -0.241 OA
ENDBRANCH   3  22
TORSDOF 7
ENDMDL
MODEL 7
REMARK VINA RESULT:      -4.6      3.088      5.993
REMARK  7 active torsions:
REMARK  status: ('A' for Active; 'I' for Inactive)
REMARK    1  A    between atoms: C_2  and  C_3 
REMARK    2  A    between atoms: C_3  and  O_6 
REMARK    3  A    between atoms: C_3  and  C_4 
REMARK    4  A    between atoms: C_7  and  O_6 
REMARK    5  A    between atoms: C_9  and  C_10 
REMARK    6  A    between atoms: N_15  and  C_14 
REMARK    7  A    between atoms: N_20  and  C_19 
REMARK       I    between atoms: C_22  and  N_20 
ROOT
ATOM      1  C   LIG d   1      -0.496  76.804 115.305  0.00  0.00     0.161 C 
ATOM      2  C   LIG d   1       0.005  77.020 116.600  0.00  0.00     0.016 C 
ATOM      3  C   LIG d   1       0.045  78.291 117.217  0.00  0.00     0.038 C 
ATOM      4  C   LIG d   1      -0.556  79.417 116.635  0.00  0.00     0.028 C 
ATOM      5  C   LIG d   1      -0.624  79.349 115.113  0.00  0.00    -0.047 C 
ATOM      6  C   LIG d   1      -1.258  78.001 114.699  0.00  0.00     0.091 C 
ENDROOT
BRANCH   1   7
ATOM      7  O   LIG d   1      -1.324  75.625 115.292  0.00  0.00    -0.368 OA
BRANCH   7   8
ATOM      8  C   LIG d   1      -2.652  75.772 115.852  0.00  0.00     0.119 C 
BRANCH   8   9
ATOM      9  C   LIG d   1      -2.758  74.811 117.052  0.00  0.00     0.028 C 
ATOM     10  C   LIG d   1      -2.606  75.536 118.399  0.00  0.00     0.006 C 
ENDBRANCH   8   9
BRANCH   8  11
ATOM     11  C   LIG d   1      -3.728  75.308 114.865  0.00  0.00     0.028 C 
ATOM     12  C   LIG d   1      -5.025  74.868 115.561  0.00  0.00     0.006 C 
ENDBRANCH   8  11
ENDBRANCH   7   8
ENDBRANCH   1   7
BRANCH   6  13
ATOM     13  N   LIG d   1      -1.285  77.817 113.224  0.00  0.00    -0.311 N 
ATOM     14  C   LIG d   1      -2.329  78.143 112.464  0.00  0.00     0.210 C 
ATOM     15  C   LIG d   1      -2.156  77.852 110.970  0.00  0.00     0.109 C 
ATOM     16  O   LIG d   1      -3.369  78.674 112.881  0.00  0.00    -0.276 OA
ATOM     17  H   LIG d   1      -0.470  77.421 112.799  0.00  0.00     0.149 HD
ENDBRANCH   6  13
BRANCH   5  18
ATOM     18  N   LIG d   1      -1.395  80.518 114.649  0.00  0.00     0.381 N 
ATOM     19  H   LIG d   1      -0.805  81.122 114.114  0.00  0.00    -0.090 HD
ATOM     20  H   LIG d   1      -1.727  81.027 115.449  0.00  0.00    -0.090 HD
ATOM     21  H   LIG d   1      -2.167  80.218 114.094  0.00  0.00    -0.090 HD
ENDBRANCH   5  18
BRANCH   3  22
ATOM     22  C   LIG d   1       0.728  78.453 118.413  0.00  0.00     0.382 C 
ATOM     23  O   LIG d   1       1.440  79.470 118.595  0.00  0.00    -0.241 OA
ATOM     24  O   LIG d   1       0.677  77.574 119.294  0.00  0.00    -0.241 OA
ENDBRANCH   3  22
TORSDOF 7
ENDMDL
MODEL 8
REMARK VINA RESULT:      -4.6      3.665      6.991
REMARK  7 active torsions:
REMARK  status: ('A' for Active; 'I' for Inactive)
REMARK    1  A    between atoms: C_2  and  C_3 
REMARK    2  A    between atoms: C_3  and  O_6 
REMARK    3  A    between atoms: C_3  and  C_4 
REMARK    4  A    between atoms: C_7  and  O_6 
REMARK    5  A    between atoms: C_9  and  C_10 
REMARK    6  A    between atoms: N_15  and  C_14 
REMARK    7  A    between atoms: N_20  and  C_19 
REMARK       I    between atoms: C_22  and  N_20 
ROOT
ATOM      1  C   LIG d   1      -3.652  76.234 114.222  0.00  0.00     0.161 C 
ATOM      2  C   LIG d   1      -3.650  77.336 113.352  0.00  0.00     0.016 C 
ATOM      3  C   LIG d   1      -2.494  78.097 113.063  0.00  0.00     0.038 C 
ATOM      4  C   LIG d   1      -1.221  77.711 113.509  0.00  0.00     0.028 C 
ATOM      5  C   LIG d   1      -1.253  76.898 114.799  0.00  0.00    -0.047 C 
ATOM      6  C   LIG d   1      -2.252  75.730 114.631  0.00  0.00     0.091 C 
ENDROOT
BRANCH   1   7
ATOM      7  O   LIG d   1      -4.423  75.159 113.648  0.00  0.00    -0.368 OA
BRANCH   7   8
ATOM      8  C   LIG d   1      -5.744  74.953 114.206  0.00  0.00     0.119 C 
BRANCH   8   9
ATOM      9  C   LIG d   1      -6.678  76.011 113.587  0.00  0.00     0.028 C 
ATOM     10  C   LIG d   1      -6.759  75.898 112.055  0.00  0.00     0.006 C 
ENDBRANCH   8   9
BRANCH   8  11
ATOM     11  C   LIG d   1      -5.762  75.229 115.712  0.00  0.00     0.028 C 
ATOM     12  C   LIG d   1      -7.093  75.828 116.193  0.00  0.00     0.006 C 
ENDBRANCH   8  11
ENDBRANCH   7   8
ENDBRANCH   1   7
BRANCH   6  13
ATOM     13  N   LIG d   1      -2.407  74.934 115.877  0.00  0.00    -0.311 N 
ATOM     14  C   LIG d   1      -2.409  75.471 117.095  0.00  0.00     0.210 C 
ATOM     15  C   LIG d   1      -2.562  74.469 118.244  0.00  0.00     0.109 C 
ATOM     16  O   LIG d   1      -2.332  76.686 117.332  0.00  0.00    -0.276 OA
ATOM     17  H   LIG d   1      -2.507  73.942 115.775  0.00  0.00     0.149 HD
ENDBRANCH   6  13
BRANCH   5  18
ATOM     18  N   LIG d   1       0.124  76.445 115.074  0.00  0.00     0.381 N 
ATOM     19  H   LIG d   1       0.476  75.935 114.289  0.00  0.00    -0.090 HD
ATOM     20  H   LIG d   1       0.111  75.832 115.870  0.00  0.00    -0.090 HD
ATOM     21  H   LIG d   1       0.709  77.230 115.260  0.00  0.00    -0.090 HD
ENDBRANCH   5  18
BRANCH   3  22
ATOM     22  C   LIG d   1      -2.611  79.281 112.350  0.00  0.00     0.382 C 
ATOM     23  O   LIG d   1      -1.762  79.571 111.473  0.00  0.00    -0.241 OA
ATOM     24  O   LIG d   1      -3.529  80.083 112.605  0.00  0.00    -0.241 OA
ENDBRANCH   3  22
TORSDOF 7
ENDMDL
MODEL 9
REMARK VINA RESULT:      -4.6      3.378      6.091
REMARK  7 active torsions:
REMARK  status: ('A' for Active; 'I' for Inactive)
REMARK    1  A    between atoms: C_2  and  C_3 
REMARK    2  A    between atoms: C_3  and  O_6 
REMARK    3  A    between atoms: C_3  and  C_4 
REMARK    4  A    between atoms: C_7  and  O_6 
REMARK    5  A    between atoms: C_9  and  C_10 
REMARK    6  A    between atoms: N_15  and  C_14 
REMARK    7  A    between atoms: N_20  and  C_19 
REMARK       I    between atoms: C_22  and  N_20 
ROOT
ATOM      1  C   LIG d   1      -1.747  76.837 115.326  0.00  0.00     0.161 C 
ATOM      2  C   LIG d   1      -2.202  76.892 113.998  0.00  0.00     0.016 C 
ATOM      3  C   LIG d   1      -1.966  77.991 113.140  0.00  0.00     0.038 C 
ATOM      4  C   LIG d   1      -1.124  79.051 113.507  0.00  0.00     0.028 C 
ATOM      5  C   LIG d   1      -1.056  79.277 115.014  0.00  0.00    -0.047 C 
ATOM      6  C   LIG d   1      -0.733  77.935 115.709  0.00  0.00     0.091 C 
ENDROOT
BRANCH   1   7
ATOM      7  O   LIG d   1      -1.201  75.532 115.602  0.00  0.00    -0.368 OA
BRANCH   7   8
ATOM      8  C   LIG d   1      -2.003  74.670 116.446  0.00  0.00     0.119 C 
BRANCH   8   9
ATOM      9  C   LIG d   1      -3.342  75.390 116.703  0.00  0.00     0.028 C 
ATOM     10  C   LIG d   1      -4.494  74.799 115.873  0.00  0.00     0.006 C 
ENDBRANCH   8   9
BRANCH   8  11
ATOM     11  C   LIG d   1      -1.366  74.495 117.828  0.00  0.00     0.028 C 
ATOM     12  C   LIG d   1      -2.252  75.029 118.965  0.00  0.00     0.006 C 
ENDBRANCH   8  11
ENDBRANCH   7   8
ENDBRANCH   1   7
BRANCH   6  13
ATOM     13  N   LIG d   1      -0.731  78.049 117.190  0.00  0.00    -0.311 N 
ATOM     14  C   LIG d   1       0.329  77.770 117.946  0.00  0.00     0.210 C 
ATOM     15  C   LIG d   1       0.110  77.935 119.453  0.00  0.00     0.109 C 
ATOM     16  O   LIG d   1       1.439  77.431 117.510  0.00  0.00    -0.276 OA
ATOM     17  H   LIG d   1      -1.582  78.348 117.626  0.00  0.00     0.149 HD
ENDBRANCH   6  13
BRANCH   5  18
ATOM     18  N   LIG d   1      -0.040  80.317 115.263  0.00  0.00     0.381 N 
ATOM     19  H   LIG d   1      -0.476  81.218 115.285  0.00  0.00    -0.090 HD
ATOM     20  H   LIG d   1       0.626  80.307 114.511  0.00  0.00    -0.090 HD
ATOM     21  H   LIG d   1       0.421  80.142 116.129  0.00  0.00    -0.090 HD
ENDBRANCH   5  18
BRANCH   3  22
ATOM     22  C   LIG d   1      -2.609  78.055 111.913  0.00  0.00     0.382 C 
ATOM     23  O   LIG d   1      -2.048  78.615 110.940  0.00  0.00    -0.241 OA
ATOM     24  O   LIG d   1      -3.760  77.598 111.778  0.00  0.00    -0.241 OA
ENDBRANCH   3  22
TORSDOF 7
ENDMDL
