MODEL 1
REMARK VINA RESULT:      -5.3      0.000      0.000
REMARK  7 active torsions:
REMARK  status: ('A' for Active; 'I' for Inactive)
REMARK    1  A    between atoms: C_2  and  C_3 
REMARK    2  A    between atoms: C_3  and  O_6 
REMARK    3  A    between atoms: C_3  and  C_4 
REMARK    4  A    between atoms: C_7  and  O_6 
REMARK    5  A    between atoms: C_9  and  C_10 
REMARK    6  A    between atoms: N_15  and  C_14 
REMARK    7  A    between atoms: N_20  and  C_19 
REMARK       I    between atoms: C_22  and  N_20 
ROOT
ATOM      1  C   LIG d   1      -2.646  78.331 114.986  0.00  0.00     0.161 C 
ATOM      2  C   LIG d   1      -2.853  79.519 114.265  0.00  0.00     0.016 C 
ATOM      3  C   LIG d   1      -2.449  79.694 112.921  0.00  0.00     0.038 C 
ATOM      4  C   LIG d   1      -1.942  78.633 112.155  0.00  0.00     0.028 C 
ATOM      5  C   LIG d   1      -1.250  77.560 112.989  0.00  0.00    -0.047 C 
ATOM      6  C   LIG d   1      -2.195  77.127 114.133  0.00  0.00     0.091 C 
ENDROOT
BRANCH   1   7
ATOM      7  O   LIG d   1      -3.833  78.000 115.733  0.00  0.00    -0.368 OA
BRANCH   7   8
ATOM      8  C   LIG d   1      -3.753  78.178 117.168  0.00  0.00     0.119 C 
BRANCH   8   9
ATOM      9  C   LIG d   1      -4.359  76.923 117.825  0.00  0.00     0.028 C 
ATOM     10  C   LIG d   1      -3.382  76.239 118.797  0.00  0.00     0.006 C 
ENDBRANCH   8   9
BRANCH   8  11
ATOM     11  C   LIG d   1      -4.631  79.343 117.635  0.00  0.00     0.028 C 
ATOM     12  C   LIG d   1      -6.131  79.075 117.438  0.00  0.00     0.006 C 
ENDBRANCH   8  11
ENDBRANCH   7   8
ENDBRANCH   1   7
BRANCH   6  13
ATOM     13  N   LIG d   1      -1.563  76.140 115.047  0.00  0.00    -0.311 N 
ATOM     14  C   LIG d   1      -2.191  75.059 115.506  0.00  0.00     0.210 C 
ATOM     15  C   LIG d   1      -1.363  74.183 116.452  0.00  0.00     0.109 C 
ATOM     16  O   LIG d   1      -3.343  74.724 115.193  0.00  0.00    -0.276 OA
ATOM     17  H   LIG d   1      -0.618  76.317 115.326  0.00  0.00     0.149 HD
ENDBRANCH   6  13
BRANCH   5  18
ATOM     18  N   LIG d   1      -0.893  76.453 112.082  0.00  0.00     0.381 N 
ATOM     19  H   LIG d   1      -0.510  75.694 112.610  0.00  0.00    -0.090 HD
ATOM     20  H   LIG d   1      -0.193  76.774 111.437  0.00  0.00    -0.090 HD
ATOM     21  H   LIG d   1      -1.700  76.146 111.584  0.00  0.00    -0.090 HD
ENDBRANCH   5  18
BRANCH   3  22
ATOM     22  C   LIG d   1      -2.514  80.952 112.342  0.00  0.00     0.382 C 
ATOM     23  O   LIG d   1      -3.612  81.554 112.272  0.00  0.00    -0.241 OA
ATOM     24  O   LIG d   1      -1.496  81.474 111.850  0.00  0.00    -0.241 OA
ENDBRANCH   3  22
TORSDOF 7
ENDMDL
MODEL 2
REMARK VINA RESULT:      -5.0      2.157      2.978
REMARK  7 active torsions:
REMARK  status: ('A' for Active; 'I' for Inactive)
REMARK    1  A    between atoms: C_2  and  C_3 
REMARK    2  A    between atoms: C_3  and  O_6 
REMARK    3  A    between atoms: C_3  and  C_4 
REMARK    4  A    between atoms: C_7  and  O_6 
REMARK    5  A    between atoms: C_9  and  C_10 
REMARK    6  A    between atoms: N_15  and  C_14 
REMARK    7  A    between atoms: N_20  and  C_19 
REMARK       I    between atoms: C_22  and  N_20 
ROOT
ATOM      1  C   LIG d   1      -2.802  76.762 115.070  0.00  0.00     0.161 C 
ATOM      2  C   LIG d   1      -3.001  77.590 113.953  0.00  0.00     0.016 C 
ATOM      3  C   LIG d   1      -2.034  78.508 113.483  0.00  0.00     0.038 C 
ATOM      4  C   LIG d   1      -0.735  78.552 114.011  0.00  0.00     0.028 C 
ATOM      5  C   LIG d   1      -0.655  78.091 115.462  0.00  0.00    -0.047 C 
ATOM      6  C   LIG d   1      -1.350  76.717 115.591  0.00  0.00     0.091 C 
ENDROOT
BRANCH   1   7
ATOM      7  O   LIG d   1      -3.273  75.431 114.782  0.00  0.00    -0.368 OA
BRANCH   7   8
ATOM      8  C   LIG d   1      -4.329  74.929 115.637  0.00  0.00     0.119 C 
BRANCH   8   9
ATOM      9  C   LIG d   1      -5.510  74.533 114.729  0.00  0.00     0.028 C 
ATOM     10  C   LIG d   1      -6.287  75.754 114.209  0.00  0.00     0.006 C 
ENDBRANCH   8   9
BRANCH   8  11
ATOM     11  C   LIG d   1      -4.874  76.029 116.554  0.00  0.00     0.028 C 
ATOM     12  C   LIG d   1      -4.882  75.619 118.035  0.00  0.00     0.006 C 
ENDBRANCH   8  11
ENDBRANCH   7   8
ENDBRANCH   1   7
BRANCH   6  13
ATOM     13  N   LIG d   1      -1.392  76.232 116.996  0.00  0.00    -0.311 N 
ATOM     14  C   LIG d   1      -0.960  75.029 117.369  0.00  0.00     0.210 C 
ATOM     15  C   LIG d   1      -1.112  74.722 118.862  0.00  0.00     0.109 C 
ATOM     16  O   LIG d   1      -0.436  74.199 116.611  0.00  0.00    -0.276 OA
ATOM     17  H   LIG d   1      -1.773  76.854 117.682  0.00  0.00     0.149 HD
ENDBRANCH   6  13
BRANCH   5  18
ATOM     18  N   LIG d   1       0.770  78.056 115.841  0.00  0.00     0.381 N 
ATOM     19  H   LIG d   1       0.924  78.644 116.636  0.00  0.00    -0.090 HD
ATOM     20  H   LIG d   1       1.318  78.410 115.077  0.00  0.00    -0.090 HD
ATOM     21  H   LIG d   1       1.044  77.122 116.052  0.00  0.00    -0.090 HD
ENDBRANCH   5  18
BRANCH   3  22
ATOM     22  C   LIG d   1      -2.376  79.423 112.498  0.00  0.00     0.382 C 
ATOM     23  O   LIG d   1      -1.905  79.304 111.341  0.00  0.00    -0.241 OA
ATOM     24  O   LIG d   1      -3.114  80.390 112.764  0.00  0.00    -0.241 OA
ENDBRANCH   3  22
TORSDOF 7
ENDMDL
MODEL 3
REMARK VINA RESULT:      -4.5      2.944      3.612
REMARK  7 active torsions:
REMARK  status: ('A' for Active; 'I' for Inactive)
REMARK    1  A    between atoms: C_2  and  C_3 
REMARK    2  A    between atoms: C_3  and  O_6 
REMARK    3  A    between atoms: C_3  and  C_4 
REMARK    4  A    between atoms: C_7  and  O_6 
REMARK    5  A    between atoms: C_9  and  C_10 
REMARK    6  A    between atoms: N_15  and  C_14 
REMARK    7  A    between atoms: N_20  and  C_19 
REMARK       I    between atoms: C_22  and  N_20 
ROOT
ATOM      1  C   LIG d   1      -3.236  78.037 116.723  0.00  0.00     0.161 C 
ATOM      2  C   LIG d   1      -2.196  78.884 117.140  0.00  0.00     0.016 C 
ATOM      3  C   LIG d   1      -0.858  78.746 116.703  0.00  0.00     0.038 C 
ATOM      4  C   LIG d   1      -0.497  77.838 115.697  0.00  0.00     0.028 C 
ATOM      5  C   LIG d   1      -1.417  76.625 115.616  0.00  0.00    -0.047 C 
ATOM      6  C   LIG d   1      -2.883  77.112 115.541  0.00  0.00     0.091 C 
ENDROOT
BRANCH   1   7
ATOM      7  O   LIG d   1      -4.408  78.818 116.416  0.00  0.00    -0.368 OA
BRANCH   7   8
ATOM      8  C   LIG d   1      -5.416  78.892 117.454  0.00  0.00     0.119 C 
BRANCH   8   9
ATOM      9  C   LIG d   1      -6.553  77.928 117.065  0.00  0.00     0.028 C 
ATOM     10  C   LIG d   1      -6.540  76.638 117.903  0.00  0.00     0.006 C 
ENDBRANCH   8   9
BRANCH   8  11
ATOM     11  C   LIG d   1      -6.061  80.280 117.506  0.00  0.00     0.028 C 
ATOM     12  C   LIG d   1      -7.584  80.222 117.700  0.00  0.00     0.006 C 
ENDBRANCH   8  11
ENDBRANCH   7   8
ENDBRANCH   1   7
BRANCH   6  13
ATOM     13  N   LIG d   1      -3.854  75.987 115.544  0.00  0.00    -0.311 N 
ATOM     14  C   LIG d   1      -4.706  75.751 114.548  0.00  0.00     0.210 C 
ATOM     15  C   LIG d   1      -5.635  74.552 114.762  0.00  0.00     0.109 C 
ATOM     16  O   LIG d   1      -4.759  76.402 113.494  0.00  0.00    -0.276 OA
ATOM     17  H   LIG d   1      -3.858  75.390 116.348  0.00  0.00     0.149 HD
ENDBRANCH   6  13
BRANCH   5  18
ATOM     18  N   LIG d   1      -1.010  75.834 114.440  0.00  0.00     0.381 N 
ATOM     19  H   LIG d   1      -0.414  76.382 113.853  0.00  0.00    -0.090 HD
ATOM     20  H   LIG d   1      -1.830  75.586 113.915  0.00  0.00    -0.090 HD
ATOM     21  H   LIG d   1      -0.532  75.010 114.733  0.00  0.00    -0.090 HD
ENDBRANCH   5  18
BRANCH   3  22
ATOM     22  C   LIG d   1       0.142  79.495 117.305  0.00  0.00     0.382 C 
ATOM     23  O   LIG d   1       1.264  78.979 117.528  0.00  0.00    -0.241 OA
ATOM     24  O   LIG d   1      -0.077  80.666 117.667  0.00  0.00    -0.241 OA
ENDBRANCH   3  22
TORSDOF 7
ENDMDL
MODEL 4
REMARK VINA RESULT:      -4.4      2.123      2.894
REMARK  7 active torsions:
REMARK  status: ('A' for Active; 'I' for Inactive)
REMARK    1  A    between atoms: C_2  and  C_3 
REMARK    2  A    between atoms: C_3  and  O_6 
REMARK    3  A    between atoms: C_3  and  C_4 
REMARK    4  A    between atoms: C_7  and  O_6 
REMARK    5  A    between atoms: C_9  and  C_10 
REMARK    6  A    between atoms: N_15  and  C_14 
REMARK    7  A    between atoms: N_20  and  C_19 
REMARK       I    between atoms: C_22  and  N_20 
ROOT
ATOM      1  C   LIG d   1      -1.710  77.430 114.994  0.00  0.00     0.161 C 
ATOM      2  C   LIG d   1      -0.700  78.339 114.637  0.00  0.00     0.016 C 
ATOM      3  C   LIG d   1      -0.654  79.001 113.389  0.00  0.00     0.038 C 
ATOM      4  C   LIG d   1      -1.705  78.913 112.464  0.00  0.00     0.028 C 
ATOM      5  C   LIG d   1      -2.498  77.615 112.570  0.00  0.00    -0.047 C 
ATOM      6  C   LIG d   1      -2.924  77.406 114.041  0.00  0.00     0.091 C 
ENDROOT
BRANCH   1   7
ATOM      7  O   LIG d   1      -2.139  77.683 116.346  0.00  0.00    -0.368 OA
BRANCH   7   8
ATOM      8  C   LIG d   1      -1.751  76.695 117.333  0.00  0.00     0.119 C 
BRANCH   8   9
ATOM      9  C   LIG d   1      -1.150  75.495 116.576  0.00  0.00     0.028 C 
ATOM     10  C   LIG d   1      -1.905  74.185 116.859  0.00  0.00     0.006 C 
ENDBRANCH   8   9
BRANCH   8  11
ATOM     11  C   LIG d   1      -2.971  76.138 118.074  0.00  0.00     0.028 C 
ATOM     12  C   LIG d   1      -4.017  77.217 118.394  0.00  0.00     0.006 C 
ENDBRANCH   8  11
ENDBRANCH   7   8
ENDBRANCH   1   7
BRANCH   6  13
ATOM     13  N   LIG d   1      -3.633  76.116 114.249  0.00  0.00    -0.311 N 
ATOM     14  C   LIG d   1      -4.832  76.023 114.820  0.00  0.00     0.210 C 
ATOM     15  C   LIG d   1      -5.375  74.597 114.955  0.00  0.00     0.109 C 
ATOM     16  O   LIG d   1      -5.513  76.988 115.198  0.00  0.00    -0.276 OA
ATOM     17  H   LIG d   1      -3.166  75.285 113.943  0.00  0.00     0.149 HD
ENDBRANCH   6  13
BRANCH   5  18
ATOM     18  N   LIG d   1      -3.643  77.715 111.645  0.00  0.00     0.381 N 
ATOM     19  H   LIG d   1      -4.460  77.999 112.148  0.00  0.00    -0.090 HD
ATOM     20  H   LIG d   1      -3.818  76.810 111.245  0.00  0.00    -0.090 HD
ATOM     21  H   LIG d   1      -3.442  78.372 110.924  0.00  0.00    -0.090 HD
ENDBRANCH   5  18
BRANCH   3  22
ATOM     22  C   LIG d   1       0.472  79.730 113.039  0.00  0.00     0.382 C 
ATOM     23  O   LIG d   1       1.305  80.058 113.918  0.00  0.00    -0.241 OA
ATOM     24  O   LIG d   1       0.643  80.103 111.862  0.00  0.00    -0.241 OA
ENDBRANCH   3  22
TORSDOF 7
ENDMDL
MODEL 5
REMARK VINA RESULT:      -4.3      4.107      5.743
REMARK  7 active torsions:
REMARK  status: ('A' for Active; 'I' for Inactive)
REMARK    1  A    between atoms: C_2  and  C_3 
REMARK    2  A    between atoms: C_3  and  O_6 
REMARK    3  A    between atoms: C_3  and  C_4 
REMARK    4  A    between atoms: C_7  and  O_6 
REMARK    5  A    between atoms: C_9  and  C_10 
REMARK    6  A    between atoms: N_15  and  C_14 
REMARK    7  A    between atoms: N_20  and  C_19 
REMARK       I    between atoms: C_22  and  N_20 
ROOT
ATOM      1  C   LIG d   1      -6.289  78.148 117.484  0.00  0.00     0.161 C 
ATOM      2  C   LIG d   1      -7.255  79.157 117.338  0.00  0.00     0.016 C 
ATOM      3  C   LIG d   1      -7.096  80.465 117.851  0.00  0.00     0.038 C 
ATOM      4  C   LIG d   1      -5.888  80.899 118.417  0.00  0.00     0.028 C 
ATOM      5  C   LIG d   1      -5.070  79.770 119.036  0.00  0.00    -0.047 C 
ATOM      6  C   LIG d   1      -4.918  78.633 118.000  0.00  0.00     0.091 C 
ENDROOT
BRANCH   1   7
ATOM      7  O   LIG d   1      -6.132  77.438 116.239  0.00  0.00    -0.368 OA
BRANCH   7   8
ATOM      8  C   LIG d   1      -6.942  76.248 116.077  0.00  0.00     0.119 C 
BRANCH   8   9
ATOM      9  C   LIG d   1      -7.003  75.540 117.444  0.00  0.00     0.028 C 
ATOM     10  C   LIG d   1      -6.125  74.278 117.492  0.00  0.00     0.006 C 
ENDBRANCH   8   9
BRANCH   8  11
ATOM     11  C   LIG d   1      -6.276  75.245 115.130  0.00  0.00     0.028 C 
ATOM     12  C   LIG d   1      -5.094  75.850 114.356  0.00  0.00     0.006 C 
ENDBRANCH   8  11
ENDBRANCH   7   8
ENDBRANCH   1   7
BRANCH   6  13
ATOM     13  N   LIG d   1      -4.203  77.454 118.554  0.00  0.00    -0.311 N 
ATOM     14  C   LIG d   1      -3.236  76.811 117.902  0.00  0.00     0.210 C 
ATOM     15  C   LIG d   1      -2.644  75.609 118.644  0.00  0.00     0.109 C 
ATOM     16  O   LIG d   1      -2.789  77.141 116.793  0.00  0.00    -0.276 OA
ATOM     17  H   LIG d   1      -4.480  77.137 119.462  0.00  0.00     0.149 HD
ENDBRANCH   6  13
BRANCH   5  18
ATOM     18  N   LIG d   1      -3.778  80.339 119.464  0.00  0.00     0.381 N 
ATOM     19  H   LIG d   1      -3.846  81.336 119.512  0.00  0.00    -0.090 HD
ATOM     20  H   LIG d   1      -3.078  80.103 118.783  0.00  0.00    -0.090 HD
ATOM     21  H   LIG d   1      -3.523  79.973 120.355  0.00  0.00    -0.090 HD
ENDBRANCH   5  18
BRANCH   3  22
ATOM     22  C   LIG d   1      -8.169  81.344 117.836  0.00  0.00     0.382 C 
ATOM     23  O   LIG d   1      -8.705  81.660 116.747  0.00  0.00    -0.241 OA
ATOM     24  O   LIG d   1      -8.578  81.859 118.894  0.00  0.00    -0.241 OA
ENDBRANCH   3  22
TORSDOF 7
ENDMDL
MODEL 6
REMARK VINA RESULT:      -4.3      2.388      3.548
REMARK  7 active torsions:
REMARK  status: ('A' for Active; 'I' for Inactive)
REMARK    1  A    between atoms: C_2  and  C_3 
REMARK    2  A    between atoms: C_3  and  O_6 
REMARK    3  A    between atoms: C_3  and  C_4 
REMARK    4  A    between atoms: C_7  and  O_6 
REMARK    5  A    between atoms: C_9  and  C_10 
REMARK    6  A    between atoms: N_15  and  C_14 
REMARK    7  A    between atoms: N_20  and  C_19 
REMARK       I    between atoms: C_22  and  N_20 
ROOT
ATOM      1  C   LIG d   1      -3.678  75.667 115.984  0.00  0.00     0.161 C 
ATOM      2  C   LIG d   1      -3.910  76.404 114.811  0.00  0.00     0.016 C 
ATOM      3  C   LIG d   1      -2.877  76.845 113.952  0.00  0.00     0.038 C 
ATOM      4  C   LIG d   1      -1.544  76.446 114.130  0.00  0.00     0.028 C 
ATOM      5  C   LIG d   1      -1.196  76.122 115.579  0.00  0.00    -0.047 C 
ATOM      6  C   LIG d   1      -2.240  75.127 116.135  0.00  0.00     0.091 C 
ENDROOT
BRANCH   1   7
ATOM      7  O   LIG d   1      -4.630  74.589 116.081  0.00  0.00    -0.368 OA
BRANCH   7   8
ATOM      8  C   LIG d   1      -5.554  74.652 117.195  0.00  0.00     0.119 C 
BRANCH   8   9
ATOM      9  C   LIG d   1      -6.974  74.451 116.631  0.00  0.00     0.028 C 
ATOM     10  C   LIG d   1      -7.772  75.763 116.569  0.00  0.00     0.006 C 
ENDBRANCH   8   9
BRANCH   8  11
ATOM     11  C   LIG d   1      -5.564  76.045 117.832  0.00  0.00     0.028 C 
ATOM     12  C   LIG d   1      -5.467  76.000 119.365  0.00  0.00     0.006 C 
ENDBRANCH   8  11
ENDBRANCH   7   8
ENDBRANCH   1   7
BRANCH   6  13
ATOM     13  N   LIG d   1      -2.022  74.823 117.574  0.00  0.00    -0.311 N 
ATOM     14  C   LIG d   1      -1.903  75.761 118.512  0.00  0.00     0.210 C 
ATOM     15  C   LIG d   1      -1.664  75.231 119.929  0.00  0.00     0.109 C 
ATOM     16  O   LIG d   1      -2.005  76.980 118.310  0.00  0.00    -0.276 OA
ATOM     17  H   LIG d   1      -1.958  73.857 117.831  0.00  0.00     0.149 HD
ENDBRANCH   6  13
BRANCH   5  18
ATOM     18  N   LIG d   1       0.179  75.590 115.599  0.00  0.00     0.381 N 
ATOM     19  H   LIG d   1       0.811  76.269 115.225  0.00  0.00    -0.090 HD
ATOM     20  H   LIG d   1       0.219  74.769 115.020  0.00  0.00    -0.090 HD
ATOM     21  H   LIG d   1       0.442  75.359 116.532  0.00  0.00    -0.090 HD
ENDBRANCH   5  18
BRANCH   3  22
ATOM     22  C   LIG d   1      -3.169  77.728 112.924  0.00  0.00     0.382 C 
ATOM     23  O   LIG d   1      -2.708  78.894 112.949  0.00  0.00    -0.241 OA
ATOM     24  O   LIG d   1      -3.923  77.386 111.993  0.00  0.00    -0.241 OA
ENDBRANCH   3  22
TORSDOF 7
ENDMDL
MODEL 7
REMARK VINA RESULT:      -4.3      1.454      2.034
REMARK  7 active torsions:
REMARK  status: ('A' for Active; 'I' for Inactive)
REMARK    1  A    between atoms: C_2  and  C_3 
REMARK    2  A    between atoms: C_3  and  O_6 
REMARK    3  A    between atoms: C_3  and  C_4 
REMARK    4  A    between atoms: C_7  and  O_6 
REMARK    5  A    between atoms: C_9  and  C_10 
REMARK    6  A    between atoms: N_15  and  C_14 
REMARK    7  A    between atoms: N_20  and  C_19 
REMARK       I    between atoms: C_22  and  N_20 
ROOT
ATOM      1  C   LIG d   1      -2.739  78.007 114.860  0.00  0.00     0.161 C 
ATOM      2  C   LIG d   1      -2.875  79.236 114.193  0.00  0.00     0.016 C 
ATOM      3  C   LIG d   1      -2.360  79.481 112.899  0.00  0.00     0.038 C 
ATOM      4  C   LIG d   1      -1.801  78.459 112.118  0.00  0.00     0.028 C 
ATOM      5  C   LIG d   1      -1.190  77.331 112.943  0.00  0.00    -0.047 C 
ATOM      6  C   LIG d   1      -2.230  76.847 113.979  0.00  0.00     0.091 C 
ENDROOT
BRANCH   1   7
ATOM      7  O   LIG d   1      -3.987  77.650 115.487  0.00  0.00    -0.368 OA
BRANCH   7   8
ATOM      8  C   LIG d   1      -4.007  76.385 116.191  0.00  0.00     0.119 C 
BRANCH   8   9
ATOM      9  C   LIG d   1      -5.421  75.792 116.037  0.00  0.00     0.028 C 
ATOM     10  C   LIG d   1      -5.463  74.628 115.033  0.00  0.00     0.006 C 
ENDBRANCH   8   9
BRANCH   8  11
ATOM     11  C   LIG d   1      -3.812  76.582 117.697  0.00  0.00     0.028 C 
ATOM     12  C   LIG d   1      -4.983  76.032 118.527  0.00  0.00     0.006 C 
ENDBRANCH   8  11
ENDBRANCH   7   8
ENDBRANCH   1   7
BRANCH   6  13
ATOM     13  N   LIG d   1      -1.684  75.802 114.884  0.00  0.00    -0.311 N 
ATOM     14  C   LIG d   1      -0.692  76.022 115.744  0.00  0.00     0.210 C 
ATOM     15  C   LIG d   1      -0.268  74.803 116.569  0.00  0.00     0.109 C 
ATOM     16  O   LIG d   1      -0.144  77.120 115.926  0.00  0.00    -0.276 OA
ATOM     17  H   LIG d   1      -2.092  74.889 114.825  0.00  0.00     0.149 HD
ENDBRANCH   6  13
BRANCH   5  18
ATOM     18  N   LIG d   1      -0.769  76.271 112.007  0.00  0.00     0.381 N 
ATOM     19  H   LIG d   1      -1.011  76.530 111.072  0.00  0.00    -0.090 HD
ATOM     20  H   LIG d   1      -1.257  75.423 112.236  0.00  0.00    -0.090 HD
ATOM     21  H   LIG d   1       0.214  76.127 112.076  0.00  0.00    -0.090 HD
ENDBRANCH   5  18
BRANCH   3  22
ATOM     22  C   LIG d   1      -2.366  80.771 112.390  0.00  0.00     0.382 C 
ATOM     23  O   LIG d   1      -1.294  81.298 112.007  0.00  0.00    -0.241 OA
ATOM     24  O   LIG d   1      -3.422  81.430 112.350  0.00  0.00    -0.241 OA
ENDBRANCH   3  22
TORSDOF 7
ENDMDL
MODEL 8
REMARK VINA RESULT:      -4.3      2.680      5.564
REMARK  7 active torsions:
REMARK  status: ('A' for Active; 'I' for Inactive)
REMARK    1  A    between atoms: C_2  and  C_3 
REMARK    2  A    between atoms: C_3  and  O_6 
REMARK    3  A    between atoms: C_3  and  C_4 
REMARK    4  A    between atoms: C_7  and  O_6 
REMARK    5  A    between atoms: C_9  and  C_10 
REMARK    6  A    between atoms: N_15  and  C_14 
REMARK    7  A    between atoms: N_20  and  C_19 
REMARK       I    between atoms: C_22  and  N_20 
ROOT
ATOM      1  C   LIG d   1      -1.686  75.578 115.367  0.00  0.00     0.161 C 
ATOM      2  C   LIG d   1      -1.414  74.981 116.609  0.00  0.00     0.016 C 
ATOM      3  C   LIG d   1      -0.813  75.668 117.688  0.00  0.00     0.038 C 
ATOM      4  C   LIG d   1      -0.579  77.051 117.648  0.00  0.00     0.028 C 
ATOM      5  C   LIG d   1      -0.373  77.590 116.237  0.00  0.00    -0.047 C 
ATOM      6  C   LIG d   1      -1.540  77.114 115.342  0.00  0.00     0.091 C 
ENDROOT
BRANCH   1   7
ATOM      7  O   LIG d   1      -3.000  75.192 114.916  0.00  0.00    -0.368 OA
BRANCH   7   8
ATOM      8  C   LIG d   1      -4.016  75.074 115.942  0.00  0.00     0.119 C 
BRANCH   8   9
ATOM      9  C   LIG d   1      -5.139  74.180 115.380  0.00  0.00     0.028 C 
ATOM     10  C   LIG d   1      -6.270  74.996 114.732  0.00  0.00     0.006 C 
ENDBRANCH   8   9
BRANCH   8  11
ATOM     11  C   LIG d   1      -4.678  76.425 116.228  0.00  0.00     0.028 C 
ATOM     12  C   LIG d   1      -4.456  76.903 117.672  0.00  0.00     0.006 C 
ENDBRANCH   8  11
ENDBRANCH   7   8
ENDBRANCH   1   7
BRANCH   6  13
ATOM     13  N   LIG d   1      -1.372  77.527 113.924  0.00  0.00    -0.311 N 
ATOM     14  C   LIG d   1      -1.918  78.628 113.412  0.00  0.00     0.210 C 
ATOM     15  C   LIG d   1      -1.637  78.857 111.923  0.00  0.00     0.109 C 
ATOM     16  O   LIG d   1      -2.582  79.454 114.056  0.00  0.00    -0.276 OA
ATOM     17  H   LIG d   1      -0.822  76.930 113.337  0.00  0.00     0.149 HD
ENDBRANCH   6  13
BRANCH   5  18
ATOM     18  N   LIG d   1      -0.278  79.059 116.330  0.00  0.00     0.381 N 
ATOM     19  H   LIG d   1      -1.129  79.474 116.007  0.00  0.00    -0.090 HD
ATOM     20  H   LIG d   1       0.471  79.374 115.739  0.00  0.00    -0.090 HD
ATOM     21  H   LIG d   1      -0.103  79.330 117.272  0.00  0.00    -0.090 HD
ENDBRANCH   5  18
BRANCH   3  22
ATOM     22  C   LIG d   1      -0.403  74.963 118.809  0.00  0.00     0.382 C 
ATOM     23  O   LIG d   1       0.601  74.214 118.745  0.00  0.00    -0.241 OA
ATOM     24  O   LIG d   1      -1.050  75.032 119.871  0.00  0.00    -0.241 OA
ENDBRANCH   3  22
TORSDOF 7
ENDMDL
MODEL 9
REMARK VINA RESULT:      -4.2      2.659      3.955
REMARK  7 active torsions:
REMARK  status: ('A' for Active; 'I' for Inactive)
REMARK    1  A    between atoms: C_2  and  C_3 
REMARK    2  A    between atoms: C_3  and  O_6 
REMARK    3  A    between atoms: C_3  and  C_4 
REMARK    4  A    between atoms: C_7  and  O_6 
REMARK    5  A    between atoms: C_9  and  C_10 
REMARK    6  A    between atoms: N_15  and  C_14 
REMARK    7  A    between atoms: N_20  and  C_19 
REMARK       I    between atoms: C_22  and  N_20 
ROOT
ATOM      1  C   LIG d   1      -2.739  77.507 115.816  0.00  0.00     0.161 C 
ATOM      2  C   LIG d   1      -3.161  77.536 114.476  0.00  0.00     0.016 C 
ATOM      3  C   LIG d   1      -2.350  78.001 113.415  0.00  0.00     0.038 C 
ATOM      4  C   LIG d   1      -0.999  78.329 113.603  0.00  0.00     0.028 C 
ATOM      5  C   LIG d   1      -0.680  78.793 115.020  0.00  0.00    -0.047 C 
ATOM      6  C   LIG d   1      -1.231  77.756 116.025  0.00  0.00     0.091 C 
ENDROOT
BRANCH   1   7
ATOM      7  O   LIG d   1      -3.130  76.260 116.424  0.00  0.00    -0.368 OA
BRANCH   7   8
ATOM      8  C   LIG d   1      -2.976  75.075 115.604  0.00  0.00     0.119 C 
BRANCH   8   9
ATOM      9  C   LIG d   1      -4.207  74.180 115.848  0.00  0.00     0.028 C 
ATOM     10  C   LIG d   1      -5.424  74.616 115.015  0.00  0.00     0.006 C 
ENDBRANCH   8   9
BRANCH   8  11
ATOM     11  C   LIG d   1      -1.773  74.240 116.051  0.00  0.00     0.028 C 
ATOM     12  C   LIG d   1      -0.607  74.291 115.050  0.00  0.00     0.006 C 
ENDBRANCH   8  11
ENDBRANCH   7   8
ENDBRANCH   1   7
BRANCH   6  13
ATOM     13  N   LIG d   1      -1.035  78.175 117.437  0.00  0.00    -0.311 N 
ATOM     14  C   LIG d   1      -0.002  77.785 118.181  0.00  0.00     0.210 C 
ATOM     15  C   LIG d   1      -0.003  78.317 119.618  0.00  0.00     0.109 C 
ATOM     16  O   LIG d   1       0.932  77.075 117.778  0.00  0.00    -0.276 OA
ATOM     17  H   LIG d   1      -1.730  78.776 117.835  0.00  0.00     0.149 HD
ENDBRANCH   6  13
BRANCH   5  18
ATOM     18  N   LIG d   1       0.782  78.969 115.113  0.00  0.00     0.381 N 
ATOM     19  H   LIG d   1       1.144  79.270 114.231  0.00  0.00    -0.090 HD
ATOM     20  H   LIG d   1       1.202  78.085 115.341  0.00  0.00    -0.090 HD
ATOM     21  H   LIG d   1       1.001  79.639 115.817  0.00  0.00    -0.090 HD
ENDBRANCH   5  18
BRANCH   3  22
ATOM     22  C   LIG d   1      -2.902  78.180 112.156  0.00  0.00     0.382 C 
ATOM     23  O   LIG d   1      -2.388  78.998 111.356  0.00  0.00    -0.241 OA
ATOM     24  O   LIG d   1      -3.934  77.565 111.825  0.00  0.00    -0.241 OA
ENDBRANCH   3  22
TORSDOF 7
ENDMDL
