MODEL 1
REMARK VINA RESULT:      -5.5      0.000      0.000
REMARK  7 active torsions:
REMARK  status: ('A' for Active; 'I' for Inactive)
REMARK    1  A    between atoms: C_2  and  C_3 
REMARK    2  A    between atoms: C_3  and  O_6 
REMARK    3  A    between atoms: C_3  and  C_4 
REMARK    4  A    between atoms: C_7  and  O_6 
REMARK    5  A    between atoms: C_9  and  C_10 
REMARK    6  A    between atoms: N_15  and  C_14 
REMARK    7  A    between atoms: N_20  and  C_19 
REMARK       I    between atoms: C_22  and  N_20 
ROOT
ATOM      1  C   LIG d   1      -3.088  77.686 114.098  0.00  0.00     0.161 C 
ATOM      2  C   LIG d   1      -3.181  78.928 113.448  0.00  0.00     0.016 C 
ATOM      3  C   LIG d   1      -2.096  79.825 113.325  0.00  0.00     0.038 C 
ATOM      4  C   LIG d   1      -0.795  79.474 113.714  0.00  0.00     0.028 C 
ATOM      5  C   LIG d   1      -0.757  78.435 114.830  0.00  0.00    -0.047 C 
ATOM      6  C   LIG d   1      -1.649  77.237 114.432  0.00  0.00     0.091 C 
ENDROOT
BRANCH   1   7
ATOM      7  O   LIG d   1      -3.760  76.676 113.321  0.00  0.00    -0.368 OA
BRANCH   7   8
ATOM      8  C   LIG d   1      -4.899  76.039 113.952  0.00  0.00     0.119 C 
BRANCH   8   9
ATOM      9  C   LIG d   1      -6.154  76.440 113.153  0.00  0.00     0.028 C 
ATOM     10  C   LIG d   1      -5.821  76.882 111.718  0.00  0.00     0.006 C 
ENDBRANCH   8   9
BRANCH   8  11
ATOM     11  C   LIG d   1      -5.127  76.581 115.366  0.00  0.00     0.028 C 
ATOM     12  C   LIG d   1      -6.099  75.717 116.186  0.00  0.00     0.006 C 
ENDBRANCH   8  11
ENDBRANCH   7   8
ENDBRANCH   1   7
BRANCH   6  13
ATOM     13  N   LIG d   1      -1.735  76.213 115.505  0.00  0.00    -0.311 N 
ATOM     14  C   LIG d   1      -0.981  75.115 115.532  0.00  0.00     0.210 C 
ATOM     15  C   LIG d   1      -1.243  74.180 116.717  0.00  0.00     0.109 C 
ATOM     16  O   LIG d   1      -0.097  74.844 114.706  0.00  0.00    -0.276 OA
ATOM     17  H   LIG d   1      -2.405  76.369 116.232  0.00  0.00     0.149 HD
ENDBRANCH   6  13
BRANCH   5  18
ATOM     18  N   LIG d   1       0.654  78.060 115.041  0.00  0.00     0.381 N 
ATOM     19  H   LIG d   1       1.224  78.882 115.063  0.00  0.00    -0.090 HD
ATOM     20  H   LIG d   1       0.956  77.486 114.273  0.00  0.00    -0.090 HD
ATOM     21  H   LIG d   1       0.749  77.558 115.897  0.00  0.00    -0.090 HD
ENDBRANCH   5  18
BRANCH   3  22
ATOM     22  C   LIG d   1      -2.315  81.107 112.843  0.00  0.00     0.382 C 
ATOM     23  O   LIG d   1      -1.356  81.781 112.396  0.00  0.00    -0.241 OA
ATOM     24  O   LIG d   1      -3.452  81.613 112.889  0.00  0.00    -0.241 OA
ENDBRANCH   3  22
TORSDOF 7
ENDMDL
MODEL 2
REMARK VINA RESULT:      -5.1      1.937      2.655
REMARK  7 active torsions:
REMARK  status: ('A' for Active; 'I' for Inactive)
REMARK    1  A    between atoms: C_2  and  C_3 
REMARK    2  A    between atoms: C_3  and  O_6 
REMARK    3  A    between atoms: C_3  and  C_4 
REMARK    4  A    between atoms: C_7  and  O_6 
REMARK    5  A    between atoms: C_9  and  C_10 
REMARK    6  A    between atoms: N_15  and  C_14 
REMARK    7  A    between atoms: N_20  and  C_19 
REMARK       I    between atoms: C_22  and  N_20 
ROOT
ATOM      1  C   LIG d   1      -2.978  78.269 115.227  0.00  0.00     0.161 C 
ATOM      2  C   LIG d   1      -3.104  79.482 114.529  0.00  0.00     0.016 C 
ATOM      3  C   LIG d   1      -2.285  79.838 113.433  0.00  0.00     0.038 C 
ATOM      4  C   LIG d   1      -1.377  78.934 112.862  0.00  0.00     0.028 C 
ATOM      5  C   LIG d   1      -0.862  77.888 113.845  0.00  0.00    -0.047 C 
ATOM      6  C   LIG d   1      -2.068  77.224 114.548  0.00  0.00     0.091 C 
ENDROOT
BRANCH   1   7
ATOM      7  O   LIG d   1      -4.284  77.711 115.476  0.00  0.00    -0.368 OA
BRANCH   7   8
ATOM      8  C   LIG d   1      -4.905  78.077 116.732  0.00  0.00     0.119 C 
BRANCH   8   9
ATOM      9  C   LIG d   1      -4.116  77.381 117.858  0.00  0.00     0.028 C 
ATOM     10  C   LIG d   1      -3.956  78.273 119.101  0.00  0.00     0.006 C 
ENDBRANCH   8   9
BRANCH   8  11
ATOM     11  C   LIG d   1      -6.329  77.523 116.832  0.00  0.00     0.028 C 
ATOM     12  C   LIG d   1      -6.395  76.005 116.604  0.00  0.00     0.006 C 
ENDBRANCH   8  11
ENDBRANCH   7   8
ENDBRANCH   1   7
BRANCH   6  13
ATOM     13  N   LIG d   1      -1.651  76.248 115.588  0.00  0.00    -0.311 N 
ATOM     14  C   LIG d   1      -2.174  75.027 115.700  0.00  0.00     0.210 C 
ATOM     15  C   LIG d   1      -1.616  74.188 116.853  0.00  0.00     0.109 C 
ATOM     16  O   LIG d   1      -3.023  74.549 114.933  0.00  0.00    -0.276 OA
ATOM     17  H   LIG d   1      -0.944  76.542 116.233  0.00  0.00     0.149 HD
ENDBRANCH   6  13
BRANCH   5  18
ATOM     18  N   LIG d   1      -0.036  76.931 113.087  0.00  0.00     0.381 N 
ATOM     19  H   LIG d   1      -0.147  76.012 113.466  0.00  0.00    -0.090 HD
ATOM     20  H   LIG d   1       0.930  77.194 113.176  0.00  0.00    -0.090 HD
ATOM     21  H   LIG d   1      -0.302  76.937 112.127  0.00  0.00    -0.090 HD
ENDBRANCH   5  18
BRANCH   3  22
ATOM     22  C   LIG d   1      -2.341  81.126 112.923  0.00  0.00     0.382 C 
ATOM     23  O   LIG d   1      -3.427  81.755 112.927  0.00  0.00    -0.241 OA
ATOM     24  O   LIG d   1      -1.330  81.651 112.419  0.00  0.00    -0.241 OA
ENDBRANCH   3  22
TORSDOF 7
ENDMDL
MODEL 3
REMARK VINA RESULT:      -5.0      2.018      2.762
REMARK  7 active torsions:
REMARK  status: ('A' for Active; 'I' for Inactive)
REMARK    1  A    between atoms: C_2  and  C_3 
REMARK    2  A    between atoms: C_3  and  O_6 
REMARK    3  A    between atoms: C_3  and  C_4 
REMARK    4  A    between atoms: C_7  and  O_6 
REMARK    5  A    between atoms: C_9  and  C_10 
REMARK    6  A    between atoms: N_15  and  C_14 
REMARK    7  A    between atoms: N_20  and  C_19 
REMARK       I    between atoms: C_22  and  N_20 
ROOT
ATOM      1  C   LIG d   1      -2.701  76.941 115.812  0.00  0.00     0.161 C 
ATOM      2  C   LIG d   1      -3.143  77.428 114.571  0.00  0.00     0.016 C 
ATOM      3  C   LIG d   1      -2.278  77.689 113.484  0.00  0.00     0.038 C 
ATOM      4  C   LIG d   1      -0.921  77.334 113.515  0.00  0.00     0.028 C 
ATOM      5  C   LIG d   1      -0.334  77.308 114.922  0.00  0.00    -0.047 C 
ATOM      6  C   LIG d   1      -1.240  76.443 115.828  0.00  0.00     0.091 C 
ENDROOT
BRANCH   1   7
ATOM      7  O   LIG d   1      -3.588  75.904 116.274  0.00  0.00    -0.368 OA
BRANCH   7   8
ATOM      8  C   LIG d   1      -4.975  76.025 115.871  0.00  0.00     0.119 C 
BRANCH   8   9
ATOM      9  C   LIG d   1      -5.775  76.493 117.102  0.00  0.00     0.028 C 
ATOM     10  C   LIG d   1      -6.179  77.974 117.011  0.00  0.00     0.006 C 
ENDBRANCH   8   9
BRANCH   8  11
ATOM     11  C   LIG d   1      -5.567  74.663 115.496  0.00  0.00     0.028 C 
ATOM     12  C   LIG d   1      -5.328  74.295 114.023  0.00  0.00     0.006 C 
ENDBRANCH   8  11
ENDBRANCH   7   8
ENDBRANCH   1   7
BRANCH   6  13
ATOM     13  N   LIG d   1      -0.784  76.433 117.242  0.00  0.00    -0.311 N 
ATOM     14  C   LIG d   1      -0.476  75.320 117.905  0.00  0.00     0.210 C 
ATOM     15  C   LIG d   1      -0.047  75.532 119.360  0.00  0.00     0.109 C 
ATOM     16  O   LIG d   1      -0.486  74.180 117.417  0.00  0.00    -0.276 OA
ATOM     17  H   LIG d   1      -0.717  77.318 117.706  0.00  0.00     0.149 HD
ENDBRANCH   6  13
BRANCH   5  18
ATOM     18  N   LIG d   1       1.044  76.791 114.821  0.00  0.00     0.381 N 
ATOM     19  H   LIG d   1       1.025  75.803 114.666  0.00  0.00    -0.090 HD
ATOM     20  H   LIG d   1       1.521  76.966 115.687  0.00  0.00    -0.090 HD
ATOM     21  H   LIG d   1       1.523  77.242 114.072  0.00  0.00    -0.090 HD
ENDBRANCH   5  18
BRANCH   3  22
ATOM     22  C   LIG d   1      -2.761  78.348 112.363  0.00  0.00     0.382 C 
ATOM     23  O   LIG d   1      -2.905  77.725 111.283  0.00  0.00    -0.241 OA
ATOM     24  O   LIG d   1      -3.012  79.567 112.407  0.00  0.00    -0.241 OA
ENDBRANCH   3  22
TORSDOF 7
ENDMDL
MODEL 4
REMARK VINA RESULT:      -4.9      3.593      5.842
REMARK  7 active torsions:
REMARK  status: ('A' for Active; 'I' for Inactive)
REMARK    1  A    between atoms: C_2  and  C_3 
REMARK    2  A    between atoms: C_3  and  O_6 
REMARK    3  A    between atoms: C_3  and  C_4 
REMARK    4  A    between atoms: C_7  and  O_6 
REMARK    5  A    between atoms: C_9  and  C_10 
REMARK    6  A    between atoms: N_15  and  C_14 
REMARK    7  A    between atoms: N_20  and  C_19 
REMARK       I    between atoms: C_22  and  N_20 
ROOT
ATOM      1  C   LIG d   1      -5.184  77.593 116.386  0.00  0.00     0.161 C 
ATOM      2  C   LIG d   1      -6.461  77.167 116.789  0.00  0.00     0.016 C 
ATOM      3  C   LIG d   1      -7.227  77.828 117.777  0.00  0.00     0.038 C 
ATOM      4  C   LIG d   1      -6.828  79.057 118.324  0.00  0.00     0.028 C 
ATOM      5  C   LIG d   1      -5.317  79.262 118.317  0.00  0.00    -0.047 C 
ATOM      6  C   LIG d   1      -4.781  78.994 116.892  0.00  0.00     0.091 C 
ENDROOT
BRANCH   1   7
ATOM      7  O   LIG d   1      -5.079  77.529 114.950  0.00  0.00    -0.368 OA
BRANCH   7   8
ATOM      8  C   LIG d   1      -4.315  76.420 114.416  0.00  0.00     0.119 C 
BRANCH   8   9
ATOM      9  C   LIG d   1      -5.320  75.365 113.914  0.00  0.00     0.028 C 
ATOM     10  C   LIG d   1      -5.465  74.183 114.887  0.00  0.00     0.006 C 
ENDBRANCH   8   9
BRANCH   8  11
ATOM     11  C   LIG d   1      -3.507  75.720 115.513  0.00  0.00     0.028 C 
ATOM     12  C   LIG d   1      -1.995  75.962 115.385  0.00  0.00     0.006 C 
ENDBRANCH   8  11
ENDBRANCH   7   8
ENDBRANCH   1   7
BRANCH   6  13
ATOM     13  N   LIG d   1      -3.300  79.090 116.816  0.00  0.00    -0.311 N 
ATOM     14  C   LIG d   1      -2.654  79.675 115.809  0.00  0.00     0.210 C 
ATOM     15  C   LIG d   1      -1.126  79.647 115.917  0.00  0.00     0.109 C 
ATOM     16  O   LIG d   1      -3.201  80.243 114.852  0.00  0.00    -0.276 OA
ATOM     17  H   LIG d   1      -2.777  78.682 117.567  0.00  0.00     0.149 HD
ENDBRANCH   6  13
BRANCH   5  18
ATOM     18  N   LIG d   1      -5.051  80.634 118.786  0.00  0.00     0.381 N 
ATOM     19  H   LIG d   1      -4.557  81.144 118.081  0.00  0.00    -0.090 HD
ATOM     20  H   LIG d   1      -4.473  80.591 119.607  0.00  0.00    -0.090 HD
ATOM     21  H   LIG d   1      -5.909  81.094 118.999  0.00  0.00    -0.090 HD
ENDBRANCH   5  18
BRANCH   3  22
ATOM     22  C   LIG d   1      -8.387  77.239 118.255  0.00  0.00     0.382 C 
ATOM     23  O   LIG d   1      -8.813  76.180 117.735  0.00  0.00    -0.241 OA
ATOM     24  O   LIG d   1      -9.037  77.777 119.172  0.00  0.00    -0.241 OA
ENDBRANCH   3  22
TORSDOF 7
ENDMDL
MODEL 5
REMARK VINA RESULT:      -4.9      2.353      2.735
REMARK  7 active torsions:
REMARK  status: ('A' for Active; 'I' for Inactive)
REMARK    1  A    between atoms: C_2  and  C_3 
REMARK    2  A    between atoms: C_3  and  O_6 
REMARK    3  A    between atoms: C_3  and  C_4 
REMARK    4  A    between atoms: C_7  and  O_6 
REMARK    5  A    between atoms: C_9  and  C_10 
REMARK    6  A    between atoms: N_15  and  C_14 
REMARK    7  A    between atoms: N_20  and  C_19 
REMARK       I    between atoms: C_22  and  N_20 
ROOT
ATOM      1  C   LIG d   1      -3.185  77.216 114.709  0.00  0.00     0.161 C 
ATOM      2  C   LIG d   1      -3.230  77.268 113.306  0.00  0.00     0.016 C 
ATOM      3  C   LIG d   1      -2.194  77.815 112.514  0.00  0.00     0.038 C 
ATOM      4  C   LIG d   1      -0.968  78.212 113.068  0.00  0.00     0.028 C 
ATOM      5  C   LIG d   1      -1.074  78.644 114.527  0.00  0.00    -0.047 C 
ATOM      6  C   LIG d   1      -1.808  77.543 115.325  0.00  0.00     0.091 C 
ENDROOT
BRANCH   1   7
ATOM      7  O   LIG d   1      -3.645  75.929 115.165  0.00  0.00    -0.368 OA
BRANCH   7   8
ATOM      8  C   LIG d   1      -4.826  75.935 116.005  0.00  0.00     0.119 C 
BRANCH   8   9
ATOM      9  C   LIG d   1      -5.724  74.769 115.548  0.00  0.00     0.028 C 
ATOM     10  C   LIG d   1      -5.391  74.295 114.123  0.00  0.00     0.006 C 
ENDBRANCH   8   9
BRANCH   8  11
ATOM     11  C   LIG d   1      -5.660  77.200 115.784  0.00  0.00     0.028 C 
ATOM     12  C   LIG d   1      -5.894  77.993 117.079  0.00  0.00     0.006 C 
ENDBRANCH   8  11
ENDBRANCH   7   8
ENDBRANCH   1   7
BRANCH   6  13
ATOM     13  N   LIG d   1      -2.029  77.924 116.744  0.00  0.00    -0.311 N 
ATOM     14  C   LIG d   1      -1.709  77.139 117.772  0.00  0.00     0.210 C 
ATOM     15  C   LIG d   1      -2.039  77.715 119.153  0.00  0.00     0.109 C 
ATOM     16  O   LIG d   1      -1.153  76.035 117.672  0.00  0.00    -0.276 OA
ATOM     17  H   LIG d   1      -2.448  78.817 116.917  0.00  0.00     0.149 HD
ENDBRANCH   6  13
BRANCH   5  18
ATOM     18  N   LIG d   1       0.294  78.899 115.017  0.00  0.00     0.381 N 
ATOM     19  H   LIG d   1       0.371  79.847 115.326  0.00  0.00    -0.090 HD
ATOM     20  H   LIG d   1       0.941  78.760 114.261  0.00  0.00    -0.090 HD
ATOM     21  H   LIG d   1       0.508  78.279 115.766  0.00  0.00    -0.090 HD
ENDBRANCH   5  18
BRANCH   3  22
ATOM     22  C   LIG d   1      -2.395  78.005 111.155  0.00  0.00     0.382 C 
ATOM     23  O   LIG d   1      -3.408  77.518 110.597  0.00  0.00    -0.241 OA
ATOM     24  O   LIG d   1      -1.554  78.620 110.472  0.00  0.00    -0.241 OA
ENDBRANCH   3  22
TORSDOF 7
ENDMDL
MODEL 6
REMARK VINA RESULT:      -4.8      2.348      4.461
REMARK  7 active torsions:
REMARK  status: ('A' for Active; 'I' for Inactive)
REMARK    1  A    between atoms: C_2  and  C_3 
REMARK    2  A    between atoms: C_3  and  O_6 
REMARK    3  A    between atoms: C_3  and  C_4 
REMARK    4  A    between atoms: C_7  and  O_6 
REMARK    5  A    between atoms: C_9  and  C_10 
REMARK    6  A    between atoms: N_15  and  C_14 
REMARK    7  A    between atoms: N_20  and  C_19 
REMARK       I    between atoms: C_22  and  N_20 
ROOT
ATOM      1  C   LIG d   1      -2.406  76.448 115.007  0.00  0.00     0.161 C 
ATOM      2  C   LIG d   1      -2.205  76.248 116.383  0.00  0.00     0.016 C 
ATOM      3  C   LIG d   1      -1.295  77.008 117.154  0.00  0.00     0.038 C 
ATOM      4  C   LIG d   1      -0.631  78.127 116.629  0.00  0.00     0.028 C 
ATOM      5  C   LIG d   1      -0.422  78.054 115.121  0.00  0.00    -0.047 C 
ATOM      6  C   LIG d   1      -1.774  77.737 114.441  0.00  0.00     0.091 C 
ENDROOT
BRANCH   1   7
ATOM      7  O   LIG d   1      -3.816  76.410 114.709  0.00  0.00    -0.368 OA
BRANCH   7   8
ATOM      8  C   LIG d   1      -4.696  76.126 115.825  0.00  0.00     0.119 C 
BRANCH   8   9
ATOM      9  C   LIG d   1      -5.430  74.808 115.511  0.00  0.00     0.028 C 
ATOM     10  C   LIG d   1      -5.427  74.477 114.009  0.00  0.00     0.006 C 
ENDBRANCH   8   9
BRANCH   8  11
ATOM     11  C   LIG d   1      -5.796  77.183 115.950  0.00  0.00     0.028 C 
ATOM     12  C   LIG d   1      -7.001  76.696 116.771  0.00  0.00     0.006 C 
ENDBRANCH   8  11
ENDBRANCH   7   8
ENDBRANCH   1   7
BRANCH   6  13
ATOM     13  N   LIG d   1      -1.642  77.565 112.971  0.00  0.00    -0.311 N 
ATOM     14  C   LIG d   1      -2.275  78.331 112.084  0.00  0.00     0.210 C 
ATOM     15  C   LIG d   1      -2.016  77.971 110.617  0.00  0.00     0.109 C 
ATOM     16  O   LIG d   1      -3.000  79.295 112.371  0.00  0.00    -0.276 OA
ATOM     17  H   LIG d   1      -1.048  76.826 112.649  0.00  0.00     0.149 HD
ENDBRANCH   6  13
BRANCH   5  18
ATOM     18  N   LIG d   1       0.155  79.341 114.688  0.00  0.00     0.381 N 
ATOM     19  H   LIG d   1       0.457  79.862 115.487  0.00  0.00    -0.090 HD
ATOM     20  H   LIG d   1      -0.555  79.872 114.215  0.00  0.00    -0.090 HD
ATOM     21  H   LIG d   1       0.924  79.181 114.076  0.00  0.00    -0.090 HD
ENDBRANCH   5  18
BRANCH   3  22
ATOM     22  C   LIG d   1      -1.012  76.625 118.456  0.00  0.00     0.382 C 
ATOM     23  O   LIG d   1       0.156  76.736 118.903  0.00  0.00    -0.241 OA
ATOM     24  O   LIG d   1      -1.899  76.128 119.176  0.00  0.00    -0.241 OA
ENDBRANCH   3  22
TORSDOF 7
ENDMDL
MODEL 7
REMARK VINA RESULT:      -4.7      2.308      2.753
REMARK  7 active torsions:
REMARK  status: ('A' for Active; 'I' for Inactive)
REMARK    1  A    between atoms: C_2  and  C_3 
REMARK    2  A    between atoms: C_3  and  O_6 
REMARK    3  A    between atoms: C_3  and  C_4 
REMARK    4  A    between atoms: C_7  and  O_6 
REMARK    5  A    between atoms: C_9  and  C_10 
REMARK    6  A    between atoms: N_15  and  C_14 
REMARK    7  A    between atoms: N_20  and  C_19 
REMARK       I    between atoms: C_22  and  N_20 
ROOT
ATOM      1  C   LIG d   1      -3.599  77.333 113.884  0.00  0.00     0.161 C 
ATOM      2  C   LIG d   1      -2.872  77.564 112.704  0.00  0.00     0.016 C 
ATOM      3  C   LIG d   1      -1.821  78.504 112.608  0.00  0.00     0.038 C 
ATOM      4  C   LIG d   1      -1.322  79.176 113.735  0.00  0.00     0.028 C 
ATOM      5  C   LIG d   1      -2.354  79.348 114.844  0.00  0.00    -0.047 C 
ATOM      6  C   LIG d   1      -2.995  77.975 115.151  0.00  0.00     0.091 C 
ENDROOT
BRANCH   1   7
ATOM      7  O   LIG d   1      -3.779  75.916 114.078  0.00  0.00    -0.368 OA
BRANCH   7   8
ATOM      8  C   LIG d   1      -5.014  75.355 113.569  0.00  0.00     0.119 C 
BRANCH   8   9
ATOM      9  C   LIG d   1      -6.106  76.433 113.712  0.00  0.00     0.028 C 
ATOM     10  C   LIG d   1      -6.761  76.787 112.367  0.00  0.00     0.006 C 
ENDBRANCH   8   9
BRANCH   8  11
ATOM     11  C   LIG d   1      -5.488  74.180 114.429  0.00  0.00     0.028 C 
ATOM     12  C   LIG d   1      -6.006  74.621 115.807  0.00  0.00     0.006 C 
ENDBRANCH   8  11
ENDBRANCH   7   8
ENDBRANCH   1   7
BRANCH   6  13
ATOM     13  N   LIG d   1      -4.076  78.069 116.167  0.00  0.00    -0.311 N 
ATOM     14  C   LIG d   1      -4.090  77.354 117.290  0.00  0.00     0.210 C 
ATOM     15  C   LIG d   1      -5.307  77.588 118.190  0.00  0.00     0.109 C 
ATOM     16  O   LIG d   1      -3.195  76.571 117.642  0.00  0.00    -0.276 OA
ATOM     17  H   LIG d   1      -4.827  78.703 115.976  0.00  0.00     0.149 HD
ENDBRANCH   6  13
BRANCH   5  18
ATOM     18  N   LIG d   1      -1.664  79.937 116.007  0.00  0.00     0.381 N 
ATOM     19  H   LIG d   1      -2.308  80.487 116.540  0.00  0.00    -0.090 HD
ATOM     20  H   LIG d   1      -0.931  80.540 115.678  0.00  0.00    -0.090 HD
ATOM     21  H   LIG d   1      -1.281  79.216 116.577  0.00  0.00    -0.090 HD
ENDBRANCH   5  18
BRANCH   3  22
ATOM     22  C   LIG d   1      -1.285  78.812 111.367  0.00  0.00     0.382 C 
ATOM     23  O   LIG d   1      -1.208  77.927 110.481  0.00  0.00    -0.241 OA
ATOM     24  O   LIG d   1      -0.837  79.951 111.137  0.00  0.00    -0.241 OA
ENDBRANCH   3  22
TORSDOF 7
ENDMDL
MODEL 8
REMARK VINA RESULT:      -4.6      2.715      4.695
REMARK  7 active torsions:
REMARK  status: ('A' for Active; 'I' for Inactive)
REMARK    1  A    between atoms: C_2  and  C_3 
REMARK    2  A    between atoms: C_3  and  O_6 
REMARK    3  A    between atoms: C_3  and  C_4 
REMARK    4  A    between atoms: C_7  and  O_6 
REMARK    5  A    between atoms: C_9  and  C_10 
REMARK    6  A    between atoms: N_15  and  C_14 
REMARK    7  A    between atoms: N_20  and  C_19 
REMARK       I    between atoms: C_22  and  N_20 
ROOT
ATOM      1  C   LIG d   1      -2.569  76.080 115.185  0.00  0.00     0.161 C 
ATOM      2  C   LIG d   1      -2.609  76.029 116.588  0.00  0.00     0.016 C 
ATOM      3  C   LIG d   1      -2.471  77.169 117.413  0.00  0.00     0.038 C 
ATOM      4  C   LIG d   1      -2.433  78.467 116.882  0.00  0.00     0.028 C 
ATOM      5  C   LIG d   1      -1.881  78.525 115.462  0.00  0.00    -0.047 C 
ATOM      6  C   LIG d   1      -2.639  77.501 114.587  0.00  0.00     0.091 C 
ENDROOT
BRANCH   1   7
ATOM      7  O   LIG d   1      -3.613  75.252 114.635  0.00  0.00    -0.368 OA
BRANCH   7   8
ATOM      8  C   LIG d   1      -4.937  75.841 114.593  0.00  0.00     0.119 C 
BRANCH   8   9
ATOM      9  C   LIG d   1      -5.779  75.165 115.693  0.00  0.00     0.028 C 
ATOM     10  C   LIG d   1      -6.350  76.178 116.700  0.00  0.00     0.006 C 
ENDBRANCH   8   9
BRANCH   8  11
ATOM     11  C   LIG d   1      -5.650  75.514 113.278  0.00  0.00     0.028 C 
ATOM     12  C   LIG d   1      -6.433  76.709 112.712  0.00  0.00     0.006 C 
ENDBRANCH   8  11
ENDBRANCH   7   8
ENDBRANCH   1   7
BRANCH   6  13
ATOM     13  N   LIG d   1      -2.105  77.433 113.202  0.00  0.00    -0.311 N 
ATOM     14  C   LIG d   1      -2.553  78.194 112.205  0.00  0.00     0.210 C 
ATOM     15  C   LIG d   1      -1.879  77.950 110.851  0.00  0.00     0.109 C 
ATOM     16  O   LIG d   1      -3.423  79.070 112.321  0.00  0.00    -0.276 OA
ATOM     17  H   LIG d   1      -1.375  76.770 113.026  0.00  0.00     0.149 HD
ENDBRANCH   6  13
BRANCH   5  18
ATOM     18  N   LIG d   1      -2.027  79.913 114.984  0.00  0.00     0.381 N 
ATOM     19  H   LIG d   1      -1.165  80.225 114.583  0.00  0.00    -0.090 HD
ATOM     20  H   LIG d   1      -2.243  80.505 115.766  0.00  0.00    -0.090 HD
ATOM     21  H   LIG d   1      -2.755  79.966 114.306  0.00  0.00    -0.090 HD
ENDBRANCH   5  18
BRANCH   3  22
ATOM     22  C   LIG d   1      -2.329  77.013 118.783  0.00  0.00     0.382 C 
ATOM     23  O   LIG d   1      -3.116  77.597 119.566  0.00  0.00    -0.241 OA
ATOM     24  O   LIG d   1      -1.395  76.331 119.248  0.00  0.00    -0.241 OA
ENDBRANCH   3  22
TORSDOF 7
ENDMDL
MODEL 9
REMARK VINA RESULT:      -4.6      2.516      4.181
REMARK  7 active torsions:
REMARK  status: ('A' for Active; 'I' for Inactive)
REMARK    1  A    between atoms: C_2  and  C_3 
REMARK    2  A    between atoms: C_3  and  O_6 
REMARK    3  A    between atoms: C_3  and  C_4 
REMARK    4  A    between atoms: C_7  and  O_6 
REMARK    5  A    between atoms: C_9  and  C_10 
REMARK    6  A    between atoms: N_15  and  C_14 
REMARK    7  A    between atoms: N_20  and  C_19 
REMARK       I    between atoms: C_22  and  N_20 
ROOT
ATOM      1  C   LIG d   1      -2.216  77.847 115.143  0.00  0.00     0.161 C 
ATOM      2  C   LIG d   1      -1.319  78.901 114.903  0.00  0.00     0.016 C 
ATOM      3  C   LIG d   1      -1.210  79.562 113.658  0.00  0.00     0.038 C 
ATOM      4  C   LIG d   1      -2.104  79.312 112.605  0.00  0.00     0.028 C 
ATOM      5  C   LIG d   1      -2.696  77.907 112.634  0.00  0.00    -0.047 C 
ATOM      6  C   LIG d   1      -3.275  77.635 114.041  0.00  0.00     0.091 C 
ENDROOT
BRANCH   1   7
ATOM      7  O   LIG d   1      -2.854  78.030 116.423  0.00  0.00    -0.368 OA
BRANCH   7   8
ATOM      8  C   LIG d   1      -3.121  79.400 116.811  0.00  0.00     0.119 C 
BRANCH   8   9
ATOM      9  C   LIG d   1      -2.513  79.611 118.211  0.00  0.00     0.028 C 
ATOM     10  C   LIG d   1      -1.394  80.667 118.212  0.00  0.00     0.006 C 
ENDBRANCH   8   9
BRANCH   8  11
ATOM     11  C   LIG d   1      -4.623  79.649 116.980  0.00  0.00     0.028 C 
ATOM     12  C   LIG d   1      -5.453  78.358 116.896  0.00  0.00     0.006 C 
ENDBRANCH   8  11
ENDBRANCH   7   8
ENDBRANCH   1   7
BRANCH   6  13
ATOM     13  N   LIG d   1      -3.799  76.251 114.181  0.00  0.00    -0.311 N 
ATOM     14  C   LIG d   1      -5.077  75.929 113.992  0.00  0.00     0.210 C 
ATOM     15  C   LIG d   1      -5.410  74.449 114.207  0.00  0.00     0.109 C 
ATOM     16  O   LIG d   1      -5.962  76.722 113.636  0.00  0.00    -0.276 OA
ATOM     17  H   LIG d   1      -3.144  75.539 114.437  0.00  0.00     0.149 HD
ENDBRANCH   6  13
BRANCH   5  18
ATOM     18  N   LIG d   1      -3.710  77.829 111.566  0.00  0.00     0.381 N 
ATOM     19  H   LIG d   1      -3.480  77.089 110.934  0.00  0.00    -0.090 HD
ATOM     20  H   LIG d   1      -3.710  78.693 111.054  0.00  0.00    -0.090 HD
ATOM     21  H   LIG d   1      -4.611  77.669 111.962  0.00  0.00    -0.090 HD
ENDBRANCH   5  18
BRANCH   3  22
ATOM     22  C   LIG d   1      -0.173  80.457 113.443  0.00  0.00     0.382 C 
ATOM     23  O   LIG d   1       0.231  80.679 112.276  0.00  0.00    -0.241 OA
ATOM     24  O   LIG d   1       0.393  81.011 114.404  0.00  0.00    -0.241 OA
ENDBRANCH   3  22
TORSDOF 7
ENDMDL
