MODEL 1
REMARK VINA RESULT:      -5.2      0.000      0.000
REMARK  7 active torsions:
REMARK  status: ('A' for Active; 'I' for Inactive)
REMARK    1  A    between atoms: C_2  and  C_3 
REMARK    2  A    between atoms: C_3  and  O_6 
REMARK    3  A    between atoms: C_3  and  C_4 
REMARK    4  A    between atoms: C_7  and  O_6 
REMARK    5  A    between atoms: C_9  and  C_10 
REMARK    6  A    between atoms: N_15  and  C_14 
REMARK    7  A    between atoms: N_20  and  C_19 
REMARK       I    between atoms: C_22  and  N_20 
ROOT
ATOM      1  C   LIG d   1      -2.993  79.300 115.770  0.00  0.00     0.161 C 
ATOM      2  C   LIG d   1      -2.946  80.572 115.176  0.00  0.00     0.016 C 
ATOM      3  C   LIG d   1      -2.501  80.798 113.853  0.00  0.00     0.038 C 
ATOM      4  C   LIG d   1      -2.213  79.740 112.977  0.00  0.00     0.028 C 
ATOM      5  C   LIG d   1      -1.763  78.469 113.689  0.00  0.00    -0.047 C 
ATOM      6  C   LIG d   1      -2.788  78.123 114.793  0.00  0.00     0.091 C 
ENDROOT
BRANCH   1   7
ATOM      7  O   LIG d   1      -4.230  79.142 116.492  0.00  0.00    -0.368 OA
BRANCH   7   8
ATOM      8  C   LIG d   1      -4.653  80.277 117.287  0.00  0.00     0.119 C 
BRANCH   8   9
ATOM      9  C   LIG d   1      -3.891  80.213 118.625  0.00  0.00     0.028 C 
ATOM     10  C   LIG d   1      -3.040  81.469 118.877  0.00  0.00     0.006 C 
ENDBRANCH   8   9
BRANCH   8  11
ATOM     11  C   LIG d   1      -6.135  80.176 117.659  0.00  0.00     0.028 C 
ATOM     12  C   LIG d   1      -6.823  81.548 117.744  0.00  0.00     0.006 C 
ENDBRANCH   8  11
ENDBRANCH   7   8
ENDBRANCH   1   7
BRANCH   6  13
ATOM     13  N   LIG d   1      -2.380  76.939 115.594  0.00  0.00    -0.311 N 
ATOM     14  C   LIG d   1      -2.770  75.696 115.317  0.00  0.00     0.210 C 
ATOM     15  C   LIG d   1      -2.251  74.625 116.281  0.00  0.00     0.109 C 
ATOM     16  O   LIG d   1      -3.470  75.375 114.345  0.00  0.00    -0.276 OA
ATOM     17  H   LIG d   1      -1.787  77.105 116.383  0.00  0.00     0.149 HD
ENDBRANCH   6  13
BRANCH   5  18
ATOM     18  N   LIG d   1      -1.630  77.411 112.670  0.00  0.00     0.381 N 
ATOM     19  H   LIG d   1      -2.245  77.599 111.904  0.00  0.00    -0.090 HD
ATOM     20  H   LIG d   1      -1.896  76.532 113.078  0.00  0.00    -0.090 HD
ATOM     21  H   LIG d   1      -0.689  77.365 112.347  0.00  0.00    -0.090 HD
ENDBRANCH   5  18
BRANCH   3  22
ATOM     22  C   LIG d   1      -2.302  82.095 113.407  0.00  0.00     0.382 C 
ATOM     23  O   LIG d   1      -2.365  83.053 114.216  0.00  0.00    -0.241 OA
ATOM     24  O   LIG d   1      -2.104  82.325 112.199  0.00  0.00    -0.241 OA
ENDBRANCH   3  22
TORSDOF 7
ENDMDL
MODEL 2
REMARK VINA RESULT:      -5.1      1.240      1.856
REMARK  7 active torsions:
REMARK  status: ('A' for Active; 'I' for Inactive)
REMARK    1  A    between atoms: C_2  and  C_3 
REMARK    2  A    between atoms: C_3  and  O_6 
REMARK    3  A    between atoms: C_3  and  C_4 
REMARK    4  A    between atoms: C_7  and  O_6 
REMARK    5  A    between atoms: C_9  and  C_10 
REMARK    6  A    between atoms: N_15  and  C_14 
REMARK    7  A    between atoms: N_20  and  C_19 
REMARK       I    between atoms: C_22  and  N_20 
ROOT
ATOM      1  C   LIG d   1      -2.373  79.088 116.133  0.00  0.00     0.161 C 
ATOM      2  C   LIG d   1      -2.681  80.369 115.643  0.00  0.00     0.016 C 
ATOM      3  C   LIG d   1      -2.683  80.697 114.268  0.00  0.00     0.038 C 
ATOM      4  C   LIG d   1      -2.522  79.721 113.273  0.00  0.00     0.028 C 
ATOM      5  C   LIG d   1      -1.709  78.515 113.733  0.00  0.00    -0.047 C 
ATOM      6  C   LIG d   1      -2.304  77.984 115.057  0.00  0.00     0.091 C 
ENDROOT
BRANCH   1   7
ATOM      7  O   LIG d   1      -3.307  78.722 117.167  0.00  0.00    -0.368 OA
BRANCH   7   8
ATOM      8  C   LIG d   1      -4.707  78.957 116.874  0.00  0.00     0.119 C 
BRANCH   8   9
ATOM      9  C   LIG d   1      -5.280  79.819 118.016  0.00  0.00     0.028 C 
ATOM     10  C   LIG d   1      -5.772  81.191 117.526  0.00  0.00     0.006 C 
ENDBRANCH   8   9
BRANCH   8  11
ATOM     11  C   LIG d   1      -5.509  77.653 116.907  0.00  0.00     0.028 C 
ATOM     12  C   LIG d   1      -4.728  76.489 117.535  0.00  0.00     0.006 C 
ENDBRANCH   8  11
ENDBRANCH   7   8
ENDBRANCH   1   7
BRANCH   6  13
ATOM     13  N   LIG d   1      -1.517  76.856 115.620  0.00  0.00    -0.311 N 
ATOM     14  C   LIG d   1      -1.802  75.576 115.389  0.00  0.00     0.210 C 
ATOM     15  C   LIG d   1      -0.875  74.572 116.082  0.00  0.00     0.109 C 
ATOM     16  O   LIG d   1      -2.715  75.177 114.650  0.00  0.00    -0.276 OA
ATOM     17  H   LIG d   1      -0.739  77.090 116.206  0.00  0.00     0.149 HD
ENDBRANCH   6  13
BRANCH   5  18
ATOM     18  N   LIG d   1      -1.737  77.518 112.646  0.00  0.00     0.381 N 
ATOM     19  H   LIG d   1      -2.048  76.637 113.002  0.00  0.00    -0.090 HD
ATOM     20  H   LIG d   1      -0.806  77.402 112.287  0.00  0.00    -0.090 HD
ATOM     21  H   LIG d   1      -2.345  77.824 111.918  0.00  0.00    -0.090 HD
ENDBRANCH   5  18
BRANCH   3  22
ATOM     22  C   LIG d   1      -2.807  82.021 113.878  0.00  0.00     0.382 C 
ATOM     23  O   LIG d   1      -2.156  82.449 112.894  0.00  0.00    -0.241 OA
ATOM     24  O   LIG d   1      -3.528  82.805 114.524  0.00  0.00    -0.241 OA
ENDBRANCH   3  22
TORSDOF 7
ENDMDL
MODEL 3
REMARK VINA RESULT:      -5.1      1.055      1.437
REMARK  7 active torsions:
REMARK  status: ('A' for Active; 'I' for Inactive)
REMARK    1  A    between atoms: C_2  and  C_3 
REMARK    2  A    between atoms: C_3  and  O_6 
REMARK    3  A    between atoms: C_3  and  C_4 
REMARK    4  A    between atoms: C_7  and  O_6 
REMARK    5  A    between atoms: C_9  and  C_10 
REMARK    6  A    between atoms: N_15  and  C_14 
REMARK    7  A    between atoms: N_20  and  C_19 
REMARK       I    between atoms: C_22  and  N_20 
ROOT
ATOM      1  C   LIG d   1      -3.058  79.243 115.811  0.00  0.00     0.161 C 
ATOM      2  C   LIG d   1      -3.024  80.522 115.231  0.00  0.00     0.016 C 
ATOM      3  C   LIG d   1      -2.568  80.768 113.915  0.00  0.00     0.038 C 
ATOM      4  C   LIG d   1      -2.254  79.724 113.032  0.00  0.00     0.028 C 
ATOM      5  C   LIG d   1      -1.792  78.453 113.737  0.00  0.00    -0.047 C 
ATOM      6  C   LIG d   1      -2.824  78.079 114.825  0.00  0.00     0.091 C 
ENDROOT
BRANCH   1   7
ATOM      7  O   LIG d   1      -4.301  79.059 116.517  0.00  0.00    -0.368 OA
BRANCH   7   8
ATOM      8  C   LIG d   1      -4.216  79.049 117.964  0.00  0.00     0.119 C 
BRANCH   8   9
ATOM      9  C   LIG d   1      -4.574  77.627 118.438  0.00  0.00     0.028 C 
ATOM     10  C   LIG d   1      -5.573  76.929 117.500  0.00  0.00     0.006 C 
ENDBRANCH   8   9
BRANCH   8  11
ATOM     11  C   LIG d   1      -5.273  79.963 118.590  0.00  0.00     0.028 C 
ATOM     12  C   LIG d   1      -5.968  80.865 117.557  0.00  0.00     0.006 C 
ENDBRANCH   8  11
ENDBRANCH   7   8
ENDBRANCH   1   7
BRANCH   6  13
ATOM     13  N   LIG d   1      -2.406  76.894 115.619  0.00  0.00    -0.311 N 
ATOM     14  C   LIG d   1      -2.789  75.650 115.337  0.00  0.00     0.210 C 
ATOM     15  C   LIG d   1      -2.261  74.578 116.294  0.00  0.00     0.109 C 
ATOM     16  O   LIG d   1      -3.491  75.330 114.366  0.00  0.00    -0.276 OA
ATOM     17  H   LIG d   1      -1.811  77.060 116.407  0.00  0.00     0.149 HD
ENDBRANCH   6  13
BRANCH   5  18
ATOM     18  N   LIG d   1      -1.631  77.407 112.709  0.00  0.00     0.381 N 
ATOM     19  H   LIG d   1      -0.674  77.117 112.668  0.00  0.00    -0.090 HD
ATOM     20  H   LIG d   1      -1.884  77.789 111.815  0.00  0.00    -0.090 HD
ATOM     21  H   LIG d   1      -2.213  76.627 112.922  0.00  0.00    -0.090 HD
ENDBRANCH   5  18
BRANCH   3  22
ATOM     22  C   LIG d   1      -2.385  82.073 113.485  0.00  0.00     0.382 C 
ATOM     23  O   LIG d   1      -2.514  83.024 114.292  0.00  0.00    -0.241 OA
ATOM     24  O   LIG d   1      -2.134  82.314 112.288  0.00  0.00    -0.241 OA
ENDBRANCH   3  22
TORSDOF 7
ENDMDL
MODEL 4
REMARK VINA RESULT:      -5.1      1.927      2.415
REMARK  7 active torsions:
REMARK  status: ('A' for Active; 'I' for Inactive)
REMARK    1  A    between atoms: C_2  and  C_3 
REMARK    2  A    between atoms: C_3  and  O_6 
REMARK    3  A    between atoms: C_3  and  C_4 
REMARK    4  A    between atoms: C_7  and  O_6 
REMARK    5  A    between atoms: C_9  and  C_10 
REMARK    6  A    between atoms: N_15  and  C_14 
REMARK    7  A    between atoms: N_20  and  C_19 
REMARK       I    between atoms: C_22  and  N_20 
ROOT
ATOM      1  C   LIG d   1      -0.457  80.259 115.041  0.00  0.00     0.161 C 
ATOM      2  C   LIG d   1      -0.578  81.495 114.386  0.00  0.00     0.016 C 
ATOM      3  C   LIG d   1      -1.284  81.668 113.173  0.00  0.00     0.038 C 
ATOM      4  C   LIG d   1      -2.050  80.637 112.608  0.00  0.00     0.028 C 
ATOM      5  C   LIG d   1      -1.546  79.243 112.964  0.00  0.00    -0.047 C 
ATOM      6  C   LIG d   1      -1.379  79.146 114.498  0.00  0.00     0.091 C 
ENDROOT
BRANCH   1   7
ATOM      7  O   LIG d   1      -0.664  80.434 116.457  0.00  0.00    -0.368 OA
BRANCH   7   8
ATOM      8  C   LIG d   1      -1.332  81.655 116.857  0.00  0.00     0.119 C 
BRANCH   8   9
ATOM      9  C   LIG d   1      -0.541  82.249 118.040  0.00  0.00     0.028 C 
ATOM     10  C   LIG d   1      -1.288  82.104 119.376  0.00  0.00     0.006 C 
ENDBRANCH   8   9
BRANCH   8  11
ATOM     11  C   LIG d   1      -2.732  81.370 117.408  0.00  0.00     0.028 C 
ATOM     12  C   LIG d   1      -3.819  81.413 116.322  0.00  0.00     0.006 C 
ENDBRANCH   8  11
ENDBRANCH   7   8
ENDBRANCH   1   7
BRANCH   6  13
ATOM     13  N   LIG d   1      -0.809  77.842 114.925  0.00  0.00    -0.311 N 
ATOM     14  C   LIG d   1      -1.555  76.790 115.257  0.00  0.00     0.210 C 
ATOM     15  C   LIG d   1      -0.768  75.548 115.687  0.00  0.00     0.109 C 
ATOM     16  O   LIG d   1      -2.794  76.756 115.203  0.00  0.00    -0.276 OA
ATOM     17  H   LIG d   1       0.189  77.772 114.967  0.00  0.00     0.149 HD
ENDBRANCH   6  13
BRANCH   5  18
ATOM     18  N   LIG d   1      -2.513  78.268 112.426  0.00  0.00     0.381 N 
ATOM     19  H   LIG d   1      -2.891  77.719 113.171  0.00  0.00    -0.090 HD
ATOM     20  H   LIG d   1      -2.035  77.652 111.791  0.00  0.00    -0.090 HD
ATOM     21  H   LIG d   1      -3.247  78.744 111.948  0.00  0.00    -0.090 HD
ENDBRANCH   5  18
BRANCH   3  22
ATOM     22  C   LIG d   1      -1.195  82.872 112.491  0.00  0.00     0.382 C 
ATOM     23  O   LIG d   1      -1.224  83.955 113.125  0.00  0.00    -0.241 OA
ATOM     24  O   LIG d   1      -1.131  82.891 111.247  0.00  0.00    -0.241 OA
ENDBRANCH   3  22
TORSDOF 7
ENDMDL
MODEL 5
REMARK VINA RESULT:      -5.0      2.682      4.370
REMARK  7 active torsions:
REMARK  status: ('A' for Active; 'I' for Inactive)
REMARK    1  A    between atoms: C_2  and  C_3 
REMARK    2  A    between atoms: C_3  and  O_6 
REMARK    3  A    between atoms: C_3  and  C_4 
REMARK    4  A    between atoms: C_7  and  O_6 
REMARK    5  A    between atoms: C_9  and  C_10 
REMARK    6  A    between atoms: N_15  and  C_14 
REMARK    7  A    between atoms: N_20  and  C_19 
REMARK       I    between atoms: C_22  and  N_20 
ROOT
ATOM      1  C   LIG d   1      -4.428  77.812 116.637  0.00  0.00     0.161 C 
ATOM      2  C   LIG d   1      -5.226  78.887 117.063  0.00  0.00     0.016 C 
ATOM      3  C   LIG d   1      -4.815  80.238 116.993  0.00  0.00     0.038 C 
ATOM      4  C   LIG d   1      -3.629  80.619 116.348  0.00  0.00     0.028 C 
ATOM      5  C   LIG d   1      -2.559  79.532 116.354  0.00  0.00    -0.047 C 
ATOM      6  C   LIG d   1      -3.178  78.217 115.828  0.00  0.00     0.091 C 
ENDROOT
BRANCH   1   7
ATOM      7  O   LIG d   1      -5.228  76.877 115.887  0.00  0.00    -0.368 OA
BRANCH   7   8
ATOM      8  C   LIG d   1      -5.671  75.699 116.605  0.00  0.00     0.119 C 
BRANCH   8   9
ATOM      9  C   LIG d   1      -5.493  74.490 115.666  0.00  0.00     0.028 C 
ATOM     10  C   LIG d   1      -5.216  74.911 114.213  0.00  0.00     0.006 C 
ENDBRANCH   8   9
BRANCH   8  11
ATOM     11  C   LIG d   1      -7.171  75.761 116.906  0.00  0.00     0.028 C 
ATOM     12  C   LIG d   1      -7.473  75.886 118.408  0.00  0.00     0.006 C 
ENDBRANCH   8  11
ENDBRANCH   7   8
ENDBRANCH   1   7
BRANCH   6  13
ATOM     13  N   LIG d   1      -2.221  77.081 115.880  0.00  0.00    -0.311 N 
ATOM     14  C   LIG d   1      -1.814  76.415 114.800  0.00  0.00     0.210 C 
ATOM     15  C   LIG d   1      -0.842  75.265 115.079  0.00  0.00     0.109 C 
ATOM     16  O   LIG d   1      -2.141  76.689 113.636  0.00  0.00    -0.276 OA
ATOM     17  H   LIG d   1      -1.881  76.812 116.782  0.00  0.00     0.149 HD
ENDBRANCH   6  13
BRANCH   5  18
ATOM     18  N   LIG d   1      -1.433  80.011 115.532  0.00  0.00     0.381 N 
ATOM     19  H   LIG d   1      -0.878  80.656 116.059  0.00  0.00    -0.090 HD
ATOM     20  H   LIG d   1      -1.798  80.493 114.729  0.00  0.00    -0.090 HD
ATOM     21  H   LIG d   1      -0.872  79.241 115.239  0.00  0.00    -0.090 HD
ENDBRANCH   5  18
BRANCH   3  22
ATOM     22  C   LIG d   1      -5.575  81.220 117.609  0.00  0.00     0.382 C 
ATOM     23  O   LIG d   1      -5.236  81.663 118.733  0.00  0.00    -0.241 OA
ATOM     24  O   LIG d   1      -6.620  81.638 117.075  0.00  0.00    -0.241 OA
ENDBRANCH   3  22
TORSDOF 7
ENDMDL
MODEL 6
REMARK VINA RESULT:      -4.7      2.908      4.362
REMARK  7 active torsions:
REMARK  status: ('A' for Active; 'I' for Inactive)
REMARK    1  A    between atoms: C_2  and  C_3 
REMARK    2  A    between atoms: C_3  and  O_6 
REMARK    3  A    between atoms: C_3  and  C_4 
REMARK    4  A    between atoms: C_7  and  O_6 
REMARK    5  A    between atoms: C_9  and  C_10 
REMARK    6  A    between atoms: N_15  and  C_14 
REMARK    7  A    between atoms: N_20  and  C_19 
REMARK       I    between atoms: C_22  and  N_20 
ROOT
ATOM      1  C   LIG d   1      -3.137  76.560 117.060  0.00  0.00     0.161 C 
ATOM      2  C   LIG d   1      -3.450  77.719 116.331  0.00  0.00     0.016 C 
ATOM      3  C   LIG d   1      -2.695  78.171 115.224  0.00  0.00     0.038 C 
ATOM      4  C   LIG d   1      -1.656  77.406 114.674  0.00  0.00     0.028 C 
ATOM      5  C   LIG d   1      -0.985  76.480 115.684  0.00  0.00    -0.047 C 
ATOM      6  C   LIG d   1      -2.073  75.653 116.406  0.00  0.00     0.091 C 
ENDROOT
BRANCH   1   7
ATOM      7  O   LIG d   1      -4.339  75.811 117.326  0.00  0.00    -0.368 OA
BRANCH   7   8
ATOM      8  C   LIG d   1      -5.415  75.970 116.369  0.00  0.00     0.119 C 
BRANCH   8   9
ATOM      9  C   LIG d   1      -6.733  76.050 117.164  0.00  0.00     0.028 C 
ATOM     10  C   LIG d   1      -7.385  74.670 117.358  0.00  0.00     0.006 C 
ENDBRANCH   8   9
BRANCH   8  11
ATOM     11  C   LIG d   1      -5.554  74.734 115.476  0.00  0.00     0.028 C 
ATOM     12  C   LIG d   1      -5.125  74.997 114.024  0.00  0.00     0.006 C 
ENDBRANCH   8  11
ENDBRANCH   7   8
ENDBRANCH   1   7
BRANCH   6  13
ATOM     13  N   LIG d   1      -1.510  74.782 117.470  0.00  0.00    -0.311 N 
ATOM     14  C   LIG d   1      -0.860  75.251 118.535  0.00  0.00     0.210 C 
ATOM     15  C   LIG d   1      -0.343  74.181 119.500  0.00  0.00     0.109 C 
ATOM     16  O   LIG d   1      -0.691  76.454 118.787  0.00  0.00    -0.276 OA
ATOM     17  H   LIG d   1      -1.628  73.794 117.362  0.00  0.00     0.149 HD
ENDBRANCH   6  13
BRANCH   5  18
ATOM     18  N   LIG d   1      -0.017  75.645 114.948  0.00  0.00     0.381 N 
ATOM     19  H   LIG d   1       0.060  74.750 115.388  0.00  0.00    -0.090 HD
ATOM     20  H   LIG d   1       0.884  76.089 114.977  0.00  0.00    -0.090 HD
ATOM     21  H   LIG d   1      -0.311  75.535 114.003  0.00  0.00    -0.090 HD
ENDBRANCH   5  18
BRANCH   3  22
ATOM     22  C   LIG d   1      -2.952  79.420 114.681  0.00  0.00     0.382 C 
ATOM     23  O   LIG d   1      -3.523  80.299 115.371  0.00  0.00    -0.241 OA
ATOM     24  O   LIG d   1      -2.660  79.665 113.495  0.00  0.00    -0.241 OA
ENDBRANCH   3  22
TORSDOF 7
ENDMDL
MODEL 7
REMARK VINA RESULT:      -4.6      2.604      5.791
REMARK  7 active torsions:
REMARK  status: ('A' for Active; 'I' for Inactive)
REMARK    1  A    between atoms: C_2  and  C_3 
REMARK    2  A    between atoms: C_3  and  O_6 
REMARK    3  A    between atoms: C_3  and  C_4 
REMARK    4  A    between atoms: C_7  and  O_6 
REMARK    5  A    between atoms: C_9  and  C_10 
REMARK    6  A    between atoms: N_15  and  C_14 
REMARK    7  A    between atoms: N_20  and  C_19 
REMARK       I    between atoms: C_22  and  N_20 
ROOT
ATOM      1  C   LIG d   1      -3.739  78.488 116.609  0.00  0.00     0.161 C 
ATOM      2  C   LIG d   1      -3.341  77.301 115.973  0.00  0.00     0.016 C 
ATOM      3  C   LIG d   1      -3.948  76.047 116.215  0.00  0.00     0.038 C 
ATOM      4  C   LIG d   1      -5.102  75.922 117.003  0.00  0.00     0.028 C 
ATOM      5  C   LIG d   1      -5.232  77.010 118.063  0.00  0.00    -0.047 C 
ATOM      6  C   LIG d   1      -5.067  78.391 117.388  0.00  0.00     0.091 C 
ENDROOT
BRANCH   1   7
ATOM      7  O   LIG d   1      -3.798  79.561 115.649  0.00  0.00    -0.368 OA
BRANCH   7   8
ATOM      8  C   LIG d   1      -2.547  80.233 115.365  0.00  0.00     0.119 C 
BRANCH   8   9
ATOM      9  C   LIG d   1      -2.678  81.686 115.862  0.00  0.00     0.028 C 
ATOM     10  C   LIG d   1      -2.329  81.830 117.353  0.00  0.00     0.006 C 
ENDBRANCH   8   9
BRANCH   8  11
ATOM     11  C   LIG d   1      -2.301  80.341 113.857  0.00  0.00     0.028 C 
ATOM     12  C   LIG d   1      -2.643  81.731 113.296  0.00  0.00     0.006 C 
ENDBRANCH   8  11
ENDBRANCH   7   8
ENDBRANCH   1   7
BRANCH   6  13
ATOM     13  N   LIG d   1      -5.097  79.508 118.368  0.00  0.00    -0.311 N 
ATOM     14  C   LIG d   1      -5.897  80.566 118.248  0.00  0.00     0.210 C 
ATOM     15  C   LIG d   1      -5.754  81.613 119.358  0.00  0.00     0.109 C 
ATOM     16  O   LIG d   1      -6.733  80.723 117.346  0.00  0.00    -0.276 OA
ATOM     17  H   LIG d   1      -4.472  79.447 119.148  0.00  0.00     0.149 HD
ENDBRANCH   6  13
BRANCH   5  18
ATOM     18  N   LIG d   1      -6.543  76.840 118.718  0.00  0.00     0.381 N 
ATOM     19  H   LIG d   1      -7.009  77.723 118.778  0.00  0.00    -0.090 HD
ATOM     20  H   LIG d   1      -6.398  76.496 119.651  0.00  0.00    -0.090 HD
ATOM     21  H   LIG d   1      -7.101  76.195 118.202  0.00  0.00    -0.090 HD
ENDBRANCH   5  18
BRANCH   3  22
ATOM     22  C   LIG d   1      -3.376  74.895 115.697  0.00  0.00     0.382 C 
ATOM     23  O   LIG d   1      -2.641  74.180 116.420  0.00  0.00    -0.241 OA
ATOM     24  O   LIG d   1      -3.550  74.585 114.503  0.00  0.00    -0.241 OA
ENDBRANCH   3  22
TORSDOF 7
ENDMDL
MODEL 8
REMARK VINA RESULT:      -4.6      2.472      3.658
REMARK  7 active torsions:
REMARK  status: ('A' for Active; 'I' for Inactive)
REMARK    1  A    between atoms: C_2  and  C_3 
REMARK    2  A    between atoms: C_3  and  O_6 
REMARK    3  A    between atoms: C_3  and  C_4 
REMARK    4  A    between atoms: C_7  and  O_6 
REMARK    5  A    between atoms: C_9  and  C_10 
REMARK    6  A    between atoms: N_15  and  C_14 
REMARK    7  A    between atoms: N_20  and  C_19 
REMARK       I    between atoms: C_22  and  N_20 
ROOT
ATOM      1  C   LIG d   1      -2.313  78.577 115.206  0.00  0.00     0.161 C 
ATOM      2  C   LIG d   1      -2.691  79.480 114.198  0.00  0.00     0.016 C 
ATOM      3  C   LIG d   1      -1.885  80.565 113.784  0.00  0.00     0.038 C 
ATOM      4  C   LIG d   1      -0.571  80.733 114.247  0.00  0.00     0.028 C 
ATOM      5  C   LIG d   1      -0.337  80.141 115.633  0.00  0.00    -0.047 C 
ATOM      6  C   LIG d   1      -0.837  78.678 115.644  0.00  0.00     0.091 C 
ENDROOT
BRANCH   1   7
ATOM      7  O   LIG d   1      -2.622  77.230 114.796  0.00  0.00    -0.368 OA
BRANCH   7   8
ATOM      8  C   LIG d   1      -3.934  76.738 115.165  0.00  0.00     0.119 C 
BRANCH   8   9
ATOM      9  C   LIG d   1      -4.127  77.015 116.668  0.00  0.00     0.028 C 
ATOM     10  C   LIG d   1      -5.478  77.684 116.973  0.00  0.00     0.006 C 
ENDBRANCH   8   9
BRANCH   8  11
ATOM     11  C   LIG d   1      -4.018  75.215 115.020  0.00  0.00     0.028 C 
ATOM     12  C   LIG d   1      -5.168  74.767 114.104  0.00  0.00     0.006 C 
ENDBRANCH   8  11
ENDBRANCH   7   8
ENDBRANCH   1   7
BRANCH   6  13
ATOM     13  N   LIG d   1      -0.722  78.051 116.987  0.00  0.00    -0.311 N 
ATOM     14  C   LIG d   1      -0.307  76.800 117.178  0.00  0.00     0.210 C 
ATOM     15  C   LIG d   1      -0.283  76.344 118.641  0.00  0.00     0.109 C 
ATOM     16  O   LIG d   1       0.073  76.035 116.279  0.00  0.00    -0.276 OA
ATOM     17  H   LIG d   1      -0.981  78.611 117.775  0.00  0.00     0.149 HD
ENDBRANCH   6  13
BRANCH   5  18
ATOM     18  N   LIG d   1       1.102  80.263 115.933  0.00  0.00     0.381 N 
ATOM     19  H   LIG d   1       1.263  81.077 116.492  0.00  0.00    -0.090 HD
ATOM     20  H   LIG d   1       1.606  80.368 115.070  0.00  0.00    -0.090 HD
ATOM     21  H   LIG d   1       1.420  79.452 116.415  0.00  0.00    -0.090 HD
ENDBRANCH   5  18
BRANCH   3  22
ATOM     22  C   LIG d   1      -2.407  81.521 112.925  0.00  0.00     0.382 C 
ATOM     23  O   LIG d   1      -1.712  81.958 111.977  0.00  0.00    -0.241 OA
ATOM     24  O   LIG d   1      -3.548  81.982 113.113  0.00  0.00    -0.241 OA
ENDBRANCH   3  22
TORSDOF 7
ENDMDL
MODEL 9
REMARK VINA RESULT:      -4.5      2.573      4.437
REMARK  7 active torsions:
REMARK  status: ('A' for Active; 'I' for Inactive)
REMARK    1  A    between atoms: C_2  and  C_3 
REMARK    2  A    between atoms: C_3  and  O_6 
REMARK    3  A    between atoms: C_3  and  C_4 
REMARK    4  A    between atoms: C_7  and  O_6 
REMARK    5  A    between atoms: C_9  and  C_10 
REMARK    6  A    between atoms: N_15  and  C_14 
REMARK    7  A    between atoms: N_20  and  C_19 
REMARK       I    between atoms: C_22  and  N_20 
ROOT
ATOM      1  C   LIG d   1      -2.678  78.439 115.951  0.00  0.00     0.161 C 
ATOM      2  C   LIG d   1      -3.727  77.642 115.461  0.00  0.00     0.016 C 
ATOM      3  C   LIG d   1      -3.542  76.330 114.966  0.00  0.00     0.038 C 
ATOM      4  C   LIG d   1      -2.310  75.666 115.069  0.00  0.00     0.028 C 
ATOM      5  C   LIG d   1      -1.113  76.610 115.092  0.00  0.00    -0.047 C 
ATOM      6  C   LIG d   1      -1.347  77.691 116.173  0.00  0.00     0.091 C 
ENDROOT
BRANCH   1   7
ATOM      7  O   LIG d   1      -3.091  79.098 117.164  0.00  0.00    -0.368 OA
BRANCH   7   8
ATOM      8  C   LIG d   1      -3.920  80.275 116.999  0.00  0.00     0.119 C 
BRANCH   8   9
ATOM      9  C   LIG d   1      -3.107  81.304 116.190  0.00  0.00     0.028 C 
ATOM     10  C   LIG d   1      -2.044  82.016 117.044  0.00  0.00     0.006 C 
ENDBRANCH   8   9
BRANCH   8  11
ATOM     11  C   LIG d   1      -4.202  80.950 118.345  0.00  0.00     0.028 C 
ATOM     12  C   LIG d   1      -5.639  81.486 118.452  0.00  0.00     0.006 C 
ENDBRANCH   8  11
ENDBRANCH   7   8
ENDBRANCH   1   7
BRANCH   6  13
ATOM     13  N   LIG d   1      -0.261  78.705 116.205  0.00  0.00    -0.311 N 
ATOM     14  C   LIG d   1       0.340  79.100 117.326  0.00  0.00     0.210 C 
ATOM     15  C   LIG d   1       1.420  80.170 117.139  0.00  0.00     0.109 C 
ATOM     16  O   LIG d   1       0.104  78.642 118.455  0.00  0.00    -0.276 OA
ATOM     17  H   LIG d   1       0.015  79.106 115.330  0.00  0.00     0.149 HD
ENDBRANCH   6  13
BRANCH   5  18
ATOM     18  N   LIG d   1       0.092  75.796 115.340  0.00  0.00     0.381 N 
ATOM     19  H   LIG d   1       0.754  76.324 115.873  0.00  0.00    -0.090 HD
ATOM     20  H   LIG d   1       0.512  75.561 114.459  0.00  0.00    -0.090 HD
ATOM     21  H   LIG d   1      -0.153  74.965 115.832  0.00  0.00    -0.090 HD
ENDBRANCH   5  18
BRANCH   3  22
ATOM     22  C   LIG d   1      -4.587  75.684 114.325  0.00  0.00     0.382 C 
ATOM     23  O   LIG d   1      -5.050  76.149 113.255  0.00  0.00    -0.241 OA
ATOM     24  O   LIG d   1      -5.103  74.666 114.825  0.00  0.00    -0.241 OA
ENDBRANCH   3  22
TORSDOF 7
ENDMDL
