MODEL 1
REMARK VINA RESULT:      -5.6      0.000      0.000
REMARK  7 active torsions:
REMARK  status: ('A' for Active; 'I' for Inactive)
REMARK    1  A    between atoms: C_2  and  C_3 
REMARK    2  A    between atoms: C_3  and  O_6 
REMARK    3  A    between atoms: C_3  and  C_4 
REMARK    4  A    between atoms: C_7  and  O_6 
REMARK    5  A    between atoms: C_9  and  C_10 
REMARK    6  A    between atoms: N_15  and  C_14 
REMARK    7  A    between atoms: N_20  and  C_19 
REMARK       I    between atoms: C_22  and  N_20 
ROOT
ATOM      1  C   LIG d   1      -2.871  76.890 113.304  0.00  0.00     0.161 C 
ATOM      2  C   LIG d   1      -2.596  78.156 112.759  0.00  0.00     0.016 C 
ATOM      3  C   LIG d   1      -2.467  79.328 113.539  0.00  0.00     0.038 C 
ATOM      4  C   LIG d   1      -2.454  79.287 114.941  0.00  0.00     0.028 C 
ATOM      5  C   LIG d   1      -3.231  78.110 115.521  0.00  0.00    -0.047 C 
ATOM      6  C   LIG d   1      -2.750  76.808 114.840  0.00  0.00     0.091 C 
ENDROOT
BRANCH   1   7
ATOM      7  O   LIG d   1      -2.032  75.898 112.681  0.00  0.00    -0.368 OA
BRANCH   7   8
ATOM      8  C   LIG d   1      -0.606  76.049 112.887  0.00  0.00     0.119 C 
BRANCH   8   9
ATOM      9  C   LIG d   1       0.077  75.910 111.512  0.00  0.00     0.028 C 
ATOM     10  C   LIG d   1       1.439  75.201 111.602  0.00  0.00     0.006 C 
ENDBRANCH   8   9
BRANCH   8  11
ATOM     11  C   LIG d   1      -0.041  74.907 113.737  0.00  0.00     0.028 C 
ATOM     12  C   LIG d   1       0.420  75.371 115.127  0.00  0.00     0.006 C 
ENDBRANCH   8  11
ENDBRANCH   7   8
ENDBRANCH   1   7
BRANCH   6  13
ATOM     13  N   LIG d   1      -3.517  75.617 115.289  0.00  0.00    -0.311 N 
ATOM     14  C   LIG d   1      -4.832  75.486 115.120  0.00  0.00     0.210 C 
ATOM     15  C   LIG d   1      -5.428  74.188 115.674  0.00  0.00     0.109 C 
ATOM     16  O   LIG d   1      -5.555  76.306 114.536  0.00  0.00    -0.276 OA
ATOM     17  H   LIG d   1      -3.003  74.888 115.744  0.00  0.00     0.149 HD
ENDBRANCH   6  13
BRANCH   5  18
ATOM     18  N   LIG d   1      -3.019  78.111 116.980  0.00  0.00     0.381 N 
ATOM     19  H   LIG d   1      -2.950  77.171 117.314  0.00  0.00    -0.090 HD
ATOM     20  H   LIG d   1      -3.810  78.545 117.423  0.00  0.00    -0.090 HD
ATOM     21  H   LIG d   1      -2.188  78.613 117.204  0.00  0.00    -0.090 HD
ENDBRANCH   5  18
BRANCH   3  22
ATOM     22  C   LIG d   1      -2.389  80.563 112.915  0.00  0.00     0.382 C 
ATOM     23  O   LIG d   1      -1.293  80.966 112.456  0.00  0.00    -0.241 OA
ATOM     24  O   LIG d   1      -3.391  81.300 112.845  0.00  0.00    -0.241 OA
ENDBRANCH   3  22
TORSDOF 7
ENDMDL
MODEL 2
REMARK VINA RESULT:      -5.5      3.251      5.952
REMARK  7 active torsions:
REMARK  status: ('A' for Active; 'I' for Inactive)
REMARK    1  A    between atoms: C_2  and  C_3 
REMARK    2  A    between atoms: C_3  and  O_6 
REMARK    3  A    between atoms: C_3  and  C_4 
REMARK    4  A    between atoms: C_7  and  O_6 
REMARK    5  A    between atoms: C_9  and  C_10 
REMARK    6  A    between atoms: N_15  and  C_14 
REMARK    7  A    between atoms: N_20  and  C_19 
REMARK       I    between atoms: C_22  and  N_20 
ROOT
ATOM      1  C   LIG d   1      -1.325  79.808 113.094  0.00  0.00     0.161 C 
ATOM      2  C   LIG d   1      -2.398  78.922 112.901  0.00  0.00     0.016 C 
ATOM      3  C   LIG d   1      -2.396  77.898 111.926  0.00  0.00     0.038 C 
ATOM      4  C   LIG d   1      -1.252  77.593 111.173  0.00  0.00     0.028 C 
ATOM      5  C   LIG d   1      -0.319  78.783 110.980  0.00  0.00    -0.047 C 
ATOM      6  C   LIG d   1      -0.025  79.420 112.358  0.00  0.00     0.091 C 
ENDROOT
BRANCH   1   7
ATOM      7  O   LIG d   1      -1.073  79.971 114.504  0.00  0.00    -0.368 OA
BRANCH   7   8
ATOM      8  C   LIG d   1      -1.390  78.833 115.343  0.00  0.00     0.119 C 
BRANCH   8   9
ATOM      9  C   LIG d   1      -1.951  79.379 116.671  0.00  0.00     0.028 C 
ATOM     10  C   LIG d   1      -3.485  79.297 116.737  0.00  0.00     0.006 C 
ENDBRANCH   8   9
BRANCH   8  11
ATOM     11  C   LIG d   1      -0.127  78.055 115.726  0.00  0.00     0.028 C 
ATOM     12  C   LIG d   1      -0.083  76.650 115.106  0.00  0.00     0.006 C 
ENDBRANCH   8  11
ENDBRANCH   7   8
ENDBRANCH   1   7
BRANCH   6  13
ATOM     13  N   LIG d   1       0.813  80.642 112.251  0.00  0.00    -0.311 N 
ATOM     14  C   LIG d   1       0.392  81.773 111.689  0.00  0.00     0.210 C 
ATOM     15  C   LIG d   1       1.422  82.907 111.665  0.00  0.00     0.109 C 
ATOM     16  O   LIG d   1      -0.749  81.956 111.237  0.00  0.00    -0.276 OA
ATOM     17  H   LIG d   1       1.742  80.591 112.621  0.00  0.00     0.149 HD
ENDBRANCH   6  13
BRANCH   5  18
ATOM     18  N   LIG d   1       0.895  78.293 110.300  0.00  0.00     0.381 N 
ATOM     19  H   LIG d   1       1.465  77.787 110.948  0.00  0.00    -0.090 HD
ATOM     20  H   LIG d   1       1.421  79.081 109.965  0.00  0.00    -0.090 HD
ATOM     21  H   LIG d   1       0.643  77.703 109.537  0.00  0.00    -0.090 HD
ENDBRANCH   5  18
BRANCH   3  22
ATOM     22  C   LIG d   1      -3.562  77.193 111.667  0.00  0.00     0.382 C 
ATOM     23  O   LIG d   1      -4.324  76.875 112.612  0.00  0.00    -0.241 OA
ATOM     24  O   LIG d   1      -3.838  76.833 110.508  0.00  0.00    -0.241 OA
ENDBRANCH   3  22
TORSDOF 7
ENDMDL
MODEL 3
REMARK VINA RESULT:      -5.3      2.262      4.331
REMARK  7 active torsions:
REMARK  status: ('A' for Active; 'I' for Inactive)
REMARK    1  A    between atoms: C_2  and  C_3 
REMARK    2  A    between atoms: C_3  and  O_6 
REMARK    3  A    between atoms: C_3  and  C_4 
REMARK    4  A    between atoms: C_7  and  O_6 
REMARK    5  A    between atoms: C_9  and  C_10 
REMARK    6  A    between atoms: N_15  and  C_14 
REMARK    7  A    between atoms: N_20  and  C_19 
REMARK       I    between atoms: C_22  and  N_20 
ROOT
ATOM      1  C   LIG d   1      -2.168  78.667 114.301  0.00  0.00     0.161 C 
ATOM      2  C   LIG d   1      -1.429  79.738 113.772  0.00  0.00     0.016 C 
ATOM      3  C   LIG d   1      -0.884  79.737 112.467  0.00  0.00     0.038 C 
ATOM      4  C   LIG d   1      -1.172  78.721 111.544  0.00  0.00     0.028 C 
ATOM      5  C   LIG d   1      -1.494  77.382 112.198  0.00  0.00    -0.047 C 
ATOM      6  C   LIG d   1      -2.587  77.597 113.271  0.00  0.00     0.091 C 
ENDROOT
BRANCH   1   7
ATOM      7  O   LIG d   1      -3.325  79.169 114.999  0.00  0.00    -0.368 OA
BRANCH   7   8
ATOM      8  C   LIG d   1      -3.197  79.297 116.436  0.00  0.00     0.119 C 
BRANCH   8   9
ATOM      9  C   LIG d   1      -2.247  78.183 116.917  0.00  0.00     0.028 C 
ATOM     10  C   LIG d   1      -2.992  77.045 117.635  0.00  0.00     0.006 C 
ENDBRANCH   8   9
BRANCH   8  11
ATOM     11  C   LIG d   1      -4.529  79.025 117.141  0.00  0.00     0.028 C 
ATOM     12  C   LIG d   1      -5.055  80.247 117.912  0.00  0.00     0.006 C 
ENDBRANCH   8  11
ENDBRANCH   7   8
ENDBRANCH   1   7
BRANCH   6  13
ATOM     13  N   LIG d   1      -2.901  76.352 114.018  0.00  0.00    -0.311 N 
ATOM     14  C   LIG d   1      -4.139  75.888 114.182  0.00  0.00     0.210 C 
ATOM     15  C   LIG d   1      -4.243  74.598 115.002  0.00  0.00     0.109 C 
ATOM     16  O   LIG d   1      -5.158  76.405 113.698  0.00  0.00    -0.276 OA
ATOM     17  H   LIG d   1      -2.131  75.852 114.416  0.00  0.00     0.149 HD
ENDBRANCH   6  13
BRANCH   5  18
ATOM     18  N   LIG d   1      -1.908  76.452 111.130  0.00  0.00     0.381 N 
ATOM     19  H   LIG d   1      -1.396  76.648 110.293  0.00  0.00    -0.090 HD
ATOM     20  H   LIG d   1      -2.886  76.588 110.941  0.00  0.00    -0.090 HD
ATOM     21  H   LIG d   1      -1.746  75.511 111.415  0.00  0.00    -0.090 HD
ENDBRANCH   5  18
BRANCH   3  22
ATOM     22  C   LIG d   1      -0.008  80.743 112.088  0.00  0.00     0.382 C 
ATOM     23  O   LIG d   1      -0.036  81.190 110.916  0.00  0.00    -0.241 OA
ATOM     24  O   LIG d   1       0.840  81.177 112.890  0.00  0.00    -0.241 OA
ENDBRANCH   3  22
TORSDOF 7
ENDMDL
MODEL 4
REMARK VINA RESULT:      -5.2      2.956      5.933
REMARK  7 active torsions:
REMARK  status: ('A' for Active; 'I' for Inactive)
REMARK    1  A    between atoms: C_2  and  C_3 
REMARK    2  A    between atoms: C_3  and  O_6 
REMARK    3  A    between atoms: C_3  and  C_4 
REMARK    4  A    between atoms: C_7  and  O_6 
REMARK    5  A    between atoms: C_9  and  C_10 
REMARK    6  A    between atoms: N_15  and  C_14 
REMARK    7  A    between atoms: N_20  and  C_19 
REMARK       I    between atoms: C_22  and  N_20 
ROOT
ATOM      1  C   LIG d   1      -1.844  79.537 113.943  0.00  0.00     0.161 C 
ATOM      2  C   LIG d   1      -2.503  78.345 114.284  0.00  0.00     0.016 C 
ATOM      3  C   LIG d   1      -2.648  77.254 113.395  0.00  0.00     0.038 C 
ATOM      4  C   LIG d   1      -2.008  77.225 112.147  0.00  0.00     0.028 C 
ATOM      5  C   LIG d   1      -1.755  78.610 111.563  0.00  0.00    -0.047 C 
ATOM      6  C   LIG d   1      -1.043  79.480 112.625  0.00  0.00     0.091 C 
ENDROOT
BRANCH   1   7
ATOM      7  O   LIG d   1      -0.992  79.953 115.029  0.00  0.00    -0.368 OA
BRANCH   7   8
ATOM      8  C   LIG d   1      -0.961  79.079 116.184  0.00  0.00     0.119 C 
BRANCH   8   9
ATOM      9  C   LIG d   1      -1.004  79.971 117.440  0.00  0.00     0.028 C 
ATOM     10  C   LIG d   1       0.230  80.881 117.556  0.00  0.00     0.006 C 
ENDBRANCH   8   9
BRANCH   8  11
ATOM     11  C   LIG d   1       0.365  78.318 116.272  0.00  0.00     0.028 C 
ATOM     12  C   LIG d   1       0.174  76.815 116.526  0.00  0.00     0.006 C 
ENDBRANCH   8  11
ENDBRANCH   7   8
ENDBRANCH   1   7
BRANCH   6  13
ATOM     13  N   LIG d   1      -0.833  80.878 112.165  0.00  0.00    -0.311 N 
ATOM     14  C   LIG d   1       0.273  81.288 111.548  0.00  0.00     0.210 C 
ATOM     15  C   LIG d   1       0.293  82.774 111.176  0.00  0.00     0.109 C 
ATOM     16  O   LIG d   1       1.227  80.555 111.244  0.00  0.00    -0.276 OA
ATOM     17  H   LIG d   1      -1.570  81.532 112.343  0.00  0.00     0.149 HD
ENDBRANCH   6  13
BRANCH   5  18
ATOM     18  N   LIG d   1      -0.961  78.437 110.332  0.00  0.00     0.381 N 
ATOM     19  H   LIG d   1      -1.460  77.858 109.686  0.00  0.00    -0.090 HD
ATOM     20  H   LIG d   1      -0.097  77.979 110.564  0.00  0.00    -0.090 HD
ATOM     21  H   LIG d   1      -0.775  79.324 109.919  0.00  0.00    -0.090 HD
ENDBRANCH   5  18
BRANCH   3  22
ATOM     22  C   LIG d   1      -3.474  76.195 113.737  0.00  0.00     0.382 C 
ATOM     23  O   LIG d   1      -3.015  75.226 114.389  0.00  0.00    -0.241 OA
ATOM     24  O   LIG d   1      -4.662  76.174 113.363  0.00  0.00    -0.241 OA
ENDBRANCH   3  22
TORSDOF 7
ENDMDL
MODEL 5
REMARK VINA RESULT:      -5.2      2.296      4.684
REMARK  7 active torsions:
REMARK  status: ('A' for Active; 'I' for Inactive)
REMARK    1  A    between atoms: C_2  and  C_3 
REMARK    2  A    between atoms: C_3  and  O_6 
REMARK    3  A    between atoms: C_3  and  C_4 
REMARK    4  A    between atoms: C_7  and  O_6 
REMARK    5  A    between atoms: C_9  and  C_10 
REMARK    6  A    between atoms: N_15  and  C_14 
REMARK    7  A    between atoms: N_20  and  C_19 
REMARK       I    between atoms: C_22  and  N_20 
ROOT
ATOM      1  C   LIG d   1      -2.626  78.296 115.467  0.00  0.00     0.161 C 
ATOM      2  C   LIG d   1      -2.800  79.442 114.674  0.00  0.00     0.016 C 
ATOM      3  C   LIG d   1      -2.138  79.643 113.441  0.00  0.00     0.038 C 
ATOM      4  C   LIG d   1      -1.367  78.637 112.841  0.00  0.00     0.028 C 
ATOM      5  C   LIG d   1      -0.758  77.662 113.843  0.00  0.00    -0.047 C 
ATOM      6  C   LIG d   1      -1.874  77.139 114.776  0.00  0.00     0.091 C 
ENDROOT
BRANCH   1   7
ATOM      7  O   LIG d   1      -3.903  77.842 115.958  0.00  0.00    -0.368 OA
BRANCH   7   8
ATOM      8  C   LIG d   1      -4.189  78.128 117.349  0.00  0.00     0.119 C 
BRANCH   8   9
ATOM      9  C   LIG d   1      -4.906  79.491 117.403  0.00  0.00     0.028 C 
ATOM     10  C   LIG d   1      -6.344  79.378 117.938  0.00  0.00     0.006 C 
ENDBRANCH   8   9
BRANCH   8  11
ATOM     11  C   LIG d   1      -2.902  78.315 118.156  0.00  0.00     0.028 C 
ATOM     12  C   LIG d   1      -2.656  77.176 119.159  0.00  0.00     0.006 C 
ENDBRANCH   8  11
ENDBRANCH   7   8
ENDBRANCH   1   7
BRANCH   6  13
ATOM     13  N   LIG d   1      -1.351  76.244 115.840  0.00  0.00    -0.311 N 
ATOM     14  C   LIG d   1      -1.331  74.916 115.737  0.00  0.00     0.210 C 
ATOM     15  C   LIG d   1      -0.767  74.181 116.957  0.00  0.00     0.109 C 
ATOM     16  O   LIG d   1      -1.698  74.279 114.738  0.00  0.00    -0.276 OA
ATOM     17  H   LIG d   1      -1.004  76.679 116.673  0.00  0.00     0.149 HD
ENDBRANCH   6  13
BRANCH   5  18
ATOM     18  N   LIG d   1      -0.097  76.589 113.075  0.00  0.00     0.381 N 
ATOM     19  H   LIG d   1       0.896  76.686 113.144  0.00  0.00    -0.090 HD
ATOM     20  H   LIG d   1      -0.356  76.674 112.108  0.00  0.00    -0.090 HD
ATOM     21  H   LIG d   1      -0.376  75.699 113.424  0.00  0.00    -0.090 HD
ENDBRANCH   5  18
BRANCH   3  22
ATOM     22  C   LIG d   1      -2.213  80.878 112.814  0.00  0.00     0.382 C 
ATOM     23  O   LIG d   1      -3.320  81.458 112.702  0.00  0.00    -0.241 OA
ATOM     24  O   LIG d   1      -1.195  81.398 112.320  0.00  0.00    -0.241 OA
ENDBRANCH   3  22
TORSDOF 7
ENDMDL
MODEL 6
REMARK VINA RESULT:      -5.1      1.893      4.142
REMARK  7 active torsions:
REMARK  status: ('A' for Active; 'I' for Inactive)
REMARK    1  A    between atoms: C_2  and  C_3 
REMARK    2  A    between atoms: C_3  and  O_6 
REMARK    3  A    between atoms: C_3  and  C_4 
REMARK    4  A    between atoms: C_7  and  O_6 
REMARK    5  A    between atoms: C_9  and  C_10 
REMARK    6  A    between atoms: N_15  and  C_14 
REMARK    7  A    between atoms: N_20  and  C_19 
REMARK       I    between atoms: C_22  and  N_20 
ROOT
ATOM      1  C   LIG d   1      -2.521  77.516 114.520  0.00  0.00     0.161 C 
ATOM      2  C   LIG d   1      -2.790  78.838 114.127  0.00  0.00     0.016 C 
ATOM      3  C   LIG d   1      -2.301  79.409 112.929  0.00  0.00     0.038 C 
ATOM      4  C   LIG d   1      -1.630  78.644 111.963  0.00  0.00     0.028 C 
ATOM      5  C   LIG d   1      -0.901  77.437 112.545  0.00  0.00    -0.047 C 
ATOM      6  C   LIG d   1      -1.885  76.633 113.426  0.00  0.00     0.091 C 
ENDROOT
BRANCH   1   7
ATOM      7  O   LIG d   1      -3.724  76.902 115.023  0.00  0.00    -0.368 OA
BRANCH   7   8
ATOM      8  C   LIG d   1      -4.140  75.681 114.362  0.00  0.00     0.119 C 
BRANCH   8   9
ATOM      9  C   LIG d   1      -5.531  75.937 113.750  0.00  0.00     0.028 C 
ATOM     10  C   LIG d   1      -6.648  75.926 114.807  0.00  0.00     0.006 C 
ENDBRANCH   8   9
BRANCH   8  11
ATOM     11  C   LIG d   1      -4.343  74.545 115.369  0.00  0.00     0.028 C 
ATOM     12  C   LIG d   1      -3.620  74.793 116.702  0.00  0.00     0.006 C 
ENDBRANCH   8  11
ENDBRANCH   7   8
ENDBRANCH   1   7
BRANCH   6  13
ATOM     13  N   LIG d   1      -1.230  75.482 114.101  0.00  0.00    -0.311 N 
ATOM     14  C   LIG d   1      -0.285  75.618 115.029  0.00  0.00     0.210 C 
ATOM     15  C   LIG d   1       0.271  74.302 115.583  0.00  0.00     0.109 C 
ATOM     16  O   LIG d   1       0.123  76.703 115.470  0.00  0.00    -0.276 OA
ATOM     17  H   LIG d   1      -1.523  74.565 113.826  0.00  0.00     0.149 HD
ENDBRANCH   6  13
BRANCH   5  18
ATOM     18  N   LIG d   1      -0.364  76.655 111.416  0.00  0.00     0.381 N 
ATOM     19  H   LIG d   1      -0.214  75.707 111.701  0.00  0.00    -0.090 HD
ATOM     20  H   LIG d   1       0.521  77.045 111.141  0.00  0.00    -0.090 HD
ATOM     21  H   LIG d   1      -0.999  76.681 110.649  0.00  0.00    -0.090 HD
ENDBRANCH   5  18
BRANCH   3  22
ATOM     22  C   LIG d   1      -2.446  80.770 112.707  0.00  0.00     0.382 C 
ATOM     23  O   LIG d   1      -1.437  81.479 112.476  0.00  0.00    -0.241 OA
ATOM     24  O   LIG d   1      -3.569  81.305 112.779  0.00  0.00    -0.241 OA
ENDBRANCH   3  22
TORSDOF 7
ENDMDL
MODEL 7
REMARK VINA RESULT:      -5.1      2.013      4.335
REMARK  7 active torsions:
REMARK  status: ('A' for Active; 'I' for Inactive)
REMARK    1  A    between atoms: C_2  and  C_3 
REMARK    2  A    between atoms: C_3  and  O_6 
REMARK    3  A    between atoms: C_3  and  C_4 
REMARK    4  A    between atoms: C_7  and  O_6 
REMARK    5  A    between atoms: C_9  and  C_10 
REMARK    6  A    between atoms: N_15  and  C_14 
REMARK    7  A    between atoms: N_20  and  C_19 
REMARK       I    between atoms: C_22  and  N_20 
ROOT
ATOM      1  C   LIG d   1      -2.595  77.593 114.420  0.00  0.00     0.161 C 
ATOM      2  C   LIG d   1      -2.851  78.915 114.018  0.00  0.00     0.016 C 
ATOM      3  C   LIG d   1      -2.229  79.524 112.904  0.00  0.00     0.038 C 
ATOM      4  C   LIG d   1      -1.416  78.799 112.020  0.00  0.00     0.028 C 
ATOM      5  C   LIG d   1      -0.732  77.601 112.671  0.00  0.00    -0.047 C 
ATOM      6  C   LIG d   1      -1.796  76.752 113.403  0.00  0.00     0.091 C 
ENDROOT
BRANCH   1   7
ATOM      7  O   LIG d   1      -3.833  76.935 114.752  0.00  0.00    -0.368 OA
BRANCH   7   8
ATOM      8  C   LIG d   1      -3.962  76.470 116.118  0.00  0.00     0.119 C 
BRANCH   8   9
ATOM      9  C   LIG d   1      -4.552  75.048 116.070  0.00  0.00     0.028 C 
ATOM     10  C   LIG d   1      -4.910  74.609 114.640  0.00  0.00     0.006 C 
ENDBRANCH   8   9
BRANCH   8  11
ATOM     11  C   LIG d   1      -4.982  77.306 116.897  0.00  0.00     0.028 C 
ATOM     12  C   LIG d   1      -5.914  76.449 117.768  0.00  0.00     0.006 C 
ENDBRANCH   8  11
ENDBRANCH   7   8
ENDBRANCH   1   7
BRANCH   6  13
ATOM     13  N   LIG d   1      -1.199  75.606 114.137  0.00  0.00    -0.311 N 
ATOM     14  C   LIG d   1      -0.307  75.747 115.116  0.00  0.00     0.210 C 
ATOM     15  C   LIG d   1       0.196  74.435 115.727  0.00  0.00     0.109 C 
ATOM     16  O   LIG d   1       0.092  76.835 115.558  0.00  0.00    -0.276 OA
ATOM     17  H   LIG d   1      -1.491  74.687 113.864  0.00  0.00     0.149 HD
ENDBRANCH   6  13
BRANCH   5  18
ATOM     18  N   LIG d   1      -0.029  76.858 111.608  0.00  0.00     0.381 N 
ATOM     19  H   LIG d   1       0.593  77.471 111.121  0.00  0.00    -0.090 HD
ATOM     20  H   LIG d   1      -0.707  76.509 110.953  0.00  0.00    -0.090 HD
ATOM     21  H   LIG d   1       0.482  76.099 112.003  0.00  0.00    -0.090 HD
ENDBRANCH   5  18
BRANCH   3  22
ATOM     22  C   LIG d   1      -2.386  80.885 112.688  0.00  0.00     0.382 C 
ATOM     23  O   LIG d   1      -1.390  81.595 112.411  0.00  0.00    -0.241 OA
ATOM     24  O   LIG d   1      -3.505  81.419 112.811  0.00  0.00    -0.241 OA
ENDBRANCH   3  22
TORSDOF 7
ENDMDL
MODEL 8
REMARK VINA RESULT:      -5.0      2.263      2.849
REMARK  7 active torsions:
REMARK  status: ('A' for Active; 'I' for Inactive)
REMARK    1  A    between atoms: C_2  and  C_3 
REMARK    2  A    between atoms: C_3  and  O_6 
REMARK    3  A    between atoms: C_3  and  C_4 
REMARK    4  A    between atoms: C_7  and  O_6 
REMARK    5  A    between atoms: C_9  and  C_10 
REMARK    6  A    between atoms: N_15  and  C_14 
REMARK    7  A    between atoms: N_20  and  C_19 
REMARK       I    between atoms: C_22  and  N_20 
ROOT
ATOM      1  C   LIG d   1      -1.652  76.701 112.287  0.00  0.00     0.161 C 
ATOM      2  C   LIG d   1      -0.788  77.182 111.289  0.00  0.00     0.016 C 
ATOM      3  C   LIG d   1      -0.340  78.521 111.227  0.00  0.00     0.038 C 
ATOM      4  C   LIG d   1      -0.606  79.440 112.253  0.00  0.00     0.028 C 
ATOM      5  C   LIG d   1      -1.889  79.137 113.020  0.00  0.00    -0.047 C 
ATOM      6  C   LIG d   1      -1.864  77.661 113.477  0.00  0.00     0.091 C 
ENDROOT
BRANCH   1   7
ATOM      7  O   LIG d   1      -1.192  75.417 112.755  0.00  0.00    -0.368 OA
BRANCH   7   8
ATOM      8  C   LIG d   1      -0.050  75.436 113.645  0.00  0.00     0.119 C 
BRANCH   8   9
ATOM      9  C   LIG d   1       0.960  74.395 113.124  0.00  0.00     0.028 C 
ATOM     10  C   LIG d   1       1.440  74.707 111.696  0.00  0.00     0.006 C 
ENDBRANCH   8   9
BRANCH   8  11
ATOM     11  C   LIG d   1      -0.431  74.962 115.051  0.00  0.00     0.028 C 
ATOM     12  C   LIG d   1       0.573  75.411 116.124  0.00  0.00     0.006 C 
ENDBRANCH   8  11
ENDBRANCH   7   8
ENDBRANCH   1   7
BRANCH   6  13
ATOM     13  N   LIG d   1      -3.120  77.258 114.161  0.00  0.00    -0.311 N 
ATOM     14  C   LIG d   1      -3.266  77.260 115.485  0.00  0.00     0.210 C 
ATOM     15  C   LIG d   1      -4.636  76.789 115.985  0.00  0.00     0.109 C 
ATOM     16  O   LIG d   1      -2.403  77.637 116.292  0.00  0.00    -0.276 OA
ATOM     17  H   LIG d   1      -3.883  76.967 113.582  0.00  0.00     0.149 HD
ENDBRANCH   6  13
BRANCH   5  18
ATOM     18  N   LIG d   1      -1.972  80.089 114.144  0.00  0.00     0.381 N 
ATOM     19  H   LIG d   1      -1.678  80.996 113.842  0.00  0.00    -0.090 HD
ATOM     20  H   LIG d   1      -1.352  79.784 114.874  0.00  0.00    -0.090 HD
ATOM     21  H   LIG d   1      -2.906  80.131 114.487  0.00  0.00    -0.090 HD
ENDBRANCH   5  18
BRANCH   3  22
ATOM     22  C   LIG d   1       0.351  78.963 110.110  0.00  0.00     0.382 C 
ATOM     23  O   LIG d   1       1.403  78.380 109.751  0.00  0.00    -0.241 OA
ATOM     24  O   LIG d   1      -0.039  79.965 109.481  0.00  0.00    -0.241 OA
ENDBRANCH   3  22
TORSDOF 7
ENDMDL
MODEL 9
REMARK VINA RESULT:      -4.8      2.830      5.343
REMARK  7 active torsions:
REMARK  status: ('A' for Active; 'I' for Inactive)
REMARK    1  A    between atoms: C_2  and  C_3 
REMARK    2  A    between atoms: C_3  and  O_6 
REMARK    3  A    between atoms: C_3  and  C_4 
REMARK    4  A    between atoms: C_7  and  O_6 
REMARK    5  A    between atoms: C_9  and  C_10 
REMARK    6  A    between atoms: N_15  and  C_14 
REMARK    7  A    between atoms: N_20  and  C_19 
REMARK       I    between atoms: C_22  and  N_20 
ROOT
ATOM      1  C   LIG d   1      -1.326  78.066 114.283  0.00  0.00     0.161 C 
ATOM      2  C   LIG d   1      -2.360  77.219 114.716  0.00  0.00     0.016 C 
ATOM      3  C   LIG d   1      -3.302  76.630 113.841  0.00  0.00     0.038 C 
ATOM      4  C   LIG d   1      -3.181  76.729 112.447  0.00  0.00     0.028 C 
ATOM      5  C   LIG d   1      -2.449  77.986 111.989  0.00  0.00    -0.047 C 
ATOM      6  C   LIG d   1      -1.111  78.095 112.755  0.00  0.00     0.091 C 
ENDROOT
BRANCH   1   7
ATOM      7  O   LIG d   1      -0.099  77.721 114.955  0.00  0.00    -0.368 OA
BRANCH   7   8
ATOM      8  C   LIG d   1      -0.146  76.549 115.806  0.00  0.00     0.119 C 
BRANCH   8   9
ATOM      9  C   LIG d   1       0.521  76.922 117.145  0.00  0.00     0.028 C 
ATOM     10  C   LIG d   1      -0.498  77.069 118.287  0.00  0.00     0.006 C 
ENDBRANCH   8   9
BRANCH   8  11
ATOM     11  C   LIG d   1       0.704  75.410 115.234  0.00  0.00     0.028 C 
ATOM     12  C   LIG d   1      -0.142  74.311 114.573  0.00  0.00     0.006 C 
ENDBRANCH   8  11
ENDBRANCH   7   8
ENDBRANCH   1   7
BRANCH   6  13
ATOM     13  N   LIG d   1      -0.371  79.342 112.429  0.00  0.00    -0.311 N 
ATOM     14  C   LIG d   1       0.397  79.477 111.349  0.00  0.00     0.210 C 
ATOM     15  C   LIG d   1       1.086  80.839 111.213  0.00  0.00     0.109 C 
ATOM     16  O   LIG d   1       0.547  78.611 110.475  0.00  0.00    -0.276 OA
ATOM     17  H   LIG d   1      -0.461  80.106 113.069  0.00  0.00     0.149 HD
ENDBRANCH   6  13
BRANCH   5  18
ATOM     18  N   LIG d   1      -2.273  77.893 110.528  0.00  0.00     0.381 N 
ATOM     19  H   LIG d   1      -2.973  77.292 110.140  0.00  0.00    -0.090 HD
ATOM     20  H   LIG d   1      -1.372  77.492 110.334  0.00  0.00    -0.090 HD
ATOM     21  H   LIG d   1      -2.337  78.798 110.118  0.00  0.00    -0.090 HD
ENDBRANCH   5  18
BRANCH   3  22
ATOM     22  C   LIG d   1      -4.403  75.967 114.361  0.00  0.00     0.382 C 
ATOM     23  O   LIG d   1      -4.624  74.774 114.042  0.00  0.00    -0.241 OA
ATOM     24  O   LIG d   1      -5.201  76.560 115.111  0.00  0.00    -0.241 OA
ENDBRANCH   3  22
TORSDOF 7
ENDMDL
