MODEL 1
REMARK VINA RESULT:      -5.4      0.000      0.000
REMARK  7 active torsions:
REMARK  status: ('A' for Active; 'I' for Inactive)
REMARK    1  A    between atoms: C_2  and  C_3 
REMARK    2  A    between atoms: C_3  and  O_6 
REMARK    3  A    between atoms: C_3  and  C_4 
REMARK    4  A    between atoms: C_7  and  O_6 
REMARK    5  A    between atoms: C_9  and  C_10 
REMARK    6  A    between atoms: N_15  and  C_14 
REMARK    7  A    between atoms: N_20  and  C_19 
REMARK       I    between atoms: C_22  and  N_20 
ROOT
ATOM      1  C   LIG d   1      -3.378  77.331 115.108  0.00  0.00     0.161 C 
ATOM      2  C   LIG d   1      -3.360  77.759 113.771  0.00  0.00     0.016 C 
ATOM      3  C   LIG d   1      -2.259  77.561 112.905  0.00  0.00     0.038 C 
ATOM      4  C   LIG d   1      -1.153  76.783 113.278  0.00  0.00     0.028 C 
ATOM      5  C   LIG d   1      -0.909  76.759 114.783  0.00  0.00    -0.047 C 
ATOM      6  C   LIG d   1      -2.226  76.382 115.500  0.00  0.00     0.091 C 
ENDROOT
BRANCH   1   7
ATOM      7  O   LIG d   1      -4.651  76.725 115.410  0.00  0.00    -0.368 OA
BRANCH   7   8
ATOM      8  C   LIG d   1      -5.235  75.914 114.361  0.00  0.00     0.119 C 
BRANCH   8   9
ATOM      9  C   LIG d   1      -6.708  76.340 114.213  0.00  0.00     0.028 C 
ATOM     10  C   LIG d   1      -7.115  76.548 112.745  0.00  0.00     0.006 C 
ENDBRANCH   8   9
BRANCH   8  11
ATOM     11  C   LIG d   1      -5.277  74.436 114.757  0.00  0.00     0.028 C 
ATOM     12  C   LIG d   1      -6.120  74.181 116.017  0.00  0.00     0.006 C 
ENDBRANCH   8  11
ENDBRANCH   7   8
ENDBRANCH   1   7
BRANCH   6  13
ATOM     13  N   LIG d   1      -2.096  76.419 116.980  0.00  0.00    -0.311 N 
ATOM     14  C   LIG d   1      -1.918  75.331 117.727  0.00  0.00     0.210 C 
ATOM     15  C   LIG d   1      -1.830  75.589 119.235  0.00  0.00     0.109 C 
ATOM     16  O   LIG d   1      -1.793  74.180 117.282  0.00  0.00    -0.276 OA
ATOM     17  H   LIG d   1      -2.155  77.316 117.421  0.00  0.00     0.149 HD
ENDBRANCH   6  13
BRANCH   5  18
ATOM     18  N   LIG d   1       0.184  75.804 115.043  0.00  0.00     0.381 N 
ATOM     19  H   LIG d   1       0.847  75.836 114.294  0.00  0.00    -0.090 HD
ATOM     20  H   LIG d   1      -0.198  74.876 115.086  0.00  0.00    -0.090 HD
ATOM     21  H   LIG d   1       0.634  76.026 115.903  0.00  0.00    -0.090 HD
ENDBRANCH   5  18
BRANCH   3  22
ATOM     22  C   LIG d   1      -2.240  78.180 111.665  0.00  0.00     0.382 C 
ATOM     23  O   LIG d   1      -1.869  79.374 111.565  0.00  0.00    -0.241 OA
ATOM     24  O   LIG d   1      -2.633  77.573 110.650  0.00  0.00    -0.241 OA
ENDBRANCH   3  22
TORSDOF 7
ENDMDL
MODEL 2
REMARK VINA RESULT:      -5.3      2.373      3.247
REMARK  7 active torsions:
REMARK  status: ('A' for Active; 'I' for Inactive)
REMARK    1  A    between atoms: C_2  and  C_3 
REMARK    2  A    between atoms: C_3  and  O_6 
REMARK    3  A    between atoms: C_3  and  C_4 
REMARK    4  A    between atoms: C_7  and  O_6 
REMARK    5  A    between atoms: C_9  and  C_10 
REMARK    6  A    between atoms: N_15  and  C_14 
REMARK    7  A    between atoms: N_20  and  C_19 
REMARK       I    between atoms: C_22  and  N_20 
ROOT
ATOM      1  C   LIG d   1      -3.098  78.297 115.522  0.00  0.00     0.161 C 
ATOM      2  C   LIG d   1      -3.187  79.319 114.562  0.00  0.00     0.016 C 
ATOM      3  C   LIG d   1      -2.424  79.337 113.372  0.00  0.00     0.038 C 
ATOM      4  C   LIG d   1      -1.625  78.250 112.986  0.00  0.00     0.028 C 
ATOM      5  C   LIG d   1      -1.118  77.424 114.163  0.00  0.00    -0.047 C 
ATOM      6  C   LIG d   1      -2.315  77.048 115.066  0.00  0.00     0.091 C 
ENDROOT
BRANCH   1   7
ATOM      7  O   LIG d   1      -4.419  77.926 115.964  0.00  0.00    -0.368 OA
BRANCH   7   8
ATOM      8  C   LIG d   1      -4.893  78.575 117.170  0.00  0.00     0.119 C 
BRANCH   8   9
ATOM      9  C   LIG d   1      -4.937  77.509 118.282  0.00  0.00     0.028 C 
ATOM     10  C   LIG d   1      -3.809  77.688 119.311  0.00  0.00     0.006 C 
ENDBRANCH   8   9
BRANCH   8  11
ATOM     11  C   LIG d   1      -6.338  79.057 117.012  0.00  0.00     0.028 C 
ATOM     12  C   LIG d   1      -6.546  80.492 117.519  0.00  0.00     0.006 C 
ENDBRANCH   8  11
ENDBRANCH   7   8
ENDBRANCH   1   7
BRANCH   6  13
ATOM     13  N   LIG d   1      -1.896  76.310 116.286  0.00  0.00    -0.311 N 
ATOM     14  C   LIG d   1      -2.540  75.243 116.755  0.00  0.00     0.210 C 
ATOM     15  C   LIG d   1      -1.953  74.644 118.037  0.00  0.00     0.109 C 
ATOM     16  O   LIG d   1      -3.524  74.716 116.214  0.00  0.00    -0.276 OA
ATOM     17  H   LIG d   1      -1.089  76.650 116.770  0.00  0.00     0.149 HD
ENDBRANCH   6  13
BRANCH   5  18
ATOM     18  N   LIG d   1      -0.417  76.248 113.613  0.00  0.00     0.381 N 
ATOM     19  H   LIG d   1      -1.040  75.466 113.583  0.00  0.00    -0.090 HD
ATOM     20  H   LIG d   1       0.352  76.016 114.217  0.00  0.00    -0.090 HD
ATOM     21  H   LIG d   1      -0.080  76.450 112.697  0.00  0.00    -0.090 HD
ENDBRANCH   5  18
BRANCH   3  22
ATOM     22  C   LIG d   1      -2.425  80.470 112.572  0.00  0.00     0.382 C 
ATOM     23  O   LIG d   1      -3.312  81.344 112.725  0.00  0.00    -0.241 OA
ATOM     24  O   LIG d   1      -1.576  80.608 111.671  0.00  0.00    -0.241 OA
ENDBRANCH   3  22
TORSDOF 7
ENDMDL
MODEL 3
REMARK VINA RESULT:      -5.3      1.511      1.775
REMARK  7 active torsions:
REMARK  status: ('A' for Active; 'I' for Inactive)
REMARK    1  A    between atoms: C_2  and  C_3 
REMARK    2  A    between atoms: C_3  and  O_6 
REMARK    3  A    between atoms: C_3  and  C_4 
REMARK    4  A    between atoms: C_7  and  O_6 
REMARK    5  A    between atoms: C_9  and  C_10 
REMARK    6  A    between atoms: N_15  and  C_14 
REMARK    7  A    between atoms: N_20  and  C_19 
REMARK       I    between atoms: C_22  and  N_20 
ROOT
ATOM      1  C   LIG d   1      -2.901  77.689 115.925  0.00  0.00     0.161 C 
ATOM      2  C   LIG d   1      -3.121  78.623 114.899  0.00  0.00     0.016 C 
ATOM      3  C   LIG d   1      -2.364  78.660 113.705  0.00  0.00     0.038 C 
ATOM      4  C   LIG d   1      -1.429  77.663 113.389  0.00  0.00     0.028 C 
ATOM      5  C   LIG d   1      -0.820  76.993 114.616  0.00  0.00    -0.047 C 
ATOM      6  C   LIG d   1      -1.960  76.525 115.550  0.00  0.00     0.091 C 
ENDROOT
BRANCH   1   7
ATOM      7  O   LIG d   1      -4.163  77.179 116.400  0.00  0.00    -0.368 OA
BRANCH   7   8
ATOM      8  C   LIG d   1      -5.252  77.182 115.445  0.00  0.00     0.119 C 
BRANCH   8   9
ATOM      9  C   LIG d   1      -6.538  77.548 116.210  0.00  0.00     0.028 C 
ATOM     10  C   LIG d   1      -6.401  78.865 116.993  0.00  0.00     0.006 C 
ENDBRANCH   8   9
BRANCH   8  11
ATOM     11  C   LIG d   1      -5.501  75.781 114.880  0.00  0.00     0.028 C 
ATOM     12  C   LIG d   1      -6.117  74.823 115.911  0.00  0.00     0.006 C 
ENDBRANCH   8  11
ENDBRANCH   7   8
ENDBRANCH   1   7
BRANCH   6  13
ATOM     13  N   LIG d   1      -1.450  75.933 116.814  0.00  0.00    -0.311 N 
ATOM     14  C   LIG d   1      -1.974  74.846 117.378  0.00  0.00     0.210 C 
ATOM     15  C   LIG d   1      -1.311  74.415 118.690  0.00  0.00     0.109 C 
ATOM     16  O   LIG d   1      -2.904  74.180 116.900  0.00  0.00    -0.276 OA
ATOM     17  H   LIG d   1      -0.677  76.393 117.253  0.00  0.00     0.149 HD
ENDBRANCH   6  13
BRANCH   5  18
ATOM     18  N   LIG d   1       0.030  75.884 114.142  0.00  0.00     0.381 N 
ATOM     19  H   LIG d   1       0.053  75.157 114.829  0.00  0.00    -0.090 HD
ATOM     20  H   LIG d   1       0.967  76.226 114.013  0.00  0.00    -0.090 HD
ATOM     21  H   LIG d   1      -0.323  75.528 113.282  0.00  0.00    -0.090 HD
ENDBRANCH   5  18
BRANCH   3  22
ATOM     22  C   LIG d   1      -2.511  79.726 112.831  0.00  0.00     0.382 C 
ATOM     23  O   LIG d   1      -3.185  80.728 113.172  0.00  0.00    -0.241 OA
ATOM     24  O   LIG d   1      -2.016  79.680 111.689  0.00  0.00    -0.241 OA
ENDBRANCH   3  22
TORSDOF 7
ENDMDL
MODEL 4
REMARK VINA RESULT:      -5.2      1.844      1.995
REMARK  7 active torsions:
REMARK  status: ('A' for Active; 'I' for Inactive)
REMARK    1  A    between atoms: C_2  and  C_3 
REMARK    2  A    between atoms: C_3  and  O_6 
REMARK    3  A    between atoms: C_3  and  C_4 
REMARK    4  A    between atoms: C_7  and  O_6 
REMARK    5  A    between atoms: C_9  and  C_10 
REMARK    6  A    between atoms: N_15  and  C_14 
REMARK    7  A    between atoms: N_20  and  C_19 
REMARK       I    between atoms: C_22  and  N_20 
ROOT
ATOM      1  C   LIG d   1      -3.941  77.112 114.266  0.00  0.00     0.161 C 
ATOM      2  C   LIG d   1      -3.348  77.398 113.025  0.00  0.00     0.016 C 
ATOM      3  C   LIG d   1      -2.297  78.330 112.861  0.00  0.00     0.038 C 
ATOM      4  C   LIG d   1      -1.662  78.932 113.957  0.00  0.00     0.028 C 
ATOM      5  C   LIG d   1      -2.559  79.056 115.184  0.00  0.00    -0.047 C 
ATOM      6  C   LIG d   1      -3.187  77.676 115.488  0.00  0.00     0.091 C 
ENDROOT
BRANCH   1   7
ATOM      7  O   LIG d   1      -4.124  75.689 114.403  0.00  0.00    -0.368 OA
BRANCH   7   8
ATOM      8  C   LIG d   1      -5.495  75.221 114.407  0.00  0.00     0.119 C 
BRANCH   8   9
ATOM      9  C   LIG d   1      -6.407  76.454 114.259  0.00  0.00     0.028 C 
ATOM     10  C   LIG d   1      -7.129  76.490 112.902  0.00  0.00     0.006 C 
ENDBRANCH   8   9
BRANCH   8  11
ATOM     11  C   LIG d   1      -5.869  74.601 115.757  0.00  0.00     0.028 C 
ATOM     12  C   LIG d   1      -7.113  75.248 116.386  0.00  0.00     0.006 C 
ENDBRANCH   8  11
ENDBRANCH   7   8
ENDBRANCH   1   7
BRANCH   6  13
ATOM     13  N   LIG d   1      -4.145  77.727 116.623  0.00  0.00    -0.311 N 
ATOM     14  C   LIG d   1      -3.951  77.087 117.775  0.00  0.00     0.210 C 
ATOM     15  C   LIG d   1      -5.072  77.257 118.805  0.00  0.00     0.109 C 
ATOM     16  O   LIG d   1      -2.943  76.420 118.053  0.00  0.00    -0.276 OA
ATOM     17  H   LIG d   1      -4.976  78.271 116.495  0.00  0.00     0.149 HD
ENDBRANCH   6  13
BRANCH   5  18
ATOM     18  N   LIG d   1      -1.732  79.572 116.291  0.00  0.00     0.381 N 
ATOM     19  H   LIG d   1      -1.802  80.569 116.330  0.00  0.00    -0.090 HD
ATOM     20  H   LIG d   1      -0.772  79.330 116.119  0.00  0.00    -0.090 HD
ATOM     21  H   LIG d   1      -2.033  79.176 117.154  0.00  0.00    -0.090 HD
ENDBRANCH   5  18
BRANCH   3  22
ATOM     22  C   LIG d   1      -1.898  78.698 111.585  0.00  0.00     0.382 C 
ATOM     23  O   LIG d   1      -1.495  79.866 111.366  0.00  0.00    -0.241 OA
ATOM     24  O   LIG d   1      -1.978  77.890 110.640  0.00  0.00    -0.241 OA
ENDBRANCH   3  22
TORSDOF 7
ENDMDL
MODEL 5
REMARK VINA RESULT:      -5.0      3.025      4.628
REMARK  7 active torsions:
REMARK  status: ('A' for Active; 'I' for Inactive)
REMARK    1  A    between atoms: C_2  and  C_3 
REMARK    2  A    between atoms: C_3  and  O_6 
REMARK    3  A    between atoms: C_3  and  C_4 
REMARK    4  A    between atoms: C_7  and  O_6 
REMARK    5  A    between atoms: C_9  and  C_10 
REMARK    6  A    between atoms: N_15  and  C_14 
REMARK    7  A    between atoms: N_20  and  C_19 
REMARK       I    between atoms: C_22  and  N_20 
ROOT
ATOM      1  C   LIG d   1      -4.916  76.924 117.662  0.00  0.00     0.161 C 
ATOM      2  C   LIG d   1      -5.953  77.859 117.821  0.00  0.00     0.016 C 
ATOM      3  C   LIG d   1      -5.884  79.187 117.341  0.00  0.00     0.038 C 
ATOM      4  C   LIG d   1      -4.827  79.629 116.532  0.00  0.00     0.028 C 
ATOM      5  C   LIG d   1      -3.524  78.873 116.771  0.00  0.00    -0.047 C 
ATOM      6  C   LIG d   1      -3.801  77.355 116.685  0.00  0.00     0.091 C 
ENDROOT
BRANCH   1   7
ATOM      7  O   LIG d   1      -5.462  75.650 117.269  0.00  0.00    -0.368 OA
BRANCH   7   8
ATOM      8  C   LIG d   1      -6.590  75.693 116.360  0.00  0.00     0.119 C 
BRANCH   8   9
ATOM      9  C   LIG d   1      -7.645  74.700 116.884  0.00  0.00     0.028 C 
ATOM     10  C   LIG d   1      -9.059  75.305 116.910  0.00  0.00     0.006 C 
ENDBRANCH   8   9
BRANCH   8  11
ATOM     11  C   LIG d   1      -6.205  75.180 114.969  0.00  0.00     0.028 C 
ATOM     12  C   LIG d   1      -6.157  76.296 113.914  0.00  0.00     0.006 C 
ENDBRANCH   8  11
ENDBRANCH   7   8
ENDBRANCH   1   7
BRANCH   6  13
ATOM     13  N   LIG d   1      -2.596  76.540 116.991  0.00  0.00    -0.311 N 
ATOM     14  C   LIG d   1      -2.148  75.569 116.197  0.00  0.00     0.210 C 
ATOM     15  C   LIG d   1      -0.901  74.840 116.709  0.00  0.00     0.109 C 
ATOM     16  O   LIG d   1      -2.645  75.263 115.103  0.00  0.00    -0.276 OA
ATOM     17  H   LIG d   1      -2.114  76.742 117.844  0.00  0.00     0.149 HD
ENDBRANCH   6  13
BRANCH   5  18
ATOM     18  N   LIG d   1      -2.548  79.340 115.768  0.00  0.00     0.381 N 
ATOM     19  H   LIG d   1      -2.275  78.577 115.181  0.00  0.00    -0.090 HD
ATOM     20  H   LIG d   1      -1.730  79.679 116.244  0.00  0.00    -0.090 HD
ATOM     21  H   LIG d   1      -2.946  80.067 115.217  0.00  0.00    -0.090 HD
ENDBRANCH   5  18
BRANCH   3  22
ATOM     22  C   LIG d   1      -6.862  80.100 117.704  0.00  0.00     0.382 C 
ATOM     23  O   LIG d   1      -7.023  81.147 117.031  0.00  0.00    -0.241 OA
ATOM     24  O   LIG d   1      -7.555  79.913 118.722  0.00  0.00    -0.241 OA
ENDBRANCH   3  22
TORSDOF 7
ENDMDL
MODEL 6
REMARK VINA RESULT:      -4.9      2.219      4.742
REMARK  7 active torsions:
REMARK  status: ('A' for Active; 'I' for Inactive)
REMARK    1  A    between atoms: C_2  and  C_3 
REMARK    2  A    between atoms: C_3  and  O_6 
REMARK    3  A    between atoms: C_3  and  C_4 
REMARK    4  A    between atoms: C_7  and  O_6 
REMARK    5  A    between atoms: C_9  and  C_10 
REMARK    6  A    between atoms: N_15  and  C_14 
REMARK    7  A    between atoms: N_20  and  C_19 
REMARK       I    between atoms: C_22  and  N_20 
ROOT
ATOM      1  C   LIG d   1      -3.485  77.258 115.120  0.00  0.00     0.161 C 
ATOM      2  C   LIG d   1      -3.438  77.376 116.519  0.00  0.00     0.016 C 
ATOM      3  C   LIG d   1      -2.486  78.167 117.202  0.00  0.00     0.038 C 
ATOM      4  C   LIG d   1      -1.606  79.020 116.520  0.00  0.00     0.028 C 
ATOM      5  C   LIG d   1      -1.282  78.552 115.106  0.00  0.00    -0.047 C 
ATOM      6  C   LIG d   1      -2.603  78.268 114.356  0.00  0.00     0.091 C 
ENDROOT
BRANCH   1   7
ATOM      7  O   LIG d   1      -4.851  77.344 114.668  0.00  0.00    -0.368 OA
BRANCH   7   8
ATOM      8  C   LIG d   1      -5.365  76.185 113.967  0.00  0.00     0.119 C 
BRANCH   8   9
ATOM      9  C   LIG d   1      -6.875  76.403 113.756  0.00  0.00     0.028 C 
ATOM     10  C   LIG d   1      -7.222  76.737 112.295  0.00  0.00     0.006 C 
ENDBRANCH   8   9
BRANCH   8  11
ATOM     11  C   LIG d   1      -5.253  74.920 114.824  0.00  0.00     0.028 C 
ATOM     12  C   LIG d   1      -6.350  74.830 115.897  0.00  0.00     0.006 C 
ENDBRANCH   8  11
ENDBRANCH   7   8
ENDBRANCH   1   7
BRANCH   6  13
ATOM     13  N   LIG d   1      -2.376  77.725 112.991  0.00  0.00    -0.311 N 
ATOM     14  C   LIG d   1      -2.282  78.489 111.904  0.00  0.00     0.210 C 
ATOM     15  C   LIG d   1      -2.067  77.726 110.594  0.00  0.00     0.109 C 
ATOM     16  O   LIG d   1      -2.325  79.729 111.905  0.00  0.00    -0.276 OA
ATOM     17  H   LIG d   1      -2.298  76.731 112.903  0.00  0.00     0.149 HD
ENDBRANCH   6  13
BRANCH   5  18
ATOM     18  N   LIG d   1      -0.467  79.601 114.465  0.00  0.00     0.381 N 
ATOM     19  H   LIG d   1      -1.064  80.267 114.016  0.00  0.00    -0.090 HD
ATOM     20  H   LIG d   1       0.116  79.177 113.764  0.00  0.00    -0.090 HD
ATOM     21  H   LIG d   1       0.099  80.057 115.146  0.00  0.00    -0.090 HD
ENDBRANCH   5  18
BRANCH   3  22
ATOM     22  C   LIG d   1      -2.383  78.079 118.582  0.00  0.00     0.382 C 
ATOM     23  O   LIG d   1      -2.441  79.118 119.282  0.00  0.00    -0.241 OA
ATOM     24  O   LIG d   1      -2.188  76.979 119.132  0.00  0.00    -0.241 OA
ENDBRANCH   3  22
TORSDOF 7
ENDMDL
MODEL 7
REMARK VINA RESULT:      -4.9      1.945      5.011
REMARK  7 active torsions:
REMARK  status: ('A' for Active; 'I' for Inactive)
REMARK    1  A    between atoms: C_2  and  C_3 
REMARK    2  A    between atoms: C_3  and  O_6 
REMARK    3  A    between atoms: C_3  and  C_4 
REMARK    4  A    between atoms: C_7  and  O_6 
REMARK    5  A    between atoms: C_9  and  C_10 
REMARK    6  A    between atoms: N_15  and  C_14 
REMARK    7  A    between atoms: N_20  and  C_19 
REMARK       I    between atoms: C_22  and  N_20 
ROOT
ATOM      1  C   LIG d   1      -2.361  76.001 115.161  0.00  0.00     0.161 C 
ATOM      2  C   LIG d   1      -2.258  75.769 116.543  0.00  0.00     0.016 C 
ATOM      3  C   LIG d   1      -1.608  76.654 117.433  0.00  0.00     0.038 C 
ATOM      4  C   LIG d   1      -1.144  77.912 117.022  0.00  0.00     0.028 C 
ATOM      5  C   LIG d   1      -0.776  77.968 115.543  0.00  0.00    -0.047 C 
ATOM      6  C   LIG d   1      -1.958  77.421 114.711  0.00  0.00     0.091 C 
ENDROOT
BRANCH   1   7
ATOM      7  O   LIG d   1      -3.695  75.692 114.711  0.00  0.00    -0.368 OA
BRANCH   7   8
ATOM      8  C   LIG d   1      -4.742  75.791 115.708  0.00  0.00     0.119 C 
BRANCH   8   9
ATOM      9  C   LIG d   1      -5.695  74.598 115.498  0.00  0.00     0.028 C 
ATOM     10  C   LIG d   1      -6.915  74.651 116.432  0.00  0.00     0.006 C 
ENDBRANCH   8   9
BRANCH   8  11
ATOM     11  C   LIG d   1      -5.602  77.040 115.491  0.00  0.00     0.028 C 
ATOM     12  C   LIG d   1      -5.223  78.195 116.432  0.00  0.00     0.006 C 
ENDBRANCH   8  11
ENDBRANCH   7   8
ENDBRANCH   1   7
BRANCH   6  13
ATOM     13  N   LIG d   1      -1.650  77.362 113.258  0.00  0.00    -0.311 N 
ATOM     14  C   LIG d   1      -2.465  77.832 112.316  0.00  0.00     0.210 C 
ATOM     15  C   LIG d   1      -1.964  77.653 110.880  0.00  0.00     0.109 C 
ATOM     16  O   LIG d   1      -3.541  78.409 112.535  0.00  0.00    -0.276 OA
ATOM     17  H   LIG d   1      -0.782  76.938 112.993  0.00  0.00     0.149 HD
ENDBRANCH   6  13
BRANCH   5  18
ATOM     18  N   LIG d   1      -0.441  79.368 115.220  0.00  0.00     0.381 N 
ATOM     19  H   LIG d   1       0.504  79.560 115.487  0.00  0.00    -0.090 HD
ATOM     20  H   LIG d   1      -1.046  79.976 115.743  0.00  0.00    -0.090 HD
ATOM     21  H   LIG d   1      -0.557  79.530 114.244  0.00  0.00    -0.090 HD
ENDBRANCH   5  18
BRANCH   3  22
ATOM     22  C   LIG d   1      -1.380  76.264 118.745  0.00  0.00     0.382 C 
ATOM     23  O   LIG d   1      -2.045  75.325 119.244  0.00  0.00    -0.241 OA
ATOM     24  O   LIG d   1      -0.550  76.870 119.449  0.00  0.00    -0.241 OA
ENDBRANCH   3  22
TORSDOF 7
ENDMDL
MODEL 8
REMARK VINA RESULT:      -4.7      2.489      4.958
REMARK  7 active torsions:
REMARK  status: ('A' for Active; 'I' for Inactive)
REMARK    1  A    between atoms: C_2  and  C_3 
REMARK    2  A    between atoms: C_3  and  O_6 
REMARK    3  A    between atoms: C_3  and  C_4 
REMARK    4  A    between atoms: C_7  and  O_6 
REMARK    5  A    between atoms: C_9  and  C_10 
REMARK    6  A    between atoms: N_15  and  C_14 
REMARK    7  A    between atoms: N_20  and  C_19 
REMARK       I    between atoms: C_22  and  N_20 
ROOT
ATOM      1  C   LIG d   1      -2.948  78.543 115.534  0.00  0.00     0.161 C 
ATOM      2  C   LIG d   1      -1.648  78.835 115.979  0.00  0.00     0.016 C 
ATOM      3  C   LIG d   1      -0.810  77.887 116.610  0.00  0.00     0.038 C 
ATOM      4  C   LIG d   1      -1.163  76.532 116.705  0.00  0.00     0.028 C 
ATOM      5  C   LIG d   1      -2.670  76.299 116.724  0.00  0.00    -0.047 C 
ATOM      6  C   LIG d   1      -3.308  77.042 115.528  0.00  0.00     0.091 C 
ENDROOT
BRANCH   1   7
ATOM      7  O   LIG d   1      -3.157  79.113 114.227  0.00  0.00    -0.368 OA
BRANCH   7   8
ATOM      8  C   LIG d   1      -2.269  78.649 113.180  0.00  0.00     0.119 C 
BRANCH   8   9
ATOM      9  C   LIG d   1      -1.674  79.893 112.493  0.00  0.00     0.028 C 
ATOM     10  C   LIG d   1      -2.649  81.082 112.484  0.00  0.00     0.006 C 
ENDBRANCH   8   9
BRANCH   8  11
ATOM     11  C   LIG d   1      -3.041  77.910 112.083  0.00  0.00     0.028 C 
ATOM     12  C   LIG d   1      -2.204  77.687 110.813  0.00  0.00     0.006 C 
ENDBRANCH   8  11
ENDBRANCH   7   8
ENDBRANCH   1   7
BRANCH   6  13
ATOM     13  N   LIG d   1      -4.790  76.935 115.520  0.00  0.00    -0.311 N 
ATOM     14  C   LIG d   1      -5.456  76.037 114.797  0.00  0.00     0.210 C 
ATOM     15  C   LIG d   1      -6.982  76.112 114.918  0.00  0.00     0.109 C 
ATOM     16  O   LIG d   1      -4.928  75.164 114.092  0.00  0.00    -0.276 OA
ATOM     17  H   LIG d   1      -5.297  77.585 116.089  0.00  0.00     0.149 HD
ENDBRANCH   6  13
BRANCH   5  18
ATOM     18  N   LIG d   1      -2.895  74.841 116.685  0.00  0.00     0.381 N 
ATOM     19  H   LIG d   1      -3.183  74.567 115.767  0.00  0.00    -0.090 HD
ATOM     20  H   LIG d   1      -3.631  74.609 117.329  0.00  0.00    -0.090 HD
ATOM     21  H   LIG d   1      -2.060  74.360 116.937  0.00  0.00    -0.090 HD
ENDBRANCH   5  18
BRANCH   3  22
ATOM     22  C   LIG d   1       0.379  78.300 117.192  0.00  0.00     0.382 C 
ATOM     23  O   LIG d   1       1.419  77.613 117.048  0.00  0.00    -0.241 OA
ATOM     24  O   LIG d   1       0.415  79.327 117.895  0.00  0.00    -0.241 OA
ENDBRANCH   3  22
TORSDOF 7
ENDMDL
MODEL 9
REMARK VINA RESULT:      -4.7      3.920      5.530
REMARK  7 active torsions:
REMARK  status: ('A' for Active; 'I' for Inactive)
REMARK    1  A    between atoms: C_2  and  C_3 
REMARK    2  A    between atoms: C_3  and  O_6 
REMARK    3  A    between atoms: C_3  and  C_4 
REMARK    4  A    between atoms: C_7  and  O_6 
REMARK    5  A    between atoms: C_9  and  C_10 
REMARK    6  A    between atoms: N_15  and  C_14 
REMARK    7  A    between atoms: N_20  and  C_19 
REMARK       I    between atoms: C_22  and  N_20 
ROOT
ATOM      1  C   LIG d   1      -6.067  78.243 117.148  0.00  0.00     0.161 C 
ATOM      2  C   LIG d   1      -6.948  79.329 117.276  0.00  0.00     0.016 C 
ATOM      3  C   LIG d   1      -6.676  80.462 118.077  0.00  0.00     0.038 C 
ATOM      4  C   LIG d   1      -5.428  80.655 118.688  0.00  0.00     0.028 C 
ATOM      5  C   LIG d   1      -4.697  79.353 118.997  0.00  0.00    -0.047 C 
ATOM      6  C   LIG d   1      -4.654  78.486 117.718  0.00  0.00     0.091 C 
ENDROOT
BRANCH   1   7
ATOM      7  O   LIG d   1      -5.987  77.839 115.767  0.00  0.00    -0.368 OA
BRANCH   7   8
ATOM      8  C   LIG d   1      -6.855  76.750 115.370  0.00  0.00     0.119 C 
BRANCH   8   9
ATOM      9  C   LIG d   1      -6.970  75.789 116.569  0.00  0.00     0.028 C 
ATOM     10  C   LIG d   1      -8.422  75.359 116.839  0.00  0.00     0.006 C 
ENDBRANCH   8   9
BRANCH   8  11
ATOM     11  C   LIG d   1      -6.229  75.920 114.245  0.00  0.00     0.028 C 
ATOM     12  C   LIG d   1      -5.280  74.830 114.766  0.00  0.00     0.006 C 
ENDBRANCH   8  11
ENDBRANCH   7   8
ENDBRANCH   1   7
BRANCH   6  13
ATOM     13  N   LIG d   1      -4.030  77.158 117.955  0.00  0.00    -0.311 N 
ATOM     14  C   LIG d   1      -3.114  76.624 117.148  0.00  0.00     0.210 C 
ATOM     15  C   LIG d   1      -2.615  75.237 117.565  0.00  0.00     0.109 C 
ATOM     16  O   LIG d   1      -2.644  77.182 116.145  0.00  0.00    -0.276 OA
ATOM     17  H   LIG d   1      -4.330  76.650 118.764  0.00  0.00     0.149 HD
ENDBRANCH   6  13
BRANCH   5  18
ATOM     18  N   LIG d   1      -3.356  79.704 119.503  0.00  0.00     0.381 N 
ATOM     19  H   LIG d   1      -3.404  79.895 120.484  0.00  0.00    -0.090 HD
ATOM     20  H   LIG d   1      -3.040  80.535 119.036  0.00  0.00    -0.090 HD
ATOM     21  H   LIG d   1      -2.721  78.956 119.334  0.00  0.00    -0.090 HD
ENDBRANCH   5  18
BRANCH   3  22
ATOM     22  C   LIG d   1      -7.673  81.399 118.305  0.00  0.00     0.382 C 
ATOM     23  O   LIG d   1      -8.877  81.046 118.301  0.00  0.00    -0.241 OA
ATOM     24  O   LIG d   1      -7.386  82.599 118.470  0.00  0.00    -0.241 OA
ENDBRANCH   3  22
TORSDOF 7
ENDMDL
