MODEL 1
REMARK VINA RESULT:      -5.0      0.000      0.000
REMARK  7 active torsions:
REMARK  status: ('A' for Active; 'I' for Inactive)
REMARK    1  A    between atoms: C_2  and  C_3 
REMARK    2  A    between atoms: C_3  and  O_6 
REMARK    3  A    between atoms: C_3  and  C_4 
REMARK    4  A    between atoms: C_7  and  O_6 
REMARK    5  A    between atoms: C_9  and  C_10 
REMARK    6  A    between atoms: N_15  and  C_14 
REMARK    7  A    between atoms: N_20  and  C_19 
REMARK       I    between atoms: C_22  and  N_20 
ROOT
ATOM      1  C   LIG d   1      -0.657  80.826 112.615  0.00  0.00     0.161 C 
ATOM      2  C   LIG d   1      -1.299  79.631 112.249  0.00  0.00     0.016 C 
ATOM      3  C   LIG d   1      -2.403  79.094 112.951  0.00  0.00     0.038 C 
ATOM      4  C   LIG d   1      -3.039  79.800 113.983  0.00  0.00     0.028 C 
ATOM      5  C   LIG d   1      -2.115  80.770 114.712  0.00  0.00    -0.047 C 
ATOM      6  C   LIG d   1      -1.406  81.665 113.671  0.00  0.00     0.091 C 
ENDROOT
BRANCH   1   7
ATOM      7  O   LIG d   1      -0.393  81.618 111.440  0.00  0.00    -0.368 OA
BRANCH   7   8
ATOM      8  C   LIG d   1       0.999  81.749 111.059  0.00  0.00     0.119 C 
BRANCH   8   9
ATOM      9  C   LIG d   1       1.329  83.254 111.020  0.00  0.00     0.028 C 
ATOM     10  C   LIG d   1       0.086  84.120 110.754  0.00  0.00     0.006 C 
ENDBRANCH   8   9
BRANCH   8  11
ATOM     11  C   LIG d   1       1.236  81.245 109.633  0.00  0.00     0.028 C 
ATOM     12  C   LIG d   1       1.392  79.718 109.559  0.00  0.00     0.006 C 
ENDBRANCH   8  11
ENDBRANCH   7   8
ENDBRANCH   1   7
BRANCH   6  13
ATOM     13  N   LIG d   1      -0.420  82.587 114.294  0.00  0.00    -0.311 N 
ATOM     14  C   LIG d   1      -0.595  83.906 114.368  0.00  0.00     0.210 C 
ATOM     15  C   LIG d   1       0.552  84.674 115.032  0.00  0.00     0.109 C 
ATOM     16  O   LIG d   1      -1.606  84.508 113.976  0.00  0.00    -0.276 OA
ATOM     17  H   LIG d   1       0.415  82.179 114.666  0.00  0.00     0.149 HD
ENDBRANCH   6  13
BRANCH   5  18
ATOM     18  N   LIG d   1      -2.938  81.535 115.668  0.00  0.00     0.381 N 
ATOM     19  H   LIG d   1      -3.157  80.964 116.459  0.00  0.00    -0.090 HD
ATOM     20  H   LIG d   1      -3.798  81.797 115.220  0.00  0.00    -0.090 HD
ATOM     21  H   LIG d   1      -2.447  82.351 115.964  0.00  0.00    -0.090 HD
ENDBRANCH   5  18
BRANCH   3  22
ATOM     22  C   LIG d   1      -2.857  77.820 112.647  0.00  0.00     0.382 C 
ATOM     23  O   LIG d   1      -2.197  76.816 113.008  0.00  0.00    -0.241 OA
ATOM     24  O   LIG d   1      -3.895  77.662 111.977  0.00  0.00    -0.241 OA
ENDBRANCH   3  22
TORSDOF 7
ENDMDL
MODEL 2
REMARK VINA RESULT:      -4.9      3.095      6.917
REMARK  7 active torsions:
REMARK  status: ('A' for Active; 'I' for Inactive)
REMARK    1  A    between atoms: C_2  and  C_3 
REMARK    2  A    between atoms: C_3  and  O_6 
REMARK    3  A    between atoms: C_3  and  C_4 
REMARK    4  A    between atoms: C_7  and  O_6 
REMARK    5  A    between atoms: C_9  and  C_10 
REMARK    6  A    between atoms: N_15  and  C_14 
REMARK    7  A    between atoms: N_20  and  C_19 
REMARK       I    between atoms: C_22  and  N_20 
ROOT
ATOM      1  C   LIG d   1      -2.966  80.148 115.061  0.00  0.00     0.161 C 
ATOM      2  C   LIG d   1      -2.424  81.308 114.482  0.00  0.00     0.016 C 
ATOM      3  C   LIG d   1      -1.677  81.302 113.282  0.00  0.00     0.038 C 
ATOM      4  C   LIG d   1      -1.549  80.149 112.493  0.00  0.00     0.028 C 
ATOM      5  C   LIG d   1      -1.651  78.854 113.293  0.00  0.00    -0.047 C 
ATOM      6  C   LIG d   1      -2.932  78.898 114.157  0.00  0.00     0.091 C 
ENDROOT
BRANCH   1   7
ATOM      7  O   LIG d   1      -4.313  80.407 115.506  0.00  0.00    -0.368 OA
BRANCH   7   8
ATOM      8  C   LIG d   1      -4.511  80.458 116.940  0.00  0.00     0.119 C 
BRANCH   8   9
ATOM      9  C   LIG d   1      -5.933  79.938 117.229  0.00  0.00     0.028 C 
ATOM     10  C   LIG d   1      -6.967  81.073 117.312  0.00  0.00     0.006 C 
ENDBRANCH   8   9
BRANCH   8  11
ATOM     11  C   LIG d   1      -4.494  81.900 117.454  0.00  0.00     0.028 C 
ATOM     12  C   LIG d   1      -3.211  82.242 118.228  0.00  0.00     0.006 C 
ENDBRANCH   8  11
ENDBRANCH   7   8
ENDBRANCH   1   7
BRANCH   6  13
ATOM     13  N   LIG d   1      -3.065  77.705 115.034  0.00  0.00    -0.311 N 
ATOM     14  C   LIG d   1      -3.739  76.611 114.686  0.00  0.00     0.210 C 
ATOM     15  C   LIG d   1      -3.769  75.505 115.746  0.00  0.00     0.109 C 
ATOM     16  O   LIG d   1      -4.289  76.438 113.588  0.00  0.00    -0.276 OA
ATOM     17  H   LIG d   1      -2.623  77.747 115.931  0.00  0.00     0.149 HD
ENDBRANCH   6  13
BRANCH   5  18
ATOM     18  N   LIG d   1      -1.640  77.735 112.332  0.00  0.00     0.381 N 
ATOM     19  H   LIG d   1      -0.696  77.459 112.145  0.00  0.00    -0.090 HD
ATOM     20  H   LIG d   1      -2.055  78.042 111.470  0.00  0.00    -0.090 HD
ATOM     21  H   LIG d   1      -2.153  76.964 112.700  0.00  0.00    -0.090 HD
ENDBRANCH   5  18
BRANCH   3  22
ATOM     22  C   LIG d   1      -1.014  82.452 112.880  0.00  0.00     0.382 C 
ATOM     23  O   LIG d   1      -1.589  83.276 112.128  0.00  0.00    -0.241 OA
ATOM     24  O   LIG d   1       0.166  82.653 113.222  0.00  0.00    -0.241 OA
ENDBRANCH   3  22
TORSDOF 7
ENDMDL
MODEL 3
REMARK VINA RESULT:      -4.9      3.690      7.191
REMARK  7 active torsions:
REMARK  status: ('A' for Active; 'I' for Inactive)
REMARK    1  A    between atoms: C_2  and  C_3 
REMARK    2  A    between atoms: C_3  and  O_6 
REMARK    3  A    between atoms: C_3  and  C_4 
REMARK    4  A    between atoms: C_7  and  O_6 
REMARK    5  A    between atoms: C_9  and  C_10 
REMARK    6  A    between atoms: N_15  and  C_14 
REMARK    7  A    between atoms: N_20  and  C_19 
REMARK       I    between atoms: C_22  and  N_20 
ROOT
ATOM      1  C   LIG d   1      -2.456  78.925 115.867  0.00  0.00     0.161 C 
ATOM      2  C   LIG d   1      -2.830  80.202 115.415  0.00  0.00     0.016 C 
ATOM      3  C   LIG d   1      -2.859  80.566 114.049  0.00  0.00     0.038 C 
ATOM      4  C   LIG d   1      -2.661  79.627 113.027  0.00  0.00     0.028 C 
ATOM      5  C   LIG d   1      -1.788  78.449 113.447  0.00  0.00    -0.047 C 
ATOM      6  C   LIG d   1      -2.345  77.855 114.761  0.00  0.00     0.091 C 
ENDROOT
BRANCH   1   7
ATOM      7  O   LIG d   1      -3.364  78.488 116.898  0.00  0.00    -0.368 OA
BRANCH   7   8
ATOM      8  C   LIG d   1      -4.775  78.647 116.615  0.00  0.00     0.119 C 
BRANCH   8   9
ATOM      9  C   LIG d   1      -5.408  79.382 117.813  0.00  0.00     0.028 C 
ATOM     10  C   LIG d   1      -6.599  80.262 117.399  0.00  0.00     0.006 C 
ENDBRANCH   8   9
BRANCH   8  11
ATOM     11  C   LIG d   1      -5.487  77.293 116.548  0.00  0.00     0.028 C 
ATOM     12  C   LIG d   1      -5.047  76.333 117.664  0.00  0.00     0.006 C 
ENDBRANCH   8  11
ENDBRANCH   7   8
ENDBRANCH   1   7
BRANCH   6  13
ATOM     13  N   LIG d   1      -1.500  76.751 115.287  0.00  0.00    -0.311 N 
ATOM     14  C   LIG d   1      -1.925  75.495 115.403  0.00  0.00     0.210 C 
ATOM     15  C   LIG d   1      -0.900  74.517 115.988  0.00  0.00     0.109 C 
ATOM     16  O   LIG d   1      -3.042  75.090 115.049  0.00  0.00    -0.276 OA
ATOM     17  H   LIG d   1      -0.568  76.985 115.569  0.00  0.00     0.149 HD
ENDBRANCH   6  13
BRANCH   5  18
ATOM     18  N   LIG d   1      -1.778  77.482 112.334  0.00  0.00     0.381 N 
ATOM     19  H   LIG d   1      -1.874  76.553 112.691  0.00  0.00    -0.090 HD
ATOM     20  H   LIG d   1      -0.896  77.546 111.855  0.00  0.00    -0.090 HD
ATOM     21  H   LIG d   1      -2.522  77.681 111.702  0.00  0.00    -0.090 HD
ENDBRANCH   5  18
BRANCH   3  22
ATOM     22  C   LIG d   1      -3.049  81.894 113.696  0.00  0.00     0.382 C 
ATOM     23  O   LIG d   1      -2.444  82.372 112.706  0.00  0.00    -0.241 OA
ATOM     24  O   LIG d   1      -3.785  82.630 114.380  0.00  0.00    -0.241 OA
ENDBRANCH   3  22
TORSDOF 7
ENDMDL
MODEL 4
REMARK VINA RESULT:      -4.8      2.361      4.661
REMARK  7 active torsions:
REMARK  status: ('A' for Active; 'I' for Inactive)
REMARK    1  A    between atoms: C_2  and  C_3 
REMARK    2  A    between atoms: C_3  and  O_6 
REMARK    3  A    between atoms: C_3  and  C_4 
REMARK    4  A    between atoms: C_7  and  O_6 
REMARK    5  A    between atoms: C_9  and  C_10 
REMARK    6  A    between atoms: N_15  and  C_14 
REMARK    7  A    between atoms: N_20  and  C_19 
REMARK       I    between atoms: C_22  and  N_20 
ROOT
ATOM      1  C   LIG d   1      -2.682  80.495 114.546  0.00  0.00     0.161 C 
ATOM      2  C   LIG d   1      -3.104  79.191 114.854  0.00  0.00     0.016 C 
ATOM      3  C   LIG d   1      -2.797  78.065 114.057  0.00  0.00     0.038 C 
ATOM      4  C   LIG d   1      -1.914  78.144 112.970  0.00  0.00     0.028 C 
ATOM      5  C   LIG d   1      -1.869  79.525 112.326  0.00  0.00    -0.047 C 
ATOM      6  C   LIG d   1      -1.625  80.584 113.425  0.00  0.00     0.091 C 
ENDROOT
BRANCH   1   7
ATOM      7  O   LIG d   1      -2.205  81.149 115.738  0.00  0.00    -0.368 OA
BRANCH   7   8
ATOM      8  C   LIG d   1      -2.927  82.338 116.145  0.00  0.00     0.119 C 
BRANCH   8   9
ATOM      9  C   LIG d   1      -1.884  83.432 116.445  0.00  0.00     0.028 C 
ATOM     10  C   LIG d   1      -1.934  84.586 115.430  0.00  0.00     0.006 C 
ENDBRANCH   8   9
BRANCH   8  11
ATOM     11  C   LIG d   1      -3.671  82.114 117.464  0.00  0.00     0.028 C 
ATOM     12  C   LIG d   1      -2.808  82.430 118.696  0.00  0.00     0.006 C 
ENDBRANCH   8  11
ENDBRANCH   7   8
ENDBRANCH   1   7
BRANCH   6  13
ATOM     13  N   LIG d   1      -1.651  81.971 112.892  0.00  0.00    -0.311 N 
ATOM     14  C   LIG d   1      -0.563  82.615 112.472  0.00  0.00     0.210 C 
ATOM     15  C   LIG d   1      -0.809  84.045 111.978  0.00  0.00     0.109 C 
ATOM     16  O   LIG d   1       0.576  82.127 112.430  0.00  0.00    -0.276 OA
ATOM     17  H   LIG d   1      -2.539  82.431 112.861  0.00  0.00     0.149 HD
ENDBRANCH   6  13
BRANCH   5  18
ATOM     18  N   LIG d   1      -0.810  79.504 111.299  0.00  0.00     0.381 N 
ATOM     19  H   LIG d   1       0.055  79.810 111.697  0.00  0.00    -0.090 HD
ATOM     20  H   LIG d   1      -1.060  80.138 110.561  0.00  0.00    -0.090 HD
ATOM     21  H   LIG d   1      -0.708  78.582 110.934  0.00  0.00    -0.090 HD
ENDBRANCH   5  18
BRANCH   3  22
ATOM     22  C   LIG d   1      -3.409  76.849 114.321  0.00  0.00     0.382 C 
ATOM     23  O   LIG d   1      -3.042  76.163 115.306  0.00  0.00    -0.241 OA
ATOM     24  O   LIG d   1      -4.292  76.408 113.562  0.00  0.00    -0.241 OA
ENDBRANCH   3  22
TORSDOF 7
ENDMDL
MODEL 5
REMARK VINA RESULT:      -4.7      5.440      8.481
REMARK  7 active torsions:
REMARK  status: ('A' for Active; 'I' for Inactive)
REMARK    1  A    between atoms: C_2  and  C_3 
REMARK    2  A    between atoms: C_3  and  O_6 
REMARK    3  A    between atoms: C_3  and  C_4 
REMARK    4  A    between atoms: C_7  and  O_6 
REMARK    5  A    between atoms: C_9  and  C_10 
REMARK    6  A    between atoms: N_15  and  C_14 
REMARK    7  A    between atoms: N_20  and  C_19 
REMARK       I    between atoms: C_22  and  N_20 
ROOT
ATOM      1  C   LIG d   1      -5.221  77.623 116.630  0.00  0.00     0.161 C 
ATOM      2  C   LIG d   1      -5.940  78.798 116.908  0.00  0.00     0.016 C 
ATOM      3  C   LIG d   1      -5.368  80.090 116.858  0.00  0.00     0.038 C 
ATOM      4  C   LIG d   1      -4.069  80.308 116.375  0.00  0.00     0.028 C 
ATOM      5  C   LIG d   1      -3.144  79.110 116.564  0.00  0.00    -0.047 C 
ATOM      6  C   LIG d   1      -3.833  77.849 115.994  0.00  0.00     0.091 C 
ENDROOT
BRANCH   1   7
ATOM      7  O   LIG d   1      -6.015  76.749 115.803  0.00  0.00    -0.368 OA
BRANCH   7   8
ATOM      8  C   LIG d   1      -6.517  75.550 116.443  0.00  0.00     0.119 C 
BRANCH   8   9
ATOM      9  C   LIG d   1      -5.878  74.343 115.730  0.00  0.00     0.028 C 
ATOM     10  C   LIG d   1      -5.448  74.671 114.290  0.00  0.00     0.006 C 
ENDBRANCH   8   9
BRANCH   8  11
ATOM     11  C   LIG d   1      -8.026  75.395 116.228  0.00  0.00     0.028 C 
ATOM     12  C   LIG d   1      -8.662  74.376 117.187  0.00  0.00     0.006 C 
ENDBRANCH   8  11
ENDBRANCH   7   8
ENDBRANCH   1   7
BRANCH   6  13
ATOM     13  N   LIG d   1      -3.032  76.617 116.214  0.00  0.00    -0.311 N 
ATOM     14  C   LIG d   1      -2.237  76.085 115.287  0.00  0.00     0.210 C 
ATOM     15  C   LIG d   1      -1.516  74.802 115.713  0.00  0.00     0.109 C 
ATOM     16  O   LIG d   1      -2.036  76.571 114.164  0.00  0.00    -0.276 OA
ATOM     17  H   LIG d   1      -3.111  76.175 117.109  0.00  0.00     0.149 HD
ENDBRANCH   6  13
BRANCH   5  18
ATOM     18  N   LIG d   1      -1.867  79.424 115.895  0.00  0.00     0.381 N 
ATOM     19  H   LIG d   1      -1.832  80.398 115.671  0.00  0.00    -0.090 HD
ATOM     20  H   LIG d   1      -1.813  78.901 115.038  0.00  0.00    -0.090 HD
ATOM     21  H   LIG d   1      -1.104  79.184 116.488  0.00  0.00    -0.090 HD
ENDBRANCH   5  18
BRANCH   3  22
ATOM     22  C   LIG d   1      -6.086  81.178 117.331  0.00  0.00     0.382 C 
ATOM     23  O   LIG d   1      -7.253  81.386 116.919  0.00  0.00    -0.241 OA
ATOM     24  O   LIG d   1      -5.566  81.978 118.131  0.00  0.00    -0.241 OA
ENDBRANCH   3  22
TORSDOF 7
ENDMDL
MODEL 6
REMARK VINA RESULT:      -4.5      3.282      6.824
REMARK  7 active torsions:
REMARK  status: ('A' for Active; 'I' for Inactive)
REMARK    1  A    between atoms: C_2  and  C_3 
REMARK    2  A    between atoms: C_3  and  O_6 
REMARK    3  A    between atoms: C_3  and  C_4 
REMARK    4  A    between atoms: C_7  and  O_6 
REMARK    5  A    between atoms: C_9  and  C_10 
REMARK    6  A    between atoms: N_15  and  C_14 
REMARK    7  A    between atoms: N_20  and  C_19 
REMARK       I    between atoms: C_22  and  N_20 
ROOT
ATOM      1  C   LIG d   1      -3.173  81.125 115.535  0.00  0.00     0.161 C 
ATOM      2  C   LIG d   1      -2.802  82.171 114.673  0.00  0.00     0.016 C 
ATOM      3  C   LIG d   1      -2.007  81.983 113.520  0.00  0.00     0.038 C 
ATOM      4  C   LIG d   1      -1.652  80.704 113.064  0.00  0.00     0.028 C 
ATOM      5  C   LIG d   1      -1.578  79.664 114.176  0.00  0.00    -0.047 C 
ATOM      6  C   LIG d   1      -2.889  79.709 114.993  0.00  0.00     0.091 C 
ENDROOT
BRANCH   1   7
ATOM      7  O   LIG d   1      -4.564  81.256 115.891  0.00  0.00    -0.368 OA
BRANCH   7   8
ATOM      8  C   LIG d   1      -4.850  82.069 117.056  0.00  0.00     0.119 C 
BRANCH   8   9
ATOM      9  C   LIG d   1      -3.672  81.907 118.035  0.00  0.00     0.028 C 
ATOM     10  C   LIG d   1      -4.070  82.210 119.489  0.00  0.00     0.006 C 
ENDBRANCH   8   9
BRANCH   8  11
ATOM     11  C   LIG d   1      -6.078  81.550 117.809  0.00  0.00     0.028 C 
ATOM     12  C   LIG d   1      -6.528  80.160 117.331  0.00  0.00     0.006 C 
ENDBRANCH   8  11
ENDBRANCH   7   8
ENDBRANCH   1   7
BRANCH   6  13
ATOM     13  N   LIG d   1      -2.866  78.780 116.153  0.00  0.00    -0.311 N 
ATOM     14  C   LIG d   1      -3.777  77.829 116.349  0.00  0.00     0.210 C 
ATOM     15  C   LIG d   1      -3.579  76.994 117.619  0.00  0.00     0.109 C 
ATOM     16  O   LIG d   1      -4.713  77.576 115.576  0.00  0.00    -0.276 OA
ATOM     17  H   LIG d   1      -2.122  78.894 116.814  0.00  0.00     0.149 HD
ENDBRANCH   6  13
BRANCH   5  18
ATOM     18  N   LIG d   1      -1.335  78.353 113.544  0.00  0.00     0.381 N 
ATOM     19  H   LIG d   1      -0.769  78.470 112.728  0.00  0.00    -0.090 HD
ATOM     20  H   LIG d   1      -2.216  77.959 113.264  0.00  0.00    -0.090 HD
ATOM     21  H   LIG d   1      -0.880  77.743 114.188  0.00  0.00    -0.090 HD
ENDBRANCH   5  18
BRANCH   3  22
ATOM     22  C   LIG d   1      -1.524  83.085 112.831  0.00  0.00     0.382 C 
ATOM     23  O   LIG d   1      -1.356  84.174 113.430  0.00  0.00    -0.241 OA
ATOM     24  O   LIG d   1      -1.298  83.016 111.608  0.00  0.00    -0.241 OA
ENDBRANCH   3  22
TORSDOF 7
ENDMDL
MODEL 7
REMARK VINA RESULT:      -4.5      3.766      7.264
REMARK  7 active torsions:
REMARK  status: ('A' for Active; 'I' for Inactive)
REMARK    1  A    between atoms: C_2  and  C_3 
REMARK    2  A    between atoms: C_3  and  O_6 
REMARK    3  A    between atoms: C_3  and  C_4 
REMARK    4  A    between atoms: C_7  and  O_6 
REMARK    5  A    between atoms: C_9  and  C_10 
REMARK    6  A    between atoms: N_15  and  C_14 
REMARK    7  A    between atoms: N_20  and  C_19 
REMARK       I    between atoms: C_22  and  N_20 
ROOT
ATOM      1  C   LIG d   1      -2.058  79.024 115.754  0.00  0.00     0.161 C 
ATOM      2  C   LIG d   1      -2.497  80.294 115.347  0.00  0.00     0.016 C 
ATOM      3  C   LIG d   1      -2.710  80.649 113.995  0.00  0.00     0.038 C 
ATOM      4  C   LIG d   1      -2.642  79.703 112.962  0.00  0.00     0.028 C 
ATOM      5  C   LIG d   1      -1.712  78.535 113.270  0.00  0.00    -0.047 C 
ATOM      6  C   LIG d   1      -2.085  77.946 114.649  0.00  0.00     0.091 C 
ENDROOT
BRANCH   1   7
ATOM      7  O   LIG d   1      -2.817  78.587 116.899  0.00  0.00    -0.368 OA
BRANCH   7   8
ATOM      8  C   LIG d   1      -2.066  78.385 118.121  0.00  0.00     0.119 C 
BRANCH   8   9
ATOM      9  C   LIG d   1      -2.448  76.998 118.675  0.00  0.00     0.028 C 
ATOM     10  C   LIG d   1      -1.216  76.159 119.054  0.00  0.00     0.006 C 
ENDBRANCH   8   9
BRANCH   8  11
ATOM     11  C   LIG d   1      -2.486  79.383 119.204  0.00  0.00     0.028 C 
ATOM     12  C   LIG d   1      -4.003  79.629 119.232  0.00  0.00     0.006 C 
ENDBRANCH   8  11
ENDBRANCH   7   8
ENDBRANCH   1   7
BRANCH   6  13
ATOM     13  N   LIG d   1      -1.169  76.852 115.066  0.00  0.00    -0.311 N 
ATOM     14  C   LIG d   1      -1.570  75.598 115.268  0.00  0.00     0.210 C 
ATOM     15  C   LIG d   1      -0.468  74.631 115.713  0.00  0.00     0.109 C 
ATOM     16  O   LIG d   1      -2.726  75.188 115.090  0.00  0.00    -0.276 OA
ATOM     17  H   LIG d   1      -0.206  77.091 115.202  0.00  0.00     0.149 HD
ENDBRANCH   6  13
BRANCH   5  18
ATOM     18  N   LIG d   1      -1.842  77.560 112.171  0.00  0.00     0.381 N 
ATOM     19  H   LIG d   1      -1.208  76.799 112.316  0.00  0.00    -0.090 HD
ATOM     20  H   LIG d   1      -1.601  78.011 111.306  0.00  0.00    -0.090 HD
ATOM     21  H   LIG d   1      -2.776  77.218 112.127  0.00  0.00    -0.090 HD
ENDBRANCH   5  18
BRANCH   3  22
ATOM     22  C   LIG d   1      -2.956  81.972 113.662  0.00  0.00     0.382 C 
ATOM     23  O   LIG d   1      -3.818  82.628 114.296  0.00  0.00    -0.241 OA
ATOM     24  O   LIG d   1      -2.359  82.505 112.708  0.00  0.00    -0.241 OA
ENDBRANCH   3  22
TORSDOF 7
ENDMDL
MODEL 8
REMARK VINA RESULT:      -4.5      3.131      6.604
REMARK  7 active torsions:
REMARK  status: ('A' for Active; 'I' for Inactive)
REMARK    1  A    between atoms: C_2  and  C_3 
REMARK    2  A    between atoms: C_3  and  O_6 
REMARK    3  A    between atoms: C_3  and  C_4 
REMARK    4  A    between atoms: C_7  and  O_6 
REMARK    5  A    between atoms: C_9  and  C_10 
REMARK    6  A    between atoms: N_15  and  C_14 
REMARK    7  A    between atoms: N_20  and  C_19 
REMARK       I    between atoms: C_22  and  N_20 
ROOT
ATOM      1  C   LIG d   1      -1.287  79.684 115.657  0.00  0.00     0.161 C 
ATOM      2  C   LIG d   1      -1.526  80.970 115.145  0.00  0.00     0.016 C 
ATOM      3  C   LIG d   1      -1.912  81.216 113.807  0.00  0.00     0.038 C 
ATOM      4  C   LIG d   1      -2.234  80.174 112.925  0.00  0.00     0.028 C 
ATOM      5  C   LIG d   1      -1.521  78.866 113.247  0.00  0.00    -0.047 C 
ATOM      6  C   LIG d   1      -1.740  78.529 114.740  0.00  0.00     0.091 C 
ENDROOT
BRANCH   1   7
ATOM      7  O   LIG d   1      -1.890  79.556 116.959  0.00  0.00    -0.368 OA
BRANCH   7   8
ATOM      8  C   LIG d   1      -2.693  80.678 117.403  0.00  0.00     0.119 C 
BRANCH   8   9
ATOM      9  C   LIG d   1      -2.152  81.121 118.776  0.00  0.00     0.028 C 
ATOM     10  C   LIG d   1      -2.205  82.647 118.962  0.00  0.00     0.006 C 
ENDBRANCH   8   9
BRANCH   8  11
ATOM     11  C   LIG d   1      -4.145  80.259 117.655  0.00  0.00     0.028 C 
ATOM     12  C   LIG d   1      -5.153  81.077 116.833  0.00  0.00     0.006 C 
ENDBRANCH   8  11
ENDBRANCH   7   8
ENDBRANCH   1   7
BRANCH   6  13
ATOM     13  N   LIG d   1      -1.006  77.307 115.160  0.00  0.00    -0.311 N 
ATOM     14  C   LIG d   1      -1.534  76.085 115.123  0.00  0.00     0.210 C 
ATOM     15  C   LIG d   1      -0.613  74.966 115.619  0.00  0.00     0.109 C 
ATOM     16  O   LIG d   1      -2.668  75.817 114.697  0.00  0.00    -0.276 OA
ATOM     17  H   LIG d   1      -0.069  77.429 115.490  0.00  0.00     0.149 HD
ENDBRANCH   6  13
BRANCH   5  18
ATOM     18  N   LIG d   1      -2.051  77.833 112.337  0.00  0.00     0.381 N 
ATOM     19  H   LIG d   1      -1.668  76.940 112.578  0.00  0.00    -0.090 HD
ATOM     20  H   LIG d   1      -1.772  78.053 111.398  0.00  0.00    -0.090 HD
ATOM     21  H   LIG d   1      -3.045  77.803 112.398  0.00  0.00    -0.090 HD
ENDBRANCH   5  18
BRANCH   3  22
ATOM     22  C   LIG d   1      -1.941  82.517 113.329  0.00  0.00     0.382 C 
ATOM     23  O   LIG d   1      -1.693  82.746 112.120  0.00  0.00    -0.241 OA
ATOM     24  O   LIG d   1      -2.168  83.469 114.099  0.00  0.00    -0.241 OA
ENDBRANCH   3  22
TORSDOF 7
ENDMDL
MODEL 9
REMARK VINA RESULT:      -4.2      3.747      5.858
REMARK  7 active torsions:
REMARK  status: ('A' for Active; 'I' for Inactive)
REMARK    1  A    between atoms: C_2  and  C_3 
REMARK    2  A    between atoms: C_3  and  O_6 
REMARK    3  A    between atoms: C_3  and  C_4 
REMARK    4  A    between atoms: C_7  and  O_6 
REMARK    5  A    between atoms: C_9  and  C_10 
REMARK    6  A    between atoms: N_15  and  C_14 
REMARK    7  A    between atoms: N_20  and  C_19 
REMARK       I    between atoms: C_22  and  N_20 
ROOT
ATOM      1  C   LIG d   1      -3.554  79.312 116.033  0.00  0.00     0.161 C 
ATOM      2  C   LIG d   1      -4.475  79.028 117.055  0.00  0.00     0.016 C 
ATOM      3  C   LIG d   1      -5.363  79.988 117.592  0.00  0.00     0.038 C 
ATOM      4  C   LIG d   1      -5.494  81.270 117.035  0.00  0.00     0.028 C 
ATOM      5  C   LIG d   1      -4.230  81.758 116.335  0.00  0.00    -0.047 C 
ATOM      6  C   LIG d   1      -3.759  80.674 115.338  0.00  0.00     0.091 C 
ENDROOT
BRANCH   1   7
ATOM      7  O   LIG d   1      -3.557  78.248 115.061  0.00  0.00    -0.368 OA
BRANCH   7   8
ATOM      8  C   LIG d   1      -2.393  77.385 115.057  0.00  0.00     0.119 C 
BRANCH   8   9
ATOM      9  C   LIG d   1      -1.950  77.214 113.591  0.00  0.00     0.028 C 
ATOM     10  C   LIG d   1      -2.820  78.025 112.616  0.00  0.00     0.006 C 
ENDBRANCH   8   9
BRANCH   8  11
ATOM     11  C   LIG d   1      -2.743  75.975 115.542  0.00  0.00     0.028 C 
ATOM     12  C   LIG d   1      -4.174  75.555 115.171  0.00  0.00     0.006 C 
ENDBRANCH   8  11
ENDBRANCH   7   8
ENDBRANCH   1   7
BRANCH   6  13
ATOM     13  N   LIG d   1      -2.481  81.036 114.671  0.00  0.00    -0.311 N 
ATOM     14  C   LIG d   1      -2.417  81.617 113.474  0.00  0.00     0.210 C 
ATOM     15  C   LIG d   1      -1.000  81.886 112.960  0.00  0.00     0.109 C 
ATOM     16  O   LIG d   1      -3.401  81.965 112.804  0.00  0.00    -0.276 OA
ATOM     17  H   LIG d   1      -1.634  80.818 115.159  0.00  0.00     0.149 HD
ENDBRANCH   6  13
BRANCH   5  18
ATOM     18  N   LIG d   1      -4.550  83.042 115.684  0.00  0.00     0.381 N 
ATOM     19  H   LIG d   1      -5.478  83.012 115.312  0.00  0.00    -0.090 HD
ATOM     20  H   LIG d   1      -3.910  83.190 114.924  0.00  0.00    -0.090 HD
ATOM     21  H   LIG d   1      -4.472  83.787 116.342  0.00  0.00    -0.090 HD
ENDBRANCH   5  18
BRANCH   3  22
ATOM     22  C   LIG d   1      -6.103  79.683 118.723  0.00  0.00     0.382 C 
ATOM     23  O   LIG d   1      -5.769  78.716 119.449  0.00  0.00    -0.241 OA
ATOM     24  O   LIG d   1      -7.127  80.335 119.004  0.00  0.00    -0.241 OA
ENDBRANCH   3  22
TORSDOF 7
ENDMDL
