MODEL 1
REMARK VINA RESULT:      -5.4      0.000      0.000
REMARK  7 active torsions:
REMARK  status: ('A' for Active; 'I' for Inactive)
REMARK    1  A    between atoms: C_2  and  C_3 
REMARK    2  A    between atoms: C_3  and  O_6 
REMARK    3  A    between atoms: C_3  and  C_4 
REMARK    4  A    between atoms: C_7  and  O_6 
REMARK    5  A    between atoms: C_9  and  C_10 
REMARK    6  A    between atoms: N_15  and  C_14 
REMARK    7  A    between atoms: N_20  and  C_19 
REMARK       I    between atoms: C_22  and  N_20 
ROOT
ATOM      1  C   LIG d   1      -2.648  78.353 115.717  0.00  0.00     0.161 C 
ATOM      2  C   LIG d   1      -2.901  79.437 114.861  0.00  0.00     0.016 C 
ATOM      3  C   LIG d   1      -2.378  79.532 113.550  0.00  0.00     0.038 C 
ATOM      4  C   LIG d   1      -1.686  78.470 112.950  0.00  0.00     0.028 C 
ATOM      5  C   LIG d   1      -0.977  77.565 113.952  0.00  0.00    -0.047 C 
ATOM      6  C   LIG d   1      -1.987  77.134 115.040  0.00  0.00     0.091 C 
ENDROOT
BRANCH   1   7
ATOM      7  O   LIG d   1      -3.866  77.958 116.379  0.00  0.00    -0.368 OA
BRANCH   7   8
ATOM      8  C   LIG d   1      -4.067  78.487 117.713  0.00  0.00     0.119 C 
BRANCH   8   9
ATOM      9  C   LIG d   1      -4.241  77.287 118.665  0.00  0.00     0.028 C 
ATOM     10  C   LIG d   1      -2.919  76.869 119.330  0.00  0.00     0.006 C 
ENDBRANCH   8   9
BRANCH   8  11
ATOM     11  C   LIG d   1      -5.377  79.274 117.810  0.00  0.00     0.028 C 
ATOM     12  C   LIG d   1      -5.166  80.794 117.729  0.00  0.00     0.006 C 
ENDBRANCH   8  11
ENDBRANCH   7   8
ENDBRANCH   1   7
BRANCH   6  13
ATOM     13  N   LIG d   1      -1.355  76.315 116.107  0.00  0.00    -0.311 N 
ATOM     14  C   LIG d   1      -1.364  74.983 116.111  0.00  0.00     0.210 C 
ATOM     15  C   LIG d   1      -0.672  74.335 117.315  0.00  0.00     0.109 C 
ATOM     16  O   LIG d   1      -1.850  74.276 115.216  0.00  0.00    -0.276 OA
ATOM     17  H   LIG d   1      -0.910  76.807 116.857  0.00  0.00     0.149 HD
ENDBRANCH   6  13
BRANCH   5  18
ATOM     18  N   LIG d   1      -0.413  76.426 113.203  0.00  0.00     0.381 N 
ATOM     19  H   LIG d   1      -1.149  75.918 112.755  0.00  0.00    -0.090 HD
ATOM     20  H   LIG d   1       0.049  75.809 113.849  0.00  0.00    -0.090 HD
ATOM     21  H   LIG d   1       0.237  76.754 112.523  0.00  0.00    -0.090 HD
ENDBRANCH   5  18
BRANCH   3  22
ATOM     22  C   LIG d   1      -2.513  80.715 112.841  0.00  0.00     0.382 C 
ATOM     23  O   LIG d   1      -1.505  81.254 112.323  0.00  0.00    -0.241 OA
ATOM     24  O   LIG d   1      -3.622  81.275 112.750  0.00  0.00    -0.241 OA
ENDBRANCH   3  22
TORSDOF 7
ENDMDL
MODEL 2
REMARK VINA RESULT:      -4.9      2.881      5.269
REMARK  7 active torsions:
REMARK  status: ('A' for Active; 'I' for Inactive)
REMARK    1  A    between atoms: C_2  and  C_3 
REMARK    2  A    between atoms: C_3  and  O_6 
REMARK    3  A    between atoms: C_3  and  C_4 
REMARK    4  A    between atoms: C_7  and  O_6 
REMARK    5  A    between atoms: C_9  and  C_10 
REMARK    6  A    between atoms: N_15  and  C_14 
REMARK    7  A    between atoms: N_20  and  C_19 
REMARK       I    between atoms: C_22  and  N_20 
ROOT
ATOM      1  C   LIG d   1      -1.762  79.516 113.976  0.00  0.00     0.161 C 
ATOM      2  C   LIG d   1      -2.552  78.410 114.332  0.00  0.00     0.016 C 
ATOM      3  C   LIG d   1      -2.945  77.407 113.415  0.00  0.00     0.038 C 
ATOM      4  C   LIG d   1      -2.445  77.363 112.105  0.00  0.00     0.028 C 
ATOM      5  C   LIG d   1      -2.050  78.731 111.561  0.00  0.00    -0.047 C 
ATOM      6  C   LIG d   1      -1.115  79.425 112.578  0.00  0.00     0.091 C 
ENDROOT
BRANCH   1   7
ATOM      7  O   LIG d   1      -0.754  79.739 114.981  0.00  0.00    -0.368 OA
BRANCH   7   8
ATOM      8  C   LIG d   1      -0.838  78.908 116.165  0.00  0.00     0.119 C 
BRANCH   8   9
ATOM      9  C   LIG d   1      -0.841  79.845 117.388  0.00  0.00     0.028 C 
ATOM     10  C   LIG d   1      -2.199  79.862 118.111  0.00  0.00     0.006 C 
ENDBRANCH   8   9
BRANCH   8  11
ATOM     11  C   LIG d   1       0.411  78.037 116.324  0.00  0.00     0.028 C 
ATOM     12  C   LIG d   1       0.240  76.634 115.720  0.00  0.00     0.006 C 
ENDBRANCH   8  11
ENDBRANCH   7   8
ENDBRANCH   1   7
BRANCH   6  13
ATOM     13  N   LIG d   1      -0.749  80.804 112.161  0.00  0.00    -0.311 N 
ATOM     14  C   LIG d   1       0.352  81.094 111.470  0.00  0.00     0.210 C 
ATOM     15  C   LIG d   1       0.549  82.581 111.161  0.00  0.00     0.109 C 
ATOM     16  O   LIG d   1       1.167  80.256 111.056  0.00  0.00    -0.276 OA
ATOM     17  H   LIG d   1      -1.372  81.542 112.429  0.00  0.00     0.149 HD
ENDBRANCH   6  13
BRANCH   5  18
ATOM     18  N   LIG d   1      -1.419  78.522 110.244  0.00  0.00     0.381 N 
ATOM     19  H   LIG d   1      -1.504  77.562 109.977  0.00  0.00    -0.090 HD
ATOM     20  H   LIG d   1      -0.442  78.745 110.313  0.00  0.00    -0.090 HD
ATOM     21  H   LIG d   1      -1.853  79.104 109.562  0.00  0.00    -0.090 HD
ENDBRANCH   5  18
BRANCH   3  22
ATOM     22  C   LIG d   1      -3.880  76.456 113.796  0.00  0.00     0.382 C 
ATOM     23  O   LIG d   1      -5.051  76.514 113.350  0.00  0.00    -0.241 OA
ATOM     24  O   LIG d   1      -3.579  75.567 114.615  0.00  0.00    -0.241 OA
ENDBRANCH   3  22
TORSDOF 7
ENDMDL
MODEL 3
REMARK VINA RESULT:      -4.9      1.551      1.934
REMARK  7 active torsions:
REMARK  status: ('A' for Active; 'I' for Inactive)
REMARK    1  A    between atoms: C_2  and  C_3 
REMARK    2  A    between atoms: C_3  and  O_6 
REMARK    3  A    between atoms: C_3  and  C_4 
REMARK    4  A    between atoms: C_7  and  O_6 
REMARK    5  A    between atoms: C_9  and  C_10 
REMARK    6  A    between atoms: N_15  and  C_14 
REMARK    7  A    between atoms: N_20  and  C_19 
REMARK       I    between atoms: C_22  and  N_20 
ROOT
ATOM      1  C   LIG d   1      -3.253  78.031 115.571  0.00  0.00     0.161 C 
ATOM      2  C   LIG d   1      -3.296  79.065 114.621  0.00  0.00     0.016 C 
ATOM      3  C   LIG d   1      -2.235  79.350 113.732  0.00  0.00     0.038 C 
ATOM      4  C   LIG d   1      -1.110  78.518 113.629  0.00  0.00     0.028 C 
ATOM      5  C   LIG d   1      -0.798  77.759 114.915  0.00  0.00    -0.047 C 
ATOM      6  C   LIG d   1      -2.080  77.043 115.398  0.00  0.00     0.091 C 
ENDROOT
BRANCH   1   7
ATOM      7  O   LIG d   1      -4.507  77.322 115.579  0.00  0.00    -0.368 OA
BRANCH   7   8
ATOM      8  C   LIG d   1      -5.051  77.003 116.884  0.00  0.00     0.119 C 
BRANCH   8   9
ATOM      9  C   LIG d   1      -6.397  76.287 116.662  0.00  0.00     0.028 C 
ATOM     10  C   LIG d   1      -6.523  75.699 115.246  0.00  0.00     0.006 C 
ENDBRANCH   8   9
BRANCH   8  11
ATOM     11  C   LIG d   1      -5.392  78.272 117.671  0.00  0.00     0.028 C 
ATOM     12  C   LIG d   1      -6.887  78.379 118.012  0.00  0.00     0.006 C 
ENDBRANCH   8  11
ENDBRANCH   7   8
ENDBRANCH   1   7
BRANCH   6  13
ATOM     13  N   LIG d   1      -1.884  76.346 116.696  0.00  0.00    -0.311 N 
ATOM     14  C   LIG d   1      -1.828  75.021 116.815  0.00  0.00     0.210 C 
ATOM     15  C   LIG d   1      -1.640  74.507 118.246  0.00  0.00     0.109 C 
ATOM     16  O   LIG d   1      -1.883  74.222 115.868  0.00  0.00    -0.276 OA
ATOM     17  H   LIG d   1      -1.799  76.918 117.513  0.00  0.00     0.149 HD
ENDBRANCH   6  13
BRANCH   5  18
ATOM     18  N   LIG d   1       0.310  76.829 114.626  0.00  0.00     0.381 N 
ATOM     19  H   LIG d   1       0.124  76.334 113.777  0.00  0.00    -0.090 HD
ATOM     20  H   LIG d   1       0.377  76.161 115.373  0.00  0.00    -0.090 HD
ATOM     21  H   LIG d   1       1.166  77.333 114.544  0.00  0.00    -0.090 HD
ENDBRANCH   5  18
BRANCH   3  22
ATOM     22  C   LIG d   1      -2.275  80.502 112.961  0.00  0.00     0.382 C 
ATOM     23  O   LIG d   1      -3.357  81.117 112.808  0.00  0.00    -0.241 OA
ATOM     24  O   LIG d   1      -1.251  80.909 112.380  0.00  0.00    -0.241 OA
ENDBRANCH   3  22
TORSDOF 7
ENDMDL
MODEL 4
REMARK VINA RESULT:      -4.9      1.543      2.234
REMARK  7 active torsions:
REMARK  status: ('A' for Active; 'I' for Inactive)
REMARK    1  A    between atoms: C_2  and  C_3 
REMARK    2  A    between atoms: C_3  and  O_6 
REMARK    3  A    between atoms: C_3  and  C_4 
REMARK    4  A    between atoms: C_7  and  O_6 
REMARK    5  A    between atoms: C_9  and  C_10 
REMARK    6  A    between atoms: N_15  and  C_14 
REMARK    7  A    between atoms: N_20  and  C_19 
REMARK       I    between atoms: C_22  and  N_20 
ROOT
ATOM      1  C   LIG d   1      -2.312  77.945 116.180  0.00  0.00     0.161 C 
ATOM      2  C   LIG d   1      -2.738  78.762 115.119  0.00  0.00     0.016 C 
ATOM      3  C   LIG d   1      -2.285  78.608 113.789  0.00  0.00     0.038 C 
ATOM      4  C   LIG d   1      -1.485  77.524 113.398  0.00  0.00     0.028 C 
ATOM      5  C   LIG d   1      -0.624  76.969 114.528  0.00  0.00    -0.047 C 
ATOM      6  C   LIG d   1      -1.525  76.689 115.753  0.00  0.00     0.091 C 
ENDROOT
BRANCH   1   7
ATOM      7  O   LIG d   1      -3.441  77.576 116.997  0.00  0.00    -0.368 OA
BRANCH   7   8
ATOM      8  C   LIG d   1      -4.681  77.321 116.292  0.00  0.00     0.119 C 
BRANCH   8   9
ATOM      9  C   LIG d   1      -5.829  77.861 117.167  0.00  0.00     0.028 C 
ATOM     10  C   LIG d   1      -5.527  79.257 117.736  0.00  0.00     0.006 C 
ENDBRANCH   8   9
BRANCH   8  11
ATOM     11  C   LIG d   1      -4.945  75.819 116.157  0.00  0.00     0.028 C 
ATOM     12  C   LIG d   1      -5.080  75.367 114.694  0.00  0.00     0.006 C 
ENDBRANCH   8  11
ENDBRANCH   7   8
ENDBRANCH   1   7
BRANCH   6  13
ATOM     13  N   LIG d   1      -0.749  76.222 116.932  0.00  0.00    -0.311 N 
ATOM     14  C   LIG d   1      -0.942  75.040 117.515  0.00  0.00     0.210 C 
ATOM     15  C   LIG d   1      -0.049  74.765 118.729  0.00  0.00     0.109 C 
ATOM     16  O   LIG d   1      -1.746  74.181 117.124  0.00  0.00    -0.276 OA
ATOM     17  H   LIG d   1      -0.054  76.844 117.296  0.00  0.00     0.149 HD
ENDBRANCH   6  13
BRANCH   5  18
ATOM     18  N   LIG d   1       0.053  75.761 114.020  0.00  0.00     0.381 N 
ATOM     19  H   LIG d   1      -0.537  75.293 113.362  0.00  0.00    -0.090 HD
ATOM     20  H   LIG d   1       0.225  75.137 114.789  0.00  0.00    -0.090 HD
ATOM     21  H   LIG d   1       0.914  76.010 113.587  0.00  0.00    -0.090 HD
ENDBRANCH   5  18
BRANCH   3  22
ATOM     22  C   LIG d   1      -2.601  79.569 112.840  0.00  0.00     0.382 C 
ATOM     23  O   LIG d   1      -2.131  79.482 111.680  0.00  0.00    -0.241 OA
ATOM     24  O   LIG d   1      -3.315  80.544 113.142  0.00  0.00    -0.241 OA
ENDBRANCH   3  22
TORSDOF 7
ENDMDL
MODEL 5
REMARK VINA RESULT:      -4.8      2.595      3.281
REMARK  7 active torsions:
REMARK  status: ('A' for Active; 'I' for Inactive)
REMARK    1  A    between atoms: C_2  and  C_3 
REMARK    2  A    between atoms: C_3  and  O_6 
REMARK    3  A    between atoms: C_3  and  C_4 
REMARK    4  A    between atoms: C_7  and  O_6 
REMARK    5  A    between atoms: C_9  and  C_10 
REMARK    6  A    between atoms: N_15  and  C_14 
REMARK    7  A    between atoms: N_20  and  C_19 
REMARK       I    between atoms: C_22  and  N_20 
ROOT
ATOM      1  C   LIG d   1      -2.712  77.092 114.711  0.00  0.00     0.161 C 
ATOM      2  C   LIG d   1      -2.920  77.072 113.321  0.00  0.00     0.016 C 
ATOM      3  C   LIG d   1      -2.089  77.751 112.401  0.00  0.00     0.038 C 
ATOM      4  C   LIG d   1      -0.898  78.377 112.798  0.00  0.00     0.028 C 
ATOM      5  C   LIG d   1      -0.918  78.851 114.248  0.00  0.00    -0.047 C 
ATOM      6  C   LIG d   1      -1.355  77.677 115.153  0.00  0.00     0.091 C 
ENDROOT
BRANCH   1   7
ATOM      7  O   LIG d   1      -2.886  75.767 115.250  0.00  0.00    -0.368 OA
BRANCH   7   8
ATOM      8  C   LIG d   1      -4.095  75.544 116.017  0.00  0.00     0.119 C 
BRANCH   8   9
ATOM      9  C   LIG d   1      -5.099  74.821 115.099  0.00  0.00     0.028 C 
ATOM     10  C   LIG d   1      -6.208  75.757 114.590  0.00  0.00     0.006 C 
ENDBRANCH   8   9
BRANCH   8  11
ATOM     11  C   LIG d   1      -4.768  76.868 116.392  0.00  0.00     0.028 C 
ATOM     12  C   LIG d   1      -4.755  77.135 117.906  0.00  0.00     0.006 C 
ENDBRANCH   8  11
ENDBRANCH   7   8
ENDBRANCH   1   7
BRANCH   6  13
ATOM     13  N   LIG d   1      -1.481  78.078 116.579  0.00  0.00    -0.311 N 
ATOM     14  C   LIG d   1      -0.954  77.384 117.585  0.00  0.00     0.210 C 
ATOM     15  C   LIG d   1      -1.219  77.961 118.979  0.00  0.00     0.109 C 
ATOM     16  O   LIG d   1      -0.263  76.361 117.454  0.00  0.00    -0.276 OA
ATOM     17  H   LIG d   1      -1.999  78.913 116.774  0.00  0.00     0.149 HD
ENDBRANCH   6  13
BRANCH   5  18
ATOM     18  N   LIG d   1       0.430  79.358 114.569  0.00  0.00     0.381 N 
ATOM     19  H   LIG d   1       1.061  79.138 113.824  0.00  0.00    -0.090 HD
ATOM     20  H   LIG d   1       0.757  78.906 115.404  0.00  0.00    -0.090 HD
ATOM     21  H   LIG d   1       0.399  80.344 114.707  0.00  0.00    -0.090 HD
ENDBRANCH   5  18
BRANCH   3  22
ATOM     22  C   LIG d   1      -2.469  77.843 111.070  0.00  0.00     0.382 C 
ATOM     23  O   LIG d   1      -3.562  77.355 110.696  0.00  0.00    -0.241 OA
ATOM     24  O   LIG d   1      -1.712  78.368 110.232  0.00  0.00    -0.241 OA
ENDBRANCH   3  22
TORSDOF 7
ENDMDL
MODEL 6
REMARK VINA RESULT:      -4.4      2.769      4.126
REMARK  7 active torsions:
REMARK  status: ('A' for Active; 'I' for Inactive)
REMARK    1  A    between atoms: C_2  and  C_3 
REMARK    2  A    between atoms: C_3  and  O_6 
REMARK    3  A    between atoms: C_3  and  C_4 
REMARK    4  A    between atoms: C_7  and  O_6 
REMARK    5  A    between atoms: C_9  and  C_10 
REMARK    6  A    between atoms: N_15  and  C_14 
REMARK    7  A    between atoms: N_20  and  C_19 
REMARK       I    between atoms: C_22  and  N_20 
ROOT
ATOM      1  C   LIG d   1      -2.392  78.051 115.461  0.00  0.00     0.161 C 
ATOM      2  C   LIG d   1      -2.938  77.591 114.251  0.00  0.00     0.016 C 
ATOM      3  C   LIG d   1      -2.354  77.842 112.988  0.00  0.00     0.038 C 
ATOM      4  C   LIG d   1      -1.094  78.446 112.861  0.00  0.00     0.028 C 
ATOM      5  C   LIG d   1      -0.747  79.374 114.020  0.00  0.00    -0.047 C 
ATOM      6  C   LIG d   1      -0.960  78.615 115.350  0.00  0.00     0.091 C 
ENDROOT
BRANCH   1   7
ATOM      7  O   LIG d   1      -2.443  77.003 116.449  0.00  0.00    -0.368 OA
BRANCH   7   8
ATOM      8  C   LIG d   1      -1.384  76.016 116.386  0.00  0.00     0.119 C 
BRANCH   8   9
ATOM      9  C   LIG d   1      -2.044  74.645 116.139  0.00  0.00     0.028 C 
ATOM     10  C   LIG d   1      -3.568  74.681 116.347  0.00  0.00     0.006 C 
ENDBRANCH   8   9
BRANCH   8  11
ATOM     11  C   LIG d   1      -0.665  75.883 117.732  0.00  0.00     0.028 C 
ATOM     12  C   LIG d   1      -0.337  74.425 118.091  0.00  0.00     0.006 C 
ENDBRANCH   8  11
ENDBRANCH   7   8
ENDBRANCH   1   7
BRANCH   6  13
ATOM     13  N   LIG d   1      -0.724  79.477 116.538  0.00  0.00    -0.311 N 
ATOM     14  C   LIG d   1       0.427  79.503 117.208  0.00  0.00     0.210 C 
ATOM     15  C   LIG d   1       0.452  80.447 118.414  0.00  0.00     0.109 C 
ATOM     16  O   LIG d   1       1.440  78.857 116.899  0.00  0.00    -0.276 OA
ATOM     17  H   LIG d   1      -1.482  80.057 116.839  0.00  0.00     0.149 HD
ENDBRANCH   6  13
BRANCH   5  18
ATOM     18  N   LIG d   1       0.644  79.825 113.829  0.00  0.00     0.381 N 
ATOM     19  H   LIG d   1       1.176  79.104 113.384  0.00  0.00    -0.090 HD
ATOM     20  H   LIG d   1       1.053  80.010 114.728  0.00  0.00    -0.090 HD
ATOM     21  H   LIG d   1       0.661  80.652 113.272  0.00  0.00    -0.090 HD
ENDBRANCH   5  18
BRANCH   3  22
ATOM     22  C   LIG d   1      -3.051  77.523 111.833  0.00  0.00     0.382 C 
ATOM     23  O   LIG d   1      -4.304  77.581 111.820  0.00  0.00    -0.241 OA
ATOM     24  O   LIG d   1      -2.445  77.135 110.816  0.00  0.00    -0.241 OA
ENDBRANCH   3  22
TORSDOF 7
ENDMDL
MODEL 7
REMARK VINA RESULT:      -4.3      2.787      5.155
REMARK  7 active torsions:
REMARK  status: ('A' for Active; 'I' for Inactive)
REMARK    1  A    between atoms: C_2  and  C_3 
REMARK    2  A    between atoms: C_3  and  O_6 
REMARK    3  A    between atoms: C_3  and  C_4 
REMARK    4  A    between atoms: C_7  and  O_6 
REMARK    5  A    between atoms: C_9  and  C_10 
REMARK    6  A    between atoms: N_15  and  C_14 
REMARK    7  A    between atoms: N_20  and  C_19 
REMARK       I    between atoms: C_22  and  N_20 
ROOT
ATOM      1  C   LIG d   1      -2.402  75.679 115.223  0.00  0.00     0.161 C 
ATOM      2  C   LIG d   1      -3.728  75.733 114.762  0.00  0.00     0.016 C 
ATOM      3  C   LIG d   1      -4.816  76.138 115.569  0.00  0.00     0.038 C 
ATOM      4  C   LIG d   1      -4.630  76.664 116.856  0.00  0.00     0.028 C 
ATOM      5  C   LIG d   1      -3.366  76.156 117.541  0.00  0.00    -0.047 C 
ATOM      6  C   LIG d   1      -2.164  76.356 116.590  0.00  0.00     0.091 C 
ENDROOT
BRANCH   1   7
ATOM      7  O   LIG d   1      -1.516  76.233 114.230  0.00  0.00    -0.368 OA
BRANCH   7   8
ATOM      8  C   LIG d   1      -2.057  77.306 113.421  0.00  0.00     0.119 C 
BRANCH   8   9
ATOM      9  C   LIG d   1      -1.459  77.168 112.008  0.00  0.00     0.028 C 
ATOM     10  C   LIG d   1      -2.365  77.776 110.924  0.00  0.00     0.006 C 
ENDBRANCH   8   9
BRANCH   8  11
ATOM     11  C   LIG d   1      -1.591  78.674 113.927  0.00  0.00     0.028 C 
ATOM     12  C   LIG d   1      -2.723  79.488 114.573  0.00  0.00     0.006 C 
ENDBRANCH   8  11
ENDBRANCH   7   8
ENDBRANCH   1   7
BRANCH   6  13
ATOM     13  N   LIG d   1      -0.901  75.808 117.149  0.00  0.00    -0.311 N 
ATOM     14  C   LIG d   1      -0.047  76.529 117.873  0.00  0.00     0.210 C 
ATOM     15  C   LIG d   1       1.204  75.776 118.336  0.00  0.00     0.109 C 
ATOM     16  O   LIG d   1      -0.221  77.712 118.203  0.00  0.00    -0.276 OA
ATOM     17  H   LIG d   1      -0.696  74.847 116.956  0.00  0.00     0.149 HD
ENDBRANCH   6  13
BRANCH   5  18
ATOM     18  N   LIG d   1      -3.224  76.889 118.814  0.00  0.00     0.381 N 
ATOM     19  H   LIG d   1      -3.225  77.874 118.639  0.00  0.00    -0.090 HD
ATOM     20  H   LIG d   1      -2.344  76.644 119.233  0.00  0.00    -0.090 HD
ATOM     21  H   LIG d   1      -3.971  76.652 119.429  0.00  0.00    -0.090 HD
ENDBRANCH   5  18
BRANCH   3  22
ATOM     22  C   LIG d   1      -6.113  75.980 115.103  0.00  0.00     0.382 C 
ATOM     23  O   LIG d   1      -7.026  75.642 115.894  0.00  0.00    -0.241 OA
ATOM     24  O   LIG d   1      -6.372  76.128 113.894  0.00  0.00    -0.241 OA
ENDBRANCH   3  22
TORSDOF 7
ENDMDL
MODEL 8
REMARK VINA RESULT:      -4.0      2.868      5.293
REMARK  7 active torsions:
REMARK  status: ('A' for Active; 'I' for Inactive)
REMARK    1  A    between atoms: C_2  and  C_3 
REMARK    2  A    between atoms: C_3  and  O_6 
REMARK    3  A    between atoms: C_3  and  C_4 
REMARK    4  A    between atoms: C_7  and  O_6 
REMARK    5  A    between atoms: C_9  and  C_10 
REMARK    6  A    between atoms: N_15  and  C_14 
REMARK    7  A    between atoms: N_20  and  C_19 
REMARK       I    between atoms: C_22  and  N_20 
ROOT
ATOM      1  C   LIG d   1      -4.151  78.117 116.813  0.00  0.00     0.161 C 
ATOM      2  C   LIG d   1      -5.441  78.535 117.180  0.00  0.00     0.016 C 
ATOM      3  C   LIG d   1      -5.691  79.656 118.004  0.00  0.00     0.038 C 
ATOM      4  C   LIG d   1      -4.666  80.531 118.396  0.00  0.00     0.028 C 
ATOM      5  C   LIG d   1      -3.296  79.865 118.469  0.00  0.00    -0.047 C 
ATOM      6  C   LIG d   1      -3.028  79.123 117.140  0.00  0.00     0.091 C 
ENDROOT
BRANCH   1   7
ATOM      7  O   LIG d   1      -4.127  77.776 115.413  0.00  0.00    -0.368 OA
BRANCH   7   8
ATOM      8  C   LIG d   1      -3.879  76.384 115.099  0.00  0.00     0.119 C 
BRANCH   8   9
ATOM      9  C   LIG d   1      -5.101  75.859 114.321  0.00  0.00     0.028 C 
ATOM     10  C   LIG d   1      -6.236  75.400 115.250  0.00  0.00     0.006 C 
ENDBRANCH   8   9
BRANCH   8  11
ATOM     11  C   LIG d   1      -3.811  75.530 116.369  0.00  0.00     0.028 C 
ATOM     12  C   LIG d   1      -2.488  74.758 116.498  0.00  0.00     0.006 C 
ENDBRANCH   8  11
ENDBRANCH   7   8
ENDBRANCH   1   7
BRANCH   6  13
ATOM     13  N   LIG d   1      -1.744  78.374 117.158  0.00  0.00    -0.311 N 
ATOM     14  C   LIG d   1      -0.731  78.635 116.335  0.00  0.00     0.210 C 
ATOM     15  C   LIG d   1       0.493  77.731 116.508  0.00  0.00     0.109 C 
ATOM     16  O   LIG d   1      -0.717  79.551 115.499  0.00  0.00    -0.276 OA
ATOM     17  H   LIG d   1      -1.658  77.634 117.827  0.00  0.00     0.149 HD
ENDBRANCH   6  13
BRANCH   5  18
ATOM     18  N   LIG d   1      -2.304  80.918 118.754  0.00  0.00     0.381 N 
ATOM     19  H   LIG d   1      -2.699  81.599 119.371  0.00  0.00    -0.090 HD
ATOM     20  H   LIG d   1      -2.060  81.377 117.893  0.00  0.00    -0.090 HD
ATOM     21  H   LIG d   1      -1.490  80.518 119.166  0.00  0.00    -0.090 HD
ENDBRANCH   5  18
BRANCH   3  22
ATOM     22  C   LIG d   1      -6.973  79.890 118.477  0.00  0.00     0.382 C 
ATOM     23  O   LIG d   1      -7.789  80.541 117.781  0.00  0.00    -0.241 OA
ATOM     24  O   LIG d   1      -7.310  79.496 119.610  0.00  0.00    -0.241 OA
ENDBRANCH   3  22
TORSDOF 7
ENDMDL
MODEL 9
REMARK VINA RESULT:      -3.9      2.832      4.947
REMARK  7 active torsions:
REMARK  status: ('A' for Active; 'I' for Inactive)
REMARK    1  A    between atoms: C_2  and  C_3 
REMARK    2  A    between atoms: C_3  and  O_6 
REMARK    3  A    between atoms: C_3  and  C_4 
REMARK    4  A    between atoms: C_7  and  O_6 
REMARK    5  A    between atoms: C_9  and  C_10 
REMARK    6  A    between atoms: N_15  and  C_14 
REMARK    7  A    between atoms: N_20  and  C_19 
REMARK       I    between atoms: C_22  and  N_20 
ROOT
ATOM      1  C   LIG d   1      -2.319  77.106 116.999  0.00  0.00     0.161 C 
ATOM      2  C   LIG d   1      -3.173  76.392 116.143  0.00  0.00     0.016 C 
ATOM      3  C   LIG d   1      -3.348  76.709 114.776  0.00  0.00     0.038 C 
ATOM      4  C   LIG d   1      -2.562  77.677 114.133  0.00  0.00     0.028 C 
ATOM      5  C   LIG d   1      -2.049  78.763 115.072  0.00  0.00    -0.047 C 
ATOM      6  C   LIG d   1      -1.369  78.094 116.289  0.00  0.00     0.091 C 
ENDROOT
BRANCH   1   7
ATOM      7  O   LIG d   1      -1.566  76.188 117.816  0.00  0.00    -0.368 OA
BRANCH   7   8
ATOM      8  C   LIG d   1      -0.272  75.790 117.302  0.00  0.00     0.119 C 
BRANCH   8   9
ATOM      9  C   LIG d   1      -0.388  74.325 116.838  0.00  0.00     0.028 C 
ATOM     10  C   LIG d   1      -0.282  74.183 115.311  0.00  0.00     0.006 C 
ENDBRANCH   8   9
BRANCH   8  11
ATOM     11  C   LIG d   1       0.789  75.783 118.407  0.00  0.00     0.028 C 
ATOM     12  C   LIG d   1       0.749  74.507 119.262  0.00  0.00     0.006 C 
ENDBRANCH   8  11
ENDBRANCH   7   8
ENDBRANCH   1   7
BRANCH   6  13
ATOM     13  N   LIG d   1      -0.914  79.085 117.299  0.00  0.00    -0.311 N 
ATOM     14  C   LIG d   1      -1.733  79.938 117.911  0.00  0.00     0.210 C 
ATOM     15  C   LIG d   1      -1.054  80.888 118.903  0.00  0.00     0.109 C 
ATOM     16  O   LIG d   1      -2.962  79.976 117.751  0.00  0.00    -0.276 OA
ATOM     17  H   LIG d   1       0.065  79.101 117.512  0.00  0.00     0.149 HD
ENDBRANCH   6  13
BRANCH   5  18
ATOM     18  N   LIG d   1      -1.134  79.624 114.300  0.00  0.00     0.381 N 
ATOM     19  H   LIG d   1      -0.441  80.013 114.908  0.00  0.00    -0.090 HD
ATOM     20  H   LIG d   1      -1.661  80.380 113.897  0.00  0.00    -0.090 HD
ATOM     21  H   LIG d   1      -0.695  79.095 113.579  0.00  0.00    -0.090 HD
ENDBRANCH   5  18
BRANCH   3  22
ATOM     22  C   LIG d   1      -4.349  76.083 114.048  0.00  0.00     0.382 C 
ATOM     23  O   LIG d   1      -4.631  74.882 114.276  0.00  0.00    -0.241 OA
ATOM     24  O   LIG d   1      -4.941  76.690 113.136  0.00  0.00    -0.241 OA
ENDBRANCH   3  22
TORSDOF 7
ENDMDL
