MODEL 1
REMARK VINA RESULT:      -5.3      0.000      0.000
REMARK  7 active torsions:
REMARK  status: ('A' for Active; 'I' for Inactive)
REMARK    1  A    between atoms: C_2  and  C_3 
REMARK    2  A    between atoms: C_3  and  O_6 
REMARK    3  A    between atoms: C_3  and  C_4 
REMARK    4  A    between atoms: C_7  and  O_6 
REMARK    5  A    between atoms: C_9  and  C_10 
REMARK    6  A    between atoms: N_15  and  C_14 
REMARK    7  A    between atoms: N_20  and  C_19 
REMARK       I    between atoms: C_22  and  N_20 
ROOT
ATOM      1  C   LIG d   1      -3.145  77.658 115.995  0.00  0.00     0.161 C 
ATOM      2  C   LIG d   1      -3.531  78.050 114.702  0.00  0.00     0.016 C 
ATOM      3  C   LIG d   1      -2.673  77.984 113.580  0.00  0.00     0.038 C 
ATOM      4  C   LIG d   1      -1.410  77.376 113.647  0.00  0.00     0.028 C 
ATOM      5  C   LIG d   1      -0.787  77.427 115.038  0.00  0.00    -0.047 C 
ATOM      6  C   LIG d   1      -1.809  76.889 116.066  0.00  0.00     0.091 C 
ENDROOT
BRANCH   1   7
ATOM      7  O   LIG d   1      -4.199  76.889 116.608  0.00  0.00    -0.368 OA
BRANCH   7   8
ATOM      8  C   LIG d   1      -5.347  76.601 115.772  0.00  0.00     0.119 C 
BRANCH   8   9
ATOM      9  C   LIG d   1      -6.587  77.195 116.468  0.00  0.00     0.028 C 
ATOM     10  C   LIG d   1      -7.851  76.351 116.233  0.00  0.00     0.006 C 
ENDBRANCH   8   9
BRANCH   8  11
ATOM     11  C   LIG d   1      -5.611  75.095 115.687  0.00  0.00     0.028 C 
ATOM     12  C   LIG d   1      -4.742  74.397 114.630  0.00  0.00     0.006 C 
ENDBRANCH   8  11
ENDBRANCH   7   8
ENDBRANCH   1   7
BRANCH   6  13
ATOM     13  N   LIG d   1      -1.310  76.982 117.463  0.00  0.00    -0.311 N 
ATOM     14  C   LIG d   1      -0.602  76.021 118.054  0.00  0.00     0.210 C 
ATOM     15  C   LIG d   1      -0.204  76.311 119.505  0.00  0.00     0.109 C 
ATOM     16  O   LIG d   1      -0.239  74.971 117.504  0.00  0.00    -0.276 OA
ATOM     17  H   LIG d   1      -1.533  77.815 117.972  0.00  0.00     0.149 HD
ENDBRANCH   6  13
BRANCH   5  18
ATOM     18  N   LIG d   1       0.460  76.639 114.996  0.00  0.00     0.381 N 
ATOM     19  H   LIG d   1       0.245  75.663 115.040  0.00  0.00    -0.090 HD
ATOM     20  H   LIG d   1       1.020  76.875 115.797  0.00  0.00    -0.090 HD
ATOM     21  H   LIG d   1       0.962  76.840 114.160  0.00  0.00    -0.090 HD
ENDBRANCH   5  18
BRANCH   3  22
ATOM     22  C   LIG d   1      -3.061  78.566 112.383  0.00  0.00     0.382 C 
ATOM     23  O   LIG d   1      -3.387  79.777 112.352  0.00  0.00    -0.241 OA
ATOM     24  O   LIG d   1      -3.132  77.885 111.343  0.00  0.00    -0.241 OA
ENDBRANCH   3  22
TORSDOF 7
ENDMDL
MODEL 2
REMARK VINA RESULT:      -5.1      2.767      3.800
REMARK  7 active torsions:
REMARK  status: ('A' for Active; 'I' for Inactive)
REMARK    1  A    between atoms: C_2  and  C_3 
REMARK    2  A    between atoms: C_3  and  O_6 
REMARK    3  A    between atoms: C_3  and  C_4 
REMARK    4  A    between atoms: C_7  and  O_6 
REMARK    5  A    between atoms: C_9  and  C_10 
REMARK    6  A    between atoms: N_15  and  C_14 
REMARK    7  A    between atoms: N_20  and  C_19 
REMARK       I    between atoms: C_22  and  N_20 
ROOT
ATOM      1  C   LIG d   1      -4.620  76.873 117.716  0.00  0.00     0.161 C 
ATOM      2  C   LIG d   1      -5.618  77.853 117.847  0.00  0.00     0.016 C 
ATOM      3  C   LIG d   1      -5.526  79.139 117.266  0.00  0.00     0.038 C 
ATOM      4  C   LIG d   1      -4.490  79.482 116.384  0.00  0.00     0.028 C 
ATOM      5  C   LIG d   1      -3.204  78.699 116.627  0.00  0.00    -0.047 C 
ATOM      6  C   LIG d   1      -3.535  77.190 116.666  0.00  0.00     0.091 C 
ENDROOT
BRANCH   1   7
ATOM      7  O   LIG d   1      -5.225  75.594 117.442  0.00  0.00    -0.368 OA
BRANCH   7   8
ATOM      8  C   LIG d   1      -6.277  75.587 116.446  0.00  0.00     0.119 C 
BRANCH   8   9
ATOM      9  C   LIG d   1      -7.422  74.709 116.988  0.00  0.00     0.028 C 
ATOM     10  C   LIG d   1      -8.787  75.415 116.919  0.00  0.00     0.006 C 
ENDBRANCH   8   9
BRANCH   8  11
ATOM     11  C   LIG d   1      -5.819  74.903 115.155  0.00  0.00     0.028 C 
ATOM     12  C   LIG d   1      -5.660  75.887 113.984  0.00  0.00     0.006 C 
ENDBRANCH   8  11
ENDBRANCH   7   8
ENDBRANCH   1   7
BRANCH   6  13
ATOM     13  N   LIG d   1      -2.346  76.357 116.983  0.00  0.00    -0.311 N 
ATOM     14  C   LIG d   1      -1.866  75.423 116.163  0.00  0.00     0.210 C 
ATOM     15  C   LIG d   1      -0.643  74.665 116.692  0.00  0.00     0.109 C 
ATOM     16  O   LIG d   1      -2.316  75.172 115.035  0.00  0.00    -0.276 OA
ATOM     17  H   LIG d   1      -1.899  76.516 117.865  0.00  0.00     0.149 HD
ENDBRANCH   6  13
BRANCH   5  18
ATOM     18  N   LIG d   1      -2.257  79.056 115.553  0.00  0.00     0.381 N 
ATOM     19  H   LIG d   1      -1.779  78.235 115.237  0.00  0.00    -0.090 HD
ATOM     20  H   LIG d   1      -1.574  79.695 115.921  0.00  0.00    -0.090 HD
ATOM     21  H   LIG d   1      -2.744  79.479 114.795  0.00  0.00    -0.090 HD
ENDBRANCH   5  18
BRANCH   3  22
ATOM     22  C   LIG d   1      -6.456  80.112 117.599  0.00  0.00     0.382 C 
ATOM     23  O   LIG d   1      -7.583  80.117 117.046  0.00  0.00    -0.241 OA
ATOM     24  O   LIG d   1      -6.168  81.010 118.412  0.00  0.00    -0.241 OA
ENDBRANCH   3  22
TORSDOF 7
ENDMDL
MODEL 3
REMARK VINA RESULT:      -4.9      2.025      2.574
REMARK  7 active torsions:
REMARK  status: ('A' for Active; 'I' for Inactive)
REMARK    1  A    between atoms: C_2  and  C_3 
REMARK    2  A    between atoms: C_3  and  O_6 
REMARK    3  A    between atoms: C_3  and  C_4 
REMARK    4  A    between atoms: C_7  and  O_6 
REMARK    5  A    between atoms: C_9  and  C_10 
REMARK    6  A    between atoms: N_15  and  C_14 
REMARK    7  A    between atoms: N_20  and  C_19 
REMARK       I    between atoms: C_22  and  N_20 
ROOT
ATOM      1  C   LIG d   1      -2.370  78.467 116.131  0.00  0.00     0.161 C 
ATOM      2  C   LIG d   1      -2.807  79.067 114.938  0.00  0.00     0.016 C 
ATOM      3  C   LIG d   1      -2.342  78.684 113.659  0.00  0.00     0.038 C 
ATOM      4  C   LIG d   1      -1.517  77.565 113.474  0.00  0.00     0.028 C 
ATOM      5  C   LIG d   1      -0.653  77.243 114.689  0.00  0.00    -0.047 C 
ATOM      6  C   LIG d   1      -1.555  77.171 115.942  0.00  0.00     0.091 C 
ENDROOT
BRANCH   1   7
ATOM      7  O   LIG d   1      -3.496  78.228 116.998  0.00  0.00    -0.368 OA
BRANCH   7   8
ATOM      8  C   LIG d   1      -3.532  78.999 118.225  0.00  0.00     0.119 C 
BRANCH   8   9
ATOM      9  C   LIG d   1      -3.628  78.002 119.396  0.00  0.00     0.028 C 
ATOM     10  C   LIG d   1      -4.109  76.612 118.946  0.00  0.00     0.006 C 
ENDBRANCH   8   9
BRANCH   8  11
ATOM     11  C   LIG d   1      -4.802  79.850 118.311  0.00  0.00     0.028 C 
ATOM     12  C   LIG d   1      -5.755  79.620 117.128  0.00  0.00     0.006 C 
ENDBRANCH   8  11
ENDBRANCH   7   8
ENDBRANCH   1   7
BRANCH   6  13
ATOM     13  N   LIG d   1      -0.777  76.943 117.188  0.00  0.00    -0.311 N 
ATOM     14  C   LIG d   1      -0.453  75.732 117.639  0.00  0.00     0.210 C 
ATOM     15  C   LIG d   1       0.334  75.721 118.953  0.00  0.00     0.109 C 
ATOM     16  O   LIG d   1      -0.716  74.668 117.059  0.00  0.00    -0.276 OA
ATOM     17  H   LIG d   1      -0.496  77.753 117.704  0.00  0.00     0.149 HD
ENDBRANCH   6  13
BRANCH   5  18
ATOM     18  N   LIG d   1       0.053  75.978 114.410  0.00  0.00     0.381 N 
ATOM     19  H   LIG d   1       0.676  76.101 113.637  0.00  0.00    -0.090 HD
ATOM     20  H   LIG d   1      -0.622  75.277 114.162  0.00  0.00    -0.090 HD
ATOM     21  H   LIG d   1       0.563  75.688 115.215  0.00  0.00    -0.090 HD
ENDBRANCH   5  18
BRANCH   3  22
ATOM     22  C   LIG d   1      -2.672  79.450 112.551  0.00  0.00     0.382 C 
ATOM     23  O   LIG d   1      -3.455  80.423 112.672  0.00  0.00    -0.241 OA
ATOM     24  O   LIG d   1      -2.233  79.152 111.424  0.00  0.00    -0.241 OA
ENDBRANCH   3  22
TORSDOF 7
ENDMDL
MODEL 4
REMARK VINA RESULT:      -4.6      2.232      4.757
REMARK  7 active torsions:
REMARK  status: ('A' for Active; 'I' for Inactive)
REMARK    1  A    between atoms: C_2  and  C_3 
REMARK    2  A    between atoms: C_3  and  O_6 
REMARK    3  A    between atoms: C_3  and  C_4 
REMARK    4  A    between atoms: C_7  and  O_6 
REMARK    5  A    between atoms: C_9  and  C_10 
REMARK    6  A    between atoms: N_15  and  C_14 
REMARK    7  A    between atoms: N_20  and  C_19 
REMARK       I    between atoms: C_22  and  N_20 
ROOT
ATOM      1  C   LIG d   1      -2.755  76.671 114.607  0.00  0.00     0.161 C 
ATOM      2  C   LIG d   1      -4.104  76.381 114.343  0.00  0.00     0.016 C 
ATOM      3  C   LIG d   1      -5.161  76.741 115.210  0.00  0.00     0.038 C 
ATOM      4  C   LIG d   1      -4.954  77.554 116.334  0.00  0.00     0.028 C 
ATOM      5  C   LIG d   1      -3.546  77.444 116.911  0.00  0.00    -0.047 C 
ATOM      6  C   LIG d   1      -2.521  77.654 115.773  0.00  0.00     0.091 C 
ENDROOT
BRANCH   1   7
ATOM      7  O   LIG d   1      -2.115  77.153 113.409  0.00  0.00    -0.368 OA
BRANCH   7   8
ATOM      8  C   LIG d   1      -2.772  78.255 112.736  0.00  0.00     0.119 C 
BRANCH   8   9
ATOM      9  C   LIG d   1      -2.791  77.931 111.229  0.00  0.00     0.028 C 
ATOM     10  C   LIG d   1      -1.412  78.109 110.573  0.00  0.00     0.006 C 
ENDBRANCH   8   9
BRANCH   8  11
ATOM     11  C   LIG d   1      -1.961  79.548 112.862  0.00  0.00     0.028 C 
ATOM     12  C   LIG d   1      -2.835  80.810 112.786  0.00  0.00     0.006 C 
ENDBRANCH   8  11
ENDBRANCH   7   8
ENDBRANCH   1   7
BRANCH   6  13
ATOM     13  N   LIG d   1      -1.119  77.478 116.235  0.00  0.00    -0.311 N 
ATOM     14  C   LIG d   1      -0.346  78.488 116.633  0.00  0.00     0.210 C 
ATOM     15  C   LIG d   1       1.073  78.090 117.050  0.00  0.00     0.109 C 
ATOM     16  O   LIG d   1      -0.712  79.670 116.712  0.00  0.00    -0.276 OA
ATOM     17  H   LIG d   1      -0.751  76.547 116.233  0.00  0.00     0.149 HD
ENDBRANCH   6  13
BRANCH   5  18
ATOM     18  N   LIG d   1      -3.427  78.443 117.989  0.00  0.00     0.381 N 
ATOM     19  H   LIG d   1      -2.993  79.272 117.636  0.00  0.00    -0.090 HD
ATOM     20  H   LIG d   1      -2.844  78.067 118.717  0.00  0.00    -0.090 HD
ATOM     21  H   LIG d   1      -4.328  78.660 118.354  0.00  0.00    -0.090 HD
ENDBRANCH   5  18
BRANCH   3  22
ATOM     22  C   LIG d   1      -6.438  76.253 114.977  0.00  0.00     0.382 C 
ATOM     23  O   LIG d   1      -6.943  76.342 113.832  0.00  0.00    -0.241 OA
ATOM     24  O   LIG d   1      -7.107  75.765 115.907  0.00  0.00    -0.241 OA
ENDBRANCH   3  22
TORSDOF 7
ENDMDL
MODEL 5
REMARK VINA RESULT:      -4.6      2.450      4.173
REMARK  7 active torsions:
REMARK  status: ('A' for Active; 'I' for Inactive)
REMARK    1  A    between atoms: C_2  and  C_3 
REMARK    2  A    between atoms: C_3  and  O_6 
REMARK    3  A    between atoms: C_3  and  C_4 
REMARK    4  A    between atoms: C_7  and  O_6 
REMARK    5  A    between atoms: C_9  and  C_10 
REMARK    6  A    between atoms: N_15  and  C_14 
REMARK    7  A    between atoms: N_20  and  C_19 
REMARK       I    between atoms: C_22  and  N_20 
ROOT
ATOM      1  C   LIG d   1      -3.361  76.861 114.357  0.00  0.00     0.161 C 
ATOM      2  C   LIG d   1      -2.887  77.858 113.488  0.00  0.00     0.016 C 
ATOM      3  C   LIG d   1      -3.000  79.241 113.756  0.00  0.00     0.038 C 
ATOM      4  C   LIG d   1      -3.462  79.722 114.991  0.00  0.00     0.028 C 
ATOM      5  C   LIG d   1      -4.417  78.764 115.695  0.00  0.00    -0.047 C 
ATOM      6  C   LIG d   1      -3.767  77.363 115.758  0.00  0.00     0.091 C 
ENDROOT
BRANCH   1   7
ATOM      7  O   LIG d   1      -2.386  75.805 114.467  0.00  0.00    -0.368 OA
BRANCH   7   8
ATOM      8  C   LIG d   1      -1.466  75.900 115.583  0.00  0.00     0.119 C 
BRANCH   8   9
ATOM      9  C   LIG d   1      -0.183  76.579 115.068  0.00  0.00     0.028 C 
ATOM     10  C   LIG d   1       0.097  77.917 115.773  0.00  0.00     0.006 C 
ENDBRANCH   8   9
BRANCH   8  11
ATOM     11  C   LIG d   1      -1.027  74.513 116.063  0.00  0.00     0.028 C 
ATOM     12  C   LIG d   1      -0.415  74.537 117.472  0.00  0.00     0.006 C 
ENDBRANCH   8  11
ENDBRANCH   7   8
ENDBRANCH   1   7
BRANCH   6  13
ATOM     13  N   LIG d   1      -4.670  76.346 116.357  0.00  0.00    -0.311 N 
ATOM     14  C   LIG d   1      -4.616  75.980 117.636  0.00  0.00     0.210 C 
ATOM     15  C   LIG d   1      -5.624  74.900 118.043  0.00  0.00     0.109 C 
ATOM     16  O   LIG d   1      -3.850  76.469 118.480  0.00  0.00    -0.276 OA
ATOM     17  H   LIG d   1      -5.343  75.920 115.750  0.00  0.00     0.149 HD
ENDBRANCH   6  13
BRANCH   5  18
ATOM     18  N   LIG d   1      -4.711  79.327 117.026  0.00  0.00     0.381 N 
ATOM     19  H   LIG d   1      -5.195  78.649 117.581  0.00  0.00    -0.090 HD
ATOM     20  H   LIG d   1      -5.306  80.128 116.917  0.00  0.00    -0.090 HD
ATOM     21  H   LIG d   1      -3.864  79.592 117.479  0.00  0.00    -0.090 HD
ENDBRANCH   5  18
BRANCH   3  22
ATOM     22  C   LIG d   1      -2.685  80.161 112.767  0.00  0.00     0.382 C 
ATOM     23  O   LIG d   1      -3.224  81.294 112.771  0.00  0.00    -0.241 OA
ATOM     24  O   LIG d   1      -1.903  79.856 111.847  0.00  0.00    -0.241 OA
ENDBRANCH   3  22
TORSDOF 7
ENDMDL
MODEL 6
REMARK VINA RESULT:      -4.5      3.432      5.289
REMARK  7 active torsions:
REMARK  status: ('A' for Active; 'I' for Inactive)
REMARK    1  A    between atoms: C_2  and  C_3 
REMARK    2  A    between atoms: C_3  and  O_6 
REMARK    3  A    between atoms: C_3  and  C_4 
REMARK    4  A    between atoms: C_7  and  O_6 
REMARK    5  A    between atoms: C_9  and  C_10 
REMARK    6  A    between atoms: N_15  and  C_14 
REMARK    7  A    between atoms: N_20  and  C_19 
REMARK       I    between atoms: C_22  and  N_20 
ROOT
ATOM      1  C   LIG d   1      -6.214  78.391 117.194  0.00  0.00     0.161 C 
ATOM      2  C   LIG d   1      -7.307  79.275 117.195  0.00  0.00     0.016 C 
ATOM      3  C   LIG d   1      -7.252  80.580 117.735  0.00  0.00     0.038 C 
ATOM      4  C   LIG d   1      -6.048  81.148 118.179  0.00  0.00     0.028 C 
ATOM      5  C   LIG d   1      -5.033  80.118 118.661  0.00  0.00    -0.047 C 
ATOM      6  C   LIG d   1      -4.863  79.033 117.573  0.00  0.00     0.091 C 
ENDROOT
BRANCH   1   7
ATOM      7  O   LIG d   1      -6.116  77.737 115.913  0.00  0.00    -0.368 OA
BRANCH   7   8
ATOM      8  C   LIG d   1      -6.477  76.334 115.885  0.00  0.00     0.119 C 
BRANCH   8   9
ATOM      9  C   LIG d   1      -5.842  75.718 114.623  0.00  0.00     0.028 C 
ATOM     10  C   LIG d   1      -4.464  76.321 114.306  0.00  0.00     0.006 C 
ENDBRANCH   8   9
BRANCH   8  11
ATOM     11  C   LIG d   1      -7.987  76.150 115.711  0.00  0.00     0.028 C 
ATOM     12  C   LIG d   1      -8.652  75.489 116.928  0.00  0.00     0.006 C 
ENDBRANCH   8  11
ENDBRANCH   7   8
ENDBRANCH   1   7
BRANCH   6  13
ATOM     13  N   LIG d   1      -3.950  77.941 117.999  0.00  0.00    -0.311 N 
ATOM     14  C   LIG d   1      -2.790  77.679 117.399  0.00  0.00     0.210 C 
ATOM     15  C   LIG d   1      -2.012  76.496 117.984  0.00  0.00     0.109 C 
ATOM     16  O   LIG d   1      -2.317  78.334 116.458  0.00  0.00    -0.276 OA
ATOM     17  H   LIG d   1      -4.242  77.379 118.775  0.00  0.00     0.149 HD
ENDBRANCH   6  13
BRANCH   5  18
ATOM     18  N   LIG d   1      -3.780  80.834 118.964  0.00  0.00     0.381 N 
ATOM     19  H   LIG d   1      -3.283  80.357 119.690  0.00  0.00    -0.090 HD
ATOM     20  H   LIG d   1      -4.004  81.758 119.290  0.00  0.00    -0.090 HD
ATOM     21  H   LIG d   1      -3.214  80.891 118.146  0.00  0.00    -0.090 HD
ENDBRANCH   5  18
BRANCH   3  22
ATOM     22  C   LIG d   1      -8.418  81.317 117.873  0.00  0.00     0.382 C 
ATOM     23  O   LIG d   1      -8.932  81.472 119.007  0.00  0.00    -0.241 OA
ATOM     24  O   LIG d   1      -8.988  81.790 116.871  0.00  0.00    -0.241 OA
ENDBRANCH   3  22
TORSDOF 7
ENDMDL
MODEL 7
REMARK VINA RESULT:      -4.5      1.732      4.847
REMARK  7 active torsions:
REMARK  status: ('A' for Active; 'I' for Inactive)
REMARK    1  A    between atoms: C_2  and  C_3 
REMARK    2  A    between atoms: C_3  and  O_6 
REMARK    3  A    between atoms: C_3  and  C_4 
REMARK    4  A    between atoms: C_7  and  O_6 
REMARK    5  A    between atoms: C_9  and  C_10 
REMARK    6  A    between atoms: N_15  and  C_14 
REMARK    7  A    between atoms: N_20  and  C_19 
REMARK       I    between atoms: C_22  and  N_20 
ROOT
ATOM      1  C   LIG d   1      -2.657  76.485 115.895  0.00  0.00     0.161 C 
ATOM      2  C   LIG d   1      -2.092  76.317 117.170  0.00  0.00     0.016 C 
ATOM      3  C   LIG d   1      -1.016  77.096 117.653  0.00  0.00     0.038 C 
ATOM      4  C   LIG d   1      -0.528  78.205 116.946  0.00  0.00     0.028 C 
ATOM      5  C   LIG d   1      -0.730  78.099 115.438  0.00  0.00    -0.047 C 
ATOM      6  C   LIG d   1      -2.211  77.762 115.153  0.00  0.00     0.091 C 
ENDROOT
BRANCH   1   7
ATOM      7  O   LIG d   1      -4.094  76.434 115.987  0.00  0.00    -0.368 OA
BRANCH   7   8
ATOM      8  C   LIG d   1      -4.672  75.129 116.232  0.00  0.00     0.119 C 
BRANCH   8   9
ATOM      9  C   LIG d   1      -5.442  74.717 114.962  0.00  0.00     0.028 C 
ATOM     10  C   LIG d   1      -5.674  75.900 114.008  0.00  0.00     0.006 C 
ENDBRANCH   8   9
BRANCH   8  11
ATOM     11  C   LIG d   1      -5.724  75.184 117.344  0.00  0.00     0.028 C 
ATOM     12  C   LIG d   1      -7.078  74.600 116.913  0.00  0.00     0.006 C 
ENDBRANCH   8  11
ENDBRANCH   7   8
ENDBRANCH   1   7
BRANCH   6  13
ATOM     13  N   LIG d   1      -2.477  77.558 113.705  0.00  0.00    -0.311 N 
ATOM     14  C   LIG d   1      -2.993  78.497 112.915  0.00  0.00     0.210 C 
ATOM     15  C   LIG d   1      -3.205  78.072 111.459  0.00  0.00     0.109 C 
ATOM     16  O   LIG d   1      -3.264  79.653 113.274  0.00  0.00    -0.276 OA
ATOM     17  H   LIG d   1      -2.257  76.659 113.324  0.00  0.00     0.149 HD
ENDBRANCH   6  13
BRANCH   5  18
ATOM     18  N   LIG d   1      -0.302  79.378 114.841  0.00  0.00     0.381 N 
ATOM     19  H   LIG d   1      -0.505  79.379 113.861  0.00  0.00    -0.090 HD
ATOM     20  H   LIG d   1       0.691  79.476 114.957  0.00  0.00    -0.090 HD
ATOM     21  H   LIG d   1      -0.772  80.136 115.285  0.00  0.00    -0.090 HD
ENDBRANCH   5  18
BRANCH   3  22
ATOM     22  C   LIG d   1      -0.390  76.744 118.839  0.00  0.00     0.382 C 
ATOM     23  O   LIG d   1      -0.998  76.868 119.930  0.00  0.00    -0.241 OA
ATOM     24  O   LIG d   1       0.790  76.345 118.837  0.00  0.00    -0.241 OA
ENDBRANCH   3  22
TORSDOF 7
ENDMDL
MODEL 8
REMARK VINA RESULT:      -4.5      3.422      5.466
REMARK  7 active torsions:
REMARK  status: ('A' for Active; 'I' for Inactive)
REMARK    1  A    between atoms: C_2  and  C_3 
REMARK    2  A    between atoms: C_3  and  O_6 
REMARK    3  A    between atoms: C_3  and  C_4 
REMARK    4  A    between atoms: C_7  and  O_6 
REMARK    5  A    between atoms: C_9  and  C_10 
REMARK    6  A    between atoms: N_15  and  C_14 
REMARK    7  A    between atoms: N_20  and  C_19 
REMARK       I    between atoms: C_22  and  N_20 
ROOT
ATOM      1  C   LIG d   1      -4.635  76.336 117.897  0.00  0.00     0.161 C 
ATOM      2  C   LIG d   1      -3.237  76.444 117.819  0.00  0.00     0.016 C 
ATOM      3  C   LIG d   1      -2.467  75.854 116.790  0.00  0.00     0.038 C 
ATOM      4  C   LIG d   1      -3.062  75.238 115.679  0.00  0.00     0.028 C 
ATOM      5  C   LIG d   1      -4.446  74.667 115.972  0.00  0.00    -0.047 C 
ATOM      6  C   LIG d   1      -5.311  75.763 116.634  0.00  0.00     0.091 C 
ENDROOT
BRANCH   1   7
ATOM      7  O   LIG d   1      -5.206  77.616 118.234  0.00  0.00    -0.368 OA
BRANCH   7   8
ATOM      8  C   LIG d   1      -5.502  78.495 117.121  0.00  0.00     0.119 C 
BRANCH   8   9
ATOM      9  C   LIG d   1      -4.416  79.588 117.093  0.00  0.00     0.028 C 
ATOM     10  C   LIG d   1      -4.065  80.103 118.499  0.00  0.00     0.006 C 
ENDBRANCH   8   9
BRANCH   8  11
ATOM     11  C   LIG d   1      -6.823  79.240 117.335  0.00  0.00     0.028 C 
ATOM     12  C   LIG d   1      -7.670  78.637 118.467  0.00  0.00     0.006 C 
ENDBRANCH   8  11
ENDBRANCH   7   8
ENDBRANCH   1   7
BRANCH   6  13
ATOM     13  N   LIG d   1      -6.654  75.263 117.030  0.00  0.00    -0.311 N 
ATOM     14  C   LIG d   1      -7.784  75.656 116.445  0.00  0.00     0.210 C 
ATOM     15  C   LIG d   1      -9.060  75.033 117.020  0.00  0.00     0.109 C 
ATOM     16  O   LIG d   1      -7.849  76.437 115.484  0.00  0.00    -0.276 OA
ATOM     17  H   LIG d   1      -6.691  74.602 117.781  0.00  0.00     0.149 HD
ENDBRANCH   6  13
BRANCH   5  18
ATOM     18  N   LIG d   1      -5.006  74.180 114.697  0.00  0.00     0.381 N 
ATOM     19  H   LIG d   1      -4.434  73.443 114.336  0.00  0.00    -0.090 HD
ATOM     20  H   LIG d   1      -5.005  74.934 114.033  0.00  0.00    -0.090 HD
ATOM     21  H   LIG d   1      -5.936  73.851 114.837  0.00  0.00    -0.090 HD
ENDBRANCH   5  18
BRANCH   3  22
ATOM     22  C   LIG d   1      -1.084  75.841 116.888  0.00  0.00     0.382 C 
ATOM     23  O   LIG d   1      -0.464  74.750 116.866  0.00  0.00    -0.241 OA
ATOM     24  O   LIG d   1      -0.452  76.903 117.043  0.00  0.00    -0.241 OA
ENDBRANCH   3  22
TORSDOF 7
ENDMDL
MODEL 9
REMARK VINA RESULT:      -4.4      2.656      3.903
REMARK  7 active torsions:
REMARK  status: ('A' for Active; 'I' for Inactive)
REMARK    1  A    between atoms: C_2  and  C_3 
REMARK    2  A    between atoms: C_3  and  O_6 
REMARK    3  A    between atoms: C_3  and  C_4 
REMARK    4  A    between atoms: C_7  and  O_6 
REMARK    5  A    between atoms: C_9  and  C_10 
REMARK    6  A    between atoms: N_15  and  C_14 
REMARK    7  A    between atoms: N_20  and  C_19 
REMARK       I    between atoms: C_22  and  N_20 
ROOT
ATOM      1  C   LIG d   1      -3.988  78.637 116.112  0.00  0.00     0.161 C 
ATOM      2  C   LIG d   1      -3.405  79.301 115.020  0.00  0.00     0.016 C 
ATOM      3  C   LIG d   1      -2.527  78.675 114.105  0.00  0.00     0.038 C 
ATOM      4  C   LIG d   1      -2.289  77.293 114.134  0.00  0.00     0.028 C 
ATOM      5  C   LIG d   1      -2.457  76.678 115.520  0.00  0.00    -0.047 C 
ATOM      6  C   LIG d   1      -3.828  77.102 116.095  0.00  0.00     0.091 C 
ENDROOT
BRANCH   1   7
ATOM      7  O   LIG d   1      -5.380  78.994 116.215  0.00  0.00    -0.368 OA
BRANCH   7   8
ATOM      8  C   LIG d   1      -5.695  80.071 117.132  0.00  0.00     0.119 C 
BRANCH   8   9
ATOM      9  C   LIG d   1      -5.001  79.756 118.471  0.00  0.00     0.028 C 
ATOM     10  C   LIG d   1      -4.357  81.001 119.105  0.00  0.00     0.006 C 
ENDBRANCH   8   9
BRANCH   8  11
ATOM     11  C   LIG d   1      -7.193  80.111 117.451  0.00  0.00     0.028 C 
ATOM     12  C   LIG d   1      -7.762  81.538 117.459  0.00  0.00     0.006 C 
ENDBRANCH   8  11
ENDBRANCH   7   8
ENDBRANCH   1   7
BRANCH   6  13
ATOM     13  N   LIG d   1      -4.037  76.613 117.482  0.00  0.00    -0.311 N 
ATOM     14  C   LIG d   1      -5.179  76.074 117.906  0.00  0.00     0.210 C 
ATOM     15  C   LIG d   1      -5.188  75.653 119.379  0.00  0.00     0.109 C 
ATOM     16  O   LIG d   1      -6.174  75.874 117.193  0.00  0.00    -0.276 OA
ATOM     17  H   LIG d   1      -3.270  76.707 118.119  0.00  0.00     0.149 HD
ENDBRANCH   6  13
BRANCH   5  18
ATOM     18  N   LIG d   1      -2.316  75.216 115.379  0.00  0.00     0.381 N 
ATOM     19  H   LIG d   1      -2.786  74.909 114.551  0.00  0.00    -0.090 HD
ATOM     20  H   LIG d   1      -2.746  74.771 116.170  0.00  0.00    -0.090 HD
ATOM     21  H   LIG d   1      -1.352  74.970 115.334  0.00  0.00    -0.090 HD
ENDBRANCH   5  18
BRANCH   3  22
ATOM     22  C   LIG d   1      -1.845  79.441 113.173  0.00  0.00     0.382 C 
ATOM     23  O   LIG d   1      -2.379  79.709 112.070  0.00  0.00    -0.241 OA
ATOM     24  O   LIG d   1      -0.684  79.831 113.403  0.00  0.00    -0.241 OA
ENDBRANCH   3  22
TORSDOF 7
ENDMDL
