MODEL 1
REMARK VINA RESULT:      -5.8      0.000      0.000
REMARK  7 active torsions:
REMARK  status: ('A' for Active; 'I' for Inactive)
REMARK    1  A    between atoms: C_2  and  C_3 
REMARK    2  A    between atoms: C_3  and  O_6 
REMARK    3  A    between atoms: C_3  and  C_4 
REMARK    4  A    between atoms: C_7  and  O_6 
REMARK    5  A    between atoms: C_9  and  C_10 
REMARK    6  A    between atoms: N_15  and  C_14 
REMARK    7  A    between atoms: N_20  and  C_19 
REMARK       I    between atoms: C_22  and  N_20 
ROOT
ATOM      1  C   LIG d   1      -1.957  77.742 113.367  0.00  0.00     0.161 C 
ATOM      2  C   LIG d   1      -2.532  79.022 113.439  0.00  0.00     0.016 C 
ATOM      3  C   LIG d   1      -2.218  80.067 112.539  0.00  0.00     0.038 C 
ATOM      4  C   LIG d   1      -1.417  79.856 111.408  0.00  0.00     0.028 C 
ATOM      5  C   LIG d   1      -0.416  78.718 111.578  0.00  0.00    -0.047 C 
ATOM      6  C   LIG d   1      -1.166  77.460 112.073  0.00  0.00     0.091 C 
ENDROOT
BRANCH   1   7
ATOM      7  O   LIG d   1      -2.974  76.739 113.560  0.00  0.00    -0.368 OA
BRANCH   7   8
ATOM      8  C   LIG d   1      -3.434  76.552 114.921  0.00  0.00     0.119 C 
BRANCH   8   9
ATOM      9  C   LIG d   1      -2.239  76.037 115.747  0.00  0.00     0.028 C 
ATOM     10  C   LIG d   1      -2.645  74.943 116.749  0.00  0.00     0.006 C 
ENDBRANCH   8   9
BRANCH   8  11
ATOM     11  C   LIG d   1      -4.491  75.447 115.006  0.00  0.00     0.028 C 
ATOM     12  C   LIG d   1      -5.554  75.554 113.901  0.00  0.00     0.006 C 
ENDBRANCH   8  11
ENDBRANCH   7   8
ENDBRANCH   1   7
BRANCH   6  13
ATOM     13  N   LIG d   1      -0.248  76.324 112.346  0.00  0.00    -0.311 N 
ATOM     14  C   LIG d   1       0.102  75.427 111.425  0.00  0.00     0.210 C 
ATOM     15  C   LIG d   1       1.043  74.325 111.922  0.00  0.00     0.109 C 
ATOM     16  O   LIG d   1      -0.252  75.457 110.237  0.00  0.00    -0.276 OA
ATOM     17  H   LIG d   1       0.112  76.241 113.277  0.00  0.00     0.149 HD
ENDBRANCH   6  13
BRANCH   5  18
ATOM     18  N   LIG d   1       0.256  78.518 110.280  0.00  0.00     0.381 N 
ATOM     19  H   LIG d   1       0.930  77.783 110.358  0.00  0.00    -0.090 HD
ATOM     20  H   LIG d   1       0.739  79.363 110.030  0.00  0.00    -0.090 HD
ATOM     21  H   LIG d   1      -0.415  78.290 109.580  0.00  0.00    -0.090 HD
ENDBRANCH   5  18
BRANCH   3  22
ATOM     22  C   LIG d   1      -2.677  81.351 112.791  0.00  0.00     0.382 C 
ATOM     23  O   LIG d   1      -3.910  81.576 112.850  0.00  0.00    -0.241 OA
ATOM     24  O   LIG d   1      -1.875  82.296 112.916  0.00  0.00    -0.241 OA
ENDBRANCH   3  22
TORSDOF 7
ENDMDL
MODEL 2
REMARK VINA RESULT:      -5.5      3.049      5.694
REMARK  7 active torsions:
REMARK  status: ('A' for Active; 'I' for Inactive)
REMARK    1  A    between atoms: C_2  and  C_3 
REMARK    2  A    between atoms: C_3  and  O_6 
REMARK    3  A    between atoms: C_3  and  C_4 
REMARK    4  A    between atoms: C_7  and  O_6 
REMARK    5  A    between atoms: C_9  and  C_10 
REMARK    6  A    between atoms: N_15  and  C_14 
REMARK    7  A    between atoms: N_20  and  C_19 
REMARK       I    between atoms: C_22  and  N_20 
ROOT
ATOM      1  C   LIG d   1      -2.951  77.791 115.087  0.00  0.00     0.161 C 
ATOM      2  C   LIG d   1      -1.616  78.186 115.274  0.00  0.00     0.016 C 
ATOM      3  C   LIG d   1      -0.645  77.373 115.902  0.00  0.00     0.038 C 
ATOM      4  C   LIG d   1      -0.908  76.041 116.253  0.00  0.00     0.028 C 
ATOM      5  C   LIG d   1      -2.380  75.770 116.542  0.00  0.00    -0.047 C 
ATOM      6  C   LIG d   1      -3.229  76.299 115.363  0.00  0.00     0.091 C 
ENDROOT
BRANCH   1   7
ATOM      7  O   LIG d   1      -3.384  78.144 113.758  0.00  0.00    -0.368 OA
BRANCH   7   8
ATOM      8  C   LIG d   1      -2.355  78.633 112.862  0.00  0.00     0.119 C 
BRANCH   8   9
ATOM      9  C   LIG d   1      -2.602  80.139 112.653  0.00  0.00     0.028 C 
ATOM     10  C   LIG d   1      -1.295  80.924 112.445  0.00  0.00     0.006 C 
ENDBRANCH   8   9
BRANCH   8  11
ATOM     11  C   LIG d   1      -2.483  78.004 111.471  0.00  0.00     0.028 C 
ATOM     12  C   LIG d   1      -1.162  77.403 110.965  0.00  0.00     0.006 C 
ENDBRANCH   8  11
ENDBRANCH   7   8
ENDBRANCH   1   7
BRANCH   6  13
ATOM     13  N   LIG d   1      -4.688  76.149 115.603  0.00  0.00    -0.311 N 
ATOM     14  C   LIG d   1      -5.524  75.603 114.721  0.00  0.00     0.210 C 
ATOM     15  C   LIG d   1      -6.991  75.564 115.159  0.00  0.00     0.109 C 
ATOM     16  O   LIG d   1      -5.184  75.117 113.632  0.00  0.00    -0.276 OA
ATOM     17  H   LIG d   1      -5.044  76.488 116.475  0.00  0.00     0.149 HD
ENDBRANCH   6  13
BRANCH   5  18
ATOM     18  N   LIG d   1      -2.532  74.318 116.758  0.00  0.00     0.381 N 
ATOM     19  H   LIG d   1      -1.943  74.025 117.512  0.00  0.00    -0.090 HD
ATOM     20  H   LIG d   1      -2.245  73.834 115.926  0.00  0.00    -0.090 HD
ATOM     21  H   LIG d   1      -3.482  74.102 116.966  0.00  0.00    -0.090 HD
ENDBRANCH   5  18
BRANCH   3  22
ATOM     22  C   LIG d   1       0.595  77.906 116.222  0.00  0.00     0.382 C 
ATOM     23  O   LIG d   1       1.439  77.207 116.831  0.00  0.00    -0.241 OA
ATOM     24  O   LIG d   1       0.863  79.091 115.948  0.00  0.00    -0.241 OA
ENDBRANCH   3  22
TORSDOF 7
ENDMDL
MODEL 3
REMARK VINA RESULT:      -5.5      2.864      5.381
REMARK  7 active torsions:
REMARK  status: ('A' for Active; 'I' for Inactive)
REMARK    1  A    between atoms: C_2  and  C_3 
REMARK    2  A    between atoms: C_3  and  O_6 
REMARK    3  A    between atoms: C_3  and  C_4 
REMARK    4  A    between atoms: C_7  and  O_6 
REMARK    5  A    between atoms: C_9  and  C_10 
REMARK    6  A    between atoms: N_15  and  C_14 
REMARK    7  A    between atoms: N_20  and  C_19 
REMARK       I    between atoms: C_22  and  N_20 
ROOT
ATOM      1  C   LIG d   1      -1.631  75.534 115.049  0.00  0.00     0.161 C 
ATOM      2  C   LIG d   1      -1.312  74.996 116.306  0.00  0.00     0.016 C 
ATOM      3  C   LIG d   1      -0.417  75.611 117.211  0.00  0.00     0.038 C 
ATOM      4  C   LIG d   1       0.107  76.892 116.980  0.00  0.00     0.028 C 
ATOM      5  C   LIG d   1       0.210  77.246 115.501  0.00  0.00    -0.047 C 
ATOM      6  C   LIG d   1      -1.156  76.985 114.826  0.00  0.00     0.091 C 
ENDROOT
BRANCH   1   7
ATOM      7  O   LIG d   1      -3.051  75.431 114.819  0.00  0.00    -0.368 OA
BRANCH   7   8
ATOM      8  C   LIG d   1      -3.895  75.547 115.991  0.00  0.00     0.119 C 
BRANCH   8   9
ATOM      9  C   LIG d   1      -5.231  74.849 115.669  0.00  0.00     0.028 C 
ATOM     10  C   LIG d   1      -5.758  75.205 114.269  0.00  0.00     0.006 C 
ENDBRANCH   8   9
BRANCH   8  11
ATOM     11  C   LIG d   1      -4.259  77.008 116.273  0.00  0.00     0.028 C 
ATOM     12  C   LIG d   1      -3.792  77.482 117.658  0.00  0.00     0.006 C 
ENDBRANCH   8  11
ENDBRANCH   7   8
ENDBRANCH   1   7
BRANCH   6  13
ATOM     13  N   LIG d   1      -1.119  77.226 113.360  0.00  0.00    -0.311 N 
ATOM     14  C   LIG d   1      -2.068  77.890 112.702  0.00  0.00     0.210 C 
ATOM     15  C   LIG d   1      -1.846  78.008 111.191  0.00  0.00     0.109 C 
ATOM     16  O   LIG d   1      -3.057  78.419 113.231  0.00  0.00    -0.276 OA
ATOM     17  H   LIG d   1      -0.336  76.857 112.856  0.00  0.00     0.149 HD
ENDBRANCH   6  13
BRANCH   5  18
ATOM     18  N   LIG d   1       0.640  78.655 115.408  0.00  0.00     0.381 N 
ATOM     19  H   LIG d   1      -0.055  79.190 114.928  0.00  0.00    -0.090 HD
ATOM     20  H   LIG d   1       1.494  78.700 114.880  0.00  0.00    -0.090 HD
ATOM     21  H   LIG d   1       0.786  79.027 116.321  0.00  0.00    -0.090 HD
ENDBRANCH   5  18
BRANCH   3  22
ATOM     22  C   LIG d   1      -0.006  74.926 118.345  0.00  0.00     0.382 C 
ATOM     23  O   LIG d   1       1.208  74.653 118.507  0.00  0.00    -0.241 OA
ATOM     24  O   LIG d   1      -0.839  74.539 119.185  0.00  0.00    -0.241 OA
ENDBRANCH   3  22
TORSDOF 7
ENDMDL
MODEL 4
REMARK VINA RESULT:      -5.5      2.477      3.795
REMARK  7 active torsions:
REMARK  status: ('A' for Active; 'I' for Inactive)
REMARK    1  A    between atoms: C_2  and  C_3 
REMARK    2  A    between atoms: C_3  and  O_6 
REMARK    3  A    between atoms: C_3  and  C_4 
REMARK    4  A    between atoms: C_7  and  O_6 
REMARK    5  A    between atoms: C_9  and  C_10 
REMARK    6  A    between atoms: N_15  and  C_14 
REMARK    7  A    between atoms: N_20  and  C_19 
REMARK       I    between atoms: C_22  and  N_20 
ROOT
ATOM      1  C   LIG d   1      -2.146  77.585 116.024  0.00  0.00     0.161 C 
ATOM      2  C   LIG d   1      -2.619  78.463 115.034  0.00  0.00     0.016 C 
ATOM      3  C   LIG d   1      -2.194  78.417 113.687  0.00  0.00     0.038 C 
ATOM      4  C   LIG d   1      -1.373  77.387 113.202  0.00  0.00     0.028 C 
ATOM      5  C   LIG d   1      -0.472  76.777 114.271  0.00  0.00    -0.047 C 
ATOM      6  C   LIG d   1      -1.336  76.385 115.491  0.00  0.00     0.091 C 
ENDROOT
BRANCH   1   7
ATOM      7  O   LIG d   1      -3.245  77.127 116.836  0.00  0.00    -0.368 OA
BRANCH   7   8
ATOM      8  C   LIG d   1      -4.539  77.075 116.187  0.00  0.00     0.119 C 
BRANCH   8   9
ATOM      9  C   LIG d   1      -5.587  77.569 117.202  0.00  0.00     0.028 C 
ATOM     10  C   LIG d   1      -4.961  77.944 118.556  0.00  0.00     0.006 C 
ENDBRANCH   8   9
BRANCH   8  11
ATOM     11  C   LIG d   1      -4.941  75.634 115.859  0.00  0.00     0.028 C 
ATOM     12  C   LIG d   1      -5.063  75.378 114.349  0.00  0.00     0.006 C 
ENDBRANCH   8  11
ENDBRANCH   7   8
ENDBRANCH   1   7
BRANCH   6  13
ATOM     13  N   LIG d   1      -0.520  75.858 116.617  0.00  0.00    -0.311 N 
ATOM     14  C   LIG d   1      -0.900  74.836 117.381  0.00  0.00     0.210 C 
ATOM     15  C   LIG d   1       0.080  74.465 118.499  0.00  0.00     0.109 C 
ATOM     16  O   LIG d   1      -1.941  74.180 117.220  0.00  0.00    -0.276 OA
ATOM     17  H   LIG d   1       0.354  76.311 116.798  0.00  0.00     0.149 HD
ENDBRANCH   6  13
BRANCH   5  18
ATOM     18  N   LIG d   1       0.225  75.629 113.663  0.00  0.00     0.381 N 
ATOM     19  H   LIG d   1       1.189  75.855 113.518  0.00  0.00    -0.090 HD
ATOM     20  H   LIG d   1      -0.190  75.432 112.769  0.00  0.00    -0.090 HD
ATOM     21  H   LIG d   1       0.150  74.831 114.255  0.00  0.00    -0.090 HD
ENDBRANCH   5  18
BRANCH   3  22
ATOM     22  C   LIG d   1      -2.557  79.434 112.816  0.00  0.00     0.382 C 
ATOM     23  O   LIG d   1      -1.993  79.536 111.701  0.00  0.00    -0.241 OA
ATOM     24  O   LIG d   1      -3.412  80.276 113.151  0.00  0.00    -0.241 OA
ENDBRANCH   3  22
TORSDOF 7
ENDMDL
MODEL 5
REMARK VINA RESULT:      -5.4      2.658      3.660
REMARK  7 active torsions:
REMARK  status: ('A' for Active; 'I' for Inactive)
REMARK    1  A    between atoms: C_2  and  C_3 
REMARK    2  A    between atoms: C_3  and  O_6 
REMARK    3  A    between atoms: C_3  and  C_4 
REMARK    4  A    between atoms: C_7  and  O_6 
REMARK    5  A    between atoms: C_9  and  C_10 
REMARK    6  A    between atoms: N_15  and  C_14 
REMARK    7  A    between atoms: N_20  and  C_19 
REMARK       I    between atoms: C_22  and  N_20 
ROOT
ATOM      1  C   LIG d   1      -3.013  76.998 114.984  0.00  0.00     0.161 C 
ATOM      2  C   LIG d   1      -3.193  78.039 114.058  0.00  0.00     0.016 C 
ATOM      3  C   LIG d   1      -2.144  78.879 113.618  0.00  0.00     0.038 C 
ATOM      4  C   LIG d   1      -0.806  78.637 113.963  0.00  0.00     0.028 C 
ATOM      5  C   LIG d   1      -0.646  77.909 115.293  0.00  0.00    -0.047 C 
ATOM      6  C   LIG d   1      -1.541  76.648 115.287  0.00  0.00     0.091 C 
ENDROOT
BRANCH   1   7
ATOM      7  O   LIG d   1      -3.727  75.825 114.546  0.00  0.00    -0.368 OA
BRANCH   7   8
ATOM      8  C   LIG d   1      -4.807  75.379 115.402  0.00  0.00     0.119 C 
BRANCH   8   9
ATOM      9  C   LIG d   1      -6.008  75.045 114.496  0.00  0.00     0.028 C 
ATOM     10  C   LIG d   1      -6.131  76.010 113.304  0.00  0.00     0.006 C 
ENDBRANCH   8   9
BRANCH   8  11
ATOM     11  C   LIG d   1      -5.292  76.506 116.320  0.00  0.00     0.028 C 
ATOM     12  C   LIG d   1      -6.747  76.316 116.778  0.00  0.00     0.006 C 
ENDBRANCH   8  11
ENDBRANCH   7   8
ENDBRANCH   1   7
BRANCH   6  13
ATOM     13  N   LIG d   1      -1.508  75.923 116.583  0.00  0.00    -0.311 N 
ATOM     14  C   LIG d   1      -0.739  74.859 116.809  0.00  0.00     0.210 C 
ATOM     15  C   LIG d   1      -0.873  74.250 118.208  0.00  0.00     0.109 C 
ATOM     16  O   LIG d   1       0.065  74.382 115.994  0.00  0.00    -0.276 OA
ATOM     17  H   LIG d   1      -2.107  76.262 117.311  0.00  0.00     0.149 HD
ENDBRANCH   6  13
BRANCH   5  18
ATOM     18  N   LIG d   1       0.786  77.599 115.463  0.00  0.00     0.381 N 
ATOM     19  H   LIG d   1       1.085  76.973 114.742  0.00  0.00    -0.090 HD
ATOM     20  H   LIG d   1       0.919  77.145 116.349  0.00  0.00    -0.090 HD
ATOM     21  H   LIG d   1       1.323  78.438 115.427  0.00  0.00    -0.090 HD
ENDBRANCH   5  18
BRANCH   3  22
ATOM     22  C   LIG d   1      -2.435  79.999 112.855  0.00  0.00     0.382 C 
ATOM     23  O   LIG d   1      -3.395  80.742 113.173  0.00  0.00    -0.241 OA
ATOM     24  O   LIG d   1      -1.778  80.252 111.828  0.00  0.00    -0.241 OA
ENDBRANCH   3  22
TORSDOF 7
ENDMDL
MODEL 6
REMARK VINA RESULT:      -5.1      2.897      6.006
REMARK  7 active torsions:
REMARK  status: ('A' for Active; 'I' for Inactive)
REMARK    1  A    between atoms: C_2  and  C_3 
REMARK    2  A    between atoms: C_3  and  O_6 
REMARK    3  A    between atoms: C_3  and  C_4 
REMARK    4  A    between atoms: C_7  and  O_6 
REMARK    5  A    between atoms: C_9  and  C_10 
REMARK    6  A    between atoms: N_15  and  C_14 
REMARK    7  A    between atoms: N_20  and  C_19 
REMARK       I    between atoms: C_22  and  N_20 
ROOT
ATOM      1  C   LIG d   1      -2.070  77.733 114.539  0.00  0.00     0.161 C 
ATOM      2  C   LIG d   1      -3.251  77.217 113.980  0.00  0.00     0.016 C 
ATOM      3  C   LIG d   1      -4.152  76.390 114.690  0.00  0.00     0.038 C 
ATOM      4  C   LIG d   1      -4.008  76.144 116.063  0.00  0.00     0.028 C 
ATOM      5  C   LIG d   1      -2.563  76.228 116.545  0.00  0.00    -0.047 C 
ATOM      6  C   LIG d   1      -1.953  77.566 116.069  0.00  0.00     0.091 C 
ENDROOT
BRANCH   1   7
ATOM      7  O   LIG d   1      -1.920  79.119 114.173  0.00  0.00    -0.368 OA
BRANCH   7   8
ATOM      8  C   LIG d   1      -2.449  79.496 112.878  0.00  0.00     0.119 C 
BRANCH   8   9
ATOM      9  C   LIG d   1      -1.282  79.460 111.873  0.00  0.00     0.028 C 
ATOM     10  C   LIG d   1      -1.493  78.415 110.765  0.00  0.00     0.006 C 
ENDBRANCH   8   9
BRANCH   8  11
ATOM     11  C   LIG d   1      -2.939  80.947 112.878  0.00  0.00     0.028 C 
ATOM     12  C   LIG d   1      -1.828  81.952 112.532  0.00  0.00     0.006 C 
ENDBRANCH   8  11
ENDBRANCH   7   8
ENDBRANCH   1   7
BRANCH   6  13
ATOM     13  N   LIG d   1      -0.515  77.692 116.426  0.00  0.00    -0.311 N 
ATOM     14  C   LIG d   1      -0.082  78.340 117.506  0.00  0.00     0.210 C 
ATOM     15  C   LIG d   1       1.440  78.368 117.676  0.00  0.00     0.109 C 
ATOM     16  O   LIG d   1      -0.816  78.868 118.356  0.00  0.00    -0.276 OA
ATOM     17  H   LIG d   1       0.147  77.267 115.807  0.00  0.00     0.149 HD
ENDBRANCH   6  13
BRANCH   5  18
ATOM     18  N   LIG d   1      -2.575  76.088 118.014  0.00  0.00     0.381 N 
ATOM     19  H   LIG d   1      -1.652  75.880 118.341  0.00  0.00    -0.090 HD
ATOM     20  H   LIG d   1      -3.178  75.324 118.263  0.00  0.00    -0.090 HD
ATOM     21  H   LIG d   1      -2.902  76.930 118.434  0.00  0.00    -0.090 HD
ENDBRANCH   5  18
BRANCH   3  22
ATOM     22  C   LIG d   1      -5.190  75.767 114.014  0.00  0.00     0.382 C 
ATOM     23  O   LIG d   1      -5.631  74.665 114.422  0.00  0.00    -0.241 OA
ATOM     24  O   LIG d   1      -5.662  76.270 112.977  0.00  0.00    -0.241 OA
ENDBRANCH   3  22
TORSDOF 7
ENDMDL
MODEL 7
REMARK VINA RESULT:      -5.0      2.791      3.958
REMARK  7 active torsions:
REMARK  status: ('A' for Active; 'I' for Inactive)
REMARK    1  A    between atoms: C_2  and  C_3 
REMARK    2  A    between atoms: C_3  and  O_6 
REMARK    3  A    between atoms: C_3  and  C_4 
REMARK    4  A    between atoms: C_7  and  O_6 
REMARK    5  A    between atoms: C_9  and  C_10 
REMARK    6  A    between atoms: N_15  and  C_14 
REMARK    7  A    between atoms: N_20  and  C_19 
REMARK       I    between atoms: C_22  and  N_20 
ROOT
ATOM      1  C   LIG d   1      -2.121  77.786 116.066  0.00  0.00     0.161 C 
ATOM      2  C   LIG d   1      -2.553  78.708 115.099  0.00  0.00     0.016 C 
ATOM      3  C   LIG d   1      -2.165  78.650 113.741  0.00  0.00     0.038 C 
ATOM      4  C   LIG d   1      -1.434  77.571 113.223  0.00  0.00     0.028 C 
ATOM      5  C   LIG d   1      -0.553  76.883 114.261  0.00  0.00    -0.047 C 
ATOM      6  C   LIG d   1      -1.412  76.538 115.499  0.00  0.00     0.091 C 
ENDROOT
BRANCH   1   7
ATOM      7  O   LIG d   1      -3.229  77.396 116.901  0.00  0.00    -0.368 OA
BRANCH   7   8
ATOM      8  C   LIG d   1      -3.550  78.291 117.994  0.00  0.00     0.119 C 
BRANCH   8   9
ATOM      9  C   LIG d   1      -2.525  78.037 119.116  0.00  0.00     0.028 C 
ATOM     10  C   LIG d   1      -2.791  76.722 119.868  0.00  0.00     0.006 C 
ENDBRANCH   8   9
BRANCH   8  11
ATOM     11  C   LIG d   1      -4.913  77.957 118.607  0.00  0.00     0.028 C 
ATOM     12  C   LIG d   1      -5.951  77.532 117.555  0.00  0.00     0.006 C 
ENDBRANCH   8  11
ENDBRANCH   7   8
ENDBRANCH   1   7
BRANCH   6  13
ATOM     13  N   LIG d   1      -0.610  75.938 116.596  0.00  0.00    -0.311 N 
ATOM     14  C   LIG d   1      -0.981  74.848 117.265  0.00  0.00     0.210 C 
ATOM     15  C   LIG d   1      -0.018  74.408 118.372  0.00  0.00     0.109 C 
ATOM     16  O   LIG d   1      -2.001  74.184 117.025  0.00  0.00    -0.276 OA
ATOM     17  H   LIG d   1       0.249  76.395 116.836  0.00  0.00     0.149 HD
ENDBRANCH   6  13
BRANCH   5  18
ATOM     18  N   LIG d   1       0.045  75.696 113.622  0.00  0.00     0.381 N 
ATOM     19  H   LIG d   1       0.656  75.236 114.267  0.00  0.00    -0.090 HD
ATOM     20  H   LIG d   1       0.587  75.992 112.829  0.00  0.00    -0.090 HD
ATOM     21  H   LIG d   1      -0.672  75.070 113.329  0.00  0.00    -0.090 HD
ENDBRANCH   5  18
BRANCH   3  22
ATOM     22  C   LIG d   1      -2.476  79.702 112.892  0.00  0.00     0.382 C 
ATOM     23  O   LIG d   1      -3.328  80.556 113.238  0.00  0.00    -0.241 OA
ATOM     24  O   LIG d   1      -1.949  79.783 111.767  0.00  0.00    -0.241 OA
ENDBRANCH   3  22
TORSDOF 7
ENDMDL
MODEL 8
REMARK VINA RESULT:      -5.0      2.960      5.743
REMARK  7 active torsions:
REMARK  status: ('A' for Active; 'I' for Inactive)
REMARK    1  A    between atoms: C_2  and  C_3 
REMARK    2  A    between atoms: C_3  and  O_6 
REMARK    3  A    between atoms: C_3  and  C_4 
REMARK    4  A    between atoms: C_7  and  O_6 
REMARK    5  A    between atoms: C_9  and  C_10 
REMARK    6  A    between atoms: N_15  and  C_14 
REMARK    7  A    between atoms: N_20  and  C_19 
REMARK       I    between atoms: C_22  and  N_20 
ROOT
ATOM      1  C   LIG d   1      -2.792  76.153 114.714  0.00  0.00     0.161 C 
ATOM      2  C   LIG d   1      -4.153  75.995 114.401  0.00  0.00     0.016 C 
ATOM      3  C   LIG d   1      -5.195  76.203 115.333  0.00  0.00     0.038 C 
ATOM      4  C   LIG d   1      -4.954  76.734 116.609  0.00  0.00     0.028 C 
ATOM      5  C   LIG d   1      -3.556  76.431 117.137  0.00  0.00    -0.047 C 
ATOM      6  C   LIG d   1      -2.516  76.839 116.068  0.00  0.00     0.091 C 
ENDROOT
BRANCH   1   7
ATOM      7  O   LIG d   1      -2.125  76.859 113.649  0.00  0.00    -0.368 OA
BRANCH   7   8
ATOM      8  C   LIG d   1      -2.836  77.991 113.091  0.00  0.00     0.119 C 
BRANCH   8   9
ATOM      9  C   LIG d   1      -2.619  77.968 111.566  0.00  0.00     0.028 C 
ATOM     10  C   LIG d   1      -1.264  77.354 111.175  0.00  0.00     0.006 C 
ENDBRANCH   8   9
BRANCH   8  11
ATOM     11  C   LIG d   1      -2.235  79.317 113.567  0.00  0.00     0.028 C 
ATOM     12  C   LIG d   1      -2.851  80.537 112.864  0.00  0.00     0.006 C 
ENDBRANCH   8  11
ENDBRANCH   7   8
ENDBRANCH   1   7
BRANCH   6  13
ATOM     13  N   LIG d   1      -1.127  76.498 116.470  0.00  0.00    -0.311 N 
ATOM     14  C   LIG d   1      -0.723  75.257 116.732  0.00  0.00     0.210 C 
ATOM     15  C   LIG d   1       0.746  75.128 117.148  0.00  0.00     0.109 C 
ATOM     16  O   LIG d   1      -1.433  74.245 116.629  0.00  0.00    -0.276 OA
ATOM     17  H   LIG d   1      -0.476  77.255 116.548  0.00  0.00     0.149 HD
ENDBRANCH   6  13
BRANCH   5  18
ATOM     18  N   LIG d   1      -3.393  77.157 118.410  0.00  0.00     0.381 N 
ATOM     19  H   LIG d   1      -3.367  76.507 119.170  0.00  0.00    -0.090 HD
ATOM     20  H   LIG d   1      -4.182  77.765 118.541  0.00  0.00    -0.090 HD
ATOM     21  H   LIG d   1      -2.552  77.692 118.392  0.00  0.00    -0.090 HD
ENDBRANCH   5  18
BRANCH   3  22
ATOM     22  C   LIG d   1      -6.493  75.841 115.005  0.00  0.00     0.382 C 
ATOM     23  O   LIG d   1      -7.157  75.116 115.784  0.00  0.00    -0.241 OA
ATOM     24  O   LIG d   1      -6.992  76.193 113.920  0.00  0.00    -0.241 OA
ENDBRANCH   3  22
TORSDOF 7
ENDMDL
MODEL 9
REMARK VINA RESULT:      -5.0      2.375      2.806
REMARK  7 active torsions:
REMARK  status: ('A' for Active; 'I' for Inactive)
REMARK    1  A    between atoms: C_2  and  C_3 
REMARK    2  A    between atoms: C_3  and  O_6 
REMARK    3  A    between atoms: C_3  and  C_4 
REMARK    4  A    between atoms: C_7  and  O_6 
REMARK    5  A    between atoms: C_9  and  C_10 
REMARK    6  A    between atoms: N_15  and  C_14 
REMARK    7  A    between atoms: N_20  and  C_19 
REMARK       I    between atoms: C_22  and  N_20 
ROOT
ATOM      1  C   LIG d   1      -2.717  78.040 114.829  0.00  0.00     0.161 C 
ATOM      2  C   LIG d   1      -3.015  79.315 114.321  0.00  0.00     0.016 C 
ATOM      3  C   LIG d   1      -2.572  79.774 113.059  0.00  0.00     0.038 C 
ATOM      4  C   LIG d   1      -1.921  78.927 112.149  0.00  0.00     0.028 C 
ATOM      5  C   LIG d   1      -1.158  77.789 112.819  0.00  0.00    -0.047 C 
ATOM      6  C   LIG d   1      -2.103  77.063 113.804  0.00  0.00     0.091 C 
ENDROOT
BRANCH   1   7
ATOM      7  O   LIG d   1      -3.895  77.464 115.427  0.00  0.00    -0.368 OA
BRANCH   7   8
ATOM      8  C   LIG d   1      -4.152  77.827 116.806  0.00  0.00     0.119 C 
BRANCH   8   9
ATOM      9  C   LIG d   1      -3.346  76.862 117.697  0.00  0.00     0.028 C 
ATOM     10  C   LIG d   1      -2.250  77.582 118.500  0.00  0.00     0.006 C 
ENDBRANCH   8   9
BRANCH   8  11
ATOM     11  C   LIG d   1      -5.619  77.594 117.179  0.00  0.00     0.028 C 
ATOM     12  C   LIG d   1      -6.210  78.739 118.017  0.00  0.00     0.006 C 
ENDBRANCH   8  11
ENDBRANCH   7   8
ENDBRANCH   1   7
BRANCH   6  13
ATOM     13  N   LIG d   1      -1.412  75.989 114.565  0.00  0.00    -0.311 N 
ATOM     14  C   LIG d   1      -0.372  76.212 115.367  0.00  0.00     0.210 C 
ATOM     15  C   LIG d   1       0.204  74.962 116.041  0.00  0.00     0.109 C 
ATOM     16  O   LIG d   1       0.107  77.329 115.610  0.00  0.00    -0.276 OA
ATOM     17  H   LIG d   1      -1.756  75.056 114.451  0.00  0.00     0.149 HD
ENDBRANCH   6  13
BRANCH   5  18
ATOM     18  N   LIG d   1      -0.646  76.908 111.754  0.00  0.00     0.381 N 
ATOM     19  H   LIG d   1       0.290  76.624 111.969  0.00  0.00    -0.090 HD
ATOM     20  H   LIG d   1      -0.629  77.419 110.889  0.00  0.00    -0.090 HD
ATOM     21  H   LIG d   1      -1.231  76.106 111.663  0.00  0.00    -0.090 HD
ENDBRANCH   5  18
BRANCH   3  22
ATOM     22  C   LIG d   1      -2.743  81.105 112.713  0.00  0.00     0.382 C 
ATOM     23  O   LIG d   1      -3.853  81.661 112.889  0.00  0.00    -0.241 OA
ATOM     24  O   LIG d   1      -1.813  81.745 112.185  0.00  0.00    -0.241 OA
ENDBRANCH   3  22
TORSDOF 7
ENDMDL
