MODEL 1
REMARK VINA RESULT:      -5.0      0.000      0.000
REMARK  7 active torsions:
REMARK  status: ('A' for Active; 'I' for Inactive)
REMARK    1  A    between atoms: C_2  and  C_3 
REMARK    2  A    between atoms: C_3  and  O_6 
REMARK    3  A    between atoms: C_3  and  C_4 
REMARK    4  A    between atoms: C_7  and  O_6 
REMARK    5  A    between atoms: C_9  and  C_10 
REMARK    6  A    between atoms: N_15  and  C_14 
REMARK    7  A    between atoms: N_20  and  C_19 
REMARK       I    between atoms: C_22  and  N_20 
ROOT
ATOM      1  C   LIG d   1      -3.248  77.654 115.939  0.00  0.00     0.161 C 
ATOM      2  C   LIG d   1      -3.443  78.458 114.804  0.00  0.00     0.016 C 
ATOM      3  C   LIG d   1      -2.472  78.618 113.788  0.00  0.00     0.038 C 
ATOM      4  C   LIG d   1      -1.292  77.861 113.764  0.00  0.00     0.028 C 
ATOM      5  C   LIG d   1      -0.830  77.415 115.147  0.00  0.00    -0.047 C 
ATOM      6  C   LIG d   1      -2.011  76.733 115.874  0.00  0.00     0.091 C 
ENDROOT
BRANCH   1   7
ATOM      7  O   LIG d   1      -4.435  76.880 116.199  0.00  0.00    -0.368 OA
BRANCH   7   8
ATOM      8  C   LIG d   1      -4.659  75.743 115.329  0.00  0.00     0.119 C 
BRANCH   8   9
ATOM      9  C   LIG d   1      -6.053  75.913 114.695  0.00  0.00     0.028 C 
ATOM     10  C   LIG d   1      -5.987  76.066 113.166  0.00  0.00     0.006 C 
ENDBRANCH   8   9
BRANCH   8  11
ATOM     11  C   LIG d   1      -4.733  74.437 116.126  0.00  0.00     0.028 C 
ATOM     12  C   LIG d   1      -6.123  74.185 116.730  0.00  0.00     0.006 C 
ENDBRANCH   8  11
ENDBRANCH   7   8
ENDBRANCH   1   7
BRANCH   6  13
ATOM     13  N   LIG d   1      -1.669  76.341 117.267  0.00  0.00    -0.311 N 
ATOM     14  C   LIG d   1      -1.274  75.116 117.608  0.00  0.00     0.210 C 
ATOM     15  C   LIG d   1      -0.990  74.920 119.100  0.00  0.00     0.109 C 
ATOM     16  O   LIG d   1      -1.101  74.181 116.811  0.00  0.00    -0.276 OA
ATOM     17  H   LIG d   1      -1.751  77.047 117.972  0.00  0.00     0.149 HD
ENDBRANCH   6  13
BRANCH   5  18
ATOM     18  N   LIG d   1       0.329  76.522 114.963  0.00  0.00     0.381 N 
ATOM     19  H   LIG d   1       0.054  75.711 114.446  0.00  0.00    -0.090 HD
ATOM     20  H   LIG d   1       0.657  76.224 115.865  0.00  0.00    -0.090 HD
ATOM     21  H   LIG d   1       1.056  77.002 114.479  0.00  0.00    -0.090 HD
ENDBRANCH   5  18
BRANCH   3  22
ATOM     22  C   LIG d   1      -2.661  79.575 112.802  0.00  0.00     0.382 C 
ATOM     23  O   LIG d   1      -2.052  79.478 111.709  0.00  0.00    -0.241 OA
ATOM     24  O   LIG d   1      -3.399  80.557 113.008  0.00  0.00    -0.241 OA
ENDBRANCH   3  22
TORSDOF 7
ENDMDL
MODEL 2
REMARK VINA RESULT:      -4.9      1.086      1.496
REMARK  7 active torsions:
REMARK  status: ('A' for Active; 'I' for Inactive)
REMARK    1  A    between atoms: C_2  and  C_3 
REMARK    2  A    between atoms: C_3  and  O_6 
REMARK    3  A    between atoms: C_3  and  C_4 
REMARK    4  A    between atoms: C_7  and  O_6 
REMARK    5  A    between atoms: C_9  and  C_10 
REMARK    6  A    between atoms: N_15  and  C_14 
REMARK    7  A    between atoms: N_20  and  C_19 
REMARK       I    between atoms: C_22  and  N_20 
ROOT
ATOM      1  C   LIG d   1      -3.213  77.399 115.863  0.00  0.00     0.161 C 
ATOM      2  C   LIG d   1      -3.425  78.226 114.746  0.00  0.00     0.016 C 
ATOM      3  C   LIG d   1      -2.416  78.535 113.806  0.00  0.00     0.038 C 
ATOM      4  C   LIG d   1      -1.159  77.913 113.835  0.00  0.00     0.028 C 
ATOM      5  C   LIG d   1      -0.739  77.461 115.229  0.00  0.00    -0.047 C 
ATOM      6  C   LIG d   1      -1.880  76.623 115.850  0.00  0.00     0.091 C 
ENDROOT
BRANCH   1   7
ATOM      7  O   LIG d   1      -4.321  76.490 116.014  0.00  0.00    -0.368 OA
BRANCH   7   8
ATOM      8  C   LIG d   1      -5.587  76.930 115.463  0.00  0.00     0.119 C 
BRANCH   8   9
ATOM      9  C   LIG d   1      -6.529  77.225 116.646  0.00  0.00     0.028 C 
ATOM     10  C   LIG d   1      -6.486  78.700 117.076  0.00  0.00     0.006 C 
ENDBRANCH   8   9
BRANCH   8  11
ATOM     11  C   LIG d   1      -6.269  75.810 114.670  0.00  0.00     0.028 C 
ATOM     12  C   LIG d   1      -5.296  74.695 114.257  0.00  0.00     0.006 C 
ENDBRANCH   8  11
ENDBRANCH   7   8
ENDBRANCH   1   7
BRANCH   6  13
ATOM     13  N   LIG d   1      -1.586  76.211 117.247  0.00  0.00    -0.311 N 
ATOM     14  C   LIG d   1      -1.043  75.038 117.567  0.00  0.00     0.210 C 
ATOM     15  C   LIG d   1      -0.842  74.806 119.068  0.00  0.00     0.109 C 
ATOM     16  O   LIG d   1      -0.679  74.180 116.748  0.00  0.00    -0.276 OA
ATOM     17  H   LIG d   1      -1.820  76.860 117.973  0.00  0.00     0.149 HD
ENDBRANCH   6  13
BRANCH   5  18
ATOM     18  N   LIG d   1       0.523  76.709 115.093  0.00  0.00     0.381 N 
ATOM     19  H   LIG d   1       0.461  76.083 114.315  0.00  0.00    -0.090 HD
ATOM     20  H   LIG d   1       0.668  76.164 115.925  0.00  0.00    -0.090 HD
ATOM     21  H   LIG d   1       1.283  77.339 114.963  0.00  0.00    -0.090 HD
ENDBRANCH   5  18
BRANCH   3  22
ATOM     22  C   LIG d   1      -2.647  79.507 112.844  0.00  0.00     0.382 C 
ATOM     23  O   LIG d   1      -2.093  79.424 111.722  0.00  0.00    -0.241 OA
ATOM     24  O   LIG d   1      -3.369  80.490 113.100  0.00  0.00    -0.241 OA
ENDBRANCH   3  22
TORSDOF 7
ENDMDL
MODEL 3
REMARK VINA RESULT:      -4.6      2.201      2.508
REMARK  7 active torsions:
REMARK  status: ('A' for Active; 'I' for Inactive)
REMARK    1  A    between atoms: C_2  and  C_3 
REMARK    2  A    between atoms: C_3  and  O_6 
REMARK    3  A    between atoms: C_3  and  C_4 
REMARK    4  A    between atoms: C_7  and  O_6 
REMARK    5  A    between atoms: C_9  and  C_10 
REMARK    6  A    between atoms: N_15  and  C_14 
REMARK    7  A    between atoms: N_20  and  C_19 
REMARK       I    between atoms: C_22  and  N_20 
ROOT
ATOM      1  C   LIG d   1      -2.597  77.093 114.188  0.00  0.00     0.161 C 
ATOM      2  C   LIG d   1      -2.732  77.164 112.792  0.00  0.00     0.016 C 
ATOM      3  C   LIG d   1      -1.915  77.975 111.971  0.00  0.00     0.038 C 
ATOM      4  C   LIG d   1      -0.801  78.660 112.480  0.00  0.00     0.028 C 
ATOM      5  C   LIG d   1      -0.933  79.018 113.957  0.00  0.00    -0.047 C 
ATOM      6  C   LIG d   1      -1.317  77.747 114.749  0.00  0.00     0.091 C 
ENDROOT
BRANCH   1   7
ATOM      7  O   LIG d   1      -2.689  75.721 114.619  0.00  0.00    -0.368 OA
BRANCH   7   8
ATOM      8  C   LIG d   1      -3.909  75.348 115.307  0.00  0.00     0.119 C 
BRANCH   8   9
ATOM      9  C   LIG d   1      -4.857  74.728 114.263  0.00  0.00     0.028 C 
ATOM     10  C   LIG d   1      -5.982  75.690 113.846  0.00  0.00     0.006 C 
ENDBRANCH   8   9
BRANCH   8  11
ATOM     11  C   LIG d   1      -4.645  76.580 115.842  0.00  0.00     0.028 C 
ATOM     12  C   LIG d   1      -4.712  76.614 117.377  0.00  0.00     0.006 C 
ENDBRANCH   8  11
ENDBRANCH   7   8
ENDBRANCH   1   7
BRANCH   6  13
ATOM     13  N   LIG d   1      -1.548  78.026 116.190  0.00  0.00    -0.311 N 
ATOM     14  C   LIG d   1      -0.611  77.878 117.125  0.00  0.00     0.210 C 
ATOM     15  C   LIG d   1      -1.065  78.201 118.552  0.00  0.00     0.109 C 
ATOM     16  O   LIG d   1       0.562  77.542 116.903  0.00  0.00    -0.276 OA
ATOM     17  H   LIG d   1      -2.464  78.334 116.454  0.00  0.00     0.149 HD
ENDBRANCH   6  13
BRANCH   5  18
ATOM     18  N   LIG d   1       0.351  79.603 114.389  0.00  0.00     0.381 N 
ATOM     19  H   LIG d   1       0.932  79.771 113.593  0.00  0.00    -0.090 HD
ATOM     20  H   LIG d   1       0.820  78.948 114.990  0.00  0.00    -0.090 HD
ATOM     21  H   LIG d   1       0.189  80.456 114.878  0.00  0.00    -0.090 HD
ENDBRANCH   5  18
BRANCH   3  22
ATOM     22  C   LIG d   1      -2.233  78.138 110.632  0.00  0.00     0.382 C 
ATOM     23  O   LIG d   1      -3.260  77.594 110.160  0.00  0.00    -0.241 OA
ATOM     24  O   LIG d   1      -1.482  78.787 109.879  0.00  0.00    -0.241 OA
ENDBRANCH   3  22
TORSDOF 7
ENDMDL
MODEL 4
REMARK VINA RESULT:      -4.6      2.108      3.244
REMARK  7 active torsions:
REMARK  status: ('A' for Active; 'I' for Inactive)
REMARK    1  A    between atoms: C_2  and  C_3 
REMARK    2  A    between atoms: C_3  and  O_6 
REMARK    3  A    between atoms: C_3  and  C_4 
REMARK    4  A    between atoms: C_7  and  O_6 
REMARK    5  A    between atoms: C_9  and  C_10 
REMARK    6  A    between atoms: N_15  and  C_14 
REMARK    7  A    between atoms: N_20  and  C_19 
REMARK       I    between atoms: C_22  and  N_20 
ROOT
ATOM      1  C   LIG d   1      -2.055  76.997 114.886  0.00  0.00     0.161 C 
ATOM      2  C   LIG d   1      -2.747  76.924 113.666  0.00  0.00     0.016 C 
ATOM      3  C   LIG d   1      -2.442  77.735 112.549  0.00  0.00     0.038 C 
ATOM      4  C   LIG d   1      -1.319  78.575 112.526  0.00  0.00     0.028 C 
ATOM      5  C   LIG d   1      -0.892  79.053 113.910  0.00  0.00    -0.047 C 
ATOM      6  C   LIG d   1      -0.755  77.829 114.844  0.00  0.00     0.091 C 
ENDROOT
BRANCH   1   7
ATOM      7  O   LIG d   1      -1.783  75.669 115.375  0.00  0.00    -0.368 OA
BRANCH   7   8
ATOM      8  C   LIG d   1      -2.431  75.302 116.618  0.00  0.00     0.119 C 
BRANCH   8   9
ATOM      9  C   LIG d   1      -1.509  74.303 117.344  0.00  0.00     0.028 C 
ATOM     10  C   LIG d   1      -1.154  74.761 118.769  0.00  0.00     0.006 C 
ENDBRANCH   8   9
BRANCH   8  11
ATOM     11  C   LIG d   1      -3.735  74.539 116.363  0.00  0.00     0.028 C 
ATOM     12  C   LIG d   1      -4.986  75.384 116.653  0.00  0.00     0.006 C 
ENDBRANCH   8  11
ENDBRANCH   7   8
ENDBRANCH   1   7
BRANCH   6  13
ATOM     13  N   LIG d   1      -0.422  78.215 116.240  0.00  0.00    -0.311 N 
ATOM     14  C   LIG d   1       0.521  77.613 116.962  0.00  0.00     0.210 C 
ATOM     15  C   LIG d   1       0.689  78.153 118.385  0.00  0.00     0.109 C 
ATOM     16  O   LIG d   1       1.257  76.704 116.548  0.00  0.00    -0.276 OA
ATOM     17  H   LIG d   1      -0.950  78.964 116.644  0.00  0.00     0.149 HD
ENDBRANCH   6  13
BRANCH   5  18
ATOM     18  N   LIG d   1       0.367  79.804 113.753  0.00  0.00     0.381 N 
ATOM     19  H   LIG d   1       0.167  80.770 113.586  0.00  0.00    -0.090 HD
ATOM     20  H   LIG d   1       0.865  79.443 112.958  0.00  0.00    -0.090 HD
ATOM     21  H   LIG d   1       0.925  79.711 114.574  0.00  0.00    -0.090 HD
ENDBRANCH   5  18
BRANCH   3  22
ATOM     22  C   LIG d   1      -3.291  77.740 111.452  0.00  0.00     0.382 C 
ATOM     23  O   LIG d   1      -4.531  77.656 111.618  0.00  0.00    -0.241 OA
ATOM     24  O   LIG d   1      -2.828  77.782 110.296  0.00  0.00    -0.241 OA
ENDBRANCH   3  22
TORSDOF 7
ENDMDL
MODEL 5
REMARK VINA RESULT:      -4.6      1.943      4.820
REMARK  7 active torsions:
REMARK  status: ('A' for Active; 'I' for Inactive)
REMARK    1  A    between atoms: C_2  and  C_3 
REMARK    2  A    between atoms: C_3  and  O_6 
REMARK    3  A    between atoms: C_3  and  C_4 
REMARK    4  A    between atoms: C_7  and  O_6 
REMARK    5  A    between atoms: C_9  and  C_10 
REMARK    6  A    between atoms: N_15  and  C_14 
REMARK    7  A    between atoms: N_20  and  C_19 
REMARK       I    between atoms: C_22  and  N_20 
ROOT
ATOM      1  C   LIG d   1      -1.894  75.865 114.681  0.00  0.00     0.161 C 
ATOM      2  C   LIG d   1      -1.711  75.529 116.032  0.00  0.00     0.016 C 
ATOM      3  C   LIG d   1      -1.066  76.375 116.964  0.00  0.00     0.038 C 
ATOM      4  C   LIG d   1      -0.692  77.687 116.639  0.00  0.00     0.028 C 
ATOM      5  C   LIG d   1      -0.401  77.884 115.155  0.00  0.00    -0.047 C 
ATOM      6  C   LIG d   1      -1.591  77.338 114.334  0.00  0.00     0.091 C 
ENDROOT
BRANCH   1   7
ATOM      7  O   LIG d   1      -3.230  75.518 114.267  0.00  0.00    -0.368 OA
BRANCH   7   8
ATOM      8  C   LIG d   1      -4.234  75.493 115.311  0.00  0.00     0.119 C 
BRANCH   8   9
ATOM      9  C   LIG d   1      -5.161  74.293 115.035  0.00  0.00     0.028 C 
ATOM     10  C   LIG d   1      -6.302  74.184 116.060  0.00  0.00     0.006 C 
ENDBRANCH   8   9
BRANCH   8  11
ATOM     11  C   LIG d   1      -5.139  76.727 115.244  0.00  0.00     0.028 C 
ATOM     12  C   LIG d   1      -4.787  77.782 116.306  0.00  0.00     0.006 C 
ENDBRANCH   8  11
ENDBRANCH   7   8
ENDBRANCH   1   7
BRANCH   6  13
ATOM     13  N   LIG d   1      -1.352  77.415 112.869  0.00  0.00    -0.311 N 
ATOM     14  C   LIG d   1      -2.235  77.919 112.008  0.00  0.00     0.210 C 
ATOM     15  C   LIG d   1      -1.797  77.885 110.540  0.00  0.00     0.109 C 
ATOM     16  O   LIG d   1      -3.324  78.420 112.323  0.00  0.00    -0.276 OA
ATOM     17  H   LIG d   1      -0.480  77.060 112.530  0.00  0.00     0.149 HD
ENDBRANCH   6  13
BRANCH   5  18
ATOM     18  N   LIG d   1      -0.158  79.322 114.936  0.00  0.00     0.381 N 
ATOM     19  H   LIG d   1       0.039  79.770 115.808  0.00  0.00    -0.090 HD
ATOM     20  H   LIG d   1      -0.988  79.737 114.549  0.00  0.00    -0.090 HD
ATOM     21  H   LIG d   1       0.607  79.448 114.310  0.00  0.00    -0.090 HD
ENDBRANCH   5  18
BRANCH   3  22
ATOM     22  C   LIG d   1      -0.753  75.894 118.227  0.00  0.00     0.382 C 
ATOM     23  O   LIG d   1       0.436  75.618 118.516  0.00  0.00    -0.241 OA
ATOM     24  O   LIG d   1      -1.652  75.691 119.065  0.00  0.00    -0.241 OA
ENDBRANCH   3  22
TORSDOF 7
ENDMDL
MODEL 6
REMARK VINA RESULT:      -4.6      2.444      3.316
REMARK  7 active torsions:
REMARK  status: ('A' for Active; 'I' for Inactive)
REMARK    1  A    between atoms: C_2  and  C_3 
REMARK    2  A    between atoms: C_3  and  O_6 
REMARK    3  A    between atoms: C_3  and  C_4 
REMARK    4  A    between atoms: C_7  and  O_6 
REMARK    5  A    between atoms: C_9  and  C_10 
REMARK    6  A    between atoms: N_15  and  C_14 
REMARK    7  A    between atoms: N_20  and  C_19 
REMARK       I    between atoms: C_22  and  N_20 
ROOT
ATOM      1  C   LIG d   1      -2.633  78.109 115.026  0.00  0.00     0.161 C 
ATOM      2  C   LIG d   1      -3.219  77.690 113.820  0.00  0.00     0.016 C 
ATOM      3  C   LIG d   1      -2.668  77.972 112.548  0.00  0.00     0.038 C 
ATOM      4  C   LIG d   1      -1.406  78.566 112.402  0.00  0.00     0.028 C 
ATOM      5  C   LIG d   1      -1.016  79.456 113.578  0.00  0.00    -0.047 C 
ATOM      6  C   LIG d   1      -1.199  78.662 114.891  0.00  0.00     0.091 C 
ENDROOT
BRANCH   1   7
ATOM      7  O   LIG d   1      -2.668  77.034 115.985  0.00  0.00    -0.368 OA
BRANCH   7   8
ATOM      8  C   LIG d   1      -2.459  75.701 115.456  0.00  0.00     0.119 C 
BRANCH   8   9
ATOM      9  C   LIG d   1      -3.476  74.767 116.140  0.00  0.00     0.028 C 
ATOM     10  C   LIG d   1      -4.885  74.891 115.537  0.00  0.00     0.006 C 
ENDBRANCH   8   9
BRANCH   8  11
ATOM     11  C   LIG d   1      -1.082  75.156 115.846  0.00  0.00     0.028 C 
ATOM     12  C   LIG d   1      -0.083  75.170 114.678  0.00  0.00     0.006 C 
ENDBRANCH   8  11
ENDBRANCH   7   8
ENDBRANCH   1   7
BRANCH   6  13
ATOM     13  N   LIG d   1      -0.920  79.486 116.096  0.00  0.00    -0.311 N 
ATOM     14  C   LIG d   1       0.007  79.173 116.999  0.00  0.00     0.210 C 
ATOM     15  C   LIG d   1       0.119  80.148 118.176  0.00  0.00     0.109 C 
ATOM     16  O   LIG d   1       0.769  78.198 116.922  0.00  0.00    -0.276 OA
ATOM     17  H   LIG d   1      -1.471  80.313 116.221  0.00  0.00     0.149 HD
ENDBRANCH   6  13
BRANCH   5  18
ATOM     18  N   LIG d   1       0.374  79.899 113.359  0.00  0.00     0.381 N 
ATOM     19  H   LIG d   1       0.689  80.427 114.149  0.00  0.00    -0.090 HD
ATOM     20  H   LIG d   1       0.402  80.495 112.550  0.00  0.00    -0.090 HD
ATOM     21  H   LIG d   1       0.966  79.110 113.220  0.00  0.00    -0.090 HD
ENDBRANCH   5  18
BRANCH   3  22
ATOM     22  C   LIG d   1      -3.401  77.694 111.405  0.00  0.00     0.382 C 
ATOM     23  O   LIG d   1      -2.847  77.732 110.280  0.00  0.00    -0.241 OA
ATOM     24  O   LIG d   1      -4.620  77.448 111.480  0.00  0.00    -0.241 OA
ENDBRANCH   3  22
TORSDOF 7
ENDMDL
MODEL 7
REMARK VINA RESULT:      -4.4      1.395      1.866
REMARK  7 active torsions:
REMARK  status: ('A' for Active; 'I' for Inactive)
REMARK    1  A    between atoms: C_2  and  C_3 
REMARK    2  A    between atoms: C_3  and  O_6 
REMARK    3  A    between atoms: C_3  and  C_4 
REMARK    4  A    between atoms: C_7  and  O_6 
REMARK    5  A    between atoms: C_9  and  C_10 
REMARK    6  A    between atoms: N_15  and  C_14 
REMARK    7  A    between atoms: N_20  and  C_19 
REMARK       I    between atoms: C_22  and  N_20 
ROOT
ATOM      1  C   LIG d   1      -3.253  77.115 115.315  0.00  0.00     0.161 C 
ATOM      2  C   LIG d   1      -3.402  77.548 113.987  0.00  0.00     0.016 C 
ATOM      3  C   LIG d   1      -2.330  77.626 113.069  0.00  0.00     0.038 C 
ATOM      4  C   LIG d   1      -1.054  77.129 113.375  0.00  0.00     0.028 C 
ATOM      5  C   LIG d   1      -0.738  77.150 114.867  0.00  0.00    -0.047 C 
ATOM      6  C   LIG d   1      -1.891  76.464 115.634  0.00  0.00     0.091 C 
ENDROOT
BRANCH   1   7
ATOM      7  O   LIG d   1      -4.329  76.221 115.661  0.00  0.00    -0.368 OA
BRANCH   7   8
ATOM      8  C   LIG d   1      -5.238  76.684 116.690  0.00  0.00     0.119 C 
BRANCH   8   9
ATOM      9  C   LIG d   1      -6.669  76.568 116.131  0.00  0.00     0.028 C 
ATOM     10  C   LIG d   1      -6.691  76.082 114.672  0.00  0.00     0.006 C 
ENDBRANCH   8   9
BRANCH   8  11
ATOM     11  C   LIG d   1      -5.036  78.174 116.982  0.00  0.00     0.028 C 
ATOM     12  C   LIG d   1      -6.361  78.944 117.098  0.00  0.00     0.006 C 
ENDBRANCH   8  11
ENDBRANCH   7   8
ENDBRANCH   1   7
BRANCH   6  13
ATOM     13  N   LIG d   1      -1.702  76.516 117.107  0.00  0.00    -0.311 N 
ATOM     14  C   LIG d   1      -1.614  75.430 117.874  0.00  0.00     0.210 C 
ATOM     15  C   LIG d   1      -1.440  75.708 119.370  0.00  0.00     0.109 C 
ATOM     16  O   LIG d   1      -1.631  74.264 117.453  0.00  0.00    -0.276 OA
ATOM     17  H   LIG d   1      -1.646  77.423 117.528  0.00  0.00     0.149 HD
ENDBRANCH   6  13
BRANCH   5  18
ATOM     18  N   LIG d   1       0.562  76.479 115.056  0.00  0.00     0.381 N 
ATOM     19  H   LIG d   1       0.664  75.742 114.387  0.00  0.00    -0.090 HD
ATOM     20  H   LIG d   1       0.589  76.076 115.976  0.00  0.00    -0.090 HD
ATOM     21  H   LIG d   1       1.303  77.137 114.953  0.00  0.00    -0.090 HD
ENDBRANCH   5  18
BRANCH   3  22
ATOM     22  C   LIG d   1      -2.519  78.243 111.842  0.00  0.00     0.382 C 
ATOM     23  O   LIG d   1      -2.180  79.440 111.683  0.00  0.00    -0.241 OA
ATOM     24  O   LIG d   1      -3.065  77.630 110.905  0.00  0.00    -0.241 OA
ENDBRANCH   3  22
TORSDOF 7
ENDMDL
MODEL 8
REMARK VINA RESULT:      -4.4      2.509      4.867
REMARK  7 active torsions:
REMARK  status: ('A' for Active; 'I' for Inactive)
REMARK    1  A    between atoms: C_2  and  C_3 
REMARK    2  A    between atoms: C_3  and  O_6 
REMARK    3  A    between atoms: C_3  and  C_4 
REMARK    4  A    between atoms: C_7  and  O_6 
REMARK    5  A    between atoms: C_9  and  C_10 
REMARK    6  A    between atoms: N_15  and  C_14 
REMARK    7  A    between atoms: N_20  and  C_19 
REMARK       I    between atoms: C_22  and  N_20 
ROOT
ATOM      1  C   LIG d   1      -1.772  76.909 114.354  0.00  0.00     0.161 C 
ATOM      2  C   LIG d   1      -2.998  76.425 113.868  0.00  0.00     0.016 C 
ATOM      3  C   LIG d   1      -4.233  76.637 114.522  0.00  0.00     0.038 C 
ATOM      4  C   LIG d   1      -4.346  77.484 115.635  0.00  0.00     0.028 C 
ATOM      5  C   LIG d   1      -3.063  77.583 116.453  0.00  0.00    -0.047 C 
ATOM      6  C   LIG d   1      -1.890  77.927 115.506  0.00  0.00     0.091 C 
ENDROOT
BRANCH   1   7
ATOM      7  O   LIG d   1      -1.003  77.466 113.270  0.00  0.00    -0.368 OA
BRANCH   7   8
ATOM      8  C   LIG d   1      -1.761  77.965 112.140  0.00  0.00     0.119 C 
BRANCH   8   9
ATOM      9  C   LIG d   1      -1.049  77.490 110.859  0.00  0.00     0.028 C 
ATOM     10  C   LIG d   1      -0.867  78.624 109.835  0.00  0.00     0.006 C 
ENDBRANCH   8   9
BRANCH   8  11
ATOM     11  C   LIG d   1      -1.729  79.495 112.080  0.00  0.00     0.028 C 
ATOM     12  C   LIG d   1      -2.940  80.144 112.769  0.00  0.00     0.006 C 
ENDBRANCH   8  11
ENDBRANCH   7   8
ENDBRANCH   1   7
BRANCH   6  13
ATOM     13  N   LIG d   1      -0.583  77.961 116.213  0.00  0.00    -0.311 N 
ATOM     14  C   LIG d   1      -0.047  79.074 116.711  0.00  0.00     0.210 C 
ATOM     15  C   LIG d   1       1.317  78.890 117.383  0.00  0.00     0.109 C 
ATOM     16  O   LIG d   1      -0.588  80.190 116.689  0.00  0.00    -0.276 OA
ATOM     17  H   LIG d   1      -0.091  77.094 116.303  0.00  0.00     0.149 HD
ENDBRANCH   6  13
BRANCH   5  18
ATOM     18  N   LIG d   1      -3.279  78.601 117.499  0.00  0.00     0.381 N 
ATOM     19  H   LIG d   1      -4.230  78.912 117.478  0.00  0.00    -0.090 HD
ATOM     20  H   LIG d   1      -2.684  79.389 117.314  0.00  0.00    -0.090 HD
ATOM     21  H   LIG d   1      -3.067  78.219 118.395  0.00  0.00    -0.090 HD
ENDBRANCH   5  18
BRANCH   3  22
ATOM     22  C   LIG d   1      -5.367  75.968 114.086  0.00  0.00     0.382 C 
ATOM     23  O   LIG d   1      -5.264  74.819 113.591  0.00  0.00    -0.241 OA
ATOM     24  O   LIG d   1      -6.484  76.515 114.142  0.00  0.00    -0.241 OA
ENDBRANCH   3  22
TORSDOF 7
ENDMDL
MODEL 9
REMARK VINA RESULT:      -4.3      2.424      5.241
REMARK  7 active torsions:
REMARK  status: ('A' for Active; 'I' for Inactive)
REMARK    1  A    between atoms: C_2  and  C_3 
REMARK    2  A    between atoms: C_3  and  O_6 
REMARK    3  A    between atoms: C_3  and  C_4 
REMARK    4  A    between atoms: C_7  and  O_6 
REMARK    5  A    between atoms: C_9  and  C_10 
REMARK    6  A    between atoms: N_15  and  C_14 
REMARK    7  A    between atoms: N_20  and  C_19 
REMARK       I    between atoms: C_22  and  N_20 
ROOT
ATOM      1  C   LIG d   1      -1.806  76.956 114.255  0.00  0.00     0.161 C 
ATOM      2  C   LIG d   1      -0.711  77.525 114.926  0.00  0.00     0.016 C 
ATOM      3  C   LIG d   1      -0.269  77.095 116.198  0.00  0.00     0.038 C 
ATOM      4  C   LIG d   1      -0.802  75.957 116.823  0.00  0.00     0.028 C 
ATOM      5  C   LIG d   1      -2.240  75.660 116.414  0.00  0.00    -0.047 C 
ATOM      6  C   LIG d   1      -2.330  75.642 114.871  0.00  0.00     0.091 C 
ENDROOT
BRANCH   1   7
ATOM      7  O   LIG d   1      -1.480  76.762 112.865  0.00  0.00    -0.368 OA
BRANCH   7   8
ATOM      8  C   LIG d   1      -1.430  77.958 112.049  0.00  0.00     0.119 C 
BRANCH   8   9
ATOM      9  C   LIG d   1      -2.834  78.592 112.070  0.00  0.00     0.028 C 
ATOM     10  C   LIG d   1      -2.817  80.039 112.591  0.00  0.00     0.006 C 
ENDBRANCH   8   9
BRANCH   8  11
ATOM     11  C   LIG d   1      -1.159  77.621 110.580  0.00  0.00     0.028 C 
ATOM     12  C   LIG d   1      -0.570  78.804 109.795  0.00  0.00     0.006 C 
ENDBRANCH   8  11
ENDBRANCH   7   8
ENDBRANCH   1   7
BRANCH   6  13
ATOM     13  N   LIG d   1      -3.721  75.441 114.387  0.00  0.00    -0.311 N 
ATOM     14  C   LIG d   1      -4.681  76.355 114.514  0.00  0.00     0.210 C 
ATOM     15  C   LIG d   1      -6.048  75.938 113.964  0.00  0.00     0.109 C 
ATOM     16  O   LIG d   1      -4.521  77.485 115.000  0.00  0.00    -0.276 OA
ATOM     17  H   LIG d   1      -3.929  74.564 113.950  0.00  0.00     0.149 HD
ENDBRANCH   6  13
BRANCH   5  18
ATOM     18  N   LIG d   1      -2.622  74.376 117.031  0.00  0.00     0.381 N 
ATOM     19  H   LIG d   1      -3.205  74.542 117.827  0.00  0.00    -0.090 HD
ATOM     20  H   LIG d   1      -1.791  73.904 117.342  0.00  0.00    -0.090 HD
ATOM     21  H   LIG d   1      -3.106  73.810 116.369  0.00  0.00    -0.090 HD
ENDBRANCH   5  18
BRANCH   3  22
ATOM     22  C   LIG d   1       0.691  77.830 116.877  0.00  0.00     0.382 C 
ATOM     23  O   LIG d   1       1.439  77.266 117.711  0.00  0.00    -0.241 OA
ATOM     24  O   LIG d   1       0.790  79.059 116.697  0.00  0.00    -0.241 OA
ENDBRANCH   3  22
TORSDOF 7
ENDMDL
