MODEL 1
REMARK VINA RESULT:      -5.2      0.000      0.000
REMARK  7 active torsions:
REMARK  status: ('A' for Active; 'I' for Inactive)
REMARK    1  A    between atoms: C_2  and  C_3 
REMARK    2  A    between atoms: C_3  and  O_6 
REMARK    3  A    between atoms: C_3  and  C_4 
REMARK    4  A    between atoms: C_7  and  O_6 
REMARK    5  A    between atoms: C_9  and  C_10 
REMARK    6  A    between atoms: N_15  and  C_14 
REMARK    7  A    between atoms: N_20  and  C_19 
REMARK       I    between atoms: C_22  and  N_20 
ROOT
ATOM      1  C   LIG d   1      -1.245  78.483 114.990  0.00  0.00     0.161 C 
ATOM      2  C   LIG d   1      -1.773  79.686 114.492  0.00  0.00     0.016 C 
ATOM      3  C   LIG d   1      -1.823  80.003 113.115  0.00  0.00     0.038 C 
ATOM      4  C   LIG d   1      -1.483  79.068 112.126  0.00  0.00     0.028 C 
ATOM      5  C   LIG d   1      -0.471  78.029 112.598  0.00  0.00    -0.047 C 
ATOM      6  C   LIG d   1      -0.971  77.405 113.921  0.00  0.00     0.091 C 
ENDROOT
BRANCH   1   7
ATOM      7  O   LIG d   1      -2.107  77.960 116.020  0.00  0.00    -0.368 OA
BRANCH   7   8
ATOM      8  C   LIG d   1      -3.531  78.081 115.782  0.00  0.00     0.119 C 
BRANCH   8   9
ATOM      9  C   LIG d   1      -4.149  78.774 117.012  0.00  0.00     0.028 C 
ATOM     10  C   LIG d   1      -5.672  78.578 117.092  0.00  0.00     0.006 C 
ENDBRANCH   8   9
BRANCH   8  11
ATOM     11  C   LIG d   1      -4.202  76.707 115.711  0.00  0.00     0.028 C 
ATOM     12  C   LIG d   1      -4.588  76.305 114.278  0.00  0.00     0.006 C 
ENDBRANCH   8  11
ENDBRANCH   7   8
ENDBRANCH   1   7
BRANCH   6  13
ATOM     13  N   LIG d   1       0.001  76.439 114.495  0.00  0.00    -0.311 N 
ATOM     14  C   LIG d   1      -0.334  75.214 114.897  0.00  0.00     0.210 C 
ATOM     15  C   LIG d   1       0.817  74.386 115.477  0.00  0.00     0.109 C 
ATOM     16  O   LIG d   1      -1.468  74.722 114.798  0.00  0.00    -0.276 OA
ATOM     17  H   LIG d   1       0.950  76.744 114.582  0.00  0.00     0.149 HD
ENDBRANCH   6  13
BRANCH   5  18
ATOM     18  N   LIG d   1      -0.312  77.039 111.516  0.00  0.00     0.381 N 
ATOM     19  H   LIG d   1      -0.081  77.505 110.661  0.00  0.00    -0.090 HD
ATOM     20  H   LIG d   1      -1.184  76.556 111.386  0.00  0.00    -0.090 HD
ATOM     21  H   LIG d   1       0.405  76.388 111.752  0.00  0.00    -0.090 HD
ENDBRANCH   5  18
BRANCH   3  22
ATOM     22  C   LIG d   1      -2.179  81.283 112.717  0.00  0.00     0.382 C 
ATOM     23  O   LIG d   1      -1.291  82.110 112.399  0.00  0.00    -0.241 OA
ATOM     24  O   LIG d   1      -3.374  81.634 112.714  0.00  0.00    -0.241 OA
ENDBRANCH   3  22
TORSDOF 7
ENDMDL
MODEL 2
REMARK VINA RESULT:      -4.9      1.841      2.422
REMARK  7 active torsions:
REMARK  status: ('A' for Active; 'I' for Inactive)
REMARK    1  A    between atoms: C_2  and  C_3 
REMARK    2  A    between atoms: C_3  and  O_6 
REMARK    3  A    between atoms: C_3  and  C_4 
REMARK    4  A    between atoms: C_7  and  O_6 
REMARK    5  A    between atoms: C_9  and  C_10 
REMARK    6  A    between atoms: N_15  and  C_14 
REMARK    7  A    between atoms: N_20  and  C_19 
REMARK       I    between atoms: C_22  and  N_20 
ROOT
ATOM      1  C   LIG d   1      -3.061  77.480 114.360  0.00  0.00     0.161 C 
ATOM      2  C   LIG d   1      -3.012  78.629 113.552  0.00  0.00     0.016 C 
ATOM      3  C   LIG d   1      -1.857  79.432 113.412  0.00  0.00     0.038 C 
ATOM      4  C   LIG d   1      -0.620  79.054 113.956  0.00  0.00     0.028 C 
ATOM      5  C   LIG d   1      -0.747  78.172 115.193  0.00  0.00    -0.047 C 
ATOM      6  C   LIG d   1      -1.691  76.990 114.872  0.00  0.00     0.091 C 
ENDROOT
BRANCH   1   7
ATOM      7  O   LIG d   1      -3.743  76.420 113.660  0.00  0.00    -0.368 OA
BRANCH   7   8
ATOM      8  C   LIG d   1      -5.029  76.026 114.197  0.00  0.00     0.119 C 
BRANCH   8   9
ATOM      9  C   LIG d   1      -5.177  76.691 115.579  0.00  0.00     0.028 C 
ATOM     10  C   LIG d   1      -6.613  77.172 115.849  0.00  0.00     0.006 C 
ENDBRANCH   8   9
BRANCH   8  11
ATOM     11  C   LIG d   1      -5.084  74.519 114.465  0.00  0.00     0.028 C 
ATOM     12  C   LIG d   1      -5.126  74.181 115.963  0.00  0.00     0.006 C 
ENDBRANCH   8  11
ENDBRANCH   7   8
ENDBRANCH   1   7
BRANCH   6  13
ATOM     13  N   LIG d   1      -1.936  76.124 116.054  0.00  0.00    -0.311 N 
ATOM     14  C   LIG d   1      -1.320  74.960 116.250  0.00  0.00     0.210 C 
ATOM     15  C   LIG d   1      -1.734  74.215 117.524  0.00  0.00     0.109 C 
ATOM     16  O   LIG d   1      -0.446  74.488 115.508  0.00  0.00    -0.276 OA
ATOM     17  H   LIG d   1      -2.608  76.445 116.724  0.00  0.00     0.149 HD
ENDBRANCH   6  13
BRANCH   5  18
ATOM     18  N   LIG d   1       0.611  77.740 115.574  0.00  0.00     0.381 N 
ATOM     19  H   LIG d   1       0.832  78.082 116.487  0.00  0.00    -0.090 HD
ATOM     20  H   LIG d   1       1.270  78.129 114.923  0.00  0.00    -0.090 HD
ATOM     21  H   LIG d   1       0.669  76.745 115.561  0.00  0.00    -0.090 HD
ENDBRANCH   5  18
BRANCH   3  22
ATOM     22  C   LIG d   1      -1.942  80.650 112.755  0.00  0.00     0.382 C 
ATOM     23  O   LIG d   1      -3.013  81.303 112.782  0.00  0.00    -0.241 OA
ATOM     24  O   LIG d   1      -0.976  81.083 112.098  0.00  0.00    -0.241 OA
ENDBRANCH   3  22
TORSDOF 7
ENDMDL
MODEL 3
REMARK VINA RESULT:      -4.9      1.305      2.137
REMARK  7 active torsions:
REMARK  status: ('A' for Active; 'I' for Inactive)
REMARK    1  A    between atoms: C_2  and  C_3 
REMARK    2  A    between atoms: C_3  and  O_6 
REMARK    3  A    between atoms: C_3  and  C_4 
REMARK    4  A    between atoms: C_7  and  O_6 
REMARK    5  A    between atoms: C_9  and  C_10 
REMARK    6  A    between atoms: N_15  and  C_14 
REMARK    7  A    between atoms: N_20  and  C_19 
REMARK       I    between atoms: C_22  and  N_20 
ROOT
ATOM      1  C   LIG d   1      -1.374  78.534 114.910  0.00  0.00     0.161 C 
ATOM      2  C   LIG d   1      -1.896  79.743 114.418  0.00  0.00     0.016 C 
ATOM      3  C   LIG d   1      -1.889  80.094 113.049  0.00  0.00     0.038 C 
ATOM      4  C   LIG d   1      -1.493  79.188 112.053  0.00  0.00     0.028 C 
ATOM      5  C   LIG d   1      -0.489  78.150 112.543  0.00  0.00    -0.047 C 
ATOM      6  C   LIG d   1      -1.039  77.487 113.827  0.00  0.00     0.091 C 
ENDROOT
BRANCH   1   7
ATOM      7  O   LIG d   1      -2.274  77.975 115.887  0.00  0.00    -0.368 OA
BRANCH   7   8
ATOM      8  C   LIG d   1      -1.785  77.928 117.250  0.00  0.00     0.119 C 
BRANCH   8   9
ATOM      9  C   LIG d   1      -2.592  76.846 117.994  0.00  0.00     0.028 C 
ATOM     10  C   LIG d   1      -3.753  76.295 117.150  0.00  0.00     0.006 C 
ENDBRANCH   8   9
BRANCH   8  11
ATOM     11  C   LIG d   1      -2.079  79.236 117.992  0.00  0.00     0.028 C 
ATOM     12  C   LIG d   1      -0.812  80.057 118.276  0.00  0.00     0.006 C 
ENDBRANCH   8  11
ENDBRANCH   7   8
ENDBRANCH   1   7
BRANCH   6  13
ATOM     13  N   LIG d   1      -0.081  76.518 114.420  0.00  0.00    -0.311 N 
ATOM     14  C   LIG d   1      -0.437  75.316 114.869  0.00  0.00     0.210 C 
ATOM     15  C   LIG d   1       0.704  74.482 115.460  0.00  0.00     0.109 C 
ATOM     16  O   LIG d   1      -1.584  74.848 114.804  0.00  0.00    -0.276 OA
ATOM     17  H   LIG d   1       0.877  76.804 114.483  0.00  0.00     0.149 HD
ENDBRANCH   6  13
BRANCH   5  18
ATOM     18  N   LIG d   1      -0.269  77.190 111.446  0.00  0.00     0.381 N 
ATOM     19  H   LIG d   1      -0.564  76.277 111.730  0.00  0.00    -0.090 HD
ATOM     20  H   LIG d   1       0.713  77.153 111.238  0.00  0.00    -0.090 HD
ATOM     21  H   LIG d   1      -0.777  77.474 110.637  0.00  0.00    -0.090 HD
ENDBRANCH   5  18
BRANCH   3  22
ATOM     22  C   LIG d   1      -2.244  81.378 112.667  0.00  0.00     0.382 C 
ATOM     23  O   LIG d   1      -3.452  81.718 112.656  0.00  0.00    -0.241 OA
ATOM     24  O   LIG d   1      -1.376  82.188 112.290  0.00  0.00    -0.241 OA
ENDBRANCH   3  22
TORSDOF 7
ENDMDL
MODEL 4
REMARK VINA RESULT:      -4.6      2.431      3.030
REMARK  7 active torsions:
REMARK  status: ('A' for Active; 'I' for Inactive)
REMARK    1  A    between atoms: C_2  and  C_3 
REMARK    2  A    between atoms: C_3  and  O_6 
REMARK    3  A    between atoms: C_3  and  C_4 
REMARK    4  A    between atoms: C_7  and  O_6 
REMARK    5  A    between atoms: C_9  and  C_10 
REMARK    6  A    between atoms: N_15  and  C_14 
REMARK    7  A    between atoms: N_20  and  C_19 
REMARK       I    between atoms: C_22  and  N_20 
ROOT
ATOM      1  C   LIG d   1      -2.757  77.396 116.305  0.00  0.00     0.161 C 
ATOM      2  C   LIG d   1      -3.036  77.841 115.002  0.00  0.00     0.016 C 
ATOM      3  C   LIG d   1      -2.165  77.637 113.907  0.00  0.00     0.038 C 
ATOM      4  C   LIG d   1      -1.017  76.837 114.012  0.00  0.00     0.028 C 
ATOM      5  C   LIG d   1      -0.437  76.792 115.421  0.00  0.00    -0.047 C 
ATOM      6  C   LIG d   1      -1.562  76.425 116.415  0.00  0.00     0.091 C 
ENDROOT
BRANCH   1   7
ATOM      7  O   LIG d   1      -3.938  76.805 116.884  0.00  0.00    -0.368 OA
BRANCH   7   8
ATOM      8  C   LIG d   1      -5.137  76.855 116.073  0.00  0.00     0.119 C 
BRANCH   8   9
ATOM      9  C   LIG d   1      -6.203  77.632 116.870  0.00  0.00     0.028 C 
ATOM     10  C   LIG d   1      -7.547  76.887 116.934  0.00  0.00     0.006 C 
ENDBRANCH   8   9
BRANCH   8  11
ATOM     11  C   LIG d   1      -5.727  75.457 115.864  0.00  0.00     0.028 C 
ATOM     12  C   LIG d   1      -4.972  74.644 114.801  0.00  0.00     0.006 C 
ENDBRANCH   8  11
ENDBRANCH   7   8
ENDBRANCH   1   7
BRANCH   6  13
ATOM     13  N   LIG d   1      -1.099  76.441 117.827  0.00  0.00    -0.311 N 
ATOM     14  C   LIG d   1      -0.682  75.354 118.474  0.00  0.00     0.210 C 
ATOM     15  C   LIG d   1      -0.266  75.588 119.930  0.00  0.00     0.109 C 
ATOM     16  O   LIG d   1      -0.586  74.225 117.971  0.00  0.00    -0.276 OA
ATOM     17  H   LIG d   1      -1.113  77.323 118.302  0.00  0.00     0.149 HD
ENDBRANCH   6  13
BRANCH   5  18
ATOM     18  N   LIG d   1       0.670  75.816 115.416  0.00  0.00     0.381 N 
ATOM     19  H   LIG d   1       0.506  75.115 116.110  0.00  0.00    -0.090 HD
ATOM     20  H   LIG d   1       1.524  76.293 115.644  0.00  0.00    -0.090 HD
ATOM     21  H   LIG d   1       0.747  75.393 114.517  0.00  0.00    -0.090 HD
ENDBRANCH   5  18
BRANCH   3  22
ATOM     22  C   LIG d   1      -2.419  78.271 112.700  0.00  0.00     0.382 C 
ATOM     23  O   LIG d   1      -2.329  77.631 111.625  0.00  0.00    -0.241 OA
ATOM     24  O   LIG d   1      -2.694  79.485 112.670  0.00  0.00    -0.241 OA
ENDBRANCH   3  22
TORSDOF 7
ENDMDL
MODEL 5
REMARK VINA RESULT:      -4.6      3.137      4.342
REMARK  7 active torsions:
REMARK  status: ('A' for Active; 'I' for Inactive)
REMARK    1  A    between atoms: C_2  and  C_3 
REMARK    2  A    between atoms: C_3  and  O_6 
REMARK    3  A    between atoms: C_3  and  C_4 
REMARK    4  A    between atoms: C_7  and  O_6 
REMARK    5  A    between atoms: C_9  and  C_10 
REMARK    6  A    between atoms: N_15  and  C_14 
REMARK    7  A    between atoms: N_20  and  C_19 
REMARK       I    between atoms: C_22  and  N_20 
ROOT
ATOM      1  C   LIG d   1      -3.625  78.120 116.978  0.00  0.00     0.161 C 
ATOM      2  C   LIG d   1      -2.882  79.119 117.629  0.00  0.00     0.016 C 
ATOM      3  C   LIG d   1      -1.507  79.346 117.389  0.00  0.00     0.038 C 
ATOM      4  C   LIG d   1      -0.814  78.685 116.365  0.00  0.00     0.028 C 
ATOM      5  C   LIG d   1      -1.394  77.316 116.027  0.00  0.00    -0.047 C 
ATOM      6  C   LIG d   1      -2.913  77.462 115.778  0.00  0.00     0.091 C 
ENDROOT
BRANCH   1   7
ATOM      7  O   LIG d   1      -4.904  78.647 116.574  0.00  0.00    -0.368 OA
BRANCH   7   8
ATOM      8  C   LIG d   1      -6.036  78.276 117.399  0.00  0.00     0.119 C 
BRANCH   8   9
ATOM      9  C   LIG d   1      -6.875  77.258 116.603  0.00  0.00     0.028 C 
ATOM     10  C   LIG d   1      -7.054  75.929 117.357  0.00  0.00     0.006 C 
ENDBRANCH   8   9
BRANCH   8  11
ATOM     11  C   LIG d   1      -6.966  79.469 117.638  0.00  0.00     0.028 C 
ATOM     12  C   LIG d   1      -6.218  80.811 117.669  0.00  0.00     0.006 C 
ENDBRANCH   8  11
ENDBRANCH   7   8
ENDBRANCH   1   7
BRANCH   6  13
ATOM     13  N   LIG d   1      -3.574  76.155 115.524  0.00  0.00    -0.311 N 
ATOM     14  C   LIG d   1      -4.327  75.911 114.452  0.00  0.00     0.210 C 
ATOM     15  C   LIG d   1      -4.931  74.505 114.394  0.00  0.00     0.109 C 
ATOM     16  O   LIG d   1      -4.525  76.715 113.529  0.00  0.00    -0.276 OA
ATOM     17  H   LIG d   1      -3.440  75.436 116.207  0.00  0.00     0.149 HD
ENDBRANCH   6  13
BRANCH   5  18
ATOM     18  N   LIG d   1      -0.663  76.799 114.854  0.00  0.00     0.381 N 
ATOM     19  H   LIG d   1      -1.006  75.890 114.615  0.00  0.00    -0.090 HD
ATOM     20  H   LIG d   1       0.310  76.717 115.088  0.00  0.00    -0.090 HD
ATOM     21  H   LIG d   1      -0.776  77.418 114.082  0.00  0.00    -0.090 HD
ENDBRANCH   5  18
BRANCH   3  22
ATOM     22  C   LIG d   1      -0.802  80.217 118.206  0.00  0.00     0.382 C 
ATOM     23  O   LIG d   1       0.116  80.924 117.724  0.00  0.00    -0.241 OA
ATOM     24  O   LIG d   1      -1.042  80.272 119.427  0.00  0.00    -0.241 OA
ENDBRANCH   3  22
TORSDOF 7
ENDMDL
MODEL 6
REMARK VINA RESULT:      -4.5      2.386      4.992
REMARK  7 active torsions:
REMARK  status: ('A' for Active; 'I' for Inactive)
REMARK    1  A    between atoms: C_2  and  C_3 
REMARK    2  A    between atoms: C_3  and  O_6 
REMARK    3  A    between atoms: C_3  and  C_4 
REMARK    4  A    between atoms: C_7  and  O_6 
REMARK    5  A    between atoms: C_9  and  C_10 
REMARK    6  A    between atoms: N_15  and  C_14 
REMARK    7  A    between atoms: N_20  and  C_19 
REMARK       I    between atoms: C_22  and  N_20 
ROOT
ATOM      1  C   LIG d   1      -1.560  76.020 114.834  0.00  0.00     0.161 C 
ATOM      2  C   LIG d   1      -1.415  75.612 116.171  0.00  0.00     0.016 C 
ATOM      3  C   LIG d   1      -0.799  76.406 117.165  0.00  0.00     0.038 C 
ATOM      4  C   LIG d   1      -0.419  77.734 116.922  0.00  0.00     0.028 C 
ATOM      5  C   LIG d   1      -0.086  78.012 115.460  0.00  0.00    -0.047 C 
ATOM      6  C   LIG d   1      -1.251  77.510 114.576  0.00  0.00     0.091 C 
ENDROOT
BRANCH   1   7
ATOM      7  O   LIG d   1      -2.883  75.694 114.365  0.00  0.00    -0.368 OA
BRANCH   7   8
ATOM      8  C   LIG d   1      -3.910  75.579 115.381  0.00  0.00     0.119 C 
BRANCH   8   9
ATOM      9  C   LIG d   1      -4.907  74.502 114.912  0.00  0.00     0.028 C 
ATOM     10  C   LIG d   1      -5.969  74.181 115.977  0.00  0.00     0.006 C 
ENDBRANCH   8   9
BRANCH   8  11
ATOM     11  C   LIG d   1      -4.730  76.868 115.493  0.00  0.00     0.028 C 
ATOM     12  C   LIG d   1      -4.494  77.611 116.817  0.00  0.00     0.006 C 
ENDBRANCH   8  11
ENDBRANCH   7   8
ENDBRANCH   1   7
BRANCH   6  13
ATOM     13  N   LIG d   1      -0.971  77.666 113.125  0.00  0.00    -0.311 N 
ATOM     14  C   LIG d   1      -1.842  78.186 112.262  0.00  0.00     0.210 C 
ATOM     15  C   LIG d   1      -1.360  78.237 110.809  0.00  0.00     0.109 C 
ATOM     16  O   LIG d   1      -2.955  78.638 112.567  0.00  0.00    -0.276 OA
ATOM     17  H   LIG d   1      -0.078  77.353 112.797  0.00  0.00     0.149 HD
ENDBRANCH   6  13
BRANCH   5  18
ATOM     18  N   LIG d   1       0.159  79.460 115.325  0.00  0.00     0.381 N 
ATOM     19  H   LIG d   1       1.118  79.620 115.087  0.00  0.00    -0.090 HD
ATOM     20  H   LIG d   1      -0.025  79.904 116.207  0.00  0.00    -0.090 HD
ATOM     21  H   LIG d   1      -0.434  79.842 114.622  0.00  0.00    -0.090 HD
ENDBRANCH   5  18
BRANCH   3  22
ATOM     22  C   LIG d   1      -0.522  75.858 118.408  0.00  0.00     0.382 C 
ATOM     23  O   LIG d   1       0.628  75.966 118.898  0.00  0.00    -0.241 OA
ATOM     24  O   LIG d   1      -1.394  75.219 119.026  0.00  0.00    -0.241 OA
ENDBRANCH   3  22
TORSDOF 7
ENDMDL
MODEL 7
REMARK VINA RESULT:      -4.5      1.815      2.557
REMARK  7 active torsions:
REMARK  status: ('A' for Active; 'I' for Inactive)
REMARK    1  A    between atoms: C_2  and  C_3 
REMARK    2  A    between atoms: C_3  and  O_6 
REMARK    3  A    between atoms: C_3  and  C_4 
REMARK    4  A    between atoms: C_7  and  O_6 
REMARK    5  A    between atoms: C_9  and  C_10 
REMARK    6  A    between atoms: N_15  and  C_14 
REMARK    7  A    between atoms: N_20  and  C_19 
REMARK       I    between atoms: C_22  and  N_20 
ROOT
ATOM      1  C   LIG d   1      -2.799  78.575 115.902  0.00  0.00     0.161 C 
ATOM      2  C   LIG d   1      -2.843  79.498 114.843  0.00  0.00     0.016 C 
ATOM      3  C   LIG d   1      -2.032  79.398 113.689  0.00  0.00     0.038 C 
ATOM      4  C   LIG d   1      -1.225  78.277 113.445  0.00  0.00     0.028 C 
ATOM      5  C   LIG d   1      -0.770  77.570 114.718  0.00  0.00    -0.047 C 
ATOM      6  C   LIG d   1      -2.005  77.286 115.603  0.00  0.00     0.091 C 
ENDROOT
BRANCH   1   7
ATOM      7  O   LIG d   1      -4.139  78.252 116.324  0.00  0.00    -0.368 OA
BRANCH   7   8
ATOM      8  C   LIG d   1      -4.443  78.493 117.720  0.00  0.00     0.119 C 
BRANCH   8   9
ATOM      9  C   LIG d   1      -5.613  77.568 118.105  0.00  0.00     0.028 C 
ATOM     10  C   LIG d   1      -5.779  76.393 117.128  0.00  0.00     0.006 C 
ENDBRANCH   8   9
BRANCH   8  11
ATOM     11  C   LIG d   1      -4.962  79.917 117.939  0.00  0.00     0.028 C 
ATOM     12  C   LIG d   1      -6.463  80.057 117.642  0.00  0.00     0.006 C 
ENDBRANCH   8  11
ENDBRANCH   7   8
ENDBRANCH   1   7
BRANCH   6  13
ATOM     13  N   LIG d   1      -1.640  76.672 116.906  0.00  0.00    -0.311 N 
ATOM     14  C   LIG d   1      -2.070  75.473 117.297  0.00  0.00     0.210 C 
ATOM     15  C   LIG d   1      -1.590  75.036 118.685  0.00  0.00     0.109 C 
ATOM     16  O   LIG d   1      -2.776  74.717 116.613  0.00  0.00    -0.276 OA
ATOM     17  H   LIG d   1      -1.044  77.203 117.510  0.00  0.00     0.149 HD
ENDBRANCH   6  13
BRANCH   5  18
ATOM     18  N   LIG d   1      -0.054  76.345 114.315  0.00  0.00     0.381 N 
ATOM     19  H   LIG d   1      -0.708  75.663 113.986  0.00  0.00    -0.090 HD
ATOM     20  H   LIG d   1       0.420  75.967 115.116  0.00  0.00    -0.090 HD
ATOM     21  H   LIG d   1       0.606  76.556 113.599  0.00  0.00    -0.090 HD
ENDBRANCH   5  18
BRANCH   3  22
ATOM     22  C   LIG d   1      -1.994  80.447 112.783  0.00  0.00     0.382 C 
ATOM     23  O   LIG d   1      -1.008  80.580 112.019  0.00  0.00    -0.241 OA
ATOM     24  O   LIG d   1      -2.913  81.287 112.750  0.00  0.00    -0.241 OA
ENDBRANCH   3  22
TORSDOF 7
ENDMDL
MODEL 8
REMARK VINA RESULT:      -4.4      4.413      5.737
REMARK  7 active torsions:
REMARK  status: ('A' for Active; 'I' for Inactive)
REMARK    1  A    between atoms: C_2  and  C_3 
REMARK    2  A    between atoms: C_3  and  O_6 
REMARK    3  A    between atoms: C_3  and  C_4 
REMARK    4  A    between atoms: C_7  and  O_6 
REMARK    5  A    between atoms: C_9  and  C_10 
REMARK    6  A    between atoms: N_15  and  C_14 
REMARK    7  A    between atoms: N_20  and  C_19 
REMARK       I    between atoms: C_22  and  N_20 
ROOT
ATOM      1  C   LIG d   1      -5.543  78.249 117.356  0.00  0.00     0.161 C 
ATOM      2  C   LIG d   1      -6.517  79.262 117.337  0.00  0.00     0.016 C 
ATOM      3  C   LIG d   1      -6.417  80.451 118.096  0.00  0.00     0.038 C 
ATOM      4  C   LIG d   1      -5.257  80.778 118.813  0.00  0.00     0.028 C 
ATOM      5  C   LIG d   1      -4.460  79.558 119.264  0.00  0.00    -0.047 C 
ATOM      6  C   LIG d   1      -4.219  78.638 118.046  0.00  0.00     0.091 C 
ENDROOT
BRANCH   1   7
ATOM      7  O   LIG d   1      -5.292  77.789 116.013  0.00  0.00    -0.368 OA
BRANCH   7   8
ATOM      8  C   LIG d   1      -6.072  76.649 115.574  0.00  0.00     0.119 C 
BRANCH   8   9
ATOM      9  C   LIG d   1      -5.991  75.579 116.680  0.00  0.00     0.028 C 
ATOM     10  C   LIG d   1      -7.377  75.184 117.217  0.00  0.00     0.006 C 
ENDBRANCH   8   9
BRANCH   8  11
ATOM     11  C   LIG d   1      -5.455  75.997 114.333  0.00  0.00     0.028 C 
ATOM     12  C   LIG d   1      -4.463  74.876 114.679  0.00  0.00     0.006 C 
ENDBRANCH   8  11
ENDBRANCH   7   8
ENDBRANCH   1   7
BRANCH   6  13
ATOM     13  N   LIG d   1      -3.519  77.380 118.416  0.00  0.00    -0.311 N 
ATOM     14  C   LIG d   1      -2.514  76.865 117.710  0.00  0.00     0.210 C 
ATOM     15  C   LIG d   1      -1.947  75.551 118.255  0.00  0.00     0.109 C 
ATOM     16  O   LIG d   1      -2.017  77.390 116.701  0.00  0.00    -0.276 OA
ATOM     17  H   LIG d   1      -3.838  76.905 119.238  0.00  0.00     0.149 HD
ENDBRANCH   6  13
BRANCH   5  18
ATOM     18  N   LIG d   1      -3.210  80.044 119.878  0.00  0.00     0.381 N 
ATOM     19  H   LIG d   1      -2.481  79.373 119.740  0.00  0.00    -0.090 HD
ATOM     20  H   LIG d   1      -3.354  80.154 120.866  0.00  0.00    -0.090 HD
ATOM     21  H   LIG d   1      -2.949  80.917 119.474  0.00  0.00    -0.090 HD
ENDBRANCH   5  18
BRANCH   3  22
ATOM     22  C   LIG d   1      -7.503  81.310 118.173  0.00  0.00     0.382 C 
ATOM     23  O   LIG d   1      -8.317  81.379 117.221  0.00  0.00    -0.241 OA
ATOM     24  O   LIG d   1      -7.655  82.049 119.164  0.00  0.00    -0.241 OA
ENDBRANCH   3  22
TORSDOF 7
ENDMDL
MODEL 9
REMARK VINA RESULT:      -4.3      2.494      5.682
REMARK  7 active torsions:
REMARK  status: ('A' for Active; 'I' for Inactive)
REMARK    1  A    between atoms: C_2  and  C_3 
REMARK    2  A    between atoms: C_3  and  O_6 
REMARK    3  A    between atoms: C_3  and  C_4 
REMARK    4  A    between atoms: C_7  and  O_6 
REMARK    5  A    between atoms: C_9  and  C_10 
REMARK    6  A    between atoms: N_15  and  C_14 
REMARK    7  A    between atoms: N_20  and  C_19 
REMARK       I    between atoms: C_22  and  N_20 
ROOT
ATOM      1  C   LIG d   1      -1.374  78.152 115.535  0.00  0.00     0.161 C 
ATOM      2  C   LIG d   1      -0.506  77.171 115.028  0.00  0.00     0.016 C 
ATOM      3  C   LIG d   1      -0.764  75.784 115.114  0.00  0.00     0.038 C 
ATOM      4  C   LIG d   1      -1.988  75.285 115.584  0.00  0.00     0.028 C 
ATOM      5  C   LIG d   1      -2.684  76.218 116.570  0.00  0.00    -0.047 C 
ATOM      6  C   LIG d   1      -2.766  77.632 115.951  0.00  0.00     0.091 C 
ENDROOT
BRANCH   1   7
ATOM      7  O   LIG d   1      -1.504  79.228 114.585  0.00  0.00    -0.368 OA
BRANCH   7   8
ATOM      8  C   LIG d   1      -1.075  78.939 113.232  0.00  0.00     0.119 C 
BRANCH   8   9
ATOM      9  C   LIG d   1      -0.289  80.163 112.724  0.00  0.00     0.028 C 
ATOM     10  C   LIG d   1       1.115  80.257 113.345  0.00  0.00     0.006 C 
ENDBRANCH   8   9
BRANCH   8  11
ATOM     11  C   LIG d   1      -2.271  78.803 112.285  0.00  0.00     0.028 C 
ATOM     12  C   LIG d   1      -1.908  78.111 110.961  0.00  0.00     0.006 C 
ENDBRANCH   8  11
ENDBRANCH   7   8
ENDBRANCH   1   7
BRANCH   6  13
ATOM     13  N   LIG d   1      -3.357  78.626 116.885  0.00  0.00    -0.311 N 
ATOM     14  C   LIG d   1      -4.664  78.873 116.960  0.00  0.00     0.210 C 
ATOM     15  C   LIG d   1      -5.060  79.950 117.976  0.00  0.00     0.109 C 
ATOM     16  O   LIG d   1      -5.535  78.280 116.307  0.00  0.00    -0.276 OA
ATOM     17  H   LIG d   1      -2.725  79.130 117.475  0.00  0.00     0.149 HD
ENDBRANCH   6  13
BRANCH   5  18
ATOM     18  N   LIG d   1      -4.008  75.641 116.871  0.00  0.00     0.381 N 
ATOM     19  H   LIG d   1      -3.896  74.748 117.308  0.00  0.00    -0.090 HD
ATOM     20  H   LIG d   1      -4.509  75.510 116.010  0.00  0.00    -0.090 HD
ATOM     21  H   LIG d   1      -4.517  76.251 117.471  0.00  0.00    -0.090 HD
ENDBRANCH   5  18
BRANCH   3  22
ATOM     22  C   LIG d   1       0.226  74.878 114.765  0.00  0.00     0.382 C 
ATOM     23  O   LIG d   1       0.155  74.261 113.675  0.00  0.00    -0.241 OA
ATOM     24  O   LIG d   1       1.166  74.637 115.547  0.00  0.00    -0.241 OA
ENDBRANCH   3  22
TORSDOF 7
ENDMDL
