MODEL 1
REMARK VINA RESULT:      -5.3      0.000      0.000
REMARK  7 active torsions:
REMARK  status: ('A' for Active; 'I' for Inactive)
REMARK    1  A    between atoms: C_2  and  C_3 
REMARK    2  A    between atoms: C_3  and  O_6 
REMARK    3  A    between atoms: C_3  and  C_4 
REMARK    4  A    between atoms: C_7  and  O_6 
REMARK    5  A    between atoms: C_9  and  C_10 
REMARK    6  A    between atoms: N_15  and  C_14 
REMARK    7  A    between atoms: N_20  and  C_19 
REMARK       I    between atoms: C_22  and  N_20 
ROOT
ATOM      1  C   LIG d   1      -6.115  77.338 117.214  0.00  0.00     0.161 C 
ATOM      2  C   LIG d   1      -7.265  78.142 117.276  0.00  0.00     0.016 C 
ATOM      3  C   LIG d   1      -7.226  79.539 117.491  0.00  0.00     0.038 C 
ATOM      4  C   LIG d   1      -6.019  80.254 117.509  0.00  0.00     0.028 C 
ATOM      5  C   LIG d   1      -4.826  79.416 117.955  0.00  0.00    -0.047 C 
ATOM      6  C   LIG d   1      -4.785  78.116 117.120  0.00  0.00     0.091 C 
ENDROOT
BRANCH   1   7
ATOM      7  O   LIG d   1      -6.228  76.406 116.120  0.00  0.00    -0.368 OA
BRANCH   7   8
ATOM      8  C   LIG d   1      -6.450  75.021 116.483  0.00  0.00     0.119 C 
BRANCH   8   9
ATOM      9  C   LIG d   1      -5.195  74.228 116.072  0.00  0.00     0.028 C 
ATOM     10  C   LIG d   1      -4.721  74.575 114.650  0.00  0.00     0.006 C 
ENDBRANCH   8   9
BRANCH   8  11
ATOM     11  C   LIG d   1      -7.599  74.411 115.675  0.00  0.00     0.028 C 
ATOM     12  C   LIG d   1      -8.968  75.002 116.045  0.00  0.00     0.006 C 
ENDBRANCH   8  11
ENDBRANCH   7   8
ENDBRANCH   1   7
BRANCH   6  13
ATOM     13  N   LIG d   1      -3.697  77.200 117.550  0.00  0.00    -0.311 N 
ATOM     14  C   LIG d   1      -2.689  76.837 116.759  0.00  0.00     0.210 C 
ATOM     15  C   LIG d   1      -1.685  75.869 117.394  0.00  0.00     0.109 C 
ATOM     16  O   LIG d   1      -2.513  77.250 115.603  0.00  0.00    -0.276 OA
ATOM     17  H   LIG d   1      -3.745  76.842 118.484  0.00  0.00     0.149 HD
ENDBRANCH   6  13
BRANCH   5  18
ATOM     18  N   LIG d   1      -3.615  80.244 117.795  0.00  0.00     0.381 N 
ATOM     19  H   LIG d   1      -3.875  81.180 117.554  0.00  0.00    -0.090 HD
ATOM     20  H   LIG d   1      -3.061  79.868 117.046  0.00  0.00    -0.090 HD
ATOM     21  H   LIG d   1      -3.088  80.244 118.640  0.00  0.00    -0.090 HD
ENDBRANCH   5  18
BRANCH   3  22
ATOM     22  C   LIG d   1      -8.404  80.230 117.731  0.00  0.00     0.382 C 
ATOM     23  O   LIG d   1      -8.839  81.044 116.880  0.00  0.00    -0.241 OA
ATOM     24  O   LIG d   1      -9.015  80.083 118.807  0.00  0.00    -0.241 OA
ENDBRANCH   3  22
TORSDOF 7
ENDMDL
MODEL 2
REMARK VINA RESULT:      -5.2      0.722      1.839
REMARK  7 active torsions:
REMARK  status: ('A' for Active; 'I' for Inactive)
REMARK    1  A    between atoms: C_2  and  C_3 
REMARK    2  A    between atoms: C_3  and  O_6 
REMARK    3  A    between atoms: C_3  and  C_4 
REMARK    4  A    between atoms: C_7  and  O_6 
REMARK    5  A    between atoms: C_9  and  C_10 
REMARK    6  A    between atoms: N_15  and  C_14 
REMARK    7  A    between atoms: N_20  and  C_19 
REMARK       I    between atoms: C_22  and  N_20 
ROOT
ATOM      1  C   LIG d   1      -5.934  76.871 117.542  0.00  0.00     0.161 C 
ATOM      2  C   LIG d   1      -7.120  77.618 117.633  0.00  0.00     0.016 C 
ATOM      3  C   LIG d   1      -7.156  79.031 117.586  0.00  0.00     0.038 C 
ATOM      4  C   LIG d   1      -6.015  79.792 117.292  0.00  0.00     0.028 C 
ATOM      5  C   LIG d   1      -4.712  79.110 117.695  0.00  0.00    -0.047 C 
ATOM      6  C   LIG d   1      -4.693  77.680 117.109  0.00  0.00     0.091 C 
ENDROOT
BRANCH   1   7
ATOM      7  O   LIG d   1      -6.131  75.747 116.662  0.00  0.00    -0.368 OA
BRANCH   7   8
ATOM      8  C   LIG d   1      -6.437  76.063 115.282  0.00  0.00     0.119 C 
BRANCH   8   9
ATOM      9  C   LIG d   1      -7.785  75.397 114.943  0.00  0.00     0.028 C 
ATOM     10  C   LIG d   1      -8.199  74.345 115.986  0.00  0.00     0.006 C 
ENDBRANCH   8   9
BRANCH   8  11
ATOM     11  C   LIG d   1      -5.421  75.430 114.327  0.00  0.00     0.028 C 
ATOM     12  C   LIG d   1      -4.612  74.299 114.981  0.00  0.00     0.006 C 
ENDBRANCH   8  11
ENDBRANCH   7   8
ENDBRANCH   1   7
BRANCH   6  13
ATOM     13  N   LIG d   1      -3.489  76.913 117.526  0.00  0.00    -0.311 N 
ATOM     14  C   LIG d   1      -2.405  76.780 116.764  0.00  0.00     0.210 C 
ATOM     15  C   LIG d   1      -1.285  75.932 117.375  0.00  0.00     0.109 C 
ATOM     16  O   LIG d   1      -2.252  77.310 115.653  0.00  0.00    -0.276 OA
ATOM     17  H   LIG d   1      -3.516  76.476 118.426  0.00  0.00     0.149 HD
ENDBRANCH   6  13
BRANCH   5  18
ATOM     18  N   LIG d   1      -3.601  79.949 117.207  0.00  0.00     0.381 N 
ATOM     19  H   LIG d   1      -2.816  79.373 116.978  0.00  0.00    -0.090 HD
ATOM     20  H   LIG d   1      -3.326  80.581 117.938  0.00  0.00    -0.090 HD
ATOM     21  H   LIG d   1      -3.889  80.464 116.404  0.00  0.00    -0.090 HD
ENDBRANCH   5  18
BRANCH   3  22
ATOM     22  C   LIG d   1      -8.337  79.698 117.875  0.00  0.00     0.382 C 
ATOM     23  O   LIG d   1      -8.996  79.392 118.898  0.00  0.00    -0.241 OA
ATOM     24  O   LIG d   1      -8.774  80.572 117.103  0.00  0.00    -0.241 OA
ENDBRANCH   3  22
TORSDOF 7
ENDMDL
MODEL 3
REMARK VINA RESULT:      -5.0      4.246      6.324
REMARK  7 active torsions:
REMARK  status: ('A' for Active; 'I' for Inactive)
REMARK    1  A    between atoms: C_2  and  C_3 
REMARK    2  A    between atoms: C_3  and  O_6 
REMARK    3  A    between atoms: C_3  and  C_4 
REMARK    4  A    between atoms: C_7  and  O_6 
REMARK    5  A    between atoms: C_9  and  C_10 
REMARK    6  A    between atoms: N_15  and  C_14 
REMARK    7  A    between atoms: N_20  and  C_19 
REMARK       I    between atoms: C_22  and  N_20 
ROOT
ATOM      1  C   LIG d   1      -2.738  80.302 115.236  0.00  0.00     0.161 C 
ATOM      2  C   LIG d   1      -2.518  81.518 114.569  0.00  0.00     0.016 C 
ATOM      3  C   LIG d   1      -2.005  81.603 113.254  0.00  0.00     0.038 C 
ATOM      4  C   LIG d   1      -1.819  80.464 112.456  0.00  0.00     0.028 C 
ATOM      5  C   LIG d   1      -1.550  79.198 113.261  0.00  0.00    -0.047 C 
ATOM      6  C   LIG d   1      -2.645  79.048 114.341  0.00  0.00     0.091 C 
ENDROOT
BRANCH   1   7
ATOM      7  O   LIG d   1      -4.008  80.340 115.915  0.00  0.00    -0.368 OA
BRANCH   7   8
ATOM      8  C   LIG d   1      -4.022  80.999 117.205  0.00  0.00     0.119 C 
BRANCH   8   9
ATOM      9  C   LIG d   1      -2.685  80.680 117.902  0.00  0.00     0.028 C 
ATOM     10  C   LIG d   1      -2.779  80.792 119.433  0.00  0.00     0.006 C 
ENDBRANCH   8   9
BRANCH   8  11
ATOM     11  C   LIG d   1      -5.104  80.415 118.118  0.00  0.00     0.028 C 
ATOM     12  C   LIG d   1      -6.525  80.814 117.690  0.00  0.00     0.006 C 
ENDBRANCH   8  11
ENDBRANCH   7   8
ENDBRANCH   1   7
BRANCH   6  13
ATOM     13  N   LIG d   1      -2.410  77.879 115.228  0.00  0.00    -0.311 N 
ATOM     14  C   LIG d   1      -2.935  76.674 115.009  0.00  0.00     0.210 C 
ATOM     15  C   LIG d   1      -2.582  75.614 116.057  0.00  0.00     0.109 C 
ATOM     16  O   LIG d   1      -3.633  76.375 114.029  0.00  0.00    -0.276 OA
ATOM     17  H   LIG d   1      -1.830  78.025 116.031  0.00  0.00     0.149 HD
ENDBRANCH   6  13
BRANCH   5  18
ATOM     18  N   LIG d   1      -1.513  78.067 112.314  0.00  0.00     0.381 N 
ATOM     19  H   LIG d   1      -0.754  77.457 112.545  0.00  0.00    -0.090 HD
ATOM     20  H   LIG d   1      -1.360  78.424 111.388  0.00  0.00    -0.090 HD
ATOM     21  H   LIG d   1      -2.373  77.566 112.348  0.00  0.00    -0.090 HD
ENDBRANCH   5  18
BRANCH   3  22
ATOM     22  C   LIG d   1      -1.636  82.836 112.738  0.00  0.00     0.382 C 
ATOM     23  O   LIG d   1      -1.375  83.787 113.514  0.00  0.00    -0.241 OA
ATOM     24  O   LIG d   1      -1.602  83.022 111.507  0.00  0.00    -0.241 OA
ENDBRANCH   3  22
TORSDOF 7
ENDMDL
MODEL 4
REMARK VINA RESULT:      -5.0      2.404      6.351
REMARK  7 active torsions:
REMARK  status: ('A' for Active; 'I' for Inactive)
REMARK    1  A    between atoms: C_2  and  C_3 
REMARK    2  A    between atoms: C_3  and  O_6 
REMARK    3  A    between atoms: C_3  and  C_4 
REMARK    4  A    between atoms: C_7  and  O_6 
REMARK    5  A    between atoms: C_9  and  C_10 
REMARK    6  A    between atoms: N_15  and  C_14 
REMARK    7  A    between atoms: N_20  and  C_19 
REMARK       I    between atoms: C_22  and  N_20 
ROOT
ATOM      1  C   LIG d   1      -5.312  78.150 117.087  0.00  0.00     0.161 C 
ATOM      2  C   LIG d   1      -4.472  77.297 116.352  0.00  0.00     0.016 C 
ATOM      3  C   LIG d   1      -4.917  76.103 115.740  0.00  0.00     0.038 C 
ATOM      4  C   LIG d   1      -6.276  75.755 115.695  0.00  0.00     0.028 C 
ATOM      5  C   LIG d   1      -7.085  76.325 116.855  0.00  0.00    -0.047 C 
ATOM      6  C   LIG d   1      -6.819  77.844 116.955  0.00  0.00     0.091 C 
ENDROOT
BRANCH   1   7
ATOM      7  O   LIG d   1      -5.046  79.522 116.735  0.00  0.00    -0.368 OA
BRANCH   7   8
ATOM      8  C   LIG d   1      -3.962  80.165 117.449  0.00  0.00     0.119 C 
BRANCH   8   9
ATOM      9  C   LIG d   1      -4.493  80.558 118.840  0.00  0.00     0.028 C 
ATOM     10  C   LIG d   1      -3.409  80.476 119.928  0.00  0.00     0.006 C 
ENDBRANCH   8   9
BRANCH   8  11
ATOM     11  C   LIG d   1      -3.559  81.483 116.781  0.00  0.00     0.028 C 
ATOM     12  C   LIG d   1      -2.055  81.776 116.900  0.00  0.00     0.006 C 
ENDBRANCH   8  11
ENDBRANCH   7   8
ENDBRANCH   1   7
BRANCH   6  13
ATOM     13  N   LIG d   1      -7.507  78.465 118.117  0.00  0.00    -0.311 N 
ATOM     14  C   LIG d   1      -8.125  79.643 118.058  0.00  0.00     0.210 C 
ATOM     15  C   LIG d   1      -8.754  80.110 119.375  0.00  0.00     0.109 C 
ATOM     16  O   LIG d   1      -8.241  80.331 117.033  0.00  0.00    -0.276 OA
ATOM     17  H   LIG d   1      -7.489  77.960 118.981  0.00  0.00     0.149 HD
ENDBRANCH   6  13
BRANCH   5  18
ATOM     18  N   LIG d   1      -8.504  76.002 116.609  0.00  0.00     0.381 N 
ATOM     19  H   LIG d   1      -8.635  75.010 116.640  0.00  0.00    -0.090 HD
ATOM     20  H   LIG d   1      -8.757  76.325 115.692  0.00  0.00    -0.090 HD
ATOM     21  H   LIG d   1      -9.077  76.442 117.295  0.00  0.00    -0.090 HD
ENDBRANCH   5  18
BRANCH   3  22
ATOM     22  C   LIG d   1      -3.993  75.222 115.199  0.00  0.00     0.382 C 
ATOM     23  O   LIG d   1      -2.835  75.157 115.676  0.00  0.00    -0.241 OA
ATOM     24  O   LIG d   1      -4.290  74.523 114.211  0.00  0.00    -0.241 OA
ENDBRANCH   3  22
TORSDOF 7
ENDMDL
MODEL 5
REMARK VINA RESULT:      -4.9      4.350      6.296
REMARK  7 active torsions:
REMARK  status: ('A' for Active; 'I' for Inactive)
REMARK    1  A    between atoms: C_2  and  C_3 
REMARK    2  A    between atoms: C_3  and  O_6 
REMARK    3  A    between atoms: C_3  and  C_4 
REMARK    4  A    between atoms: C_7  and  O_6 
REMARK    5  A    between atoms: C_9  and  C_10 
REMARK    6  A    between atoms: N_15  and  C_14 
REMARK    7  A    between atoms: N_20  and  C_19 
REMARK       I    between atoms: C_22  and  N_20 
ROOT
ATOM      1  C   LIG d   1      -2.657  80.251 115.020  0.00  0.00     0.161 C 
ATOM      2  C   LIG d   1      -2.427  81.508 114.437  0.00  0.00     0.016 C 
ATOM      3  C   LIG d   1      -1.933  81.678 113.123  0.00  0.00     0.038 C 
ATOM      4  C   LIG d   1      -1.777  80.596 112.244  0.00  0.00     0.028 C 
ATOM      5  C   LIG d   1      -1.517  79.272 112.953  0.00  0.00    -0.047 C 
ATOM      6  C   LIG d   1      -2.599  79.062 114.037  0.00  0.00     0.091 C 
ENDROOT
BRANCH   1   7
ATOM      7  O   LIG d   1      -3.917  80.261 115.720  0.00  0.00    -0.368 OA
BRANCH   7   8
ATOM      8  C   LIG d   1      -3.885  79.802 117.094  0.00  0.00     0.119 C 
BRANCH   8   9
ATOM      9  C   LIG d   1      -5.327  79.431 117.492  0.00  0.00     0.028 C 
ATOM     10  C   LIG d   1      -5.710  78.009 117.049  0.00  0.00     0.006 C 
ENDBRANCH   8   9
BRANCH   8  11
ATOM     11  C   LIG d   1      -3.479  80.930 118.048  0.00  0.00     0.028 C 
ATOM     12  C   LIG d   1      -3.710  80.572 119.525  0.00  0.00     0.006 C 
ENDBRANCH   8  11
ENDBRANCH   7   8
ENDBRANCH   1   7
BRANCH   6  13
ATOM     13  N   LIG d   1      -2.370  77.830 114.836  0.00  0.00    -0.311 N 
ATOM     14  C   LIG d   1      -3.099  76.723 114.701  0.00  0.00     0.210 C 
ATOM     15  C   LIG d   1      -2.709  75.574 115.636  0.00  0.00     0.109 C 
ATOM     16  O   LIG d   1      -4.011  76.573 113.874  0.00  0.00    -0.276 OA
ATOM     17  H   LIG d   1      -1.629  77.854 115.509  0.00  0.00     0.149 HD
ENDBRANCH   6  13
BRANCH   5  18
ATOM     18  N   LIG d   1      -1.513  78.211 111.928  0.00  0.00     0.381 N 
ATOM     19  H   LIG d   1      -1.267  78.599 111.040  0.00  0.00    -0.090 HD
ATOM     20  H   LIG d   1      -2.437  77.823 111.858  0.00  0.00    -0.090 HD
ATOM     21  H   LIG d   1      -0.864  77.498 112.179  0.00  0.00    -0.090 HD
ENDBRANCH   5  18
BRANCH   3  22
ATOM     22  C   LIG d   1      -1.551  82.939 112.690  0.00  0.00     0.382 C 
ATOM     23  O   LIG d   1      -1.302  83.840 113.527  0.00  0.00    -0.241 OA
ATOM     24  O   LIG d   1      -1.494  83.199 111.473  0.00  0.00    -0.241 OA
ENDBRANCH   3  22
TORSDOF 7
ENDMDL
MODEL 6
REMARK VINA RESULT:      -4.7      5.413      7.885
REMARK  7 active torsions:
REMARK  status: ('A' for Active; 'I' for Inactive)
REMARK    1  A    between atoms: C_2  and  C_3 
REMARK    2  A    between atoms: C_3  and  O_6 
REMARK    3  A    between atoms: C_3  and  C_4 
REMARK    4  A    between atoms: C_7  and  O_6 
REMARK    5  A    between atoms: C_9  and  C_10 
REMARK    6  A    between atoms: N_15  and  C_14 
REMARK    7  A    between atoms: N_20  and  C_19 
REMARK       I    between atoms: C_22  and  N_20 
ROOT
ATOM      1  C   LIG d   1      -2.196  80.717 114.010  0.00  0.00     0.161 C 
ATOM      2  C   LIG d   1      -2.582  79.465 114.517  0.00  0.00     0.016 C 
ATOM      3  C   LIG d   1      -2.493  78.264 113.777  0.00  0.00     0.038 C 
ATOM      4  C   LIG d   1      -1.865  78.211 112.523  0.00  0.00     0.028 C 
ATOM      5  C   LIG d   1      -1.918  79.532 111.763  0.00  0.00    -0.047 C 
ATOM      6  C   LIG d   1      -1.406  80.662 112.685  0.00  0.00     0.091 C 
ENDROOT
BRANCH   1   7
ATOM      7  O   LIG d   1      -1.450  81.440 115.008  0.00  0.00    -0.368 OA
BRANCH   7   8
ATOM      8  C   LIG d   1      -2.233  82.163 115.990  0.00  0.00     0.119 C 
BRANCH   8   9
ATOM      9  C   LIG d   1      -1.942  83.664 115.799  0.00  0.00     0.028 C 
ATOM     10  C   LIG d   1      -0.631  83.916 115.036  0.00  0.00     0.006 C 
ENDBRANCH   8   9
BRANCH   8  11
ATOM     11  C   LIG d   1      -1.777  81.839 117.415  0.00  0.00     0.028 C 
ATOM     12  C   LIG d   1      -2.824  81.043 118.210  0.00  0.00     0.006 C 
ENDBRANCH   8  11
ENDBRANCH   7   8
ENDBRANCH   1   7
BRANCH   6  13
ATOM     13  N   LIG d   1      -1.504  82.001 112.048  0.00  0.00    -0.311 N 
ATOM     14  C   LIG d   1      -0.478  82.604 111.448  0.00  0.00     0.210 C 
ATOM     15  C   LIG d   1      -0.789  83.989 110.874  0.00  0.00     0.109 C 
ATOM     16  O   LIG d   1       0.650  82.108 111.309  0.00  0.00    -0.276 OA
ATOM     17  H   LIG d   1      -2.392  82.461 112.087  0.00  0.00     0.149 HD
ENDBRANCH   6  13
BRANCH   5  18
ATOM     18  N   LIG d   1      -1.110  79.374 110.539  0.00  0.00     0.381 N 
ATOM     19  H   LIG d   1      -1.369  80.070 109.870  0.00  0.00    -0.090 HD
ATOM     20  H   LIG d   1      -1.295  78.470 110.142  0.00  0.00    -0.090 HD
ATOM     21  H   LIG d   1      -0.141  79.457 110.757  0.00  0.00    -0.090 HD
ENDBRANCH   5  18
BRANCH   3  22
ATOM     22  C   LIG d   1      -3.071  77.106 114.274  0.00  0.00     0.382 C 
ATOM     23  O   LIG d   1      -4.091  76.628 113.723  0.00  0.00    -0.241 OA
ATOM     24  O   LIG d   1      -2.610  76.557 115.293  0.00  0.00    -0.241 OA
ENDBRANCH   3  22
TORSDOF 7
ENDMDL
MODEL 7
REMARK VINA RESULT:      -4.6      3.220      5.191
REMARK  7 active torsions:
REMARK  status: ('A' for Active; 'I' for Inactive)
REMARK    1  A    between atoms: C_2  and  C_3 
REMARK    2  A    between atoms: C_3  and  O_6 
REMARK    3  A    between atoms: C_3  and  C_4 
REMARK    4  A    between atoms: C_7  and  O_6 
REMARK    5  A    between atoms: C_9  and  C_10 
REMARK    6  A    between atoms: N_15  and  C_14 
REMARK    7  A    between atoms: N_20  and  C_19 
REMARK       I    between atoms: C_22  and  N_20 
ROOT
ATOM      1  C   LIG d   1      -2.501  79.840 116.706  0.00  0.00     0.161 C 
ATOM      2  C   LIG d   1      -2.838  80.836 115.774  0.00  0.00     0.016 C 
ATOM      3  C   LIG d   1      -2.610  80.710 114.384  0.00  0.00     0.038 C 
ATOM      4  C   LIG d   1      -2.165  79.509 113.812  0.00  0.00     0.028 C 
ATOM      5  C   LIG d   1      -1.337  78.654 114.765  0.00  0.00    -0.047 C 
ATOM      6  C   LIG d   1      -2.117  78.479 116.088  0.00  0.00     0.091 C 
ENDROOT
BRANCH   1   7
ATOM      7  O   LIG d   1      -3.575  79.675 117.654  0.00  0.00    -0.368 OA
BRANCH   7   8
ATOM      8  C   LIG d   1      -4.861  79.303 117.101  0.00  0.00     0.119 C 
BRANCH   8   9
ATOM      9  C   LIG d   1      -5.911  80.272 117.679  0.00  0.00     0.028 C 
ATOM     10  C   LIG d   1      -5.614  80.657 119.138  0.00  0.00     0.006 C 
ENDBRANCH   8   9
BRANCH   8  11
ATOM     11  C   LIG d   1      -5.290  77.911 117.575  0.00  0.00     0.028 C 
ATOM     12  C   LIG d   1      -5.559  76.942 116.413  0.00  0.00     0.006 C 
ENDBRANCH   8  11
ENDBRANCH   7   8
ENDBRANCH   1   7
BRANCH   6  13
ATOM     13  N   LIG d   1      -1.342  77.725 117.108  0.00  0.00    -0.311 N 
ATOM     14  C   LIG d   1      -1.489  76.419 117.322  0.00  0.00     0.210 C 
ATOM     15  C   LIG d   1      -0.606  75.843 118.434  0.00  0.00     0.109 C 
ATOM     16  O   LIG d   1      -2.242  75.676 116.675  0.00  0.00    -0.276 OA
ATOM     17  H   LIG d   1      -0.685  78.244 117.657  0.00  0.00     0.149 HD
ENDBRANCH   6  13
BRANCH   5  18
ATOM     18  N   LIG d   1      -1.056  77.375 114.087  0.00  0.00     0.381 N 
ATOM     19  H   LIG d   1      -1.915  76.920 113.851  0.00  0.00    -0.090 HD
ATOM     20  H   LIG d   1      -0.546  76.779 114.715  0.00  0.00    -0.090 HD
ATOM     21  H   LIG d   1      -0.520  77.536 113.262  0.00  0.00    -0.090 HD
ENDBRANCH   5  18
BRANCH   3  22
ATOM     22  C   LIG d   1      -2.791  81.807 113.556  0.00  0.00     0.382 C 
ATOM     23  O   LIG d   1      -2.228  82.895 113.826  0.00  0.00    -0.241 OA
ATOM     24  O   LIG d   1      -3.544  81.734 112.567  0.00  0.00    -0.241 OA
ENDBRANCH   3  22
TORSDOF 7
ENDMDL
MODEL 8
REMARK VINA RESULT:      -4.4      2.706      6.135
REMARK  7 active torsions:
REMARK  status: ('A' for Active; 'I' for Inactive)
REMARK    1  A    between atoms: C_2  and  C_3 
REMARK    2  A    between atoms: C_3  and  O_6 
REMARK    3  A    between atoms: C_3  and  C_4 
REMARK    4  A    between atoms: C_7  and  O_6 
REMARK    5  A    between atoms: C_9  and  C_10 
REMARK    6  A    between atoms: N_15  and  C_14 
REMARK    7  A    between atoms: N_20  and  C_19 
REMARK       I    between atoms: C_22  and  N_20 
ROOT
ATOM      1  C   LIG d   1      -4.661  78.595 116.771  0.00  0.00     0.161 C 
ATOM      2  C   LIG d   1      -4.244  77.423 116.119  0.00  0.00     0.016 C 
ATOM      3  C   LIG d   1      -5.103  76.330 115.857  0.00  0.00     0.038 C 
ATOM      4  C   LIG d   1      -6.483  76.399 116.097  0.00  0.00     0.028 C 
ATOM      5  C   LIG d   1      -6.857  77.366 117.215  0.00  0.00    -0.047 C 
ATOM      6  C   LIG d   1      -6.188  78.733 116.940  0.00  0.00     0.091 C 
ENDROOT
BRANCH   1   7
ATOM      7  O   LIG d   1      -4.126  79.749 116.091  0.00  0.00    -0.368 OA
BRANCH   7   8
ATOM      8  C   LIG d   1      -2.743  79.656 115.671  0.00  0.00     0.119 C 
BRANCH   8   9
ATOM      9  C   LIG d   1      -1.959  80.756 116.413  0.00  0.00     0.028 C 
ATOM     10  C   LIG d   1      -2.767  81.376 117.566  0.00  0.00     0.006 C 
ENDBRANCH   8   9
BRANCH   8  11
ATOM     11  C   LIG d   1      -2.590  79.984 114.183  0.00  0.00     0.028 C 
ATOM     12  C   LIG d   1      -2.486  81.493 113.912  0.00  0.00     0.006 C 
ENDBRANCH   8  11
ENDBRANCH   7   8
ENDBRANCH   1   7
BRANCH   6  13
ATOM     13  N   LIG d   1      -6.434  79.713 118.030  0.00  0.00    -0.311 N 
ATOM     14  C   LIG d   1      -7.407  80.621 117.993  0.00  0.00     0.210 C 
ATOM     15  C   LIG d   1      -7.473  81.548 119.211  0.00  0.00     0.109 C 
ATOM     16  O   LIG d   1      -8.243  80.726 117.083  0.00  0.00    -0.276 OA
ATOM     17  H   LIG d   1      -5.821  79.678 118.821  0.00  0.00     0.149 HD
ENDBRANCH   6  13
BRANCH   5  18
ATOM     18  N   LIG d   1      -8.329  77.442 117.265  0.00  0.00     0.381 N 
ATOM     19  H   LIG d   1      -8.658  77.074 118.135  0.00  0.00    -0.090 HD
ATOM     20  H   LIG d   1      -8.709  76.882 116.522  0.00  0.00    -0.090 HD
ATOM     21  H   LIG d   1      -8.625  78.388 117.163  0.00  0.00    -0.090 HD
ENDBRANCH   5  18
BRANCH   3  22
ATOM     22  C   LIG d   1      -4.574  75.138 115.386  0.00  0.00     0.382 C 
ATOM     23  O   LIG d   1      -4.250  74.234 116.193  0.00  0.00    -0.241 OA
ATOM     24  O   LIG d   1      -4.376  74.973 114.167  0.00  0.00    -0.241 OA
ENDBRANCH   3  22
TORSDOF 7
ENDMDL
MODEL 9
REMARK VINA RESULT:      -4.4      1.850      4.271
REMARK  7 active torsions:
REMARK  status: ('A' for Active; 'I' for Inactive)
REMARK    1  A    between atoms: C_2  and  C_3 
REMARK    2  A    between atoms: C_3  and  O_6 
REMARK    3  A    between atoms: C_3  and  C_4 
REMARK    4  A    between atoms: C_7  and  O_6 
REMARK    5  A    between atoms: C_9  and  C_10 
REMARK    6  A    between atoms: N_15  and  C_14 
REMARK    7  A    between atoms: N_20  and  C_19 
REMARK       I    between atoms: C_22  and  N_20 
ROOT
ATOM      1  C   LIG d   1      -5.249  78.511 117.039  0.00  0.00     0.161 C 
ATOM      2  C   LIG d   1      -6.116  79.527 117.473  0.00  0.00     0.016 C 
ATOM      3  C   LIG d   1      -7.515  79.359 117.590  0.00  0.00     0.038 C 
ATOM      4  C   LIG d   1      -8.128  78.108 117.423  0.00  0.00     0.028 C 
ATOM      5  C   LIG d   1      -7.358  77.175 116.495  0.00  0.00    -0.047 C 
ATOM      6  C   LIG d   1      -5.885  77.107 116.959  0.00  0.00     0.091 C 
ENDROOT
BRANCH   1   7
ATOM      7  O   LIG d   1      -4.074  78.482 117.873  0.00  0.00    -0.368 OA
BRANCH   7   8
ATOM      8  C   LIG d   1      -2.880  79.083 117.314  0.00  0.00     0.119 C 
BRANCH   8   9
ATOM      9  C   LIG d   1      -1.930  77.938 116.913  0.00  0.00     0.028 C 
ATOM     10  C   LIG d   1      -1.903  76.806 117.953  0.00  0.00     0.006 C 
ENDBRANCH   8   9
BRANCH   8  11
ATOM     11  C   LIG d   1      -2.118  79.892 118.368  0.00  0.00     0.028 C 
ATOM     12  C   LIG d   1      -3.045  80.740 119.253  0.00  0.00     0.006 C 
ENDBRANCH   8  11
ENDBRANCH   7   8
ENDBRANCH   1   7
BRANCH   6  13
ATOM     13  N   LIG d   1      -5.043  76.282 116.055  0.00  0.00    -0.311 N 
ATOM     14  C   LIG d   1      -4.987  74.953 116.115  0.00  0.00     0.210 C 
ATOM     15  C   LIG d   1      -4.040  74.298 115.104  0.00  0.00     0.109 C 
ATOM     16  O   LIG d   1      -5.657  74.251 116.888  0.00  0.00    -0.276 OA
ATOM     17  H   LIG d   1      -4.491  76.768 115.376  0.00  0.00     0.149 HD
ENDBRANCH   6  13
BRANCH   5  18
ATOM     18  N   LIG d   1      -8.033  75.864 116.520  0.00  0.00     0.381 N 
ATOM     19  H   LIG d   1      -7.816  75.354 115.687  0.00  0.00    -0.090 HD
ATOM     20  H   LIG d   1      -9.027  76.010 116.550  0.00  0.00    -0.090 HD
ATOM     21  H   LIG d   1      -7.742  75.346 117.320  0.00  0.00    -0.090 HD
ENDBRANCH   5  18
BRANCH   3  22
ATOM     22  C   LIG d   1      -8.321  80.459 117.838  0.00  0.00     0.382 C 
ATOM     23  O   LIG d   1      -8.655  80.740 119.014  0.00  0.00    -0.241 OA
ATOM     24  O   LIG d   1      -8.756  81.149 116.896  0.00  0.00    -0.241 OA
ENDBRANCH   3  22
TORSDOF 7
ENDMDL
