MODEL 1
REMARK VINA RESULT:      -4.8      0.000      0.000
REMARK  7 active torsions:
REMARK  status: ('A' for Active; 'I' for Inactive)
REMARK    1  A    between atoms: C_2  and  C_3 
REMARK    2  A    between atoms: C_3  and  O_6 
REMARK    3  A    between atoms: C_3  and  C_4 
REMARK    4  A    between atoms: C_7  and  O_6 
REMARK    5  A    between atoms: C_9  and  C_10 
REMARK    6  A    between atoms: N_15  and  C_14 
REMARK    7  A    between atoms: N_20  and  C_19 
REMARK       I    between atoms: C_22  and  N_20 
ROOT
ATOM      1  C   LIG d   1      -2.102  77.190 115.408  0.00  0.00     0.161 C 
ATOM      2  C   LIG d   1      -2.723  77.628 114.227  0.00  0.00     0.016 C 
ATOM      3  C   LIG d   1      -2.300  77.239 112.935  0.00  0.00     0.038 C 
ATOM      4  C   LIG d   1      -1.314  76.259 112.741  0.00  0.00     0.028 C 
ATOM      5  C   LIG d   1      -0.318  76.167 113.892  0.00  0.00    -0.047 C 
ATOM      6  C   LIG d   1      -1.096  76.034 115.221  0.00  0.00     0.091 C 
ENDROOT
BRANCH   1   7
ATOM      7  O   LIG d   1      -3.102  76.831 116.382  0.00  0.00    -0.368 OA
BRANCH   7   8
ATOM      8  C   LIG d   1      -4.362  76.349 115.854  0.00  0.00     0.119 C 
BRANCH   8   9
ATOM      9  C   LIG d   1      -5.479  76.857 116.785  0.00  0.00     0.028 C 
ATOM     10  C   LIG d   1      -5.563  78.393 116.818  0.00  0.00     0.006 C 
ENDBRANCH   8   9
BRANCH   8  11
ATOM     11  C   LIG d   1      -4.445  74.821 115.916  0.00  0.00     0.028 C 
ATOM     12  C   LIG d   1      -4.820  74.189 114.566  0.00  0.00     0.006 C 
ENDBRANCH   8  11
ENDBRANCH   7   8
ENDBRANCH   1   7
BRANCH   6  13
ATOM     13  N   LIG d   1      -0.198  76.023 116.405  0.00  0.00    -0.311 N 
ATOM     14  C   LIG d   1      -0.291  75.126 117.386  0.00  0.00     0.210 C 
ATOM     15  C   LIG d   1       0.720  75.306 118.523  0.00  0.00     0.109 C 
ATOM     16  O   LIG d   1      -1.092  74.180 117.406  0.00  0.00    -0.276 OA
ATOM     17  H   LIG d   1       0.501  76.737 116.454  0.00  0.00     0.149 HD
ENDBRANCH   6  13
BRANCH   5  18
ATOM     18  N   LIG d   1       0.567  75.017 113.624  0.00  0.00     0.381 N 
ATOM     19  H   LIG d   1       0.147  74.418 112.942  0.00  0.00    -0.090 HD
ATOM     20  H   LIG d   1       0.687  74.494 114.473  0.00  0.00    -0.090 HD
ATOM     21  H   LIG d   1       1.452  75.338 113.295  0.00  0.00    -0.090 HD
ENDBRANCH   5  18
BRANCH   3  22
ATOM     22  C   LIG d   1      -2.838  77.862 111.819  0.00  0.00     0.382 C 
ATOM     23  O   LIG d   1      -2.281  78.879 111.340  0.00  0.00    -0.241 OA
ATOM     24  O   LIG d   1      -3.897  77.446 111.313  0.00  0.00    -0.241 OA
ENDBRANCH   3  22
TORSDOF 7
ENDMDL
MODEL 2
REMARK VINA RESULT:      -4.7      2.171      4.374
REMARK  7 active torsions:
REMARK  status: ('A' for Active; 'I' for Inactive)
REMARK    1  A    between atoms: C_2  and  C_3 
REMARK    2  A    between atoms: C_3  and  O_6 
REMARK    3  A    between atoms: C_3  and  C_4 
REMARK    4  A    between atoms: C_7  and  O_6 
REMARK    5  A    between atoms: C_9  and  C_10 
REMARK    6  A    between atoms: N_15  and  C_14 
REMARK    7  A    between atoms: N_20  and  C_19 
REMARK       I    between atoms: C_22  and  N_20 
ROOT
ATOM      1  C   LIG d   1      -2.769  74.817 115.144  0.00  0.00     0.161 C 
ATOM      2  C   LIG d   1      -4.048  75.131 114.655  0.00  0.00     0.016 C 
ATOM      3  C   LIG d   1      -5.013  75.845 115.402  0.00  0.00     0.038 C 
ATOM      4  C   LIG d   1      -4.709  76.429 116.640  0.00  0.00     0.028 C 
ATOM      5  C   LIG d   1      -3.594  75.709 117.392  0.00  0.00    -0.047 C 
ATOM      6  C   LIG d   1      -2.380  75.542 116.450  0.00  0.00     0.091 C 
ENDROOT
BRANCH   1   7
ATOM      7  O   LIG d   1      -1.782  75.061 114.123  0.00  0.00    -0.368 OA
BRANCH   7   8
ATOM      8  C   LIG d   1      -1.446  76.449 113.879  0.00  0.00     0.119 C 
BRANCH   8   9
ATOM      9  C   LIG d   1      -1.585  76.700 112.365  0.00  0.00     0.028 C 
ATOM     10  C   LIG d   1      -2.746  77.652 112.033  0.00  0.00     0.006 C 
ENDBRANCH   8   9
BRANCH   8  11
ATOM     11  C   LIG d   1       0.024  76.732 114.204  0.00  0.00     0.028 C 
ATOM     12  C   LIG d   1       0.267  78.181 114.654  0.00  0.00     0.006 C 
ENDBRANCH   8  11
ENDBRANCH   7   8
ENDBRANCH   1   7
BRANCH   6  13
ATOM     13  N   LIG d   1      -1.276  74.772 117.080  0.00  0.00    -0.311 N 
ATOM     14  C   LIG d   1      -0.238  75.344 117.688  0.00  0.00     0.210 C 
ATOM     15  C   LIG d   1       0.799  74.367 118.252  0.00  0.00     0.109 C 
ATOM     16  O   LIG d   1      -0.093  76.566 117.842  0.00  0.00    -0.276 OA
ATOM     17  H   LIG d   1      -1.329  73.774 117.028  0.00  0.00     0.149 HD
ENDBRANCH   6  13
BRANCH   5  18
ATOM     18  N   LIG d   1      -3.286  76.501 118.597  0.00  0.00     0.381 N 
ATOM     19  H   LIG d   1      -3.529  75.981 119.416  0.00  0.00    -0.090 HD
ATOM     20  H   LIG d   1      -3.836  77.342 118.583  0.00  0.00    -0.090 HD
ATOM     21  H   LIG d   1      -2.316  76.730 118.616  0.00  0.00    -0.090 HD
ENDBRANCH   5  18
BRANCH   3  22
ATOM     22  C   LIG d   1      -6.312  75.947 114.927  0.00  0.00     0.382 C 
ATOM     23  O   LIG d   1      -6.520  76.116 113.701  0.00  0.00    -0.241 OA
ATOM     24  O   LIG d   1      -7.276  75.916 115.714  0.00  0.00    -0.241 OA
ENDBRANCH   3  22
TORSDOF 7
ENDMDL
MODEL 3
REMARK VINA RESULT:      -4.7      1.762      2.369
REMARK  7 active torsions:
REMARK  status: ('A' for Active; 'I' for Inactive)
REMARK    1  A    between atoms: C_2  and  C_3 
REMARK    2  A    between atoms: C_3  and  O_6 
REMARK    3  A    between atoms: C_3  and  C_4 
REMARK    4  A    between atoms: C_7  and  O_6 
REMARK    5  A    between atoms: C_9  and  C_10 
REMARK    6  A    between atoms: N_15  and  C_14 
REMARK    7  A    between atoms: N_20  and  C_19 
REMARK       I    between atoms: C_22  and  N_20 
ROOT
ATOM      1  C   LIG d   1      -2.671  77.676 115.220  0.00  0.00     0.161 C 
ATOM      2  C   LIG d   1      -2.867  78.638 114.216  0.00  0.00     0.016 C 
ATOM      3  C   LIG d   1      -2.219  78.596 112.960  0.00  0.00     0.038 C 
ATOM      4  C   LIG d   1      -1.441  77.498 112.564  0.00  0.00     0.028 C 
ATOM      5  C   LIG d   1      -0.811  76.748 113.733  0.00  0.00    -0.047 C 
ATOM      6  C   LIG d   1      -1.912  76.412 114.764  0.00  0.00     0.091 C 
ENDROOT
BRANCH   1   7
ATOM      7  O   LIG d   1      -3.938  77.316 115.805  0.00  0.00    -0.368 OA
BRANCH   7   8
ATOM      8  C   LIG d   1      -4.494  78.260 116.753  0.00  0.00     0.119 C 
BRANCH   8   9
ATOM      9  C   LIG d   1      -3.792  78.026 118.105  0.00  0.00     0.028 C 
ATOM     10  C   LIG d   1      -3.368  79.341 118.782  0.00  0.00     0.006 C 
ENDBRANCH   8   9
BRANCH   8  11
ATOM     11  C   LIG d   1      -5.977  77.982 117.012  0.00  0.00     0.028 C 
ATOM     12  C   LIG d   1      -6.772  79.254 117.347  0.00  0.00     0.006 C 
ENDBRANCH   8  11
ENDBRANCH   7   8
ENDBRANCH   1   7
BRANCH   6  13
ATOM     13  N   LIG d   1      -1.368  75.752 115.980  0.00  0.00    -0.311 N 
ATOM     14  C   LIG d   1      -1.965  74.728 116.588  0.00  0.00     0.210 C 
ATOM     15  C   LIG d   1      -1.246  74.209 117.837  0.00  0.00     0.109 C 
ATOM     16  O   LIG d   1      -3.005  74.180 116.193  0.00  0.00    -0.276 OA
ATOM     17  H   LIG d   1      -0.510  76.113 116.349  0.00  0.00     0.149 HD
ENDBRANCH   6  13
BRANCH   5  18
ATOM     18  N   LIG d   1      -0.144  75.551 113.188  0.00  0.00     0.381 N 
ATOM     19  H   LIG d   1       0.399  75.802 112.386  0.00  0.00    -0.090 HD
ATOM     20  H   LIG d   1      -0.845  74.891 112.900  0.00  0.00    -0.090 HD
ATOM     21  H   LIG d   1       0.443  75.142 113.881  0.00  0.00    -0.090 HD
ENDBRANCH   5  18
BRANCH   3  22
ATOM     22  C   LIG d   1      -2.314  79.680 112.100  0.00  0.00     0.382 C 
ATOM     23  O   LIG d   1      -1.563  79.753 111.098  0.00  0.00    -0.241 OA
ATOM     24  O   LIG d   1      -3.111  80.607 112.339  0.00  0.00    -0.241 OA
ENDBRANCH   3  22
TORSDOF 7
ENDMDL
MODEL 4
REMARK VINA RESULT:      -4.6      1.571      2.361
REMARK  7 active torsions:
REMARK  status: ('A' for Active; 'I' for Inactive)
REMARK    1  A    between atoms: C_2  and  C_3 
REMARK    2  A    between atoms: C_3  and  O_6 
REMARK    3  A    between atoms: C_3  and  C_4 
REMARK    4  A    between atoms: C_7  and  O_6 
REMARK    5  A    between atoms: C_9  and  C_10 
REMARK    6  A    between atoms: N_15  and  C_14 
REMARK    7  A    between atoms: N_20  and  C_19 
REMARK       I    between atoms: C_22  and  N_20 
ROOT
ATOM      1  C   LIG d   1      -2.984  77.268 114.792  0.00  0.00     0.161 C 
ATOM      2  C   LIG d   1      -3.068  78.408 113.976  0.00  0.00     0.016 C 
ATOM      3  C   LIG d   1      -2.306  78.579 112.797  0.00  0.00     0.038 C 
ATOM      4  C   LIG d   1      -1.515  77.548 112.270  0.00  0.00     0.028 C 
ATOM      5  C   LIG d   1      -1.010  76.571 113.326  0.00  0.00    -0.047 C 
ATOM      6  C   LIG d   1      -2.208  76.086 114.174  0.00  0.00     0.091 C 
ENDROOT
BRANCH   1   7
ATOM      7  O   LIG d   1      -4.306  76.849 115.184  0.00  0.00    -0.368 OA
BRANCH   7   8
ATOM      8  C   LIG d   1      -4.649  77.045 116.578  0.00  0.00     0.119 C 
BRANCH   8   9
ATOM      9  C   LIG d   1      -5.621  75.918 116.978  0.00  0.00     0.028 C 
ATOM     10  C   LIG d   1      -5.432  74.650 116.129  0.00  0.00     0.006 C 
ENDBRANCH   8   9
BRANCH   8  11
ATOM     11  C   LIG d   1      -5.430  78.346 116.783  0.00  0.00     0.028 C 
ATOM     12  C   LIG d   1      -6.888  78.106 117.205  0.00  0.00     0.006 C 
ENDBRANCH   8  11
ENDBRANCH   7   8
ENDBRANCH   1   7
BRANCH   6  13
ATOM     13  N   LIG d   1      -1.791  75.191 115.285  0.00  0.00    -0.311 N 
ATOM     14  C   LIG d   1      -0.958  75.565 116.254  0.00  0.00     0.210 C 
ATOM     15  C   LIG d   1      -0.644  74.482 117.290  0.00  0.00     0.109 C 
ATOM     16  O   LIG d   1      -0.474  76.701 116.371  0.00  0.00    -0.276 OA
ATOM     17  H   LIG d   1      -2.161  74.261 115.284  0.00  0.00     0.149 HD
ENDBRANCH   6  13
BRANCH   5  18
ATOM     18  N   LIG d   1      -0.317  75.474 112.624  0.00  0.00     0.381 N 
ATOM     19  H   LIG d   1      -0.425  75.583 111.636  0.00  0.00    -0.090 HD
ATOM     20  H   LIG d   1      -0.734  74.601 112.893  0.00  0.00    -0.090 HD
ATOM     21  H   LIG d   1       0.651  75.475 112.862  0.00  0.00    -0.090 HD
ENDBRANCH   5  18
BRANCH   3  22
ATOM     22  C   LIG d   1      -2.302  79.807 112.154  0.00  0.00     0.382 C 
ATOM     23  O   LIG d   1      -3.165  80.670 112.444  0.00  0.00    -0.241 OA
ATOM     24  O   LIG d   1      -1.472  80.048 111.256  0.00  0.00    -0.241 OA
ENDBRANCH   3  22
TORSDOF 7
ENDMDL
MODEL 5
REMARK VINA RESULT:      -4.3      2.874      5.316
REMARK  7 active torsions:
REMARK  status: ('A' for Active; 'I' for Inactive)
REMARK    1  A    between atoms: C_2  and  C_3 
REMARK    2  A    between atoms: C_3  and  O_6 
REMARK    3  A    between atoms: C_3  and  C_4 
REMARK    4  A    between atoms: C_7  and  O_6 
REMARK    5  A    between atoms: C_9  and  C_10 
REMARK    6  A    between atoms: N_15  and  C_14 
REMARK    7  A    between atoms: N_20  and  C_19 
REMARK       I    between atoms: C_22  and  N_20 
ROOT
ATOM      1  C   LIG d   1      -4.622  77.564 116.555  0.00  0.00     0.161 C 
ATOM      2  C   LIG d   1      -5.950  78.022 116.573  0.00  0.00     0.016 C 
ATOM      3  C   LIG d   1      -6.459  78.894 117.564  0.00  0.00     0.038 C 
ATOM      4  C   LIG d   1      -5.628  79.490 118.524  0.00  0.00     0.028 C 
ATOM      5  C   LIG d   1      -4.388  78.664 118.849  0.00  0.00    -0.047 C 
ATOM      6  C   LIG d   1      -3.673  78.292 117.530  0.00  0.00     0.091 C 
ENDROOT
BRANCH   1   7
ATOM      7  O   LIG d   1      -4.103  77.626 115.212  0.00  0.00    -0.368 OA
BRANCH   7   8
ATOM      8  C   LIG d   1      -3.608  76.380 114.662  0.00  0.00     0.119 C 
BRANCH   8   9
ATOM      9  C   LIG d   1      -2.619  76.732 113.534  0.00  0.00     0.028 C 
ATOM     10  C   LIG d   1      -2.315  78.238 113.469  0.00  0.00     0.006 C 
ENDBRANCH   8   9
BRANCH   8  11
ATOM     11  C   LIG d   1      -4.729  75.585 113.985  0.00  0.00     0.028 C 
ATOM     12  C   LIG d   1      -4.913  74.183 114.587  0.00  0.00     0.006 C 
ENDBRANCH   8  11
ENDBRANCH   7   8
ENDBRANCH   1   7
BRANCH   6  13
ATOM     13  N   LIG d   1      -2.496  77.412 117.752  0.00  0.00    -0.311 N 
ATOM     14  C   LIG d   1      -1.274  77.696 117.305  0.00  0.00     0.210 C 
ATOM     15  C   LIG d   1      -0.207  76.645 117.626  0.00  0.00     0.109 C 
ATOM     16  O   LIG d   1      -0.966  78.734 116.700  0.00  0.00    -0.276 OA
ATOM     17  H   LIG d   1      -2.650  76.564 118.261  0.00  0.00     0.149 HD
ENDBRANCH   6  13
BRANCH   5  18
ATOM     18  N   LIG d   1      -3.546  79.464 119.758  0.00  0.00     0.381 N 
ATOM     19  H   LIG d   1      -4.038  79.638 120.611  0.00  0.00    -0.090 HD
ATOM     20  H   LIG d   1      -3.346  80.347 119.323  0.00  0.00    -0.090 HD
ATOM     21  H   LIG d   1      -2.696  78.980 119.949  0.00  0.00    -0.090 HD
ENDBRANCH   5  18
BRANCH   3  22
ATOM     22  C   LIG d   1      -7.821  79.145 117.624  0.00  0.00     0.382 C 
ATOM     23  O   LIG d   1      -8.604  78.260 118.045  0.00  0.00    -0.241 OA
ATOM     24  O   LIG d   1      -8.282  80.230 117.220  0.00  0.00    -0.241 OA
ENDBRANCH   3  22
TORSDOF 7
ENDMDL
MODEL 6
REMARK VINA RESULT:      -4.3      2.846      3.797
REMARK  7 active torsions:
REMARK  status: ('A' for Active; 'I' for Inactive)
REMARK    1  A    between atoms: C_2  and  C_3 
REMARK    2  A    between atoms: C_3  and  O_6 
REMARK    3  A    between atoms: C_3  and  C_4 
REMARK    4  A    between atoms: C_7  and  O_6 
REMARK    5  A    between atoms: C_9  and  C_10 
REMARK    6  A    between atoms: N_15  and  C_14 
REMARK    7  A    between atoms: N_20  and  C_19 
REMARK       I    between atoms: C_22  and  N_20 
ROOT
ATOM      1  C   LIG d   1      -3.026  77.927 116.152  0.00  0.00     0.161 C 
ATOM      2  C   LIG d   1      -4.002  77.057 115.637  0.00  0.00     0.016 C 
ATOM      3  C   LIG d   1      -3.777  76.200 114.536  0.00  0.00     0.038 C 
ATOM      4  C   LIG d   1      -2.505  76.044 113.966  0.00  0.00     0.028 C 
ATOM      5  C   LIG d   1      -1.614  77.271 114.126  0.00  0.00    -0.047 C 
ATOM      6  C   LIG d   1      -1.600  77.690 115.614  0.00  0.00     0.091 C 
ENDROOT
BRANCH   1   7
ATOM      7  O   LIG d   1      -3.033  77.872 117.592  0.00  0.00    -0.368 OA
BRANCH   7   8
ATOM      8  C   LIG d   1      -3.533  79.050 118.272  0.00  0.00     0.119 C 
BRANCH   8   9
ATOM      9  C   LIG d   1      -2.484  79.455 119.327  0.00  0.00     0.028 C 
ATOM     10  C   LIG d   1      -1.750  80.754 118.955  0.00  0.00     0.006 C 
ENDBRANCH   8   9
BRANCH   8  11
ATOM     11  C   LIG d   1      -4.805  78.739 119.065  0.00  0.00     0.028 C 
ATOM     12  C   LIG d   1      -6.083  79.205 118.348  0.00  0.00     0.006 C 
ENDBRANCH   8  11
ENDBRANCH   7   8
ENDBRANCH   1   7
BRANCH   6  13
ATOM     13  N   LIG d   1      -0.819  78.933 115.845  0.00  0.00    -0.311 N 
ATOM     14  C   LIG d   1       0.455  78.938 116.233  0.00  0.00     0.210 C 
ATOM     15  C   LIG d   1       1.065  80.329 116.433  0.00  0.00     0.109 C 
ATOM     16  O   LIG d   1       1.147  77.922 116.400  0.00  0.00    -0.276 OA
ATOM     17  H   LIG d   1      -1.294  79.803 115.702  0.00  0.00     0.149 HD
ENDBRANCH   6  13
BRANCH   5  18
ATOM     18  N   LIG d   1      -0.277  76.922 113.610  0.00  0.00     0.381 N 
ATOM     19  H   LIG d   1      -0.230  75.940 113.429  0.00  0.00    -0.090 HD
ATOM     20  H   LIG d   1       0.410  77.148 114.308  0.00  0.00    -0.090 HD
ATOM     21  H   LIG d   1      -0.091  77.431 112.773  0.00  0.00    -0.090 HD
ENDBRANCH   5  18
BRANCH   3  22
ATOM     22  C   LIG d   1      -4.841  75.517 113.968  0.00  0.00     0.382 C 
ATOM     23  O   LIG d   1      -4.760  74.280 113.771  0.00  0.00    -0.241 OA
ATOM     24  O   LIG d   1      -5.866  76.128 113.610  0.00  0.00    -0.241 OA
ENDBRANCH   3  22
TORSDOF 7
ENDMDL
MODEL 7
REMARK VINA RESULT:      -4.2      2.824      5.085
REMARK  7 active torsions:
REMARK  status: ('A' for Active; 'I' for Inactive)
REMARK    1  A    between atoms: C_2  and  C_3 
REMARK    2  A    between atoms: C_3  and  O_6 
REMARK    3  A    between atoms: C_3  and  C_4 
REMARK    4  A    between atoms: C_7  and  O_6 
REMARK    5  A    between atoms: C_9  and  C_10 
REMARK    6  A    between atoms: N_15  and  C_14 
REMARK    7  A    between atoms: N_20  and  C_19 
REMARK       I    between atoms: C_22  and  N_20 
ROOT
ATOM      1  C   LIG d   1      -3.174  77.693 116.134  0.00  0.00     0.161 C 
ATOM      2  C   LIG d   1      -4.345  78.222 116.700  0.00  0.00     0.016 C 
ATOM      3  C   LIG d   1      -5.621  77.633 116.543  0.00  0.00     0.038 C 
ATOM      4  C   LIG d   1      -5.789  76.382 115.930  0.00  0.00     0.028 C 
ATOM      5  C   LIG d   1      -4.707  76.059 114.905  0.00  0.00    -0.047 C 
ATOM      6  C   LIG d   1      -3.321  76.270 115.556  0.00  0.00     0.091 C 
ENDROOT
BRANCH   1   7
ATOM      7  O   LIG d   1      -2.103  77.734 117.098  0.00  0.00    -0.368 OA
BRANCH   7   8
ATOM      8  C   LIG d   1      -1.226  78.885 117.028  0.00  0.00     0.119 C 
BRANCH   8   9
ATOM      9  C   LIG d   1       0.112  78.412 116.429  0.00  0.00     0.028 C 
ATOM     10  C   LIG d   1       0.236  78.743 114.933  0.00  0.00     0.006 C 
ENDBRANCH   8   9
BRANCH   8  11
ATOM     11  C   LIG d   1      -0.883  79.410 118.425  0.00  0.00     0.028 C 
ATOM     12  C   LIG d   1      -1.708  80.646 118.817  0.00  0.00     0.006 C 
ENDBRANCH   8  11
ENDBRANCH   7   8
ENDBRANCH   1   7
BRANCH   6  13
ATOM     13  N   LIG d   1      -2.206  76.057 114.596  0.00  0.00    -0.311 N 
ATOM     14  C   LIG d   1      -1.162  75.269 114.848  0.00  0.00     0.210 C 
ATOM     15  C   LIG d   1      -0.116  75.206 113.731  0.00  0.00     0.109 C 
ATOM     16  O   LIG d   1      -1.020  74.592 115.877  0.00  0.00    -0.276 OA
ATOM     17  H   LIG d   1      -2.257  76.544 113.723  0.00  0.00     0.149 HD
ENDBRANCH   6  13
BRANCH   5  18
ATOM     18  N   LIG d   1      -4.926  74.675 114.447  0.00  0.00     0.381 N 
ATOM     19  H   LIG d   1      -5.550  74.672 113.664  0.00  0.00    -0.090 HD
ATOM     20  H   LIG d   1      -5.351  74.149 115.191  0.00  0.00    -0.090 HD
ATOM     21  H   LIG d   1      -4.058  74.259 114.191  0.00  0.00    -0.090 HD
ENDBRANCH   5  18
BRANCH   3  22
ATOM     22  C   LIG d   1      -6.751  78.316 116.967  0.00  0.00     0.382 C 
ATOM     23  O   LIG d   1      -7.798  77.684 117.244  0.00  0.00    -0.241 OA
ATOM     24  O   LIG d   1      -6.749  79.560 117.034  0.00  0.00    -0.241 OA
ENDBRANCH   3  22
TORSDOF 7
ENDMDL
MODEL 8
REMARK VINA RESULT:      -4.1      3.647      5.580
REMARK  7 active torsions:
REMARK  status: ('A' for Active; 'I' for Inactive)
REMARK    1  A    between atoms: C_2  and  C_3 
REMARK    2  A    between atoms: C_3  and  O_6 
REMARK    3  A    between atoms: C_3  and  C_4 
REMARK    4  A    between atoms: C_7  and  O_6 
REMARK    5  A    between atoms: C_9  and  C_10 
REMARK    6  A    between atoms: N_15  and  C_14 
REMARK    7  A    between atoms: N_20  and  C_19 
REMARK       I    between atoms: C_22  and  N_20 
ROOT
ATOM      1  C   LIG d   1      -4.127  78.182 116.059  0.00  0.00     0.161 C 
ATOM      2  C   LIG d   1      -2.725  78.148 115.977  0.00  0.00     0.016 C 
ATOM      3  C   LIG d   1      -1.875  78.388 117.081  0.00  0.00     0.038 C 
ATOM      4  C   LIG d   1      -2.375  78.531 118.384  0.00  0.00     0.028 C 
ATOM      5  C   LIG d   1      -3.799  79.075 118.430  0.00  0.00    -0.047 C 
ATOM      6  C   LIG d   1      -4.690  78.227 117.495  0.00  0.00     0.091 C 
ENDROOT
BRANCH   1   7
ATOM      7  O   LIG d   1      -4.686  77.068 115.336  0.00  0.00    -0.368 OA
BRANCH   7   8
ATOM      8  C   LIG d   1      -4.628  75.782 116.002  0.00  0.00     0.119 C 
BRANCH   8   9
ATOM      9  C   LIG d   1      -3.825  74.828 115.097  0.00  0.00     0.028 C 
ATOM     10  C   LIG d   1      -2.640  74.180 115.832  0.00  0.00     0.006 C 
ENDBRANCH   8   9
BRANCH   8  11
ATOM     11  C   LIG d   1      -6.020  75.153 116.121  0.00  0.00     0.028 C 
ATOM     12  C   LIG d   1      -7.079  75.888 115.285  0.00  0.00     0.006 C 
ENDBRANCH   8  11
ENDBRANCH   7   8
ENDBRANCH   1   7
BRANCH   6  13
ATOM     13  N   LIG d   1      -6.082  78.743 117.416  0.00  0.00    -0.311 N 
ATOM     14  C   LIG d   1      -7.093  78.233 118.116  0.00  0.00     0.210 C 
ATOM     15  C   LIG d   1      -8.450  78.900 117.872  0.00  0.00     0.109 C 
ATOM     16  O   LIG d   1      -6.990  77.312 118.940  0.00  0.00    -0.276 OA
ATOM     17  H   LIG d   1      -6.249  79.510 116.795  0.00  0.00     0.149 HD
ENDBRANCH   6  13
BRANCH   5  18
ATOM     18  N   LIG d   1      -4.242  79.043 119.837  0.00  0.00     0.381 N 
ATOM     19  H   LIG d   1      -5.090  78.517 119.913  0.00  0.00    -0.090 HD
ATOM     20  H   LIG d   1      -4.426  79.983 120.141  0.00  0.00    -0.090 HD
ATOM     21  H   LIG d   1      -3.536  78.633 120.408  0.00  0.00    -0.090 HD
ENDBRANCH   5  18
BRANCH   3  22
ATOM     22  C   LIG d   1      -0.510  78.527 116.879  0.00  0.00     0.382 C 
ATOM     23  O   LIG d   1       0.291  77.755 117.460  0.00  0.00    -0.241 OA
ATOM     24  O   LIG d   1      -0.068  79.442 116.160  0.00  0.00    -0.241 OA
ENDBRANCH   3  22
TORSDOF 7
ENDMDL
MODEL 9
REMARK VINA RESULT:      -4.1      3.108      5.237
REMARK  7 active torsions:
REMARK  status: ('A' for Active; 'I' for Inactive)
REMARK    1  A    between atoms: C_2  and  C_3 
REMARK    2  A    between atoms: C_3  and  O_6 
REMARK    3  A    between atoms: C_3  and  C_4 
REMARK    4  A    between atoms: C_7  and  O_6 
REMARK    5  A    between atoms: C_9  and  C_10 
REMARK    6  A    between atoms: N_15  and  C_14 
REMARK    7  A    between atoms: N_20  and  C_19 
REMARK       I    between atoms: C_22  and  N_20 
ROOT
ATOM      1  C   LIG d   1      -3.568  77.874 116.370  0.00  0.00     0.161 C 
ATOM      2  C   LIG d   1      -4.731  78.434 116.925  0.00  0.00     0.016 C 
ATOM      3  C   LIG d   1      -6.010  77.842 116.815  0.00  0.00     0.038 C 
ATOM      4  C   LIG d   1      -6.190  76.563 116.267  0.00  0.00     0.028 C 
ATOM      5  C   LIG d   1      -5.123  76.187 115.244  0.00  0.00    -0.047 C 
ATOM      6  C   LIG d   1      -3.727  76.424 115.864  0.00  0.00     0.091 C 
ENDROOT
BRANCH   1   7
ATOM      7  O   LIG d   1      -2.484  77.958 117.316  0.00  0.00    -0.368 OA
BRANCH   7   8
ATOM      8  C   LIG d   1      -2.735  78.750 118.503  0.00  0.00     0.119 C 
BRANCH   8   9
ATOM      9  C   LIG d   1      -1.755  79.940 118.481  0.00  0.00     0.028 C 
ATOM     10  C   LIG d   1      -2.244  81.118 119.340  0.00  0.00     0.006 C 
ENDBRANCH   8   9
BRANCH   8  11
ATOM     11  C   LIG d   1      -2.396  77.969 119.776  0.00  0.00     0.028 C 
ATOM     12  C   LIG d   1      -2.611  76.455 119.620  0.00  0.00     0.006 C 
ENDBRANCH   8  11
ENDBRANCH   7   8
ENDBRANCH   1   7
BRANCH   6  13
ATOM     13  N   LIG d   1      -2.627  76.161 114.901  0.00  0.00    -0.311 N 
ATOM     14  C   LIG d   1      -2.501  76.800 113.739  0.00  0.00     0.210 C 
ATOM     15  C   LIG d   1      -1.306  76.361 112.887  0.00  0.00     0.109 C 
ATOM     16  O   LIG d   1      -3.246  77.710 113.348  0.00  0.00    -0.276 OA
ATOM     17  H   LIG d   1      -1.959  75.459 115.153  0.00  0.00     0.149 HD
ENDBRANCH   6  13
BRANCH   5  18
ATOM     18  N   LIG d   1      -5.353  74.782 114.858  0.00  0.00     0.381 N 
ATOM     19  H   LIG d   1      -6.292  74.670 114.531  0.00  0.00    -0.090 HD
ATOM     20  H   LIG d   1      -5.227  74.198 115.665  0.00  0.00    -0.090 HD
ATOM     21  H   LIG d   1      -4.711  74.516 114.143  0.00  0.00    -0.090 HD
ENDBRANCH   5  18
BRANCH   3  22
ATOM     22  C   LIG d   1      -7.131  78.549 117.221  0.00  0.00     0.382 C 
ATOM     23  O   LIG d   1      -7.184  79.791 117.054  0.00  0.00    -0.241 OA
ATOM     24  O   LIG d   1      -8.073  77.967 117.791  0.00  0.00    -0.241 OA
ENDBRANCH   3  22
TORSDOF 7
ENDMDL
