MODEL 1
REMARK VINA RESULT:      -5.1      0.000      0.000
REMARK  7 active torsions:
REMARK  status: ('A' for Active; 'I' for Inactive)
REMARK    1  A    between atoms: C_2  and  C_3 
REMARK    2  A    between atoms: C_3  and  O_6 
REMARK    3  A    between atoms: C_3  and  C_4 
REMARK    4  A    between atoms: C_7  and  O_6 
REMARK    5  A    between atoms: C_9  and  C_10 
REMARK    6  A    between atoms: N_15  and  C_14 
REMARK    7  A    between atoms: N_20  and  C_19 
REMARK       I    between atoms: C_22  and  N_20 
ROOT
ATOM      1  C   LIG d   1      -4.264  78.462 116.551  0.00  0.00     0.161 C 
ATOM      2  C   LIG d   1      -4.139  77.354 115.697  0.00  0.00     0.016 C 
ATOM      3  C   LIG d   1      -5.177  76.419 115.479  0.00  0.00     0.038 C 
ATOM      4  C   LIG d   1      -6.470  76.614 115.987  0.00  0.00     0.028 C 
ATOM      5  C   LIG d   1      -6.500  77.449 117.263  0.00  0.00    -0.047 C 
ATOM      6  C   LIG d   1      -5.703  78.753 117.027  0.00  0.00     0.091 C 
ENDROOT
BRANCH   1   7
ATOM      7  O   LIG d   1      -3.699  79.630 115.923  0.00  0.00    -0.368 OA
BRANCH   7   8
ATOM      8  C   LIG d   1      -2.346  79.971 116.312  0.00  0.00     0.119 C 
BRANCH   8   9
ATOM      9  C   LIG d   1      -2.419  81.251 117.167  0.00  0.00     0.028 C 
ATOM     10  C   LIG d   1      -2.187  80.974 118.661  0.00  0.00     0.006 C 
ENDBRANCH   8   9
BRANCH   8  11
ATOM     11  C   LIG d   1      -1.493  80.343 115.096  0.00  0.00     0.028 C 
ATOM     12  C   LIG d   1      -2.212  80.084 113.762  0.00  0.00     0.006 C 
ENDBRANCH   8  11
ENDBRANCH   7   8
ENDBRANCH   1   7
BRANCH   6  13
ATOM     13  N   LIG d   1      -5.611  79.590 118.252  0.00  0.00    -0.311 N 
ATOM     14  C   LIG d   1      -6.099  80.826 118.334  0.00  0.00     0.210 C 
ATOM     15  C   LIG d   1      -5.879  81.521 119.681  0.00  0.00     0.109 C 
ATOM     16  O   LIG d   1      -6.721  81.402 117.428  0.00  0.00    -0.276 OA
ATOM     17  H   LIG d   1      -5.149  79.189 119.045  0.00  0.00     0.149 HD
ENDBRANCH   6  13
BRANCH   5  18
ATOM     18  N   LIG d   1      -7.914  77.690 117.605  0.00  0.00     0.381 N 
ATOM     19  H   LIG d   1      -8.425  77.933 116.780  0.00  0.00    -0.090 HD
ATOM     20  H   LIG d   1      -7.966  78.461 118.247  0.00  0.00    -0.090 HD
ATOM     21  H   LIG d   1      -8.308  76.875 118.021  0.00  0.00    -0.090 HD
ENDBRANCH   5  18
BRANCH   3  22
ATOM     22  C   LIG d   1      -4.914  75.252 114.777  0.00  0.00     0.382 C 
ATOM     23  O   LIG d   1      -3.952  74.521 115.114  0.00  0.00    -0.241 OA
ATOM     24  O   LIG d   1      -5.601  74.944 113.784  0.00  0.00    -0.241 OA
ENDBRANCH   3  22
TORSDOF 7
ENDMDL
MODEL 2
REMARK VINA RESULT:      -5.0      2.758      5.800
REMARK  7 active torsions:
REMARK  status: ('A' for Active; 'I' for Inactive)
REMARK    1  A    between atoms: C_2  and  C_3 
REMARK    2  A    between atoms: C_3  and  O_6 
REMARK    3  A    between atoms: C_3  and  C_4 
REMARK    4  A    between atoms: C_7  and  O_6 
REMARK    5  A    between atoms: C_9  and  C_10 
REMARK    6  A    between atoms: N_15  and  C_14 
REMARK    7  A    between atoms: N_20  and  C_19 
REMARK       I    between atoms: C_22  and  N_20 
ROOT
ATOM      1  C   LIG d   1      -2.735  79.564 115.681  0.00  0.00     0.161 C 
ATOM      2  C   LIG d   1      -2.572  80.819 115.071  0.00  0.00     0.016 C 
ATOM      3  C   LIG d   1      -2.323  80.987 113.690  0.00  0.00     0.038 C 
ATOM      4  C   LIG d   1      -2.370  79.910 112.792  0.00  0.00     0.028 C 
ATOM      5  C   LIG d   1      -2.030  78.570 113.435  0.00  0.00    -0.047 C 
ATOM      6  C   LIG d   1      -2.900  78.385 114.699  0.00  0.00     0.091 C 
ENDROOT
BRANCH   1   7
ATOM      7  O   LIG d   1      -3.843  79.608 116.602  0.00  0.00    -0.368 OA
BRANCH   7   8
ATOM      8  C   LIG d   1      -3.894  80.756 117.483  0.00  0.00     0.119 C 
BRANCH   8   9
ATOM      9  C   LIG d   1      -3.063  80.416 118.736  0.00  0.00     0.028 C 
ATOM     10  C   LIG d   1      -1.700  81.129 118.748  0.00  0.00     0.006 C 
ENDBRANCH   8   9
BRANCH   8  11
ATOM     11  C   LIG d   1      -5.316  81.004 117.995  0.00  0.00     0.028 C 
ATOM     12  C   LIG d   1      -5.351  81.451 119.465  0.00  0.00     0.006 C 
ENDBRANCH   8  11
ENDBRANCH   7   8
ENDBRANCH   1   7
BRANCH   6  13
ATOM     13  N   LIG d   1      -2.571  77.137 115.436  0.00  0.00    -0.311 N 
ATOM     14  C   LIG d   1      -3.203  75.981 115.239  0.00  0.00     0.210 C 
ATOM     15  C   LIG d   1      -2.721  74.822 116.118  0.00  0.00     0.109 C 
ATOM     16  O   LIG d   1      -4.095  75.797 114.397  0.00  0.00    -0.276 OA
ATOM     17  H   LIG d   1      -1.838  77.188 116.116  0.00  0.00     0.149 HD
ENDBRANCH   6  13
BRANCH   5  18
ATOM     18  N   LIG d   1      -2.252  77.521 112.422  0.00  0.00     0.381 N 
ATOM     19  H   LIG d   1      -2.883  77.854 111.721  0.00  0.00    -0.090 HD
ATOM     20  H   LIG d   1      -2.668  76.722 112.867  0.00  0.00    -0.090 HD
ATOM     21  H   LIG d   1      -1.385  77.262 112.003  0.00  0.00    -0.090 HD
ENDBRANCH   5  18
BRANCH   3  22
ATOM     22  C   LIG d   1      -1.983  82.239 113.200  0.00  0.00     0.382 C 
ATOM     23  O   LIG d   1      -1.894  82.425 111.962  0.00  0.00    -0.241 OA
ATOM     24  O   LIG d   1      -1.721  83.173 113.981  0.00  0.00    -0.241 OA
ENDBRANCH   3  22
TORSDOF 7
ENDMDL
MODEL 3
REMARK VINA RESULT:      -5.0      2.839      6.019
REMARK  7 active torsions:
REMARK  status: ('A' for Active; 'I' for Inactive)
REMARK    1  A    between atoms: C_2  and  C_3 
REMARK    2  A    between atoms: C_3  and  O_6 
REMARK    3  A    between atoms: C_3  and  C_4 
REMARK    4  A    between atoms: C_7  and  O_6 
REMARK    5  A    between atoms: C_9  and  C_10 
REMARK    6  A    between atoms: N_15  and  C_14 
REMARK    7  A    between atoms: N_20  and  C_19 
REMARK       I    between atoms: C_22  and  N_20 
ROOT
ATOM      1  C   LIG d   1      -2.911  79.665 115.529  0.00  0.00     0.161 C 
ATOM      2  C   LIG d   1      -2.684  80.921 114.942  0.00  0.00     0.016 C 
ATOM      3  C   LIG d   1      -2.169  81.088 113.636  0.00  0.00     0.038 C 
ATOM      4  C   LIG d   1      -1.987  80.002 112.766  0.00  0.00     0.028 C 
ATOM      5  C   LIG d   1      -1.725  78.685 113.489  0.00  0.00    -0.047 C 
ATOM      6  C   LIG d   1      -2.823  78.471 114.556  0.00  0.00     0.091 C 
ENDROOT
BRANCH   1   7
ATOM      7  O   LIG d   1      -4.182  79.666 116.208  0.00  0.00    -0.368 OA
BRANCH   7   8
ATOM      8  C   LIG d   1      -4.136  79.502 117.647  0.00  0.00     0.119 C 
BRANCH   8   9
ATOM      9  C   LIG d   1      -5.273  78.539 118.040  0.00  0.00     0.028 C 
ATOM     10  C   LIG d   1      -5.915  77.859 116.819  0.00  0.00     0.006 C 
ENDBRANCH   8   9
BRANCH   8  11
ATOM     11  C   LIG d   1      -4.452  80.817 118.367  0.00  0.00     0.028 C 
ATOM     12  C   LIG d   1      -5.891  81.298 118.126  0.00  0.00     0.006 C 
ENDBRANCH   8  11
ENDBRANCH   7   8
ENDBRANCH   1   7
BRANCH   6  13
ATOM     13  N   LIG d   1      -2.594  77.246 115.367  0.00  0.00    -0.311 N 
ATOM     14  C   LIG d   1      -3.166  76.073 115.099  0.00  0.00     0.210 C 
ATOM     15  C   LIG d   1      -2.811  74.944 116.072  0.00  0.00     0.109 C 
ATOM     16  O   LIG d   1      -3.908  75.852 114.130  0.00  0.00    -0.276 OA
ATOM     17  H   LIG d   1      -1.981  77.328 116.154  0.00  0.00     0.149 HD
ENDBRANCH   6  13
BRANCH   5  18
ATOM     18  N   LIG d   1      -1.692  77.617 112.472  0.00  0.00     0.381 N 
ATOM     19  H   LIG d   1      -2.012  76.758 112.872  0.00  0.00    -0.090 HD
ATOM     20  H   LIG d   1      -0.743  77.488 112.167  0.00  0.00    -0.090 HD
ATOM     21  H   LIG d   1      -2.266  77.866 111.697  0.00  0.00    -0.090 HD
ENDBRANCH   5  18
BRANCH   3  22
ATOM     22  C   LIG d   1      -1.793  82.349 113.201  0.00  0.00     0.382 C 
ATOM     23  O   LIG d   1      -1.684  82.583 111.973  0.00  0.00    -0.241 OA
ATOM     24  O   LIG d   1      -1.518  83.245 114.023  0.00  0.00    -0.241 OA
ENDBRANCH   3  22
TORSDOF 7
ENDMDL
MODEL 4
REMARK VINA RESULT:      -4.9      3.746      5.976
REMARK  7 active torsions:
REMARK  status: ('A' for Active; 'I' for Inactive)
REMARK    1  A    between atoms: C_2  and  C_3 
REMARK    2  A    between atoms: C_3  and  O_6 
REMARK    3  A    between atoms: C_3  and  C_4 
REMARK    4  A    between atoms: C_7  and  O_6 
REMARK    5  A    between atoms: C_9  and  C_10 
REMARK    6  A    between atoms: N_15  and  C_14 
REMARK    7  A    between atoms: N_20  and  C_19 
REMARK       I    between atoms: C_22  and  N_20 
ROOT
ATOM      1  C   LIG d   1      -3.330  76.636 116.364  0.00  0.00     0.161 C 
ATOM      2  C   LIG d   1      -3.739  77.057 115.088  0.00  0.00     0.016 C 
ATOM      3  C   LIG d   1      -2.854  77.201 113.995  0.00  0.00     0.038 C 
ATOM      4  C   LIG d   1      -1.516  76.785 114.065  0.00  0.00     0.028 C 
ATOM      5  C   LIG d   1      -0.942  76.828 115.477  0.00  0.00    -0.047 C 
ATOM      6  C   LIG d   1      -1.895  76.072 116.430  0.00  0.00     0.091 C 
ENDROOT
BRANCH   1   7
ATOM      7  O   LIG d   1      -4.270  75.677 116.887  0.00  0.00    -0.368 OA
BRANCH   7   8
ATOM      8  C   LIG d   1      -5.618  75.754 116.362  0.00  0.00     0.119 C 
BRANCH   8   9
ATOM      9  C   LIG d   1      -6.555  76.088 117.539  0.00  0.00     0.028 C 
ATOM     10  C   LIG d   1      -7.523  77.237 117.211  0.00  0.00     0.006 C 
ENDBRANCH   8   9
BRANCH   8  11
ATOM     11  C   LIG d   1      -6.092  74.394 115.841  0.00  0.00     0.028 C 
ATOM     12  C   LIG d   1      -5.771  74.182 114.353  0.00  0.00     0.006 C 
ENDBRANCH   8  11
ENDBRANCH   7   8
ENDBRANCH   1   7
BRANCH   6  13
ATOM     13  N   LIG d   1      -1.450  76.138 117.846  0.00  0.00    -0.311 N 
ATOM     14  C   LIG d   1      -0.717  75.191 118.429  0.00  0.00     0.210 C 
ATOM     15  C   LIG d   1      -0.384  75.446 119.902  0.00  0.00     0.109 C 
ATOM     16  O   LIG d   1      -0.283  74.180 117.857  0.00  0.00    -0.276 OA
ATOM     17  H   LIG d   1      -1.732  76.940 118.376  0.00  0.00     0.149 HD
ENDBRANCH   6  13
BRANCH   5  18
ATOM     18  N   LIG d   1       0.410  76.240 115.425  0.00  0.00     0.381 N 
ATOM     19  H   LIG d   1       0.391  75.314 115.802  0.00  0.00    -0.090 HD
ATOM     20  H   LIG d   1       1.029  76.797 115.989  0.00  0.00    -0.090 HD
ATOM     21  H   LIG d   1       0.737  76.217 114.484  0.00  0.00    -0.090 HD
ENDBRANCH   5  18
BRANCH   3  22
ATOM     22  C   LIG d   1      -3.297  77.803 112.827  0.00  0.00     0.382 C 
ATOM     23  O   LIG d   1      -2.848  78.926 112.492  0.00  0.00    -0.241 OA
ATOM     24  O   LIG d   1      -4.171  77.258 112.127  0.00  0.00    -0.241 OA
ENDBRANCH   3  22
TORSDOF 7
ENDMDL
MODEL 5
REMARK VINA RESULT:      -4.7      3.180      4.907
REMARK  7 active torsions:
REMARK  status: ('A' for Active; 'I' for Inactive)
REMARK    1  A    between atoms: C_2  and  C_3 
REMARK    2  A    between atoms: C_3  and  O_6 
REMARK    3  A    between atoms: C_3  and  C_4 
REMARK    4  A    between atoms: C_7  and  O_6 
REMARK    5  A    between atoms: C_9  and  C_10 
REMARK    6  A    between atoms: N_15  and  C_14 
REMARK    7  A    between atoms: N_20  and  C_19 
REMARK       I    between atoms: C_22  and  N_20 
ROOT
ATOM      1  C   LIG d   1      -2.488  79.719 115.294  0.00  0.00     0.161 C 
ATOM      2  C   LIG d   1      -3.146  78.479 115.234  0.00  0.00     0.016 C 
ATOM      3  C   LIG d   1      -3.153  77.657 114.084  0.00  0.00     0.038 C 
ATOM      4  C   LIG d   1      -2.371  77.951 112.957  0.00  0.00     0.028 C 
ATOM      5  C   LIG d   1      -2.093  79.441 112.785  0.00  0.00    -0.047 C 
ATOM      6  C   LIG d   1      -1.538  80.004 114.113  0.00  0.00     0.091 C 
ENDROOT
BRANCH   1   7
ATOM      7  O   LIG d   1      -1.783  79.837 116.546  0.00  0.00    -0.368 OA
BRANCH   7   8
ATOM      8  C   LIG d   1      -2.161  80.954 117.387  0.00  0.00     0.119 C 
BRANCH   8   9
ATOM      9  C   LIG d   1      -0.894  81.423 118.130  0.00  0.00     0.028 C 
ATOM     10  C   LIG d   1      -0.920  81.055 119.623  0.00  0.00     0.006 C 
ENDBRANCH   8   9
BRANCH   8  11
ATOM     11  C   LIG d   1      -3.137  80.520 118.485  0.00  0.00     0.028 C 
ATOM     12  C   LIG d   1      -4.595  80.886 118.164  0.00  0.00     0.006 C 
ENDBRANCH   8  11
ENDBRANCH   7   8
ENDBRANCH   1   7
BRANCH   6  13
ATOM     13  N   LIG d   1      -1.318  81.473 114.058  0.00  0.00    -0.311 N 
ATOM     14  C   LIG d   1      -0.169  82.056 114.396  0.00  0.00     0.210 C 
ATOM     15  C   LIG d   1      -0.162  83.584 114.285  0.00  0.00     0.109 C 
ATOM     16  O   LIG d   1       0.855  81.450 114.747  0.00  0.00    -0.276 OA
ATOM     17  H   LIG d   1      -2.087  82.038 113.754  0.00  0.00     0.149 HD
ENDBRANCH   6  13
BRANCH   5  18
ATOM     18  N   LIG d   1      -1.156  79.592 111.656  0.00  0.00     0.381 N 
ATOM     19  H   LIG d   1      -1.485  79.068 110.870  0.00  0.00    -0.090 HD
ATOM     20  H   LIG d   1      -0.260  79.226 111.926  0.00  0.00    -0.090 HD
ATOM     21  H   LIG d   1      -1.070  80.554 111.411  0.00  0.00    -0.090 HD
ENDBRANCH   5  18
BRANCH   3  22
ATOM     22  C   LIG d   1      -3.981  76.545 114.038  0.00  0.00     0.382 C 
ATOM     23  O   LIG d   1      -3.689  75.519 114.698  0.00  0.00    -0.241 OA
ATOM     24  O   LIG d   1      -4.992  76.540 113.311  0.00  0.00    -0.241 OA
ENDBRANCH   3  22
TORSDOF 7
ENDMDL
MODEL 6
REMARK VINA RESULT:      -4.6      2.931      5.647
REMARK  7 active torsions:
REMARK  status: ('A' for Active; 'I' for Inactive)
REMARK    1  A    between atoms: C_2  and  C_3 
REMARK    2  A    between atoms: C_3  and  O_6 
REMARK    3  A    between atoms: C_3  and  C_4 
REMARK    4  A    between atoms: C_7  and  O_6 
REMARK    5  A    between atoms: C_9  and  C_10 
REMARK    6  A    between atoms: N_15  and  C_14 
REMARK    7  A    between atoms: N_20  and  C_19 
REMARK       I    between atoms: C_22  and  N_20 
ROOT
ATOM      1  C   LIG d   1      -2.748  79.523 115.263  0.00  0.00     0.161 C 
ATOM      2  C   LIG d   1      -2.289  80.741 114.736  0.00  0.00     0.016 C 
ATOM      3  C   LIG d   1      -1.941  80.919 113.377  0.00  0.00     0.038 C 
ATOM      4  C   LIG d   1      -2.174  79.924 112.416  0.00  0.00     0.028 C 
ATOM      5  C   LIG d   1      -2.163  78.512 112.991  0.00  0.00    -0.047 C 
ATOM      6  C   LIG d   1      -3.114  78.458 114.208  0.00  0.00     0.091 C 
ENDROOT
BRANCH   1   7
ATOM      7  O   LIG d   1      -3.865  79.761 116.143  0.00  0.00    -0.368 OA
BRANCH   7   8
ATOM      8  C   LIG d   1      -3.620  79.553 117.555  0.00  0.00     0.119 C 
BRANCH   8   9
ATOM      9  C   LIG d   1      -3.311  80.928 118.179  0.00  0.00     0.028 C 
ATOM     10  C   LIG d   1      -1.815  81.110 118.488  0.00  0.00     0.006 C 
ENDBRANCH   8   9
BRANCH   8  11
ATOM     11  C   LIG d   1      -2.361  78.712 117.784  0.00  0.00     0.028 C 
ATOM     12  C   LIG d   1      -2.649  77.398 118.528  0.00  0.00     0.006 C 
ENDBRANCH   8  11
ENDBRANCH   7   8
ENDBRANCH   1   7
BRANCH   6  13
ATOM     13  N   LIG d   1      -3.099  77.134 114.882  0.00  0.00    -0.311 N 
ATOM     14  C   LIG d   1      -4.193  76.400 115.081  0.00  0.00     0.210 C 
ATOM     15  C   LIG d   1      -3.958  75.075 115.813  0.00  0.00     0.109 C 
ATOM     16  O   LIG d   1      -5.330  76.706 114.693  0.00  0.00    -0.276 OA
ATOM     17  H   LIG d   1      -2.213  76.794 115.201  0.00  0.00     0.149 HD
ENDBRANCH   6  13
BRANCH   5  18
ATOM     18  N   LIG d   1      -2.555  77.587 111.910  0.00  0.00     0.381 N 
ATOM     19  H   LIG d   1      -3.164  76.881 112.272  0.00  0.00    -0.090 HD
ATOM     20  H   LIG d   1      -1.730  77.139 111.551  0.00  0.00    -0.090 HD
ATOM     21  H   LIG d   1      -3.012  78.089 111.181  0.00  0.00    -0.090 HD
ENDBRANCH   5  18
BRANCH   3  22
ATOM     22  C   LIG d   1      -1.315  82.089 112.975  0.00  0.00     0.382 C 
ATOM     23  O   LIG d   1      -1.664  82.652 111.909  0.00  0.00    -0.241 OA
ATOM     24  O   LIG d   1      -0.377  82.566 113.642  0.00  0.00    -0.241 OA
ENDBRANCH   3  22
TORSDOF 7
ENDMDL
MODEL 7
REMARK VINA RESULT:      -4.5      3.773      6.075
REMARK  7 active torsions:
REMARK  status: ('A' for Active; 'I' for Inactive)
REMARK    1  A    between atoms: C_2  and  C_3 
REMARK    2  A    between atoms: C_3  and  O_6 
REMARK    3  A    between atoms: C_3  and  C_4 
REMARK    4  A    between atoms: C_7  and  O_6 
REMARK    5  A    between atoms: C_9  and  C_10 
REMARK    6  A    between atoms: N_15  and  C_14 
REMARK    7  A    between atoms: N_20  and  C_19 
REMARK       I    between atoms: C_22  and  N_20 
ROOT
ATOM      1  C   LIG d   1      -2.463  75.181 115.741  0.00  0.00     0.161 C 
ATOM      2  C   LIG d   1      -1.850  74.735 116.924  0.00  0.00     0.016 C 
ATOM      3  C   LIG d   1      -0.843  75.461 117.600  0.00  0.00     0.038 C 
ATOM      4  C   LIG d   1      -0.484  76.762 117.219  0.00  0.00     0.028 C 
ATOM      5  C   LIG d   1      -0.716  77.046 115.739  0.00  0.00    -0.047 C 
ATOM      6  C   LIG d   1      -2.164  76.649 115.372  0.00  0.00     0.091 C 
ENDROOT
BRANCH   1   7
ATOM      7  O   LIG d   1      -3.886  74.963 115.816  0.00  0.00    -0.368 OA
BRANCH   7   8
ATOM      8  C   LIG d   1      -4.680  76.087 116.269  0.00  0.00     0.119 C 
BRANCH   8   9
ATOM      9  C   LIG d   1      -5.245  75.725 117.656  0.00  0.00     0.028 C 
ATOM     10  C   LIG d   1      -6.690  75.204 117.583  0.00  0.00     0.006 C 
ENDBRANCH   8   9
BRANCH   8  11
ATOM     11  C   LIG d   1      -5.905  76.300 115.375  0.00  0.00     0.028 C 
ATOM     12  C   LIG d   1      -5.781  75.594 114.016  0.00  0.00     0.006 C 
ENDBRANCH   8  11
ENDBRANCH   7   8
ENDBRANCH   1   7
BRANCH   6  13
ATOM     13  N   LIG d   1      -2.448  76.816 113.923  0.00  0.00    -0.311 N 
ATOM     14  C   LIG d   1      -2.919  77.943 113.393  0.00  0.00     0.210 C 
ATOM     15  C   LIG d   1      -3.160  77.895 111.881  0.00  0.00     0.109 C 
ATOM     16  O   LIG d   1      -3.129  78.989 114.026  0.00  0.00    -0.276 OA
ATOM     17  H   LIG d   1      -2.276  76.027 113.331  0.00  0.00     0.149 HD
ENDBRANCH   6  13
BRANCH   5  18
ATOM     18  N   LIG d   1      -0.431  78.475 115.509  0.00  0.00     0.381 N 
ATOM     19  H   LIG d   1      -1.155  78.878 114.947  0.00  0.00    -0.090 HD
ATOM     20  H   LIG d   1       0.437  78.557 115.010  0.00  0.00    -0.090 HD
ATOM     21  H   LIG d   1      -0.370  78.955 116.379  0.00  0.00    -0.090 HD
ENDBRANCH   5  18
BRANCH   3  22
ATOM     22  C   LIG d   1      -0.154  74.868 118.647  0.00  0.00     0.382 C 
ATOM     23  O   LIG d   1      -0.544  75.033 119.828  0.00  0.00    -0.241 OA
ATOM     24  O   LIG d   1       0.879  74.207 118.430  0.00  0.00    -0.241 OA
ENDBRANCH   3  22
TORSDOF 7
ENDMDL
MODEL 8
REMARK VINA RESULT:      -4.4      3.605      5.115
REMARK  7 active torsions:
REMARK  status: ('A' for Active; 'I' for Inactive)
REMARK    1  A    between atoms: C_2  and  C_3 
REMARK    2  A    between atoms: C_3  and  O_6 
REMARK    3  A    between atoms: C_3  and  C_4 
REMARK    4  A    between atoms: C_7  and  O_6 
REMARK    5  A    between atoms: C_9  and  C_10 
REMARK    6  A    between atoms: N_15  and  C_14 
REMARK    7  A    between atoms: N_20  and  C_19 
REMARK       I    between atoms: C_22  and  N_20 
ROOT
ATOM      1  C   LIG d   1      -2.469  79.556 115.385  0.00  0.00     0.161 C 
ATOM      2  C   LIG d   1      -3.069  78.287 115.329  0.00  0.00     0.016 C 
ATOM      3  C   LIG d   1      -3.088  77.486 114.165  0.00  0.00     0.038 C 
ATOM      4  C   LIG d   1      -2.371  77.836 113.011  0.00  0.00     0.028 C 
ATOM      5  C   LIG d   1      -2.172  79.340 112.856  0.00  0.00    -0.047 C 
ATOM      6  C   LIG d   1      -1.586  79.907 114.169  0.00  0.00     0.091 C 
ENDROOT
BRANCH   1   7
ATOM      7  O   LIG d   1      -1.715  79.687 116.606  0.00  0.00    -0.368 OA
BRANCH   7   8
ATOM      8  C   LIG d   1      -0.314  79.323 116.533  0.00  0.00     0.119 C 
BRANCH   8   9
ATOM      9  C   LIG d   1      -0.110  78.087 117.430  0.00  0.00     0.028 C 
ATOM     10  C   LIG d   1       0.081  76.796 116.617  0.00  0.00     0.006 C 
ENDBRANCH   8   9
BRANCH   8  11
ATOM     11  C   LIG d   1       0.577  80.413 117.134  0.00  0.00     0.028 C 
ATOM     12  C   LIG d   1      -0.212  81.436 117.967  0.00  0.00     0.006 C 
ENDBRANCH   8  11
ENDBRANCH   7   8
ENDBRANCH   1   7
BRANCH   6  13
ATOM     13  N   LIG d   1      -1.439  81.386 114.132  0.00  0.00    -0.311 N 
ATOM     14  C   LIG d   1      -0.297  82.001 113.830  0.00  0.00     0.210 C 
ATOM     15  C   LIG d   1      -0.357  83.532 113.869  0.00  0.00     0.109 C 
ATOM     16  O   LIG d   1       0.752  81.426 113.502  0.00  0.00    -0.276 OA
ATOM     17  H   LIG d   1      -2.249  81.931 114.355  0.00  0.00     0.149 HD
ENDBRANCH   6  13
BRANCH   5  18
ATOM     18  N   LIG d   1      -1.294  79.555 111.690  0.00  0.00     0.381 N 
ATOM     19  H   LIG d   1      -0.492  80.087 111.964  0.00  0.00    -0.090 HD
ATOM     20  H   LIG d   1      -1.798  80.080 110.996  0.00  0.00    -0.090 HD
ATOM     21  H   LIG d   1      -1.009  78.679 111.312  0.00  0.00    -0.090 HD
ENDBRANCH   5  18
BRANCH   3  22
ATOM     22  C   LIG d   1      -3.864  76.337 114.134  0.00  0.00     0.382 C 
ATOM     23  O   LIG d   1      -4.788  76.226 113.293  0.00  0.00    -0.241 OA
ATOM     24  O   LIG d   1      -3.680  75.428 114.966  0.00  0.00    -0.241 OA
ENDBRANCH   3  22
TORSDOF 7
ENDMDL
MODEL 9
REMARK VINA RESULT:      -4.4      3.391      5.925
REMARK  7 active torsions:
REMARK  status: ('A' for Active; 'I' for Inactive)
REMARK    1  A    between atoms: C_2  and  C_3 
REMARK    2  A    between atoms: C_3  and  O_6 
REMARK    3  A    between atoms: C_3  and  C_4 
REMARK    4  A    between atoms: C_7  and  O_6 
REMARK    5  A    between atoms: C_9  and  C_10 
REMARK    6  A    between atoms: N_15  and  C_14 
REMARK    7  A    between atoms: N_20  and  C_19 
REMARK       I    between atoms: C_22  and  N_20 
ROOT
ATOM      1  C   LIG d   1      -2.179  78.775 115.255  0.00  0.00     0.161 C 
ATOM      2  C   LIG d   1      -2.338  79.671 114.184  0.00  0.00     0.016 C 
ATOM      3  C   LIG d   1      -2.226  81.074 114.321  0.00  0.00     0.038 C 
ATOM      4  C   LIG d   1      -1.795  81.670 115.515  0.00  0.00     0.028 C 
ATOM      5  C   LIG d   1      -2.113  80.842 116.755  0.00  0.00    -0.047 C 
ATOM      6  C   LIG d   1      -1.599  79.400 116.541  0.00  0.00     0.091 C 
ENDROOT
BRANCH   1   7
ATOM      7  O   LIG d   1      -1.377  77.652 114.837  0.00  0.00    -0.368 OA
BRANCH   7   8
ATOM      8  C   LIG d   1      -2.075  76.392 114.684  0.00  0.00     0.119 C 
BRANCH   8   9
ATOM      9  C   LIG d   1      -3.490  76.573 115.267  0.00  0.00     0.028 C 
ATOM     10  C   LIG d   1      -4.592  76.295 114.231  0.00  0.00     0.006 C 
ENDBRANCH   8   9
BRANCH   8  11
ATOM     11  C   LIG d   1      -1.427  75.290 115.526  0.00  0.00     0.028 C 
ATOM     12  C   LIG d   1      -2.417  74.615 116.488  0.00  0.00     0.006 C 
ENDBRANCH   8  11
ENDBRANCH   7   8
ENDBRANCH   1   7
BRANCH   6  13
ATOM     13  N   LIG d   1      -1.945  78.501 117.673  0.00  0.00    -0.311 N 
ATOM     14  C   LIG d   1      -1.063  77.699 118.267  0.00  0.00     0.210 C 
ATOM     15  C   LIG d   1      -1.632  76.840 119.401  0.00  0.00     0.109 C 
ATOM     16  O   LIG d   1       0.143  77.641 117.985  0.00  0.00    -0.276 OA
ATOM     17  H   LIG d   1      -2.895  78.508 117.987  0.00  0.00     0.149 HD
ENDBRANCH   6  13
BRANCH   5  18
ATOM     18  N   LIG d   1      -1.488  81.512 117.911  0.00  0.00     0.381 N 
ATOM     19  H   LIG d   1      -2.165  82.080 118.380  0.00  0.00    -0.090 HD
ATOM     20  H   LIG d   1      -0.750  82.109 117.581  0.00  0.00    -0.090 HD
ATOM     21  H   LIG d   1      -1.120  80.834 118.541  0.00  0.00    -0.090 HD
ENDBRANCH   5  18
BRANCH   3  22
ATOM     22  C   LIG d   1      -2.585  81.898 113.265  0.00  0.00     0.382 C 
ATOM     23  O   LIG d   1      -3.617  81.646 112.596  0.00  0.00    -0.241 OA
ATOM     24  O   LIG d   1      -1.867  82.864 112.945  0.00  0.00    -0.241 OA
ENDBRANCH   3  22
TORSDOF 7
ENDMDL
