MODEL 1
REMARK VINA RESULT:      -4.8      0.000      0.000
REMARK  7 active torsions:
REMARK  status: ('A' for Active; 'I' for Inactive)
REMARK    1  A    between atoms: C_2  and  C_3 
REMARK    2  A    between atoms: C_3  and  O_6 
REMARK    3  A    between atoms: C_3  and  C_4 
REMARK    4  A    between atoms: C_7  and  O_6 
REMARK    5  A    between atoms: C_9  and  C_10 
REMARK    6  A    between atoms: N_15  and  C_14 
REMARK    7  A    between atoms: N_20  and  C_19 
REMARK       I    between atoms: C_22  and  N_20 
ROOT
ATOM      1  C   LIG d   1      -3.405  76.788 116.259  0.00  0.00     0.161 C 
ATOM      2  C   LIG d   1      -3.700  77.298 114.984  0.00  0.00     0.016 C 
ATOM      3  C   LIG d   1      -2.728  77.480 113.974  0.00  0.00     0.038 C 
ATOM      4  C   LIG d   1      -1.411  77.020 114.122  0.00  0.00     0.028 C 
ATOM      5  C   LIG d   1      -0.949  76.959 115.574  0.00  0.00    -0.047 C 
ATOM      6  C   LIG d   1      -1.995  76.177 116.401  0.00  0.00     0.091 C 
ENDROOT
BRANCH   1   7
ATOM      7  O   LIG d   1      -4.408  75.829 116.646  0.00  0.00    -0.368 OA
BRANCH   7   8
ATOM      8  C   LIG d   1      -5.783  76.204 116.385  0.00  0.00     0.119 C 
BRANCH   8   9
ATOM      9  C   LIG d   1      -6.290  76.987 117.611  0.00  0.00     0.028 C 
ATOM     10  C   LIG d   1      -6.504  78.479 117.308  0.00  0.00     0.006 C 
ENDBRANCH   8   9
BRANCH   8  11
ATOM     11  C   LIG d   1      -6.688  74.972 116.288  0.00  0.00     0.028 C 
ATOM     12  C   LIG d   1      -8.166  75.296 116.554  0.00  0.00     0.006 C 
ENDBRANCH   8  11
ENDBRANCH   7   8
ENDBRANCH   1   7
BRANCH   6  13
ATOM     13  N   LIG d   1      -1.662  76.143 117.849  0.00  0.00    -0.311 N 
ATOM     14  C   LIG d   1      -0.979  75.153 118.421  0.00  0.00     0.210 C 
ATOM     15  C   LIG d   1      -0.762  75.305 119.930  0.00  0.00     0.109 C 
ATOM     16  O   LIG d   1      -0.504  74.180 117.817  0.00  0.00    -0.276 OA
ATOM     17  H   LIG d   1      -1.983  76.909 118.408  0.00  0.00     0.149 HD
ENDBRANCH   6  13
BRANCH   5  18
ATOM     18  N   LIG d   1       0.387  76.334 115.591  0.00  0.00     0.381 N 
ATOM     19  H   LIG d   1       0.593  76.002 116.512  0.00  0.00    -0.090 HD
ATOM     20  H   LIG d   1       1.073  77.025 115.344  0.00  0.00    -0.090 HD
ATOM     21  H   LIG d   1       0.418  75.578 114.943  0.00  0.00    -0.090 HD
ENDBRANCH   5  18
BRANCH   3  22
ATOM     22  C   LIG d   1      -3.060  78.165 112.816  0.00  0.00     0.382 C 
ATOM     23  O   LIG d   1      -3.033  77.575 111.709  0.00  0.00    -0.241 OA
ATOM     24  O   LIG d   1      -3.343  79.378 112.858  0.00  0.00    -0.241 OA
ENDBRANCH   3  22
TORSDOF 7
ENDMDL
MODEL 2
REMARK VINA RESULT:      -4.6      2.897      4.652
REMARK  7 active torsions:
REMARK  status: ('A' for Active; 'I' for Inactive)
REMARK    1  A    between atoms: C_2  and  C_3 
REMARK    2  A    between atoms: C_3  and  O_6 
REMARK    3  A    between atoms: C_3  and  C_4 
REMARK    4  A    between atoms: C_7  and  O_6 
REMARK    5  A    between atoms: C_9  and  C_10 
REMARK    6  A    between atoms: N_15  and  C_14 
REMARK    7  A    between atoms: N_20  and  C_19 
REMARK       I    between atoms: C_22  and  N_20 
ROOT
ATOM      1  C   LIG d   1      -4.399  75.804 117.516  0.00  0.00     0.161 C 
ATOM      2  C   LIG d   1      -3.160  76.251 117.028  0.00  0.00     0.016 C 
ATOM      3  C   LIG d   1      -2.895  76.467 115.656  0.00  0.00     0.038 C 
ATOM      4  C   LIG d   1      -3.906  76.394 114.686  0.00  0.00     0.028 C 
ATOM      5  C   LIG d   1      -5.046  75.457 115.068  0.00  0.00    -0.047 C 
ATOM      6  C   LIG d   1      -5.546  75.827 116.484  0.00  0.00     0.091 C 
ENDROOT
BRANCH   1   7
ATOM      7  O   LIG d   1      -4.765  76.560 118.687  0.00  0.00    -0.368 OA
BRANCH   7   8
ATOM      8  C   LIG d   1      -4.880  77.993 118.511  0.00  0.00     0.119 C 
BRANCH   8   9
ATOM      9  C   LIG d   1      -4.059  78.665 119.628  0.00  0.00     0.028 C 
ATOM     10  C   LIG d   1      -2.753  79.286 119.104  0.00  0.00     0.006 C 
ENDBRANCH   8   9
BRANCH   8  11
ATOM     11  C   LIG d   1      -6.321  78.467 118.726  0.00  0.00     0.028 C 
ATOM     12  C   LIG d   1      -6.787  79.464 117.654  0.00  0.00     0.006 C 
ENDBRANCH   8  11
ENDBRANCH   7   8
ENDBRANCH   1   7
BRANCH   6  13
ATOM     13  N   LIG d   1      -6.606  74.905 116.969  0.00  0.00    -0.311 N 
ATOM     14  C   LIG d   1      -7.865  75.284 117.184  0.00  0.00     0.210 C 
ATOM     15  C   LIG d   1      -8.792  74.180 117.703  0.00  0.00     0.109 C 
ATOM     16  O   LIG d   1      -8.309  76.420 116.964  0.00  0.00    -0.276 OA
ATOM     17  H   LIG d   1      -6.340  73.956 117.144  0.00  0.00     0.149 HD
ENDBRANCH   6  13
BRANCH   5  18
ATOM     18  N   LIG d   1      -6.092  75.583 114.035  0.00  0.00     0.381 N 
ATOM     19  H   LIG d   1      -6.962  75.830 114.462  0.00  0.00    -0.090 HD
ATOM     20  H   LIG d   1      -6.205  74.696 113.578  0.00  0.00    -0.090 HD
ATOM     21  H   LIG d   1      -5.831  76.277 113.369  0.00  0.00    -0.090 HD
ENDBRANCH   5  18
BRANCH   3  22
ATOM     22  C   LIG d   1      -1.598  76.720 115.238  0.00  0.00     0.382 C 
ATOM     23  O   LIG d   1      -1.113  76.079 114.274  0.00  0.00    -0.241 OA
ATOM     24  O   LIG d   1      -0.890  77.549 115.841  0.00  0.00    -0.241 OA
ENDBRANCH   3  22
TORSDOF 7
ENDMDL
MODEL 3
REMARK VINA RESULT:      -4.5      3.113      4.545
REMARK  7 active torsions:
REMARK  status: ('A' for Active; 'I' for Inactive)
REMARK    1  A    between atoms: C_2  and  C_3 
REMARK    2  A    between atoms: C_3  and  O_6 
REMARK    3  A    between atoms: C_3  and  C_4 
REMARK    4  A    between atoms: C_7  and  O_6 
REMARK    5  A    between atoms: C_9  and  C_10 
REMARK    6  A    between atoms: N_15  and  C_14 
REMARK    7  A    between atoms: N_20  and  C_19 
REMARK       I    between atoms: C_22  and  N_20 
ROOT
ATOM      1  C   LIG d   1      -5.634  76.481 118.300  0.00  0.00     0.161 C 
ATOM      2  C   LIG d   1      -6.599  77.457 118.002  0.00  0.00     0.016 C 
ATOM      3  C   LIG d   1      -6.407  78.838 118.236  0.00  0.00     0.038 C 
ATOM      4  C   LIG d   1      -5.170  79.355 118.648  0.00  0.00     0.028 C 
ATOM      5  C   LIG d   1      -4.331  78.359 119.441  0.00  0.00    -0.047 C 
ATOM      6  C   LIG d   1      -4.237  77.037 118.646  0.00  0.00     0.091 C 
ENDROOT
BRANCH   1   7
ATOM      7  O   LIG d   1      -5.543  75.536 117.215  0.00  0.00    -0.368 OA
BRANCH   7   8
ATOM      8  C   LIG d   1      -6.663  75.510 116.297  0.00  0.00     0.119 C 
BRANCH   8   9
ATOM      9  C   LIG d   1      -7.427  74.194 116.536  0.00  0.00     0.028 C 
ATOM     10  C   LIG d   1      -8.753  74.412 117.284  0.00  0.00     0.006 C 
ENDBRANCH   8   9
BRANCH   8  11
ATOM     11  C   LIG d   1      -6.190  75.445 114.842  0.00  0.00     0.028 C 
ATOM     12  C   LIG d   1      -4.678  75.679 114.696  0.00  0.00     0.006 C 
ENDBRANCH   8  11
ENDBRANCH   7   8
ENDBRANCH   1   7
BRANCH   6  13
ATOM     13  N   LIG d   1      -3.503  75.980 119.389  0.00  0.00    -0.311 N 
ATOM     14  C   LIG d   1      -2.552  75.225 118.842  0.00  0.00     0.210 C 
ATOM     15  C   LIG d   1      -1.937  74.180 119.778  0.00  0.00     0.109 C 
ATOM     16  O   LIG d   1      -2.137  75.343 117.679  0.00  0.00    -0.276 OA
ATOM     17  H   LIG d   1      -3.755  75.837 120.348  0.00  0.00     0.149 HD
ENDBRANCH   6  13
BRANCH   5  18
ATOM     18  N   LIG d   1      -3.016  78.981 119.687  0.00  0.00     0.381 N 
ATOM     19  H   LIG d   1      -3.120  79.760 120.306  0.00  0.00    -0.090 HD
ATOM     20  H   LIG d   1      -2.647  79.317 118.815  0.00  0.00    -0.090 HD
ATOM     21  H   LIG d   1      -2.392  78.313 120.084  0.00  0.00    -0.090 HD
ENDBRANCH   5  18
BRANCH   3  22
ATOM     22  C   LIG d   1      -7.474  79.713 118.097  0.00  0.00     0.382 C 
ATOM     23  O   LIG d   1      -7.580  80.412 117.060  0.00  0.00    -0.241 OA
ATOM     24  O   LIG d   1      -8.307  79.845 119.013  0.00  0.00    -0.241 OA
ENDBRANCH   3  22
TORSDOF 7
ENDMDL
MODEL 4
REMARK VINA RESULT:      -4.4      3.166      4.735
REMARK  7 active torsions:
REMARK  status: ('A' for Active; 'I' for Inactive)
REMARK    1  A    between atoms: C_2  and  C_3 
REMARK    2  A    between atoms: C_3  and  O_6 
REMARK    3  A    between atoms: C_3  and  C_4 
REMARK    4  A    between atoms: C_7  and  O_6 
REMARK    5  A    between atoms: C_9  and  C_10 
REMARK    6  A    between atoms: N_15  and  C_14 
REMARK    7  A    between atoms: N_20  and  C_19 
REMARK       I    between atoms: C_22  and  N_20 
ROOT
ATOM      1  C   LIG d   1      -4.449  76.052 117.106  0.00  0.00     0.161 C 
ATOM      2  C   LIG d   1      -3.290  75.260 117.069  0.00  0.00     0.016 C 
ATOM      3  C   LIG d   1      -2.047  75.674 117.601  0.00  0.00     0.038 C 
ATOM      4  C   LIG d   1      -1.916  76.856 118.345  0.00  0.00     0.028 C 
ATOM      5  C   LIG d   1      -2.940  77.923 117.973  0.00  0.00    -0.047 C 
ATOM      6  C   LIG d   1      -4.353  77.298 118.012  0.00  0.00     0.091 C 
ENDROOT
BRANCH   1   7
ATOM      7  O   LIG d   1      -5.582  75.244 117.483  0.00  0.00    -0.368 OA
BRANCH   7   8
ATOM      8  C   LIG d   1      -6.307  74.617 116.398  0.00  0.00     0.119 C 
BRANCH   8   9
ATOM      9  C   LIG d   1      -6.491  75.674 115.292  0.00  0.00     0.028 C 
ATOM     10  C   LIG d   1      -5.729  75.316 114.005  0.00  0.00     0.006 C 
ENDBRANCH   8   9
BRANCH   8  11
ATOM     11  C   LIG d   1      -7.725  74.228 116.826  0.00  0.00     0.028 C 
ATOM     12  C   LIG d   1      -8.537  75.422 117.354  0.00  0.00     0.006 C 
ENDBRANCH   8  11
ENDBRANCH   7   8
ENDBRANCH   1   7
BRANCH   6  13
ATOM     13  N   LIG d   1      -5.407  78.252 117.578  0.00  0.00    -0.311 N 
ATOM     14  C   LIG d   1      -6.465  78.564 118.325  0.00  0.00     0.210 C 
ATOM     15  C   LIG d   1      -7.442  79.553 117.681  0.00  0.00     0.109 C 
ATOM     16  O   LIG d   1      -6.671  78.141 119.472  0.00  0.00    -0.276 OA
ATOM     17  H   LIG d   1      -5.303  78.666 116.673  0.00  0.00     0.149 HD
ENDBRANCH   6  13
BRANCH   5  18
ATOM     18  N   LIG d   1      -2.778  79.045 118.917  0.00  0.00     0.381 N 
ATOM     19  H   LIG d   1      -3.676  79.399 119.179  0.00  0.00    -0.090 HD
ATOM     20  H   LIG d   1      -2.270  79.782 118.461  0.00  0.00    -0.090 HD
ATOM     21  H   LIG d   1      -2.283  78.741 119.726  0.00  0.00    -0.090 HD
ENDBRANCH   5  18
BRANCH   3  22
ATOM     22  C   LIG d   1      -0.909  74.921 117.356  0.00  0.00     0.382 C 
ATOM     23  O   LIG d   1      -0.841  74.204 116.328  0.00  0.00    -0.241 OA
ATOM     24  O   LIG d   1       0.032  74.915 118.171  0.00  0.00    -0.241 OA
ENDBRANCH   3  22
TORSDOF 7
ENDMDL
MODEL 5
REMARK VINA RESULT:      -4.3      3.088      5.434
REMARK  7 active torsions:
REMARK  status: ('A' for Active; 'I' for Inactive)
REMARK    1  A    between atoms: C_2  and  C_3 
REMARK    2  A    between atoms: C_3  and  O_6 
REMARK    3  A    between atoms: C_3  and  C_4 
REMARK    4  A    between atoms: C_7  and  O_6 
REMARK    5  A    between atoms: C_9  and  C_10 
REMARK    6  A    between atoms: N_15  and  C_14 
REMARK    7  A    between atoms: N_20  and  C_19 
REMARK       I    between atoms: C_22  and  N_20 
ROOT
ATOM      1  C   LIG d   1      -4.286  77.981 117.613  0.00  0.00     0.161 C 
ATOM      2  C   LIG d   1      -5.466  78.676 117.925  0.00  0.00     0.016 C 
ATOM      3  C   LIG d   1      -6.754  78.228 117.553  0.00  0.00     0.038 C 
ATOM      4  C   LIG d   1      -6.962  76.967 116.973  0.00  0.00     0.028 C 
ATOM      5  C   LIG d   1      -5.759  76.457 116.187  0.00  0.00    -0.047 C 
ATOM      6  C   LIG d   1      -4.500  76.550 117.079  0.00  0.00     0.091 C 
ENDROOT
BRANCH   1   7
ATOM      7  O   LIG d   1      -3.413  77.962 118.761  0.00  0.00    -0.368 OA
BRANCH   7   8
ATOM      8  C   LIG d   1      -2.207  78.757 118.657  0.00  0.00     0.119 C 
BRANCH   8   9
ATOM      9  C   LIG d   1      -1.008  77.791 118.730  0.00  0.00     0.028 C 
ATOM     10  C   LIG d   1      -0.018  77.995 117.571  0.00  0.00     0.006 C 
ENDBRANCH   8   9
BRANCH   8  11
ATOM     11  C   LIG d   1      -2.049  79.691 119.861  0.00  0.00     0.028 C 
ATOM     12  C   LIG d   1      -3.115  80.797 119.900  0.00  0.00     0.006 C 
ENDBRANCH   8  11
ENDBRANCH   7   8
ENDBRANCH   1   7
BRANCH   6  13
ATOM     13  N   LIG d   1      -3.264  76.149 116.358  0.00  0.00    -0.311 N 
ATOM     14  C   LIG d   1      -2.540  75.079 116.682  0.00  0.00     0.210 C 
ATOM     15  C   LIG d   1      -1.291  74.858 115.823  0.00  0.00     0.109 C 
ATOM     16  O   LIG d   1      -2.831  74.274 117.580  0.00  0.00    -0.276 OA
ATOM     17  H   LIG d   1      -2.972  76.729 115.596  0.00  0.00     0.149 HD
ENDBRANCH   6  13
BRANCH   5  18
ATOM     18  N   LIG d   1      -6.061  75.080 115.754  0.00  0.00     0.381 N 
ATOM     19  H   LIG d   1      -6.327  74.527 116.544  0.00  0.00    -0.090 HD
ATOM     20  H   LIG d   1      -5.233  74.677 115.351  0.00  0.00    -0.090 HD
ATOM     21  H   LIG d   1      -6.797  75.087 115.081  0.00  0.00    -0.090 HD
ENDBRANCH   5  18
BRANCH   3  22
ATOM     22  C   LIG d   1      -7.849  79.061 117.726  0.00  0.00     0.382 C 
ATOM     23  O   LIG d   1      -8.860  78.648 118.343  0.00  0.00    -0.241 OA
ATOM     24  O   LIG d   1      -7.855  80.206 117.235  0.00  0.00    -0.241 OA
ENDBRANCH   3  22
TORSDOF 7
ENDMDL
MODEL 6
REMARK VINA RESULT:      -4.3      2.504      3.413
REMARK  7 active torsions:
REMARK  status: ('A' for Active; 'I' for Inactive)
REMARK    1  A    between atoms: C_2  and  C_3 
REMARK    2  A    between atoms: C_3  and  O_6 
REMARK    3  A    between atoms: C_3  and  C_4 
REMARK    4  A    between atoms: C_7  and  O_6 
REMARK    5  A    between atoms: C_9  and  C_10 
REMARK    6  A    between atoms: N_15  and  C_14 
REMARK    7  A    between atoms: N_20  and  C_19 
REMARK       I    between atoms: C_22  and  N_20 
ROOT
ATOM      1  C   LIG d   1      -3.908  77.820 117.145  0.00  0.00     0.161 C 
ATOM      2  C   LIG d   1      -4.874  77.069 116.453  0.00  0.00     0.016 C 
ATOM      3  C   LIG d   1      -4.561  75.942 115.660  0.00  0.00     0.038 C 
ATOM      4  C   LIG d   1      -3.270  75.395 115.625  0.00  0.00     0.028 C 
ATOM      5  C   LIG d   1      -2.172  76.415 115.904  0.00  0.00    -0.047 C 
ATOM      6  C   LIG d   1      -2.510  77.172 117.208  0.00  0.00     0.091 C 
ENDROOT
BRANCH   1   7
ATOM      7  O   LIG d   1      -4.382  78.121 118.472  0.00  0.00    -0.368 OA
BRANCH   7   8
ATOM      8  C   LIG d   1      -5.407  79.140 118.567  0.00  0.00     0.119 C 
BRANCH   8   9
ATOM      9  C   LIG d   1      -4.939  80.172 119.612  0.00  0.00     0.028 C 
ATOM     10  C   LIG d   1      -3.413  80.165 119.800  0.00  0.00     0.006 C 
ENDBRANCH   8   9
BRANCH   8  11
ATOM     11  C   LIG d   1      -6.714  78.566 119.123  0.00  0.00     0.028 C 
ATOM     12  C   LIG d   1      -7.883  78.679 118.131  0.00  0.00     0.006 C 
ENDBRANCH   8  11
ENDBRANCH   7   8
ENDBRANCH   1   7
BRANCH   6  13
ATOM     13  N   LIG d   1      -1.529  78.248 117.510  0.00  0.00    -0.311 N 
ATOM     14  C   LIG d   1      -0.489  78.084 118.325  0.00  0.00     0.210 C 
ATOM     15  C   LIG d   1       0.387  79.327 118.514  0.00  0.00     0.109 C 
ATOM     16  O   LIG d   1      -0.190  77.018 118.885  0.00  0.00    -0.276 OA
ATOM     17  H   LIG d   1      -1.678  79.136 117.073  0.00  0.00     0.149 HD
ENDBRANCH   6  13
BRANCH   5  18
ATOM     18  N   LIG d   1      -0.892  75.685 115.973  0.00  0.00     0.381 N 
ATOM     19  H   LIG d   1      -0.879  75.102 116.786  0.00  0.00    -0.090 HD
ATOM     20  H   LIG d   1      -0.142  76.350 116.049  0.00  0.00    -0.090 HD
ATOM     21  H   LIG d   1      -0.772  75.130 115.155  0.00  0.00    -0.090 HD
ENDBRANCH   5  18
BRANCH   3  22
ATOM     22  C   LIG d   1      -5.539  75.374 114.858  0.00  0.00     0.382 C 
ATOM     23  O   LIG d   1      -6.246  74.436 115.300  0.00  0.00    -0.241 OA
ATOM     24  O   LIG d   1      -5.694  75.757 113.683  0.00  0.00    -0.241 OA
ENDBRANCH   3  22
TORSDOF 7
ENDMDL
MODEL 7
REMARK VINA RESULT:      -4.3      2.739      5.389
REMARK  7 active torsions:
REMARK  status: ('A' for Active; 'I' for Inactive)
REMARK    1  A    between atoms: C_2  and  C_3 
REMARK    2  A    between atoms: C_3  and  O_6 
REMARK    3  A    between atoms: C_3  and  C_4 
REMARK    4  A    between atoms: C_7  and  O_6 
REMARK    5  A    between atoms: C_9  and  C_10 
REMARK    6  A    between atoms: N_15  and  C_14 
REMARK    7  A    between atoms: N_20  and  C_19 
REMARK       I    between atoms: C_22  and  N_20 
ROOT
ATOM      1  C   LIG d   1      -4.812  76.621 117.772  0.00  0.00     0.161 C 
ATOM      2  C   LIG d   1      -6.120  76.474 118.262  0.00  0.00     0.016 C 
ATOM      3  C   LIG d   1      -7.180  75.927 117.502  0.00  0.00     0.038 C 
ATOM      4  C   LIG d   1      -6.966  75.347 116.243  0.00  0.00     0.028 C 
ATOM      5  C   LIG d   1      -5.765  75.927 115.504  0.00  0.00    -0.047 C 
ATOM      6  C   LIG d   1      -4.535  75.892 116.440  0.00  0.00     0.091 C 
ENDROOT
BRANCH   1   7
ATOM      7  O   LIG d   1      -3.864  76.209 118.776  0.00  0.00    -0.368 OA
BRANCH   7   8
ATOM      8  C   LIG d   1      -3.009  77.248 119.310  0.00  0.00     0.119 C 
BRANCH   8   9
ATOM      9  C   LIG d   1      -3.359  78.558 118.579  0.00  0.00     0.028 C 
ATOM     10  C   LIG d   1      -3.351  79.776 119.518  0.00  0.00     0.006 C 
ENDBRANCH   8   9
BRANCH   8  11
ATOM     11  C   LIG d   1      -1.537  76.982 118.982  0.00  0.00     0.028 C 
ATOM     12  C   LIG d   1      -1.175  75.489 119.033  0.00  0.00     0.006 C 
ENDBRANCH   8  11
ENDBRANCH   7   8
ENDBRANCH   1   7
BRANCH   6  13
ATOM     13  N   LIG d   1      -3.336  76.520 115.825  0.00  0.00    -0.311 N 
ATOM     14  C   LIG d   1      -2.242  75.838 115.491  0.00  0.00     0.210 C 
ATOM     15  C   LIG d   1      -1.114  76.681 114.888  0.00  0.00     0.109 C 
ATOM     16  O   LIG d   1      -2.111  74.610 115.606  0.00  0.00    -0.276 OA
ATOM     17  H   LIG d   1      -3.369  77.508 115.667  0.00  0.00     0.149 HD
ENDBRANCH   6  13
BRANCH   5  18
ATOM     18  N   LIG d   1      -5.576  75.139 114.272  0.00  0.00     0.381 N 
ATOM     19  H   LIG d   1      -6.405  74.615 114.075  0.00  0.00    -0.090 HD
ATOM     20  H   LIG d   1      -4.820  74.493 114.412  0.00  0.00    -0.090 HD
ATOM     21  H   LIG d   1      -5.368  75.745 113.508  0.00  0.00    -0.090 HD
ENDBRANCH   5  18
BRANCH   3  22
ATOM     22  C   LIG d   1      -8.478  75.993 117.985  0.00  0.00     0.382 C 
ATOM     23  O   LIG d   1      -9.059  77.101 118.072  0.00  0.00    -0.241 OA
ATOM     24  O   LIG d   1      -9.059  74.963 118.377  0.00  0.00    -0.241 OA
ENDBRANCH   3  22
TORSDOF 7
ENDMDL
MODEL 8
REMARK VINA RESULT:      -4.2      2.346      5.052
REMARK  7 active torsions:
REMARK  status: ('A' for Active; 'I' for Inactive)
REMARK    1  A    between atoms: C_2  and  C_3 
REMARK    2  A    between atoms: C_3  and  O_6 
REMARK    3  A    between atoms: C_3  and  C_4 
REMARK    4  A    between atoms: C_7  and  O_6 
REMARK    5  A    between atoms: C_9  and  C_10 
REMARK    6  A    between atoms: N_15  and  C_14 
REMARK    7  A    between atoms: N_20  and  C_19 
REMARK       I    between atoms: C_22  and  N_20 
ROOT
ATOM      1  C   LIG d   1      -2.557  77.204 114.561  0.00  0.00     0.161 C 
ATOM      2  C   LIG d   1      -3.804  76.662 114.208  0.00  0.00     0.016 C 
ATOM      3  C   LIG d   1      -4.647  75.989 115.122  0.00  0.00     0.038 C 
ATOM      4  C   LIG d   1      -4.365  75.944 116.495  0.00  0.00     0.028 C 
ATOM      5  C   LIG d   1      -2.876  76.037 116.811  0.00  0.00    -0.047 C 
ATOM      6  C   LIG d   1      -2.283  77.262 116.078  0.00  0.00     0.091 C 
ENDROOT
BRANCH   1   7
ATOM      7  O   LIG d   1      -2.409  78.512 113.975  0.00  0.00    -0.368 OA
BRANCH   7   8
ATOM      8  C   LIG d   1      -1.488  78.611 112.861  0.00  0.00     0.119 C 
BRANCH   8   9
ATOM      9  C   LIG d   1      -1.532  80.065 112.352  0.00  0.00     0.028 C 
ATOM     10  C   LIG d   1      -0.127  80.658 112.149  0.00  0.00     0.006 C 
ENDBRANCH   8   9
BRANCH   8  11
ATOM     11  C   LIG d   1      -1.949  77.754 111.679  0.00  0.00     0.028 C 
ATOM     12  C   LIG d   1      -0.785  77.050 110.963  0.00  0.00     0.006 C 
ENDBRANCH   8  11
ENDBRANCH   7   8
ENDBRANCH   1   7
BRANCH   6  13
ATOM     13  N   LIG d   1      -0.813  77.377 116.266  0.00  0.00    -0.311 N 
ATOM     14  C   LIG d   1      -0.252  78.093 117.239  0.00  0.00     0.210 C 
ATOM     15  C   LIG d   1       1.279  78.094 117.241  0.00  0.00     0.109 C 
ATOM     16  O   LIG d   1      -0.878  78.699 118.122  0.00  0.00    -0.276 OA
ATOM     17  H   LIG d   1      -0.230  76.891 115.613  0.00  0.00     0.149 HD
ENDBRANCH   6  13
BRANCH   5  18
ATOM     18  N   LIG d   1      -2.736  76.117 118.278  0.00  0.00     0.381 N 
ATOM     19  H   LIG d   1      -2.927  75.224 118.686  0.00  0.00    -0.090 HD
ATOM     20  H   LIG d   1      -3.406  76.776 118.633  0.00  0.00    -0.090 HD
ATOM     21  H   LIG d   1      -1.814  76.408 118.517  0.00  0.00    -0.090 HD
ENDBRANCH   5  18
BRANCH   3  22
ATOM     22  C   LIG d   1      -5.767  75.318 114.657  0.00  0.00     0.382 C 
ATOM     23  O   LIG d   1      -6.304  75.665 113.578  0.00  0.00    -0.241 OA
ATOM     24  O   LIG d   1      -6.275  74.397 115.326  0.00  0.00    -0.241 OA
ENDBRANCH   3  22
TORSDOF 7
ENDMDL
MODEL 9
REMARK VINA RESULT:      -4.1      2.875      4.063
REMARK  7 active torsions:
REMARK  status: ('A' for Active; 'I' for Inactive)
REMARK    1  A    between atoms: C_2  and  C_3 
REMARK    2  A    between atoms: C_3  and  O_6 
REMARK    3  A    between atoms: C_3  and  C_4 
REMARK    4  A    between atoms: C_7  and  O_6 
REMARK    5  A    between atoms: C_9  and  C_10 
REMARK    6  A    between atoms: N_15  and  C_14 
REMARK    7  A    between atoms: N_20  and  C_19 
REMARK       I    between atoms: C_22  and  N_20 
ROOT
ATOM      1  C   LIG d   1      -5.464  77.910 117.746  0.00  0.00     0.161 C 
ATOM      2  C   LIG d   1      -5.908  76.949 116.823  0.00  0.00     0.016 C 
ATOM      3  C   LIG d   1      -5.039  76.224 115.977  0.00  0.00     0.038 C 
ATOM      4  C   LIG d   1      -3.644  76.302 116.104  0.00  0.00     0.028 C 
ATOM      5  C   LIG d   1      -3.161  77.631 116.675  0.00  0.00    -0.047 C 
ATOM      6  C   LIG d   1      -3.938  77.929 117.977  0.00  0.00     0.091 C 
ENDROOT
BRANCH   1   7
ATOM      7  O   LIG d   1      -6.158  77.742 118.998  0.00  0.00    -0.368 OA
BRANCH   7   8
ATOM      8  C   LIG d   1      -7.013  78.839 119.405  0.00  0.00     0.119 C 
BRANCH   8   9
ATOM      9  C   LIG d   1      -8.451  78.293 119.501  0.00  0.00     0.028 C 
ATOM     10  C   LIG d   1      -8.496  76.756 119.509  0.00  0.00     0.006 C 
ENDBRANCH   8   9
BRANCH   8  11
ATOM     11  C   LIG d   1      -7.065  79.932 118.334  0.00  0.00     0.028 C 
ATOM     12  C   LIG d   1      -8.476  80.139 117.761  0.00  0.00     0.006 C 
ENDBRANCH   8  11
ENDBRANCH   7   8
ENDBRANCH   1   7
BRANCH   6  13
ATOM     13  N   LIG d   1      -3.587  79.252 118.557  0.00  0.00    -0.311 N 
ATOM     14  C   LIG d   1      -2.611  79.427 119.446  0.00  0.00     0.210 C 
ATOM     15  C   LIG d   1      -2.428  80.869 119.930  0.00  0.00     0.109 C 
ATOM     16  O   LIG d   1      -1.858  78.530 119.856  0.00  0.00    -0.276 OA
ATOM     17  H   LIG d   1      -4.127  80.039 118.256  0.00  0.00     0.149 HD
ENDBRANCH   6  13
BRANCH   5  18
ATOM     18  N   LIG d   1      -1.704  77.524 116.882  0.00  0.00     0.381 N 
ATOM     19  H   LIG d   1      -1.519  77.078 117.758  0.00  0.00    -0.090 HD
ATOM     20  H   LIG d   1      -1.311  78.448 116.910  0.00  0.00    -0.090 HD
ATOM     21  H   LIG d   1      -1.292  77.001 116.141  0.00  0.00    -0.090 HD
ENDBRANCH   5  18
BRANCH   3  22
ATOM     22  C   LIG d   1      -5.565  75.438 114.962  0.00  0.00     0.382 C 
ATOM     23  O   LIG d   1      -5.519  75.836 113.773  0.00  0.00    -0.241 OA
ATOM     24  O   LIG d   1      -6.124  74.356 115.226  0.00  0.00    -0.241 OA
ENDBRANCH   3  22
TORSDOF 7
ENDMDL
