MODEL 1
REMARK VINA RESULT:      -5.4      0.000      0.000
REMARK  7 active torsions:
REMARK  status: ('A' for Active; 'I' for Inactive)
REMARK    1  A    between atoms: C_2  and  C_3 
REMARK    2  A    between atoms: C_3  and  O_6 
REMARK    3  A    between atoms: C_3  and  C_4 
REMARK    4  A    between atoms: C_7  and  O_6 
REMARK    5  A    between atoms: C_9  and  C_10 
REMARK    6  A    between atoms: N_15  and  C_14 
REMARK    7  A    between atoms: N_20  and  C_19 
REMARK       I    between atoms: C_22  and  N_20 
ROOT
ATOM      1  C   LIG d   1      -1.455  78.339 114.861  0.00  0.00     0.161 C 
ATOM      2  C   LIG d   1      -2.010  79.552 114.422  0.00  0.00     0.016 C 
ATOM      3  C   LIG d   1      -2.078  79.930 113.062  0.00  0.00     0.038 C 
ATOM      4  C   LIG d   1      -1.730  79.047 112.029  0.00  0.00     0.028 C 
ATOM      5  C   LIG d   1      -0.695  78.007 112.445  0.00  0.00    -0.047 C 
ATOM      6  C   LIG d   1      -1.171  77.315 113.742  0.00  0.00     0.091 C 
ENDROOT
BRANCH   1   7
ATOM      7  O   LIG d   1      -2.298  77.754 115.874  0.00  0.00    -0.368 OA
BRANCH   7   8
ATOM      8  C   LIG d   1      -3.726  77.869 115.659  0.00  0.00     0.119 C 
BRANCH   8   9
ATOM      9  C   LIG d   1      -4.353  78.375 116.973  0.00  0.00     0.028 C 
ATOM     10  C   LIG d   1      -4.448  79.909 117.025  0.00  0.00     0.006 C 
ENDBRANCH   8   9
BRANCH   8  11
ATOM     11  C   LIG d   1      -4.364  76.500 115.406  0.00  0.00     0.028 C 
ATOM     12  C   LIG d   1      -4.745  76.284 113.933  0.00  0.00     0.006 C 
ENDBRANCH   8  11
ENDBRANCH   7   8
ENDBRANCH   1   7
BRANCH   6  13
ATOM     13  N   LIG d   1      -0.177  76.342 114.264  0.00  0.00    -0.311 N 
ATOM     14  C   LIG d   1      -0.499  75.123 114.695  0.00  0.00     0.210 C 
ATOM     15  C   LIG d   1       0.676  74.288 115.211  0.00  0.00     0.109 C 
ATOM     16  O   LIG d   1      -1.643  74.643 114.667  0.00  0.00    -0.276 OA
ATOM     17  H   LIG d   1       0.779  76.638 114.293  0.00  0.00     0.149 HD
ENDBRANCH   6  13
BRANCH   5  18
ATOM     18  N   LIG d   1      -0.527  77.069 111.318  0.00  0.00     0.381 N 
ATOM     19  H   LIG d   1      -1.302  77.152 110.690  0.00  0.00    -0.090 HD
ATOM     20  H   LIG d   1      -0.510  76.130 111.676  0.00  0.00    -0.090 HD
ATOM     21  H   LIG d   1       0.323  77.264 110.836  0.00  0.00    -0.090 HD
ENDBRANCH   5  18
BRANCH   3  22
ATOM     22  C   LIG d   1      -2.461  81.219 112.724  0.00  0.00     0.382 C 
ATOM     23  O   LIG d   1      -3.661  81.567 112.841  0.00  0.00    -0.241 OA
ATOM     24  O   LIG d   1      -1.630  82.025 112.263  0.00  0.00    -0.241 OA
ENDBRANCH   3  22
TORSDOF 7
ENDMDL
MODEL 2
REMARK VINA RESULT:      -5.1      1.877      2.220
REMARK  7 active torsions:
REMARK  status: ('A' for Active; 'I' for Inactive)
REMARK    1  A    between atoms: C_2  and  C_3 
REMARK    2  A    between atoms: C_3  and  O_6 
REMARK    3  A    between atoms: C_3  and  C_4 
REMARK    4  A    between atoms: C_7  and  O_6 
REMARK    5  A    between atoms: C_9  and  C_10 
REMARK    6  A    between atoms: N_15  and  C_14 
REMARK    7  A    between atoms: N_20  and  C_19 
REMARK       I    between atoms: C_22  and  N_20 
ROOT
ATOM      1  C   LIG d   1      -2.483  77.792 116.187  0.00  0.00     0.161 C 
ATOM      2  C   LIG d   1      -2.780  78.778 115.231  0.00  0.00     0.016 C 
ATOM      3  C   LIG d   1      -2.206  78.807 113.939  0.00  0.00     0.038 C 
ATOM      4  C   LIG d   1      -1.406  77.760 113.460  0.00  0.00     0.028 C 
ATOM      5  C   LIG d   1      -0.676  77.001 114.563  0.00  0.00    -0.047 C 
ATOM      6  C   LIG d   1      -1.698  76.580 115.643  0.00  0.00     0.091 C 
ENDROOT
BRANCH   1   7
ATOM      7  O   LIG d   1      -3.697  77.356 116.831  0.00  0.00    -0.368 OA
BRANCH   7   8
ATOM      8  C   LIG d   1      -4.886  77.334 116.003  0.00  0.00     0.119 C 
BRANCH   8   9
ATOM      9  C   LIG d   1      -6.056  77.855 116.860  0.00  0.00     0.028 C 
ATOM     10  C   LIG d   1      -7.210  76.843 116.954  0.00  0.00     0.006 C 
ENDBRANCH   8   9
BRANCH   8  11
ATOM     11  C   LIG d   1      -5.271  75.903 115.618  0.00  0.00     0.028 C 
ATOM     12  C   LIG d   1      -5.044  75.606 114.127  0.00  0.00     0.006 C 
ENDBRANCH   8  11
ENDBRANCH   7   8
ENDBRANCH   1   7
BRANCH   6  13
ATOM     13  N   LIG d   1      -1.055  75.906 116.801  0.00  0.00    -0.311 N 
ATOM     14  C   LIG d   1      -1.535  74.799 117.364  0.00  0.00     0.210 C 
ATOM     15  C   LIG d   1      -0.729  74.279 118.559  0.00  0.00     0.109 C 
ATOM     16  O   LIG d   1      -2.535  74.180 116.968  0.00  0.00    -0.276 OA
ATOM     17  H   LIG d   1      -0.221  76.323 117.166  0.00  0.00     0.149 HD
ENDBRANCH   6  13
BRANCH   5  18
ATOM     18  N   LIG d   1       0.010  75.855 113.938  0.00  0.00     0.381 N 
ATOM     19  H   LIG d   1      -0.519  75.531 113.152  0.00  0.00    -0.090 HD
ATOM     20  H   LIG d   1       0.069  75.107 114.607  0.00  0.00    -0.090 HD
ATOM     21  H   LIG d   1       0.924  76.122 113.645  0.00  0.00    -0.090 HD
ENDBRANCH   5  18
BRANCH   3  22
ATOM     22  C   LIG d   1      -2.399  79.914 113.126  0.00  0.00     0.382 C 
ATOM     23  O   LIG d   1      -3.213  80.806 113.465  0.00  0.00    -0.241 OA
ATOM     24  O   LIG d   1      -1.803  80.009 112.037  0.00  0.00    -0.241 OA
ENDBRANCH   3  22
TORSDOF 7
ENDMDL
MODEL 3
REMARK VINA RESULT:      -5.1      1.324      1.645
REMARK  7 active torsions:
REMARK  status: ('A' for Active; 'I' for Inactive)
REMARK    1  A    between atoms: C_2  and  C_3 
REMARK    2  A    between atoms: C_3  and  O_6 
REMARK    3  A    between atoms: C_3  and  C_4 
REMARK    4  A    between atoms: C_7  and  O_6 
REMARK    5  A    between atoms: C_9  and  C_10 
REMARK    6  A    between atoms: N_15  and  C_14 
REMARK    7  A    between atoms: N_20  and  C_19 
REMARK       I    between atoms: C_22  and  N_20 
ROOT
ATOM      1  C   LIG d   1      -2.140  78.689 116.104  0.00  0.00     0.161 C 
ATOM      2  C   LIG d   1      -2.495  79.701 115.197  0.00  0.00     0.016 C 
ATOM      3  C   LIG d   1      -2.169  79.663 113.822  0.00  0.00     0.038 C 
ATOM      4  C   LIG d   1      -1.592  78.530 113.228  0.00  0.00     0.028 C 
ATOM      5  C   LIG d   1      -0.761  77.695 114.196  0.00  0.00    -0.047 C 
ATOM      6  C   LIG d   1      -1.608  77.395 115.454  0.00  0.00     0.091 C 
ENDROOT
BRANCH   1   7
ATOM      7  O   LIG d   1      -3.255  78.394 116.968  0.00  0.00    -0.368 OA
BRANCH   7   8
ATOM      8  C   LIG d   1      -4.543  78.250 116.321  0.00  0.00     0.119 C 
BRANCH   8   9
ATOM      9  C   LIG d   1      -5.592  78.930 117.221  0.00  0.00     0.028 C 
ATOM     10  C   LIG d   1      -5.225  80.386 117.553  0.00  0.00     0.006 C 
ENDBRANCH   8   9
BRANCH   8  11
ATOM     11  C   LIG d   1      -4.967  76.780 116.243  0.00  0.00     0.028 C 
ATOM     12  C   LIG d   1      -5.036  76.255 114.800  0.00  0.00     0.006 C 
ENDBRANCH   8  11
ENDBRANCH   7   8
ENDBRANCH   1   7
BRANCH   6  13
ATOM     13  N   LIG d   1      -0.842  76.653 116.489  0.00  0.00    -0.311 N 
ATOM     14  C   LIG d   1      -0.912  75.332 116.647  0.00  0.00     0.210 C 
ATOM     15  C   LIG d   1      -0.056  74.771 117.787  0.00  0.00     0.109 C 
ATOM     16  O   LIG d   1      -1.578  74.569 115.932  0.00  0.00    -0.276 OA
ATOM     17  H   LIG d   1      -0.252  77.191 117.093  0.00  0.00     0.149 HD
ENDBRANCH   6  13
BRANCH   5  18
ATOM     18  N   LIG d   1      -0.334  76.477 113.481  0.00  0.00     0.381 N 
ATOM     19  H   LIG d   1       0.436  76.690 112.880  0.00  0.00    -0.090 HD
ATOM     20  H   LIG d   1      -1.096  76.150 112.914  0.00  0.00    -0.090 HD
ATOM     21  H   LIG d   1      -0.071  75.773 114.135  0.00  0.00    -0.090 HD
ENDBRANCH   5  18
BRANCH   3  22
ATOM     22  C   LIG d   1      -2.384  80.783 113.033  0.00  0.00     0.382 C 
ATOM     23  O   LIG d   1      -1.427  81.306 112.414  0.00  0.00    -0.241 OA
ATOM     24  O   LIG d   1      -3.514  81.303 112.969  0.00  0.00    -0.241 OA
ENDBRANCH   3  22
TORSDOF 7
ENDMDL
MODEL 4
REMARK VINA RESULT:      -4.8      3.754      6.919
REMARK  7 active torsions:
REMARK  status: ('A' for Active; 'I' for Inactive)
REMARK    1  A    between atoms: C_2  and  C_3 
REMARK    2  A    between atoms: C_3  and  O_6 
REMARK    3  A    between atoms: C_3  and  C_4 
REMARK    4  A    between atoms: C_7  and  O_6 
REMARK    5  A    between atoms: C_9  and  C_10 
REMARK    6  A    between atoms: N_15  and  C_14 
REMARK    7  A    between atoms: N_20  and  C_19 
REMARK       I    between atoms: C_22  and  N_20 
ROOT
ATOM      1  C   LIG d   1      -4.407  78.964 116.837  0.00  0.00     0.161 C 
ATOM      2  C   LIG d   1      -4.258  77.669 116.313  0.00  0.00     0.016 C 
ATOM      3  C   LIG d   1      -5.278  76.691 116.352  0.00  0.00     0.038 C 
ATOM      4  C   LIG d   1      -6.578  76.992 116.786  0.00  0.00     0.028 C 
ATOM      5  C   LIG d   1      -6.631  78.139 117.789  0.00  0.00    -0.047 C 
ATOM      6  C   LIG d   1      -5.854  79.346 117.213  0.00  0.00     0.091 C 
ENDROOT
BRANCH   1   7
ATOM      7  O   LIG d   1      -3.858  79.929 115.918  0.00  0.00    -0.368 OA
BRANCH   7   8
ATOM      8  C   LIG d   1      -2.616  79.557 115.270  0.00  0.00     0.119 C 
BRANCH   8   9
ATOM      9  C   LIG d   1      -1.462  80.066 116.154  0.00  0.00     0.028 C 
ATOM     10  C   LIG d   1      -0.084  79.840 115.508  0.00  0.00     0.006 C 
ENDBRANCH   8   9
BRANCH   8  11
ATOM     11  C   LIG d   1      -2.450  80.279 113.930  0.00  0.00     0.028 C 
ATOM     12  C   LIG d   1      -2.507  79.324 112.727  0.00  0.00     0.006 C 
ENDBRANCH   8  11
ENDBRANCH   7   8
ENDBRANCH   1   7
BRANCH   6  13
ATOM     13  N   LIG d   1      -5.785  80.483 118.168  0.00  0.00    -0.311 N 
ATOM     14  C   LIG d   1      -6.492  81.603 118.026  0.00  0.00     0.210 C 
ATOM     15  C   LIG d   1      -6.257  82.657 119.112  0.00  0.00     0.109 C 
ATOM     16  O   LIG d   1      -7.316  81.810 117.123  0.00  0.00    -0.276 OA
ATOM     17  H   LIG d   1      -5.165  80.387 118.948  0.00  0.00     0.149 HD
ENDBRANCH   6  13
BRANCH   5  18
ATOM     18  N   LIG d   1      -8.051  78.437 118.051  0.00  0.00     0.381 N 
ATOM     19  H   LIG d   1      -8.602  77.615 117.905  0.00  0.00    -0.090 HD
ATOM     20  H   LIG d   1      -8.360  79.142 117.404  0.00  0.00    -0.090 HD
ATOM     21  H   LIG d   1      -8.165  78.761 118.986  0.00  0.00    -0.090 HD
ENDBRANCH   5  18
BRANCH   3  22
ATOM     22  C   LIG d   1      -4.991  75.383 115.991  0.00  0.00     0.382 C 
ATOM     23  O   LIG d   1      -3.850  74.908 116.211  0.00  0.00    -0.241 OA
ATOM     24  O   LIG d   1      -5.843  74.687 115.408  0.00  0.00    -0.241 OA
ENDBRANCH   3  22
TORSDOF 7
ENDMDL
MODEL 5
REMARK VINA RESULT:      -4.8      2.194      2.853
REMARK  7 active torsions:
REMARK  status: ('A' for Active; 'I' for Inactive)
REMARK    1  A    between atoms: C_2  and  C_3 
REMARK    2  A    between atoms: C_3  and  O_6 
REMARK    3  A    between atoms: C_3  and  C_4 
REMARK    4  A    between atoms: C_7  and  O_6 
REMARK    5  A    between atoms: C_9  and  C_10 
REMARK    6  A    between atoms: N_15  and  C_14 
REMARK    7  A    between atoms: N_20  and  C_19 
REMARK       I    between atoms: C_22  and  N_20 
ROOT
ATOM      1  C   LIG d   1      -2.909  77.873 114.951  0.00  0.00     0.161 C 
ATOM      2  C   LIG d   1      -3.036  78.903 114.004  0.00  0.00     0.016 C 
ATOM      3  C   LIG d   1      -2.002  79.823 113.712  0.00  0.00     0.038 C 
ATOM      4  C   LIG d   1      -0.712  79.681 114.243  0.00  0.00     0.028 C 
ATOM      5  C   LIG d   1      -0.684  78.958 115.585  0.00  0.00    -0.047 C 
ATOM      6  C   LIG d   1      -1.472  77.634 115.459  0.00  0.00     0.091 C 
ENDROOT
BRANCH   1   7
ATOM      7  O   LIG d   1      -3.463  76.652 114.422  0.00  0.00    -0.368 OA
BRANCH   7   8
ATOM      8  C   LIG d   1      -4.852  76.391 114.743  0.00  0.00     0.119 C 
BRANCH   8   9
ATOM      9  C   LIG d   1      -4.879  75.284 115.815  0.00  0.00     0.028 C 
ATOM     10  C   LIG d   1      -6.089  74.347 115.661  0.00  0.00     0.006 C 
ENDBRANCH   8   9
BRANCH   8  11
ATOM     11  C   LIG d   1      -5.601  75.809 113.541  0.00  0.00     0.028 C 
ATOM     12  C   LIG d   1      -6.127  76.893 112.586  0.00  0.00     0.006 C 
ENDBRANCH   8  11
ENDBRANCH   7   8
ENDBRANCH   1   7
BRANCH   6  13
ATOM     13  N   LIG d   1      -1.566  76.905 116.750  0.00  0.00    -0.311 N 
ATOM     14  C   LIG d   1      -0.719  75.943 117.113  0.00  0.00     0.210 C 
ATOM     15  C   LIG d   1      -1.008  75.307 118.476  0.00  0.00     0.109 C 
ATOM     16  O   LIG d   1       0.263  75.578 116.449  0.00  0.00    -0.276 OA
ATOM     17  H   LIG d   1      -2.315  77.159 117.364  0.00  0.00     0.149 HD
ENDBRANCH   6  13
BRANCH   5  18
ATOM     18  N   LIG d   1       0.729  78.757 115.955  0.00  0.00     0.381 N 
ATOM     19  H   LIG d   1       0.805  78.003 116.608  0.00  0.00    -0.090 HD
ATOM     20  H   LIG d   1       1.072  79.593 116.397  0.00  0.00    -0.090 HD
ATOM     21  H   LIG d   1       1.269  78.558 115.142  0.00  0.00    -0.090 HD
ENDBRANCH   5  18
BRANCH   3  22
ATOM     22  C   LIG d   1      -2.268  80.923 112.911  0.00  0.00     0.382 C 
ATOM     23  O   LIG d   1      -1.337  81.477 112.278  0.00  0.00    -0.241 OA
ATOM     24  O   LIG d   1      -3.419  81.396 112.849  0.00  0.00    -0.241 OA
ENDBRANCH   3  22
TORSDOF 7
ENDMDL
MODEL 6
REMARK VINA RESULT:      -4.5      3.684      5.843
REMARK  7 active torsions:
REMARK  status: ('A' for Active; 'I' for Inactive)
REMARK    1  A    between atoms: C_2  and  C_3 
REMARK    2  A    between atoms: C_3  and  O_6 
REMARK    3  A    between atoms: C_3  and  C_4 
REMARK    4  A    between atoms: C_7  and  O_6 
REMARK    5  A    between atoms: C_9  and  C_10 
REMARK    6  A    between atoms: N_15  and  C_14 
REMARK    7  A    between atoms: N_20  and  C_19 
REMARK       I    between atoms: C_22  and  N_20 
ROOT
ATOM      1  C   LIG d   1      -5.745  77.806 117.067  0.00  0.00     0.161 C 
ATOM      2  C   LIG d   1      -5.930  77.059 115.891  0.00  0.00     0.016 C 
ATOM      3  C   LIG d   1      -4.864  76.628 115.068  0.00  0.00     0.038 C 
ATOM      4  C   LIG d   1      -3.523  76.786 115.447  0.00  0.00     0.028 C 
ATOM      5  C   LIG d   1      -3.292  77.976 116.372  0.00  0.00    -0.047 C 
ATOM      6  C   LIG d   1      -4.284  77.893 117.555  0.00  0.00     0.091 C 
ENDROOT
BRANCH   1   7
ATOM      7  O   LIG d   1      -6.592  77.290 118.112  0.00  0.00    -0.368 OA
BRANCH   7   8
ATOM      8  C   LIG d   1      -7.986  77.681 118.053  0.00  0.00     0.119 C 
BRANCH   8   9
ATOM      9  C   LIG d   1      -8.152  78.939 118.927  0.00  0.00     0.028 C 
ATOM     10  C   LIG d   1      -8.290  80.221 118.088  0.00  0.00     0.006 C 
ENDBRANCH   8   9
BRANCH   8  11
ATOM     11  C   LIG d   1      -8.889  76.622 118.693  0.00  0.00     0.028 C 
ATOM     12  C   LIG d   1      -9.060  75.373 117.812  0.00  0.00     0.006 C 
ENDBRANCH   8  11
ENDBRANCH   7   8
ENDBRANCH   1   7
BRANCH   6  13
ATOM     13  N   LIG d   1      -4.182  79.064 118.464  0.00  0.00    -0.311 N 
ATOM     14  C   LIG d   1      -4.482  80.308 118.093  0.00  0.00     0.210 C 
ATOM     15  C   LIG d   1      -4.288  81.371 119.179  0.00  0.00     0.109 C 
ATOM     16  O   LIG d   1      -4.920  80.627 116.978  0.00  0.00    -0.276 OA
ATOM     17  H   LIG d   1      -3.864  78.891 119.397  0.00  0.00     0.149 HD
ENDBRANCH   6  13
BRANCH   5  18
ATOM     18  N   LIG d   1      -1.880  77.942 116.798  0.00  0.00     0.381 N 
ATOM     19  H   LIG d   1      -1.630  78.816 117.216  0.00  0.00    -0.090 HD
ATOM     20  H   LIG d   1      -1.300  77.801 115.990  0.00  0.00    -0.090 HD
ATOM     21  H   LIG d   1      -1.738  77.202 117.450  0.00  0.00    -0.090 HD
ENDBRANCH   5  18
BRANCH   3  22
ATOM     22  C   LIG d   1      -5.137  76.065 113.830  0.00  0.00     0.382 C 
ATOM     23  O   LIG d   1      -5.217  76.796 112.813  0.00  0.00    -0.241 OA
ATOM     24  O   LIG d   1      -5.347  74.842 113.724  0.00  0.00    -0.241 OA
ENDBRANCH   3  22
TORSDOF 7
ENDMDL
MODEL 7
REMARK VINA RESULT:      -4.5      2.633      3.747
REMARK  7 active torsions:
REMARK  status: ('A' for Active; 'I' for Inactive)
REMARK    1  A    between atoms: C_2  and  C_3 
REMARK    2  A    between atoms: C_3  and  O_6 
REMARK    3  A    between atoms: C_3  and  C_4 
REMARK    4  A    between atoms: C_7  and  O_6 
REMARK    5  A    between atoms: C_9  and  C_10 
REMARK    6  A    between atoms: N_15  and  C_14 
REMARK    7  A    between atoms: N_20  and  C_19 
REMARK       I    between atoms: C_22  and  N_20 
ROOT
ATOM      1  C   LIG d   1      -2.947  77.981 114.862  0.00  0.00     0.161 C 
ATOM      2  C   LIG d   1      -2.882  77.734 113.481  0.00  0.00     0.016 C 
ATOM      3  C   LIG d   1      -1.829  78.196 112.657  0.00  0.00     0.038 C 
ATOM      4  C   LIG d   1      -0.686  78.811 113.189  0.00  0.00     0.028 C 
ATOM      5  C   LIG d   1      -0.943  79.527 114.511  0.00  0.00    -0.047 C 
ATOM      6  C   LIG d   1      -1.654  78.554 115.479  0.00  0.00     0.091 C 
ENDROOT
BRANCH   1   7
ATOM      7  O   LIG d   1      -3.343  76.780 115.554  0.00  0.00    -0.368 OA
BRANCH   7   8
ATOM      8  C   LIG d   1      -4.734  76.704 115.953  0.00  0.00     0.119 C 
BRANCH   8   9
ATOM      9  C   LIG d   1      -4.779  76.773 117.492  0.00  0.00     0.028 C 
ATOM     10  C   LIG d   1      -5.991  77.567 118.009  0.00  0.00     0.006 C 
ENDBRANCH   8   9
BRANCH   8  11
ATOM     11  C   LIG d   1      -5.344  75.347 115.590  0.00  0.00     0.028 C 
ATOM     12  C   LIG d   1      -5.558  75.175 114.078  0.00  0.00     0.006 C 
ENDBRANCH   8  11
ENDBRANCH   7   8
ENDBRANCH   1   7
BRANCH   6  13
ATOM     13  N   LIG d   1      -2.018  79.200 116.767  0.00  0.00    -0.311 N 
ATOM     14  C   LIG d   1      -3.105  79.953 116.927  0.00  0.00     0.210 C 
ATOM     15  C   LIG d   1      -3.283  80.541 118.331  0.00  0.00     0.109 C 
ATOM     16  O   LIG d   1      -3.957  80.163 116.050  0.00  0.00    -0.276 OA
ATOM     17  H   LIG d   1      -1.399  79.057 117.540  0.00  0.00     0.149 HD
ENDBRANCH   6  13
BRANCH   5  18
ATOM     18  N   LIG d   1       0.357  80.003 115.020  0.00  0.00     0.381 N 
ATOM     19  H   LIG d   1       1.084  79.752 114.380  0.00  0.00    -0.090 HD
ATOM     20  H   LIG d   1       0.544  79.556 115.901  0.00  0.00    -0.090 HD
ATOM     21  H   LIG d   1       0.335  80.992 115.139  0.00  0.00    -0.090 HD
ENDBRANCH   5  18
BRANCH   3  22
ATOM     22  C   LIG d   1      -1.933  78.079 111.279  0.00  0.00     0.382 C 
ATOM     23  O   LIG d   1      -1.090  78.639 110.537  0.00  0.00    -0.241 OA
ATOM     24  O   LIG d   1      -2.884  77.458 110.768  0.00  0.00    -0.241 OA
ENDBRANCH   3  22
TORSDOF 7
ENDMDL
MODEL 8
REMARK VINA RESULT:      -4.4      2.824      5.474
REMARK  7 active torsions:
REMARK  status: ('A' for Active; 'I' for Inactive)
REMARK    1  A    between atoms: C_2  and  C_3 
REMARK    2  A    between atoms: C_3  and  O_6 
REMARK    3  A    between atoms: C_3  and  C_4 
REMARK    4  A    between atoms: C_7  and  O_6 
REMARK    5  A    between atoms: C_9  and  C_10 
REMARK    6  A    between atoms: N_15  and  C_14 
REMARK    7  A    between atoms: N_20  and  C_19 
REMARK       I    between atoms: C_22  and  N_20 
ROOT
ATOM      1  C   LIG d   1      -3.104  76.130 115.929  0.00  0.00     0.161 C 
ATOM      2  C   LIG d   1      -2.893  75.607 117.216  0.00  0.00     0.016 C 
ATOM      3  C   LIG d   1      -1.655  75.688 117.895  0.00  0.00     0.038 C 
ATOM      4  C   LIG d   1      -0.580  76.435 117.392  0.00  0.00     0.028 C 
ATOM      5  C   LIG d   1      -0.584  76.554 115.872  0.00  0.00    -0.047 C 
ATOM      6  C   LIG d   1      -1.975  77.046 115.410  0.00  0.00     0.091 C 
ENDROOT
BRANCH   1   7
ATOM      7  O   LIG d   1      -4.369  76.819 115.883  0.00  0.00    -0.368 OA
BRANCH   7   8
ATOM      8  C   LIG d   1      -5.515  76.081 116.374  0.00  0.00     0.119 C 
BRANCH   8   9
ATOM      9  C   LIG d   1      -5.898  75.049 115.296  0.00  0.00     0.028 C 
ATOM     10  C   LIG d   1      -5.629  75.562 113.871  0.00  0.00     0.006 C 
ENDBRANCH   8   9
BRANCH   8  11
ATOM     11  C   LIG d   1      -6.740  76.987 116.522  0.00  0.00     0.028 C 
ATOM     12  C   LIG d   1      -7.908  76.297 117.244  0.00  0.00     0.006 C 
ENDBRANCH   8  11
ENDBRANCH   7   8
ENDBRANCH   1   7
BRANCH   6  13
ATOM     13  N   LIG d   1      -2.092  77.109 113.930  0.00  0.00    -0.311 N 
ATOM     14  C   LIG d   1      -2.539  78.180 113.275  0.00  0.00     0.210 C 
ATOM     15  C   LIG d   1      -2.598  78.027 111.752  0.00  0.00     0.109 C 
ATOM     16  O   LIG d   1      -2.861  79.252 113.808  0.00  0.00    -0.276 OA
ATOM     17  H   LIG d   1      -1.822  76.294 113.416  0.00  0.00     0.149 HD
ENDBRANCH   6  13
BRANCH   5  18
ATOM     18  N   LIG d   1       0.508  77.470 115.493  0.00  0.00     0.381 N 
ATOM     19  H   LIG d   1       0.462  77.666 114.513  0.00  0.00    -0.090 HD
ATOM     20  H   LIG d   1       1.388  77.024 115.685  0.00  0.00    -0.090 HD
ATOM     21  H   LIG d   1       0.437  78.318 116.012  0.00  0.00    -0.090 HD
ENDBRANCH   5  18
BRANCH   3  22
ATOM     22  C   LIG d   1      -1.472  74.982 119.074  0.00  0.00     0.382 C 
ATOM     23  O   LIG d   1      -2.353  74.180 119.469  0.00  0.00    -0.241 OA
ATOM     24  O   LIG d   1      -0.456  75.169 119.771  0.00  0.00    -0.241 OA
ENDBRANCH   3  22
TORSDOF 7
ENDMDL
MODEL 9
REMARK VINA RESULT:      -4.3      2.731      5.286
REMARK  7 active torsions:
REMARK  status: ('A' for Active; 'I' for Inactive)
REMARK    1  A    between atoms: C_2  and  C_3 
REMARK    2  A    between atoms: C_3  and  O_6 
REMARK    3  A    between atoms: C_3  and  C_4 
REMARK    4  A    between atoms: C_7  and  O_6 
REMARK    5  A    between atoms: C_9  and  C_10 
REMARK    6  A    between atoms: N_15  and  C_14 
REMARK    7  A    between atoms: N_20  and  C_19 
REMARK       I    between atoms: C_22  and  N_20 
ROOT
ATOM      1  C   LIG d   1      -1.648  76.935 114.552  0.00  0.00     0.161 C 
ATOM      2  C   LIG d   1      -0.549  77.385 115.303  0.00  0.00     0.016 C 
ATOM      3  C   LIG d   1      -0.202  76.857 116.568  0.00  0.00     0.038 C 
ATOM      4  C   LIG d   1      -0.847  75.732 117.103  0.00  0.00     0.028 C 
ATOM      5  C   LIG d   1      -2.281  75.565 116.614  0.00  0.00    -0.047 C 
ATOM      6  C   LIG d   1      -2.295  75.633 115.069  0.00  0.00     0.091 C 
ENDROOT
BRANCH   1   7
ATOM      7  O   LIG d   1      -1.268  76.790 113.169  0.00  0.00    -0.368 OA
BRANCH   7   8
ATOM      8  C   LIG d   1      -1.196  78.013 112.396  0.00  0.00     0.119 C 
BRANCH   8   9
ATOM      9  C   LIG d   1      -2.577  78.692 112.476  0.00  0.00     0.028 C 
ATOM     10  C   LIG d   1      -2.479  80.181 112.848  0.00  0.00     0.006 C 
ENDBRANCH   8   9
BRANCH   8  11
ATOM     11  C   LIG d   1      -0.973  77.721 110.909  0.00  0.00     0.028 C 
ATOM     12  C   LIG d   1      -0.013  78.719 110.243  0.00  0.00     0.006 C 
ENDBRANCH   8  11
ENDBRANCH   7   8
ENDBRANCH   1   7
BRANCH   6  13
ATOM     13  N   LIG d   1      -3.671  75.563 114.511  0.00  0.00    -0.311 N 
ATOM     14  C   LIG d   1      -4.597  76.497 114.724  0.00  0.00     0.210 C 
ATOM     15  C   LIG d   1      -5.956  76.219 114.073  0.00  0.00     0.109 C 
ATOM     16  O   LIG d   1      -4.412  77.543 115.363  0.00  0.00    -0.276 OA
ATOM     17  H   LIG d   1      -3.897  74.762 113.955  0.00  0.00     0.149 HD
ENDBRANCH   6  13
BRANCH   5  18
ATOM     18  N   LIG d   1      -2.786  74.282 117.140  0.00  0.00     0.381 N 
ATOM     19  H   LIG d   1      -2.329  74.067 118.003  0.00  0.00    -0.090 HD
ATOM     20  H   LIG d   1      -2.573  73.554 116.481  0.00  0.00    -0.090 HD
ATOM     21  H   LIG d   1      -3.771  74.336 117.281  0.00  0.00    -0.090 HD
ENDBRANCH   5  18
BRANCH   3  22
ATOM     22  C   LIG d   1       0.774  77.481 117.329  0.00  0.00     0.382 C 
ATOM     23  O   LIG d   1       1.327  76.862 118.270  0.00  0.00    -0.241 OA
ATOM     24  O   LIG d   1       1.077  78.670 117.116  0.00  0.00    -0.241 OA
ENDBRANCH   3  22
TORSDOF 7
ENDMDL
