MODEL 1
REMARK VINA RESULT:      -5.3      0.000      0.000
REMARK  7 active torsions:
REMARK  status: ('A' for Active; 'I' for Inactive)
REMARK    1  A    between atoms: C_2  and  C_3 
REMARK    2  A    between atoms: C_3  and  O_6 
REMARK    3  A    between atoms: C_3  and  C_4 
REMARK    4  A    between atoms: C_7  and  O_6 
REMARK    5  A    between atoms: C_9  and  C_10 
REMARK    6  A    between atoms: N_15  and  C_14 
REMARK    7  A    between atoms: N_20  and  C_19 
REMARK       I    between atoms: C_22  and  N_20 
ROOT
ATOM      1  C   LIG d   1      -2.554  77.807 116.272  0.00  0.00     0.161 C 
ATOM      2  C   LIG d   1      -2.860  78.633 115.177  0.00  0.00     0.016 C 
ATOM      3  C   LIG d   1      -2.255  78.496 113.906  0.00  0.00     0.038 C 
ATOM      4  C   LIG d   1      -1.408  77.420 113.600  0.00  0.00     0.028 C 
ATOM      5  C   LIG d   1      -0.681  76.857 114.817  0.00  0.00    -0.047 C 
ATOM      6  C   LIG d   1      -1.715  76.559 115.926  0.00  0.00     0.091 C 
ENDROOT
BRANCH   1   7
ATOM      7  O   LIG d   1      -3.768  77.424 116.948  0.00  0.00    -0.368 OA
BRANCH   7   8
ATOM      8  C   LIG d   1      -4.963  77.369 116.131  0.00  0.00     0.119 C 
BRANCH   8   9
ATOM      9  C   LIG d   1      -6.127  77.920 116.977  0.00  0.00     0.028 C 
ATOM     10  C   LIG d   1      -7.356  76.995 116.957  0.00  0.00     0.006 C 
ENDBRANCH   8   9
BRANCH   8  11
ATOM     11  C   LIG d   1      -5.348  75.923 115.804  0.00  0.00     0.028 C 
ATOM     12  C   LIG d   1      -5.033  75.537 114.350  0.00  0.00     0.006 C 
ENDBRANCH   8  11
ENDBRANCH   7   8
ENDBRANCH   1   7
BRANCH   6  13
ATOM     13  N   LIG d   1      -1.079  76.083 117.182  0.00  0.00    -0.311 N 
ATOM     14  C   LIG d   1      -1.444  74.969 117.813  0.00  0.00     0.210 C 
ATOM     15  C   LIG d   1      -0.671  74.672 119.102  0.00  0.00     0.109 C 
ATOM     16  O   LIG d   1      -2.314  74.181 117.410  0.00  0.00    -0.276 OA
ATOM     17  H   LIG d   1      -0.343  76.646 117.562  0.00  0.00     0.149 HD
ENDBRANCH   6  13
BRANCH   5  18
ATOM     18  N   LIG d   1       0.058  75.657 114.378  0.00  0.00     0.381 N 
ATOM     19  H   LIG d   1       1.037  75.786 114.537  0.00  0.00    -0.090 HD
ATOM     20  H   LIG d   1      -0.088  75.528 113.392  0.00  0.00    -0.090 HD
ATOM     21  H   LIG d   1      -0.265  74.857 114.876  0.00  0.00    -0.090 HD
ENDBRANCH   5  18
BRANCH   3  22
ATOM     22  C   LIG d   1      -2.465  79.465 112.937  0.00  0.00     0.382 C 
ATOM     23  O   LIG d   1      -1.989  79.315 111.786  0.00  0.00    -0.241 OA
ATOM     24  O   LIG d   1      -3.087  80.509 113.212  0.00  0.00    -0.241 OA
ENDBRANCH   3  22
TORSDOF 7
ENDMDL
MODEL 2
REMARK VINA RESULT:      -5.0      2.078      5.019
REMARK  7 active torsions:
REMARK  status: ('A' for Active; 'I' for Inactive)
REMARK    1  A    between atoms: C_2  and  C_3 
REMARK    2  A    between atoms: C_3  and  O_6 
REMARK    3  A    between atoms: C_3  and  C_4 
REMARK    4  A    between atoms: C_7  and  O_6 
REMARK    5  A    between atoms: C_9  and  C_10 
REMARK    6  A    between atoms: N_15  and  C_14 
REMARK    7  A    between atoms: N_20  and  C_19 
REMARK       I    between atoms: C_22  and  N_20 
ROOT
ATOM      1  C   LIG d   1      -1.271  75.418 115.180  0.00  0.00     0.161 C 
ATOM      2  C   LIG d   1      -0.834  74.962 116.435  0.00  0.00     0.016 C 
ATOM      3  C   LIG d   1      -0.164  75.783 117.371  0.00  0.00     0.038 C 
ATOM      4  C   LIG d   1      -0.019  77.165 117.175  0.00  0.00     0.028 C 
ATOM      5  C   LIG d   1       0.004  77.569 115.705  0.00  0.00    -0.047 C 
ATOM      6  C   LIG d   1      -1.221  76.949 114.995  0.00  0.00     0.091 C 
ENDROOT
BRANCH   1   7
ATOM      7  O   LIG d   1      -2.600  74.925 114.917  0.00  0.00    -0.368 OA
BRANCH   7   8
ATOM      8  C   LIG d   1      -3.692  75.772 115.352  0.00  0.00     0.119 C 
BRANCH   8   9
ATOM      9  C   LIG d   1      -4.244  75.179 116.663  0.00  0.00     0.028 C 
ATOM     10  C   LIG d   1      -3.936  76.064 117.883  0.00  0.00     0.006 C 
ENDBRANCH   8   9
BRANCH   8  11
ATOM     11  C   LIG d   1      -4.860  75.726 114.363  0.00  0.00     0.028 C 
ATOM     12  C   LIG d   1      -6.210  76.058 115.019  0.00  0.00     0.006 C 
ENDBRANCH   8  11
ENDBRANCH   7   8
ENDBRANCH   1   7
BRANCH   6  13
ATOM     13  N   LIG d   1      -1.230  77.226 113.535  0.00  0.00    -0.311 N 
ATOM     14  C   LIG d   1      -1.967  78.184 112.975  0.00  0.00     0.210 C 
ATOM     15  C   LIG d   1      -1.844  78.287 111.451  0.00  0.00     0.109 C 
ATOM     16  O   LIG d   1      -2.686  78.979 113.599  0.00  0.00    -0.276 OA
ATOM     17  H   LIG d   1      -0.651  76.648 112.957  0.00  0.00     0.149 HD
ENDBRANCH   6  13
BRANCH   5  18
ATOM     18  N   LIG d   1       0.019  79.043 115.649  0.00  0.00     0.381 N 
ATOM     19  H   LIG d   1       0.606  79.347 114.897  0.00  0.00    -0.090 HD
ATOM     20  H   LIG d   1       0.400  79.397 116.508  0.00  0.00    -0.090 HD
ATOM     21  H   LIG d   1      -0.906  79.390 115.519  0.00  0.00    -0.090 HD
ENDBRANCH   5  18
BRANCH   3  22
ATOM     22  C   LIG d   1       0.405  75.215 118.500  0.00  0.00     0.382 C 
ATOM     23  O   LIG d   1       1.440  75.717 119.002  0.00  0.00    -0.241 OA
ATOM     24  O   LIG d   1      -0.077  74.180 118.999  0.00  0.00    -0.241 OA
ENDBRANCH   3  22
TORSDOF 7
ENDMDL
MODEL 3
REMARK VINA RESULT:      -4.8      1.305      2.096
REMARK  7 active torsions:
REMARK  status: ('A' for Active; 'I' for Inactive)
REMARK    1  A    between atoms: C_2  and  C_3 
REMARK    2  A    between atoms: C_3  and  O_6 
REMARK    3  A    between atoms: C_3  and  C_4 
REMARK    4  A    between atoms: C_7  and  O_6 
REMARK    5  A    between atoms: C_9  and  C_10 
REMARK    6  A    between atoms: N_15  and  C_14 
REMARK    7  A    between atoms: N_20  and  C_19 
REMARK       I    between atoms: C_22  and  N_20 
ROOT
ATOM      1  C   LIG d   1      -2.865  77.908 115.929  0.00  0.00     0.161 C 
ATOM      2  C   LIG d   1      -3.006  78.794 114.848  0.00  0.00     0.016 C 
ATOM      3  C   LIG d   1      -2.255  78.692 113.655  0.00  0.00     0.038 C 
ATOM      4  C   LIG d   1      -1.414  77.598 113.399  0.00  0.00     0.028 C 
ATOM      5  C   LIG d   1      -0.861  76.951 114.665  0.00  0.00    -0.047 C 
ATOM      6  C   LIG d   1      -2.033  76.644 115.625  0.00  0.00     0.091 C 
ENDROOT
BRANCH   1   7
ATOM      7  O   LIG d   1      -4.164  77.543 116.434  0.00  0.00    -0.368 OA
BRANCH   7   8
ATOM      8  C   LIG d   1      -4.571  78.183 117.669  0.00  0.00     0.119 C 
BRANCH   8   9
ATOM      9  C   LIG d   1      -5.556  79.311 117.303  0.00  0.00     0.028 C 
ATOM     10  C   LIG d   1      -7.022  78.848 117.350  0.00  0.00     0.006 C 
ENDBRANCH   8   9
BRANCH   8  11
ATOM     11  C   LIG d   1      -3.390  78.881 118.350  0.00  0.00     0.028 C 
ATOM     12  C   LIG d   1      -3.833  79.963 119.347  0.00  0.00     0.006 C 
ENDBRANCH   8  11
ENDBRANCH   7   8
ENDBRANCH   1   7
BRANCH   6  13
ATOM     13  N   LIG d   1      -1.572  76.087 116.923  0.00  0.00    -0.311 N 
ATOM     14  C   LIG d   1      -2.159  75.056 117.528  0.00  0.00     0.210 C 
ATOM     15  C   LIG d   1      -1.536  74.653 118.869  0.00  0.00     0.109 C 
ATOM     16  O   LIG d   1      -3.116  74.417 117.067  0.00  0.00    -0.276 OA
ATOM     17  H   LIG d   1      -0.781  76.526 117.353  0.00  0.00     0.149 HD
ENDBRANCH   6  13
BRANCH   5  18
ATOM     18  N   LIG d   1      -0.116  75.744 114.259  0.00  0.00     0.381 N 
ATOM     19  H   LIG d   1       0.651  75.594 114.884  0.00  0.00    -0.090 HD
ATOM     20  H   LIG d   1       0.254  75.886 113.335  0.00  0.00    -0.090 HD
ATOM     21  H   LIG d   1      -0.719  74.952 114.266  0.00  0.00    -0.090 HD
ENDBRANCH   5  18
BRANCH   3  22
ATOM     22  C   LIG d   1      -2.311  79.712 112.717  0.00  0.00     0.382 C 
ATOM     23  O   LIG d   1      -3.066  80.696 112.906  0.00  0.00    -0.241 OA
ATOM     24  O   LIG d   1      -1.651  79.639 111.664  0.00  0.00    -0.241 OA
ENDBRANCH   3  22
TORSDOF 7
ENDMDL
MODEL 4
REMARK VINA RESULT:      -4.6      2.718      3.678
REMARK  7 active torsions:
REMARK  status: ('A' for Active; 'I' for Inactive)
REMARK    1  A    between atoms: C_2  and  C_3 
REMARK    2  A    between atoms: C_3  and  O_6 
REMARK    3  A    between atoms: C_3  and  C_4 
REMARK    4  A    between atoms: C_7  and  O_6 
REMARK    5  A    between atoms: C_9  and  C_10 
REMARK    6  A    between atoms: N_15  and  C_14 
REMARK    7  A    between atoms: N_20  and  C_19 
REMARK       I    between atoms: C_22  and  N_20 
ROOT
ATOM      1  C   LIG d   1      -4.441  76.566 117.703  0.00  0.00     0.161 C 
ATOM      2  C   LIG d   1      -5.402  77.577 117.870  0.00  0.00     0.016 C 
ATOM      3  C   LIG d   1      -5.247  78.888 117.365  0.00  0.00     0.038 C 
ATOM      4  C   LIG d   1      -4.181  79.238 116.522  0.00  0.00     0.028 C 
ATOM      5  C   LIG d   1      -2.932  78.391 116.744  0.00  0.00    -0.047 C 
ATOM      6  C   LIG d   1      -3.323  76.897 116.693  0.00  0.00     0.091 C 
ENDROOT
BRANCH   1   7
ATOM      7  O   LIG d   1      -5.090  75.329 117.346  0.00  0.00    -0.368 OA
BRANCH   7   8
ATOM      8  C   LIG d   1      -6.093  75.414 116.305  0.00  0.00     0.119 C 
BRANCH   8   9
ATOM      9  C   LIG d   1      -7.329  74.631 116.788  0.00  0.00     0.028 C 
ATOM     10  C   LIG d   1      -8.627  75.447 116.665  0.00  0.00     0.006 C 
ENDBRANCH   8   9
BRANCH   8  11
ATOM     11  C   LIG d   1      -5.635  74.701 115.029  0.00  0.00     0.028 C 
ATOM     12  C   LIG d   1      -5.325  75.674 113.881  0.00  0.00     0.006 C 
ENDBRANCH   8  11
ENDBRANCH   7   8
ENDBRANCH   1   7
BRANCH   6  13
ATOM     13  N   LIG d   1      -2.174  76.000 116.983  0.00  0.00    -0.311 N 
ATOM     14  C   LIG d   1      -1.657  75.157 116.091  0.00  0.00     0.210 C 
ATOM     15  C   LIG d   1      -0.489  74.309 116.603  0.00  0.00     0.109 C 
ATOM     16  O   LIG d   1      -2.035  75.054 114.914  0.00  0.00    -0.276 OA
ATOM     17  H   LIG d   1      -1.785  76.041 117.905  0.00  0.00     0.149 HD
ENDBRANCH   6  13
BRANCH   5  18
ATOM     18  N   LIG d   1      -1.950  78.768 115.710  0.00  0.00     0.381 N 
ATOM     19  H   LIG d   1      -2.254  79.597 115.239  0.00  0.00    -0.090 HD
ATOM     20  H   LIG d   1      -1.888  78.026 115.034  0.00  0.00    -0.090 HD
ATOM     21  H   LIG d   1      -1.058  78.922 116.127  0.00  0.00    -0.090 HD
ENDBRANCH   5  18
BRANCH   3  22
ATOM     22  C   LIG d   1      -6.146  79.878 117.735  0.00  0.00     0.382 C 
ATOM     23  O   LIG d   1      -6.853  80.439 116.864  0.00  0.00    -0.241 OA
ATOM     24  O   LIG d   1      -6.226  80.247 118.922  0.00  0.00    -0.241 OA
ENDBRANCH   3  22
TORSDOF 7
ENDMDL
MODEL 5
REMARK VINA RESULT:      -4.5      1.353      1.963
REMARK  7 active torsions:
REMARK  status: ('A' for Active; 'I' for Inactive)
REMARK    1  A    between atoms: C_2  and  C_3 
REMARK    2  A    between atoms: C_3  and  O_6 
REMARK    3  A    between atoms: C_3  and  C_4 
REMARK    4  A    between atoms: C_7  and  O_6 
REMARK    5  A    between atoms: C_9  and  C_10 
REMARK    6  A    between atoms: N_15  and  C_14 
REMARK    7  A    between atoms: N_20  and  C_19 
REMARK       I    between atoms: C_22  and  N_20 
ROOT
ATOM      1  C   LIG d   1      -2.670  76.991 115.702  0.00  0.00     0.161 C 
ATOM      2  C   LIG d   1      -2.925  77.754 114.550  0.00  0.00     0.016 C 
ATOM      3  C   LIG d   1      -1.973  78.619 113.962  0.00  0.00     0.038 C 
ATOM      4  C   LIG d   1      -0.642  78.665 114.404  0.00  0.00     0.028 C 
ATOM      5  C   LIG d   1      -0.477  78.293 115.873  0.00  0.00    -0.047 C 
ATOM      6  C   LIG d   1      -1.188  76.945 116.132  0.00  0.00     0.091 C 
ENDROOT
BRANCH   1   7
ATOM      7  O   LIG d   1      -3.183  75.656 115.527  0.00  0.00    -0.368 OA
BRANCH   7   8
ATOM      8  C   LIG d   1      -4.267  75.270 116.407  0.00  0.00     0.119 C 
BRANCH   8   9
ATOM      9  C   LIG d   1      -5.548  75.188 115.554  0.00  0.00     0.028 C 
ATOM     10  C   LIG d   1      -5.247  75.098 114.049  0.00  0.00     0.006 C 
ENDBRANCH   8   9
BRANCH   8  11
ATOM     11  C   LIG d   1      -4.546  76.351 117.456  0.00  0.00     0.028 C 
ATOM     12  C   LIG d   1      -5.997  76.856 117.419  0.00  0.00     0.006 C 
ENDBRANCH   8  11
ENDBRANCH   7   8
ENDBRANCH   1   7
BRANCH   6  13
ATOM     13  N   LIG d   1      -1.148  76.548 117.564  0.00  0.00    -0.311 N 
ATOM     14  C   LIG d   1      -0.778  75.338 117.979  0.00  0.00     0.210 C 
ATOM     15  C   LIG d   1      -0.827  75.132 119.496  0.00  0.00     0.109 C 
ATOM     16  O   LIG d   1      -0.382  74.426 117.237  0.00  0.00    -0.276 OA
ATOM     17  H   LIG d   1      -1.423  77.237 118.236  0.00  0.00     0.149 HD
ENDBRANCH   6  13
BRANCH   5  18
ATOM     18  N   LIG d   1       0.968  78.249 116.163  0.00  0.00     0.381 N 
ATOM     19  H   LIG d   1       1.252  79.101 116.604  0.00  0.00    -0.090 HD
ATOM     20  H   LIG d   1       1.471  78.160 115.297  0.00  0.00    -0.090 HD
ATOM     21  H   LIG d   1       1.174  77.475 116.756  0.00  0.00    -0.090 HD
ENDBRANCH   5  18
BRANCH   3  22
ATOM     22  C   LIG d   1      -2.360  79.479 112.946  0.00  0.00     0.382 C 
ATOM     23  O   LIG d   1      -1.951  79.291 111.775  0.00  0.00    -0.241 OA
ATOM     24  O   LIG d   1      -3.078  80.466 113.194  0.00  0.00    -0.241 OA
ENDBRANCH   3  22
TORSDOF 7
ENDMDL
MODEL 6
REMARK VINA RESULT:      -4.4      2.972      4.566
REMARK  7 active torsions:
REMARK  status: ('A' for Active; 'I' for Inactive)
REMARK    1  A    between atoms: C_2  and  C_3 
REMARK    2  A    between atoms: C_3  and  O_6 
REMARK    3  A    between atoms: C_3  and  C_4 
REMARK    4  A    between atoms: C_7  and  O_6 
REMARK    5  A    between atoms: C_9  and  C_10 
REMARK    6  A    between atoms: N_15  and  C_14 
REMARK    7  A    between atoms: N_20  and  C_19 
REMARK       I    between atoms: C_22  and  N_20 
ROOT
ATOM      1  C   LIG d   1      -3.712  75.411 117.324  0.00  0.00     0.161 C 
ATOM      2  C   LIG d   1      -2.439  75.753 116.837  0.00  0.00     0.016 C 
ATOM      3  C   LIG d   1      -2.179  76.044 115.478  0.00  0.00     0.038 C 
ATOM      4  C   LIG d   1      -3.210  76.161 114.534  0.00  0.00     0.028 C 
ATOM      5  C   LIG d   1      -4.442  75.331 114.877  0.00  0.00    -0.047 C 
ATOM      6  C   LIG d   1      -4.869  75.642 116.330  0.00  0.00     0.091 C 
ENDROOT
BRANCH   1   7
ATOM      7  O   LIG d   1      -3.966  76.109 118.559  0.00  0.00    -0.368 OA
BRANCH   7   8
ATOM      8  C   LIG d   1      -4.285  77.517 118.442  0.00  0.00     0.119 C 
BRANCH   8   9
ATOM      9  C   LIG d   1      -3.261  78.297 119.289  0.00  0.00     0.028 C 
ATOM     10  C   LIG d   1      -2.334  79.174 118.429  0.00  0.00     0.006 C 
ENDBRANCH   8   9
BRANCH   8  11
ATOM     11  C   LIG d   1      -5.649  77.833 119.062  0.00  0.00     0.028 C 
ATOM     12  C   LIG d   1      -6.426  78.904 118.280  0.00  0.00     0.006 C 
ENDBRANCH   8  11
ENDBRANCH   7   8
ENDBRANCH   1   7
BRANCH   6  13
ATOM     13  N   LIG d   1      -6.017  74.810 116.774  0.00  0.00    -0.311 N 
ATOM     14  C   LIG d   1      -7.285  75.211 116.701  0.00  0.00     0.210 C 
ATOM     15  C   LIG d   1      -8.313  74.207 117.232  0.00  0.00     0.109 C 
ATOM     16  O   LIG d   1      -7.658  76.290 116.217  0.00  0.00    -0.276 OA
ATOM     17  H   LIG d   1      -5.807  73.907 117.151  0.00  0.00     0.149 HD
ENDBRANCH   6  13
BRANCH   5  18
ATOM     18  N   LIG d   1      -5.486  75.653 113.886  0.00  0.00     0.381 N 
ATOM     19  H   LIG d   1      -5.357  75.097 113.065  0.00  0.00    -0.090 HD
ATOM     20  H   LIG d   1      -5.402  76.621 113.629  0.00  0.00    -0.090 HD
ATOM     21  H   LIG d   1      -6.388  75.482 114.273  0.00  0.00    -0.090 HD
ENDBRANCH   5  18
BRANCH   3  22
ATOM     22  C   LIG d   1      -0.869  76.182 115.044  0.00  0.00     0.382 C 
ATOM     23  O   LIG d   1      -0.538  75.764 113.908  0.00  0.00    -0.241 OA
ATOM     24  O   LIG d   1      -0.005  76.678 115.791  0.00  0.00    -0.241 OA
ENDBRANCH   3  22
TORSDOF 7
ENDMDL
MODEL 7
REMARK VINA RESULT:      -4.3      2.128      4.849
REMARK  7 active torsions:
REMARK  status: ('A' for Active; 'I' for Inactive)
REMARK    1  A    between atoms: C_2  and  C_3 
REMARK    2  A    between atoms: C_3  and  O_6 
REMARK    3  A    between atoms: C_3  and  C_4 
REMARK    4  A    between atoms: C_7  and  O_6 
REMARK    5  A    between atoms: C_9  and  C_10 
REMARK    6  A    between atoms: N_15  and  C_14 
REMARK    7  A    between atoms: N_20  and  C_19 
REMARK       I    between atoms: C_22  and  N_20 
ROOT
ATOM      1  C   LIG d   1      -2.885  77.177 115.797  0.00  0.00     0.161 C 
ATOM      2  C   LIG d   1      -2.752  77.014 117.186  0.00  0.00     0.016 C 
ATOM      3  C   LIG d   1      -1.691  77.569 117.937  0.00  0.00     0.038 C 
ATOM      4  C   LIG d   1      -0.766  78.458 117.368  0.00  0.00     0.028 C 
ATOM      5  C   LIG d   1      -0.567  78.249 115.871  0.00  0.00    -0.047 C 
ATOM      6  C   LIG d   1      -1.949  78.235 115.178  0.00  0.00     0.091 C 
ENDROOT
BRANCH   1   7
ATOM      7  O   LIG d   1      -4.258  77.469 115.469  0.00  0.00    -0.368 OA
BRANCH   7   8
ATOM      8  C   LIG d   1      -5.202  77.409 116.566  0.00  0.00     0.119 C 
BRANCH   8   9
ATOM      9  C   LIG d   1      -6.435  76.627 116.074  0.00  0.00     0.028 C 
ATOM     10  C   LIG d   1      -6.428  75.163 116.545  0.00  0.00     0.006 C 
ENDBRANCH   8   9
BRANCH   8  11
ATOM     11  C   LIG d   1      -5.725  78.802 116.929  0.00  0.00     0.028 C 
ATOM     12  C   LIG d   1      -7.019  78.757 117.756  0.00  0.00     0.006 C 
ENDBRANCH   8  11
ENDBRANCH   7   8
ENDBRANCH   1   7
BRANCH   6  13
ATOM     13  N   LIG d   1      -1.850  77.951 113.722  0.00  0.00    -0.311 N 
ATOM     14  C   LIG d   1      -2.243  78.807 112.780  0.00  0.00     0.210 C 
ATOM     15  C   LIG d   1      -2.071  78.309 111.342  0.00  0.00     0.109 C 
ATOM     16  O   LIG d   1      -2.686  79.944 112.998  0.00  0.00    -0.276 OA
ATOM     17  H   LIG d   1      -1.472  77.063 113.455  0.00  0.00     0.149 HD
ENDBRANCH   6  13
BRANCH   5  18
ATOM     18  N   LIG d   1       0.314  79.327 115.383  0.00  0.00     0.381 N 
ATOM     19  H   LIG d   1       1.147  78.934 114.994  0.00  0.00    -0.090 HD
ATOM     20  H   LIG d   1       0.572  79.911 116.159  0.00  0.00    -0.090 HD
ATOM     21  H   LIG d   1      -0.160  79.869 114.694  0.00  0.00    -0.090 HD
ENDBRANCH   5  18
BRANCH   3  22
ATOM     22  C   LIG d   1      -1.523  77.205 119.264  0.00  0.00     0.382 C 
ATOM     23  O   LIG d   1      -2.354  76.444 119.815  0.00  0.00    -0.241 OA
ATOM     24  O   LIG d   1      -0.575  77.662 119.930  0.00  0.00    -0.241 OA
ENDBRANCH   3  22
TORSDOF 7
ENDMDL
MODEL 8
REMARK VINA RESULT:      -4.3      2.600      4.093
REMARK  7 active torsions:
REMARK  status: ('A' for Active; 'I' for Inactive)
REMARK    1  A    between atoms: C_2  and  C_3 
REMARK    2  A    between atoms: C_3  and  O_6 
REMARK    3  A    between atoms: C_3  and  C_4 
REMARK    4  A    between atoms: C_7  and  O_6 
REMARK    5  A    between atoms: C_9  and  C_10 
REMARK    6  A    between atoms: N_15  and  C_14 
REMARK    7  A    between atoms: N_20  and  C_19 
REMARK       I    between atoms: C_22  and  N_20 
ROOT
ATOM      1  C   LIG d   1      -3.036  78.314 117.015  0.00  0.00     0.161 C 
ATOM      2  C   LIG d   1      -2.041  79.104 117.614  0.00  0.00     0.016 C 
ATOM      3  C   LIG d   1      -0.701  79.142 117.164  0.00  0.00     0.038 C 
ATOM      4  C   LIG d   1      -0.298  78.504 115.981  0.00  0.00     0.028 C 
ATOM      5  C   LIG d   1      -1.150  77.289 115.628  0.00  0.00    -0.047 C 
ATOM      6  C   LIG d   1      -2.641  77.697 115.657  0.00  0.00     0.091 C 
ENDROOT
BRANCH   1   7
ATOM      7  O   LIG d   1      -4.252  79.076 116.884  0.00  0.00    -0.368 OA
BRANCH   7   8
ATOM      8  C   LIG d   1      -5.339  78.698 117.765  0.00  0.00     0.119 C 
BRANCH   8   9
ATOM      9  C   LIG d   1      -6.440  78.061 116.895  0.00  0.00     0.028 C 
ATOM     10  C   LIG d   1      -6.676  76.581 117.238  0.00  0.00     0.006 C 
ENDBRANCH   8   9
BRANCH   8  11
ATOM     11  C   LIG d   1      -5.990  79.928 118.406  0.00  0.00     0.028 C 
ATOM     12  C   LIG d   1      -6.997  80.622 117.475  0.00  0.00     0.006 C 
ENDBRANCH   8  11
ENDBRANCH   7   8
ENDBRANCH   1   7
BRANCH   6  13
ATOM     13  N   LIG d   1      -3.548  76.547 115.404  0.00  0.00    -0.311 N 
ATOM     14  C   LIG d   1      -4.069  76.272 114.210  0.00  0.00     0.210 C 
ATOM     15  C   LIG d   1      -4.995  75.052 114.173  0.00  0.00     0.109 C 
ATOM     16  O   LIG d   1      -3.828  76.905 113.171  0.00  0.00    -0.276 OA
ATOM     17  H   LIG d   1      -3.772  75.962 116.186  0.00  0.00     0.149 HD
ENDBRANCH   6  13
BRANCH   5  18
ATOM     18  N   LIG d   1      -0.709  76.805 114.307  0.00  0.00     0.381 N 
ATOM     19  H   LIG d   1      -1.036  77.423 113.592  0.00  0.00    -0.090 HD
ATOM     20  H   LIG d   1      -1.106  75.896 114.144  0.00  0.00    -0.090 HD
ATOM     21  H   LIG d   1       0.286  76.750 114.278  0.00  0.00    -0.090 HD
ENDBRANCH   5  18
BRANCH   3  22
ATOM     22  C   LIG d   1       0.260  79.793 117.922  0.00  0.00     0.382 C 
ATOM     23  O   LIG d   1       0.121  81.008 118.201  0.00  0.00    -0.241 OA
ATOM     24  O   LIG d   1       1.286  79.192 118.292  0.00  0.00    -0.241 OA
ENDBRANCH   3  22
TORSDOF 7
ENDMDL
MODEL 9
REMARK VINA RESULT:      -4.2      2.524      4.494
REMARK  7 active torsions:
REMARK  status: ('A' for Active; 'I' for Inactive)
REMARK    1  A    between atoms: C_2  and  C_3 
REMARK    2  A    between atoms: C_3  and  O_6 
REMARK    3  A    between atoms: C_3  and  C_4 
REMARK    4  A    between atoms: C_7  and  O_6 
REMARK    5  A    between atoms: C_9  and  C_10 
REMARK    6  A    between atoms: N_15  and  C_14 
REMARK    7  A    between atoms: N_20  and  C_19 
REMARK       I    between atoms: C_22  and  N_20 
ROOT
ATOM      1  C   LIG d   1      -1.409  75.755 115.608  0.00  0.00     0.161 C 
ATOM      2  C   LIG d   1      -2.608  75.852 114.882  0.00  0.00     0.016 C 
ATOM      3  C   LIG d   1      -3.887  75.762 115.476  0.00  0.00     0.038 C 
ATOM      4  C   LIG d   1      -4.057  75.720 116.868  0.00  0.00     0.028 C 
ATOM      5  C   LIG d   1      -2.868  75.112 117.605  0.00  0.00    -0.047 C 
ATOM      6  C   LIG d   1      -1.575  75.820 117.141  0.00  0.00     0.091 C 
ENDROOT
BRANCH   1   7
ATOM      7  O   LIG d   1      -0.484  76.766 115.161  0.00  0.00    -0.368 OA
BRANCH   7   8
ATOM      8  C   LIG d   1      -0.934  78.138 115.275  0.00  0.00     0.119 C 
BRANCH   8   9
ATOM      9  C   LIG d   1      -0.758  78.799 113.895  0.00  0.00     0.028 C 
ATOM     10  C   LIG d   1      -2.046  78.760 113.056  0.00  0.00     0.006 C 
ENDBRANCH   8   9
BRANCH   8  11
ATOM     11  C   LIG d   1      -0.041  78.940 116.227  0.00  0.00     0.028 C 
ATOM     12  C   LIG d   1      -0.764  79.348 117.520  0.00  0.00     0.006 C 
ENDBRANCH   8  11
ENDBRANCH   7   8
ENDBRANCH   1   7
BRANCH   6  13
ATOM     13  N   LIG d   1      -0.355  75.230 117.751  0.00  0.00    -0.311 N 
ATOM     14  C   LIG d   1       0.169  75.654 118.900  0.00  0.00     0.210 C 
ATOM     15  C   LIG d   1       1.440  74.920 119.340  0.00  0.00     0.109 C 
ATOM     16  O   LIG d   1      -0.315  76.546 119.611  0.00  0.00    -0.276 OA
ATOM     17  H   LIG d   1       0.085  74.479 117.256  0.00  0.00     0.149 HD
ENDBRANCH   6  13
BRANCH   5  18
ATOM     18  N   LIG d   1      -3.120  75.256 119.051  0.00  0.00     0.381 N 
ATOM     19  H   LIG d   1      -3.980  74.806 119.292  0.00  0.00    -0.090 HD
ATOM     20  H   LIG d   1      -3.203  76.233 119.271  0.00  0.00    -0.090 HD
ATOM     21  H   LIG d   1      -2.370  74.854 119.570  0.00  0.00    -0.090 HD
ENDBRANCH   5  18
BRANCH   3  22
ATOM     22  C   LIG d   1      -5.014  75.674 114.672  0.00  0.00     0.382 C 
ATOM     23  O   LIG d   1      -4.984  74.981 113.626  0.00  0.00    -0.241 OA
ATOM     24  O   LIG d   1      -6.044  76.313 114.956  0.00  0.00    -0.241 OA
ENDBRANCH   3  22
TORSDOF 7
ENDMDL
