MODEL 1
REMARK VINA RESULT:      -4.9      0.000      0.000
REMARK  7 active torsions:
REMARK  status: ('A' for Active; 'I' for Inactive)
REMARK    1  A    between atoms: C_2  and  C_3 
REMARK    2  A    between atoms: C_3  and  O_6 
REMARK    3  A    between atoms: C_3  and  C_4 
REMARK    4  A    between atoms: C_7  and  O_6 
REMARK    5  A    between atoms: C_9  and  C_10 
REMARK    6  A    between atoms: N_15  and  C_14 
REMARK    7  A    between atoms: N_20  and  C_19 
REMARK       I    between atoms: C_22  and  N_20 
ROOT
ATOM      1  C   LIG d   1      -3.633  77.835 116.722  0.00  0.00     0.161 C 
ATOM      2  C   LIG d   1      -2.894  78.720 117.523  0.00  0.00     0.016 C 
ATOM      3  C   LIG d   1      -1.552  79.078 117.254  0.00  0.00     0.038 C 
ATOM      4  C   LIG d   1      -0.904  78.688 116.072  0.00  0.00     0.028 C 
ATOM      5  C   LIG d   1      -1.442  77.386 115.487  0.00  0.00    -0.047 C 
ATOM      6  C   LIG d   1      -2.980  77.487 115.368  0.00  0.00     0.091 C 
ENDROOT
BRANCH   1   7
ATOM      7  O   LIG d   1      -4.962  78.354 116.518  0.00  0.00    -0.368 OA
BRANCH   7   8
ATOM      8  C   LIG d   1      -5.994  77.828 117.388  0.00  0.00     0.119 C 
BRANCH   8   9
ATOM      9  C   LIG d   1      -6.730  76.718 116.614  0.00  0.00     0.028 C 
ATOM     10  C   LIG d   1      -6.333  75.309 117.087  0.00  0.00     0.006 C 
ENDBRANCH   8   9
BRANCH   8  11
ATOM     11  C   LIG d   1      -7.059  78.885 117.694  0.00  0.00     0.028 C 
ATOM     12  C   LIG d   1      -6.527  80.321 117.566  0.00  0.00     0.006 C 
ENDBRANCH   8  11
ENDBRANCH   7   8
ENDBRANCH   1   7
BRANCH   6  13
ATOM     13  N   LIG d   1      -3.594  76.224 114.883  0.00  0.00    -0.311 N 
ATOM     14  C   LIG d   1      -3.935  76.015 113.613  0.00  0.00     0.210 C 
ATOM     15  C   LIG d   1      -4.573  74.651 113.330  0.00  0.00     0.109 C 
ATOM     16  O   LIG d   1      -3.739  76.817 112.687  0.00  0.00    -0.276 OA
ATOM     17  H   LIG d   1      -3.760  75.507 115.562  0.00  0.00     0.149 HD
ENDBRANCH   6  13
BRANCH   5  18
ATOM     18  N   LIG d   1      -0.774  77.172 114.190  0.00  0.00     0.381 N 
ATOM     19  H   LIG d   1      -1.116  77.832 113.520  0.00  0.00    -0.090 HD
ATOM     20  H   LIG d   1      -0.992  76.247 113.861  0.00  0.00    -0.090 HD
ATOM     21  H   LIG d   1       0.212  77.272 114.293  0.00  0.00    -0.090 HD
ENDBRANCH   5  18
BRANCH   3  22
ATOM     22  C   LIG d   1      -0.832  79.801 118.192  0.00  0.00     0.382 C 
ATOM     23  O   LIG d   1      -0.839  79.447 119.396  0.00  0.00    -0.241 OA
ATOM     24  O   LIG d   1      -0.212  80.828 117.858  0.00  0.00    -0.241 OA
ENDBRANCH   3  22
TORSDOF 7
ENDMDL
MODEL 2
REMARK VINA RESULT:      -4.8      2.798      4.525
REMARK  7 active torsions:
REMARK  status: ('A' for Active; 'I' for Inactive)
REMARK    1  A    between atoms: C_2  and  C_3 
REMARK    2  A    between atoms: C_3  and  O_6 
REMARK    3  A    between atoms: C_3  and  C_4 
REMARK    4  A    between atoms: C_7  and  O_6 
REMARK    5  A    between atoms: C_9  and  C_10 
REMARK    6  A    between atoms: N_15  and  C_14 
REMARK    7  A    between atoms: N_20  and  C_19 
REMARK       I    between atoms: C_22  and  N_20 
ROOT
ATOM      1  C   LIG d   1      -2.551  76.123 116.484  0.00  0.00     0.161 C 
ATOM      2  C   LIG d   1      -2.823  77.063 115.476  0.00  0.00     0.016 C 
ATOM      3  C   LIG d   1      -2.133  77.105 114.243  0.00  0.00     0.038 C 
ATOM      4  C   LIG d   1      -1.219  76.108 113.871  0.00  0.00     0.028 C 
ATOM      5  C   LIG d   1      -0.546  75.429 115.060  0.00  0.00    -0.047 C 
ATOM      6  C   LIG d   1      -1.634  74.960 116.051  0.00  0.00     0.091 C 
ENDROOT
BRANCH   1   7
ATOM      7  O   LIG d   1      -3.786  75.614 117.024  0.00  0.00    -0.368 OA
BRANCH   7   8
ATOM      8  C   LIG d   1      -4.972  75.839 116.224  0.00  0.00     0.119 C 
BRANCH   8   9
ATOM      9  C   LIG d   1      -6.143  76.093 117.193  0.00  0.00     0.028 C 
ATOM     10  C   LIG d   1      -6.757  74.787 117.726  0.00  0.00     0.006 C 
ENDBRANCH   8   9
BRANCH   8  11
ATOM     11  C   LIG d   1      -5.361  74.582 115.439  0.00  0.00     0.028 C 
ATOM     12  C   LIG d   1      -5.023  74.686 113.943  0.00  0.00     0.006 C 
ENDBRANCH   8  11
ENDBRANCH   7   8
ENDBRANCH   1   7
BRANCH   6  13
ATOM     13  N   LIG d   1      -1.058  74.360 117.283  0.00  0.00    -0.311 N 
ATOM     14  C   LIG d   1      -0.175  74.986 118.059  0.00  0.00     0.210 C 
ATOM     15  C   LIG d   1       0.307  74.180 119.270  0.00  0.00     0.109 C 
ATOM     16  O   LIG d   1       0.230  76.144 117.878  0.00  0.00    -0.276 OA
ATOM     17  H   LIG d   1      -1.356  73.434 117.522  0.00  0.00     0.149 HD
ENDBRANCH   6  13
BRANCH   5  18
ATOM     18  N   LIG d   1       0.275  74.322 114.534  0.00  0.00     0.381 N 
ATOM     19  H   LIG d   1       1.190  74.358 114.937  0.00  0.00    -0.090 HD
ATOM     20  H   LIG d   1       0.363  74.427 113.539  0.00  0.00    -0.090 HD
ATOM     21  H   LIG d   1      -0.155  73.449 114.747  0.00  0.00    -0.090 HD
ENDBRANCH   5  18
BRANCH   3  22
ATOM     22  C   LIG d   1      -2.325  78.176 113.384  0.00  0.00     0.382 C 
ATOM     23  O   LIG d   1      -2.665  79.294 113.841  0.00  0.00    -0.241 OA
ATOM     24  O   LIG d   1      -2.206  78.028 112.153  0.00  0.00    -0.241 OA
ENDBRANCH   3  22
TORSDOF 7
ENDMDL
MODEL 3
REMARK VINA RESULT:      -4.8      2.795      4.024
REMARK  7 active torsions:
REMARK  status: ('A' for Active; 'I' for Inactive)
REMARK    1  A    between atoms: C_2  and  C_3 
REMARK    2  A    between atoms: C_3  and  O_6 
REMARK    3  A    between atoms: C_3  and  C_4 
REMARK    4  A    between atoms: C_7  and  O_6 
REMARK    5  A    between atoms: C_9  and  C_10 
REMARK    6  A    between atoms: N_15  and  C_14 
REMARK    7  A    between atoms: N_20  and  C_19 
REMARK       I    between atoms: C_22  and  N_20 
ROOT
ATOM      1  C   LIG d   1      -2.124  76.598 115.092  0.00  0.00     0.161 C 
ATOM      2  C   LIG d   1      -2.056  75.775 116.229  0.00  0.00     0.016 C 
ATOM      3  C   LIG d   1      -1.285  76.089 117.372  0.00  0.00     0.038 C 
ATOM      4  C   LIG d   1      -0.645  77.329 117.517  0.00  0.00     0.028 C 
ATOM      5  C   LIG d   1      -0.273  77.977 116.188  0.00  0.00    -0.047 C 
ATOM      6  C   LIG d   1      -1.522  78.006 115.277  0.00  0.00     0.091 C 
ENDROOT
BRANCH   1   7
ATOM      7  O   LIG d   1      -3.489  76.692 114.639  0.00  0.00    -0.368 OA
BRANCH   7   8
ATOM      8  C   LIG d   1      -4.259  75.465 114.674  0.00  0.00     0.119 C 
BRANCH   8   9
ATOM      9  C   LIG d   1      -4.573  75.073 113.218  0.00  0.00     0.028 C 
ATOM     10  C   LIG d   1      -5.572  76.036 112.554  0.00  0.00     0.006 C 
ENDBRANCH   8   9
BRANCH   8  11
ATOM     11  C   LIG d   1      -5.621  75.681 115.339  0.00  0.00     0.028 C 
ATOM     12  C   LIG d   1      -5.708  75.049 116.738  0.00  0.00     0.006 C 
ENDBRANCH   8  11
ENDBRANCH   7   8
ENDBRANCH   1   7
BRANCH   6  13
ATOM     13  N   LIG d   1      -1.225  78.549 113.925  0.00  0.00    -0.311 N 
ATOM     14  C   LIG d   1      -1.989  79.453 113.315  0.00  0.00     0.210 C 
ATOM     15  C   LIG d   1      -1.514  79.863 111.917  0.00  0.00     0.109 C 
ATOM     16  O   LIG d   1      -2.997  79.978 113.811  0.00  0.00    -0.276 OA
ATOM     17  H   LIG d   1      -0.408  78.200 113.463  0.00  0.00     0.149 HD
ENDBRANCH   6  13
BRANCH   5  18
ATOM     18  N   LIG d   1       0.259  79.321 116.481  0.00  0.00     0.381 N 
ATOM     19  H   LIG d   1       0.933  79.578 115.788  0.00  0.00    -0.090 HD
ATOM     20  H   LIG d   1       0.719  79.301 117.375  0.00  0.00    -0.090 HD
ATOM     21  H   LIG d   1      -0.482  79.986 116.496  0.00  0.00    -0.090 HD
ENDBRANCH   5  18
BRANCH   3  22
ATOM     22  C   LIG d   1      -1.116  75.140 118.369  0.00  0.00     0.382 C 
ATOM     23  O   LIG d   1      -0.326  74.180 118.193  0.00  0.00    -0.241 OA
ATOM     24  O   LIG d   1      -1.775  75.206 119.423  0.00  0.00    -0.241 OA
ENDBRANCH   3  22
TORSDOF 7
ENDMDL
MODEL 4
REMARK VINA RESULT:      -4.6      2.997      3.989
REMARK  7 active torsions:
REMARK  status: ('A' for Active; 'I' for Inactive)
REMARK    1  A    between atoms: C_2  and  C_3 
REMARK    2  A    between atoms: C_3  and  O_6 
REMARK    3  A    between atoms: C_3  and  C_4 
REMARK    4  A    between atoms: C_7  and  O_6 
REMARK    5  A    between atoms: C_9  and  C_10 
REMARK    6  A    between atoms: N_15  and  C_14 
REMARK    7  A    between atoms: N_20  and  C_19 
REMARK       I    between atoms: C_22  and  N_20 
ROOT
ATOM      1  C   LIG d   1      -1.374  75.592 115.397  0.00  0.00     0.161 C 
ATOM      2  C   LIG d   1      -0.938  75.019 116.603  0.00  0.00     0.016 C 
ATOM      3  C   LIG d   1      -0.324  75.760 117.639  0.00  0.00     0.038 C 
ATOM      4  C   LIG d   1      -0.242  77.160 117.601  0.00  0.00     0.028 C 
ATOM      5  C   LIG d   1      -0.212  77.727 116.186  0.00  0.00    -0.047 C 
ATOM      6  C   LIG d   1      -1.393  77.135 115.383  0.00  0.00     0.091 C 
ENDROOT
BRANCH   1   7
ATOM      7  O   LIG d   1      -2.672  75.072 115.050  0.00  0.00    -0.368 OA
BRANCH   7   8
ATOM      8  C   LIG d   1      -3.810  75.769 115.614  0.00  0.00     0.119 C 
BRANCH   8   9
ATOM      9  C   LIG d   1      -4.265  74.982 116.859  0.00  0.00     0.028 C 
ATOM     10  C   LIG d   1      -5.682  74.407 116.703  0.00  0.00     0.006 C 
ENDBRANCH   8   9
BRANCH   8  11
ATOM     11  C   LIG d   1      -5.007  75.746 114.660  0.00  0.00     0.028 C 
ATOM     12  C   LIG d   1      -4.593  75.603 113.187  0.00  0.00     0.006 C 
ENDBRANCH   8  11
ENDBRANCH   7   8
ENDBRANCH   1   7
BRANCH   6  13
ATOM     13  N   LIG d   1      -1.389  77.572 113.963  0.00  0.00    -0.311 N 
ATOM     14  C   LIG d   1      -2.026  78.658 113.528  0.00  0.00     0.210 C 
ATOM     15  C   LIG d   1      -1.910  78.917 112.023  0.00  0.00     0.109 C 
ATOM     16  O   LIG d   1      -2.651  79.449 114.251  0.00  0.00    -0.276 OA
ATOM     17  H   LIG d   1      -0.880  77.006 113.312  0.00  0.00     0.149 HD
ENDBRANCH   6  13
BRANCH   5  18
ATOM     18  N   LIG d   1      -0.265  79.197 116.293  0.00  0.00     0.381 N 
ATOM     19  H   LIG d   1       0.022  79.610 115.428  0.00  0.00    -0.090 HD
ATOM     20  H   LIG d   1       0.372  79.494 117.011  0.00  0.00    -0.090 HD
ATOM     21  H   LIG d   1      -1.190  79.489 116.518  0.00  0.00    -0.090 HD
ENDBRANCH   5  18
BRANCH   3  22
ATOM     22  C   LIG d   1       0.250  75.095 118.712  0.00  0.00     0.382 C 
ATOM     23  O   LIG d   1       1.440  75.334 119.032  0.00  0.00    -0.241 OA
ATOM     24  O   LIG d   1      -0.391  74.229 119.335  0.00  0.00    -0.241 OA
ENDBRANCH   3  22
TORSDOF 7
ENDMDL
MODEL 5
REMARK VINA RESULT:      -4.5      2.799      4.895
REMARK  7 active torsions:
REMARK  status: ('A' for Active; 'I' for Inactive)
REMARK    1  A    between atoms: C_2  and  C_3 
REMARK    2  A    between atoms: C_3  and  O_6 
REMARK    3  A    between atoms: C_3  and  C_4 
REMARK    4  A    between atoms: C_7  and  O_6 
REMARK    5  A    between atoms: C_9  and  C_10 
REMARK    6  A    between atoms: N_15  and  C_14 
REMARK    7  A    between atoms: N_20  and  C_19 
REMARK       I    between atoms: C_22  and  N_20 
ROOT
ATOM      1  C   LIG d   1      -3.221  76.077 116.842  0.00  0.00     0.161 C 
ATOM      2  C   LIG d   1      -3.869  75.903 115.608  0.00  0.00     0.016 C 
ATOM      3  C   LIG d   1      -3.180  75.718 114.387  0.00  0.00     0.038 C 
ATOM      4  C   LIG d   1      -1.789  75.543 114.339  0.00  0.00     0.028 C 
ATOM      5  C   LIG d   1      -1.054  76.215 115.494  0.00  0.00    -0.047 C 
ATOM      6  C   LIG d   1      -1.707  75.778 116.826  0.00  0.00     0.091 C 
ENDROOT
BRANCH   1   7
ATOM      7  O   LIG d   1      -3.876  75.288 117.854  0.00  0.00    -0.368 OA
BRANCH   7   8
ATOM      8  C   LIG d   1      -4.637  76.024 118.844  0.00  0.00     0.119 C 
BRANCH   8   9
ATOM      9  C   LIG d   1      -6.124  75.682 118.634  0.00  0.00     0.028 C 
ATOM     10  C   LIG d   1      -6.324  74.284 118.023  0.00  0.00     0.006 C 
ENDBRANCH   8   9
BRANCH   8  11
ATOM     11  C   LIG d   1      -4.532  77.535 118.616  0.00  0.00     0.028 C 
ATOM     12  C   LIG d   1      -5.895  78.192 118.342  0.00  0.00     0.006 C 
ENDBRANCH   8  11
ENDBRANCH   7   8
ENDBRANCH   1   7
BRANCH   6  13
ATOM     13  N   LIG d   1      -1.102  76.456 118.002  0.00  0.00    -0.311 N 
ATOM     14  C   LIG d   1      -0.147  75.909 118.752  0.00  0.00     0.210 C 
ATOM     15  C   LIG d   1       0.323  76.769 119.930  0.00  0.00     0.109 C 
ATOM     16  O   LIG d   1       0.378  74.806 118.535  0.00  0.00    -0.276 OA
ATOM     17  H   LIG d   1      -1.447  77.367 118.231  0.00  0.00     0.149 HD
ENDBRANCH   6  13
BRANCH   5  18
ATOM     18  N   LIG d   1       0.368  75.837 115.397  0.00  0.00     0.381 N 
ATOM     19  H   LIG d   1       0.935  76.661 115.352  0.00  0.00    -0.090 HD
ATOM     20  H   LIG d   1       0.508  75.312 114.552  0.00  0.00    -0.090 HD
ATOM     21  H   LIG d   1       0.630  75.287 116.185  0.00  0.00    -0.090 HD
ENDBRANCH   5  18
BRANCH   3  22
ATOM     22  C   LIG d   1      -3.882  75.747 113.191  0.00  0.00     0.382 C 
ATOM     23  O   LIG d   1      -4.274  74.676 112.669  0.00  0.00    -0.241 OA
ATOM     24  O   LIG d   1      -4.089  76.826 112.606  0.00  0.00    -0.241 OA
ENDBRANCH   3  22
TORSDOF 7
ENDMDL
MODEL 6
REMARK VINA RESULT:      -4.5      2.824      3.562
REMARK  7 active torsions:
REMARK  status: ('A' for Active; 'I' for Inactive)
REMARK    1  A    between atoms: C_2  and  C_3 
REMARK    2  A    between atoms: C_3  and  O_6 
REMARK    3  A    between atoms: C_3  and  C_4 
REMARK    4  A    between atoms: C_7  and  O_6 
REMARK    5  A    between atoms: C_9  and  C_10 
REMARK    6  A    between atoms: N_15  and  C_14 
REMARK    7  A    between atoms: N_20  and  C_19 
REMARK       I    between atoms: C_22  and  N_20 
ROOT
ATOM      1  C   LIG d   1      -2.235  75.566 115.683  0.00  0.00     0.161 C 
ATOM      2  C   LIG d   1      -1.823  74.966 116.885  0.00  0.00     0.016 C 
ATOM      3  C   LIG d   1      -0.880  75.549 117.763  0.00  0.00     0.038 C 
ATOM      4  C   LIG d   1      -0.395  76.851 117.570  0.00  0.00     0.028 C 
ATOM      5  C   LIG d   1      -0.397  77.289 116.109  0.00  0.00    -0.047 C 
ATOM      6  C   LIG d   1      -1.800  77.036 115.512  0.00  0.00     0.091 C 
ENDROOT
BRANCH   1   7
ATOM      7  O   LIG d   1      -3.664  75.446 115.542  0.00  0.00    -0.368 OA
BRANCH   7   8
ATOM      8  C   LIG d   1      -4.407  75.206 116.763  0.00  0.00     0.119 C 
BRANCH   8   9
ATOM      9  C   LIG d   1      -5.513  74.184 116.438  0.00  0.00     0.028 C 
ATOM     10  C   LIG d   1      -6.716  74.297 117.390  0.00  0.00     0.006 C 
ENDBRANCH   8   9
BRANCH   8  11
ATOM     11  C   LIG d   1      -5.143  76.467 117.224  0.00  0.00     0.028 C 
ATOM     12  C   LIG d   1      -4.387  77.230 118.323  0.00  0.00     0.006 C 
ENDBRANCH   8  11
ENDBRANCH   7   8
ENDBRANCH   1   7
BRANCH   6  13
ATOM     13  N   LIG d   1      -1.865  77.358 114.062  0.00  0.00    -0.311 N 
ATOM     14  C   LIG d   1      -2.267  78.538 113.591  0.00  0.00     0.210 C 
ATOM     15  C   LIG d   1      -2.278  78.653 112.063  0.00  0.00     0.109 C 
ATOM     16  O   LIG d   1      -2.584  79.509 114.293  0.00  0.00    -0.276 OA
ATOM     17  H   LIG d   1      -1.596  76.637 113.422  0.00  0.00     0.149 HD
ENDBRANCH   6  13
BRANCH   5  18
ATOM     18  N   LIG d   1       0.002  78.708 116.068  0.00  0.00     0.381 N 
ATOM     19  H   LIG d   1      -0.406  79.197 116.840  0.00  0.00    -0.090 HD
ATOM     20  H   LIG d   1      -0.342  79.118 115.218  0.00  0.00    -0.090 HD
ATOM     21  H   LIG d   1       0.995  78.785 116.105  0.00  0.00    -0.090 HD
ENDBRANCH   5  18
BRANCH   3  22
ATOM     22  C   LIG d   1      -0.383  74.812 118.826  0.00  0.00     0.382 C 
ATOM     23  O   LIG d   1       0.855  74.740 119.015  0.00  0.00    -0.241 OA
ATOM     24  O   LIG d   1      -1.155  74.180 119.572  0.00  0.00    -0.241 OA
ENDBRANCH   3  22
TORSDOF 7
ENDMDL
MODEL 7
REMARK VINA RESULT:      -4.5      2.347      5.062
REMARK  7 active torsions:
REMARK  status: ('A' for Active; 'I' for Inactive)
REMARK    1  A    between atoms: C_2  and  C_3 
REMARK    2  A    between atoms: C_3  and  O_6 
REMARK    3  A    between atoms: C_3  and  C_4 
REMARK    4  A    between atoms: C_7  and  O_6 
REMARK    5  A    between atoms: C_9  and  C_10 
REMARK    6  A    between atoms: N_15  and  C_14 
REMARK    7  A    between atoms: N_20  and  C_19 
REMARK       I    between atoms: C_22  and  N_20 
ROOT
ATOM      1  C   LIG d   1      -2.890  77.065 116.630  0.00  0.00     0.161 C 
ATOM      2  C   LIG d   1      -3.663  76.600 115.553  0.00  0.00     0.016 C 
ATOM      3  C   LIG d   1      -3.120  75.906 114.448  0.00  0.00     0.038 C 
ATOM      4  C   LIG d   1      -1.779  75.493 114.417  0.00  0.00     0.028 C 
ATOM      5  C   LIG d   1      -0.854  76.378 115.246  0.00  0.00    -0.047 C 
ATOM      6  C   LIG d   1      -1.444  76.528 116.667  0.00  0.00     0.091 C 
ENDROOT
BRANCH   1   7
ATOM      7  O   LIG d   1      -3.562  76.781 117.873  0.00  0.00    -0.368 OA
BRANCH   7   8
ATOM      8  C   LIG d   1      -5.001  76.948 117.872  0.00  0.00     0.119 C 
BRANCH   8   9
ATOM      9  C   LIG d   1      -5.310  78.305 118.534  0.00  0.00     0.028 C 
ATOM     10  C   LIG d   1      -5.607  79.407 117.503  0.00  0.00     0.006 C 
ENDBRANCH   8   9
BRANCH   8  11
ATOM     11  C   LIG d   1      -5.684  75.901 118.756  0.00  0.00     0.028 C 
ATOM     12  C   LIG d   1      -6.147  74.666 117.967  0.00  0.00     0.006 C 
ENDBRANCH   8  11
ENDBRANCH   7   8
ENDBRANCH   1   7
BRANCH   6  13
ATOM     13  N   LIG d   1      -0.644  77.447 117.519  0.00  0.00    -0.311 N 
ATOM     14  C   LIG d   1       0.328  77.035 118.331  0.00  0.00     0.210 C 
ATOM     15  C   LIG d   1       1.013  78.144 119.135  0.00  0.00     0.109 C 
ATOM     16  O   LIG d   1       0.710  75.860 118.437  0.00  0.00    -0.276 OA
ATOM     17  H   LIG d   1      -0.866  78.422 117.471  0.00  0.00     0.149 HD
ENDBRANCH   6  13
BRANCH   5  18
ATOM     18  N   LIG d   1       0.483  75.757 115.237  0.00  0.00     0.381 N 
ATOM     19  H   LIG d   1       0.738  75.487 116.166  0.00  0.00    -0.090 HD
ATOM     20  H   LIG d   1       1.153  76.431 114.910  0.00  0.00    -0.090 HD
ATOM     21  H   LIG d   1       0.485  74.960 114.640  0.00  0.00    -0.090 HD
ENDBRANCH   5  18
BRANCH   3  22
ATOM     22  C   LIG d   1      -3.913  75.651 113.339  0.00  0.00     0.382 C 
ATOM     23  O   LIG d   1      -4.043  74.476 112.918  0.00  0.00    -0.241 OA
ATOM     24  O   LIG d   1      -4.463  76.586 112.728  0.00  0.00    -0.241 OA
ENDBRANCH   3  22
TORSDOF 7
ENDMDL
MODEL 8
REMARK VINA RESULT:      -4.4      2.434      5.691
REMARK  7 active torsions:
REMARK  status: ('A' for Active; 'I' for Inactive)
REMARK    1  A    between atoms: C_2  and  C_3 
REMARK    2  A    between atoms: C_3  and  O_6 
REMARK    3  A    between atoms: C_3  and  C_4 
REMARK    4  A    between atoms: C_7  and  O_6 
REMARK    5  A    between atoms: C_9  and  C_10 
REMARK    6  A    between atoms: N_15  and  C_14 
REMARK    7  A    between atoms: N_20  and  C_19 
REMARK       I    between atoms: C_22  and  N_20 
ROOT
ATOM      1  C   LIG d   1      -3.886  75.905 116.911  0.00  0.00     0.161 C 
ATOM      2  C   LIG d   1      -5.179  75.361 117.000  0.00  0.00     0.016 C 
ATOM      3  C   LIG d   1      -6.343  76.145 117.167  0.00  0.00     0.038 C 
ATOM      4  C   LIG d   1      -6.309  77.546 117.104  0.00  0.00     0.028 C 
ATOM      5  C   LIG d   1      -4.967  78.139 117.520  0.00  0.00    -0.047 C 
ATOM      6  C   LIG d   1      -3.840  77.436 116.728  0.00  0.00     0.091 C 
ENDROOT
BRANCH   1   7
ATOM      7  O   LIG d   1      -3.154  75.252 115.855  0.00  0.00    -0.368 OA
BRANCH   7   8
ATOM      8  C   LIG d   1      -3.152  75.923 114.571  0.00  0.00     0.119 C 
BRANCH   8   9
ATOM      9  C   LIG d   1      -3.930  75.034 113.582  0.00  0.00     0.028 C 
ATOM     10  C   LIG d   1      -5.331  75.588 113.270  0.00  0.00     0.006 C 
ENDBRANCH   8   9
BRANCH   8  11
ATOM     11  C   LIG d   1      -1.736  76.025 113.997  0.00  0.00     0.028 C 
ATOM     12  C   LIG d   1      -0.666  75.466 114.948  0.00  0.00     0.006 C 
ENDBRANCH   8  11
ENDBRANCH   7   8
ENDBRANCH   1   7
BRANCH   6  13
ATOM     13  N   LIG d   1      -2.488  77.897 117.136  0.00  0.00    -0.311 N 
ATOM     14  C   LIG d   1      -1.763  78.762 116.428  0.00  0.00     0.210 C 
ATOM     15  C   LIG d   1      -0.387  79.087 117.017  0.00  0.00     0.109 C 
ATOM     16  O   LIG d   1      -2.142  79.314 115.384  0.00  0.00    -0.276 OA
ATOM     17  H   LIG d   1      -2.116  77.523 117.987  0.00  0.00     0.149 HD
ENDBRANCH   6  13
BRANCH   5  18
ATOM     18  N   LIG d   1      -5.026  79.592 117.276  0.00  0.00     0.381 N 
ATOM     19  H   LIG d   1      -4.120  79.929 117.016  0.00  0.00    -0.090 HD
ATOM     20  H   LIG d   1      -5.302  80.054 118.125  0.00  0.00    -0.090 HD
ATOM     21  H   LIG d   1      -5.682  79.790 116.553  0.00  0.00    -0.090 HD
ENDBRANCH   5  18
BRANCH   3  22
ATOM     22  C   LIG d   1      -7.554  75.528 117.440  0.00  0.00     0.382 C 
ATOM     23  O   LIG d   1      -7.578  74.328 117.805  0.00  0.00    -0.241 OA
ATOM     24  O   LIG d   1      -8.626  76.143 117.283  0.00  0.00    -0.241 OA
ENDBRANCH   3  22
TORSDOF 7
ENDMDL
MODEL 9
REMARK VINA RESULT:      -4.3      2.865      5.248
REMARK  7 active torsions:
REMARK  status: ('A' for Active; 'I' for Inactive)
REMARK    1  A    between atoms: C_2  and  C_3 
REMARK    2  A    between atoms: C_3  and  O_6 
REMARK    3  A    between atoms: C_3  and  C_4 
REMARK    4  A    between atoms: C_7  and  O_6 
REMARK    5  A    between atoms: C_9  and  C_10 
REMARK    6  A    between atoms: N_15  and  C_14 
REMARK    7  A    between atoms: N_20  and  C_19 
REMARK       I    between atoms: C_22  and  N_20 
ROOT
ATOM      1  C   LIG d   1      -3.207  77.781 116.663  0.00  0.00     0.161 C 
ATOM      2  C   LIG d   1      -2.244  76.761 116.738  0.00  0.00     0.016 C 
ATOM      3  C   LIG d   1      -2.425  75.573 117.484  0.00  0.00     0.038 C 
ATOM      4  C   LIG d   1      -3.652  75.256 118.087  0.00  0.00     0.028 C 
ATOM      5  C   LIG d   1      -4.479  76.482 118.458  0.00  0.00    -0.047 C 
ATOM      6  C   LIG d   1      -4.594  77.403 117.222  0.00  0.00     0.091 C 
ENDROOT
BRANCH   1   7
ATOM      7  O   LIG d   1      -3.324  78.242 115.302  0.00  0.00    -0.368 OA
BRANCH   7   8
ATOM      8  C   LIG d   1      -2.529  77.535 114.319  0.00  0.00     0.119 C 
BRANCH   8   9
ATOM      9  C   LIG d   1      -1.781  78.591 113.482  0.00  0.00     0.028 C 
ATOM     10  C   LIG d   1      -2.307  78.676 112.039  0.00  0.00     0.006 C 
ENDBRANCH   8   9
BRANCH   8  11
ATOM     11  C   LIG d   1      -3.415  76.781 113.323  0.00  0.00     0.028 C 
ATOM     12  C   LIG d   1      -3.762  75.359 113.791  0.00  0.00     0.006 C 
ENDBRANCH   8  11
ENDBRANCH   7   8
ENDBRANCH   1   7
BRANCH   6  13
ATOM     13  N   LIG d   1      -5.317  78.666 117.522  0.00  0.00    -0.311 N 
ATOM     14  C   LIG d   1      -6.644  78.780 117.480  0.00  0.00     0.210 C 
ATOM     15  C   LIG d   1      -7.184  80.176 117.805  0.00  0.00     0.109 C 
ATOM     16  O   LIG d   1      -7.426  77.848 117.237  0.00  0.00    -0.276 OA
ATOM     17  H   LIG d   1      -4.762  79.465 117.759  0.00  0.00     0.149 HD
ENDBRANCH   6  13
BRANCH   5  18
ATOM     18  N   LIG d   1      -5.786  76.006 118.949  0.00  0.00     0.381 N 
ATOM     19  H   LIG d   1      -6.442  76.762 118.954  0.00  0.00    -0.090 HD
ATOM     20  H   LIG d   1      -5.679  75.675 119.891  0.00  0.00    -0.090 HD
ATOM     21  H   LIG d   1      -6.121  75.270 118.366  0.00  0.00    -0.090 HD
ENDBRANCH   5  18
BRANCH   3  22
ATOM     22  C   LIG d   1      -1.358  74.706 117.667  0.00  0.00     0.382 C 
ATOM     23  O   LIG d   1      -1.030  74.351 118.824  0.00  0.00    -0.241 OA
ATOM     24  O   LIG d   1      -0.692  74.310 116.691  0.00  0.00    -0.241 OA
ENDBRANCH   3  22
TORSDOF 7
ENDMDL
