MODEL 1
REMARK VINA RESULT:      -5.3      0.000      0.000
REMARK  7 active torsions:
REMARK  status: ('A' for Active; 'I' for Inactive)
REMARK    1  A    between atoms: C_2  and  C_3 
REMARK    2  A    between atoms: C_3  and  O_6 
REMARK    3  A    between atoms: C_3  and  C_4 
REMARK    4  A    between atoms: C_7  and  O_6 
REMARK    5  A    between atoms: C_9  and  C_10 
REMARK    6  A    between atoms: N_15  and  C_14 
REMARK    7  A    between atoms: N_20  and  C_19 
REMARK       I    between atoms: C_22  and  N_20 
ROOT
ATOM      1  C   LIG d   1      -3.104  77.549 114.220  0.00  0.00     0.161 C 
ATOM      2  C   LIG d   1      -3.331  78.762 113.549  0.00  0.00     0.016 C 
ATOM      3  C   LIG d   1      -2.295  79.641 113.159  0.00  0.00     0.038 C 
ATOM      4  C   LIG d   1      -0.941  79.292 113.281  0.00  0.00     0.028 C 
ATOM      5  C   LIG d   1      -0.670  78.303 114.409  0.00  0.00    -0.047 C 
ATOM      6  C   LIG d   1      -1.628  77.099 114.262  0.00  0.00     0.091 C 
ENDROOT
BRANCH   1   7
ATOM      7  O   LIG d   1      -3.927  76.513 113.648  0.00  0.00    -0.368 OA
BRANCH   7   8
ATOM      8  C   LIG d   1      -5.108  76.148 114.403  0.00  0.00     0.119 C 
BRANCH   8   9
ATOM      9  C   LIG d   1      -5.076  74.620 114.604  0.00  0.00     0.028 C 
ATOM     10  C   LIG d   1      -4.310  74.210 115.873  0.00  0.00     0.006 C 
ENDBRANCH   8   9
BRANCH   8  11
ATOM     11  C   LIG d   1      -6.387  76.426 113.607  0.00  0.00     0.028 C 
ATOM     12  C   LIG d   1      -6.106  76.837 112.153  0.00  0.00     0.006 C 
ENDBRANCH   8  11
ENDBRANCH   7   8
ENDBRANCH   1   7
BRANCH   6  13
ATOM     13  N   LIG d   1      -1.487  76.123 115.374  0.00  0.00    -0.311 N 
ATOM     14  C   LIG d   1      -0.671  75.072 115.327  0.00  0.00     0.210 C 
ATOM     15  C   LIG d   1      -0.692  74.180 116.573  0.00  0.00     0.109 C 
ATOM     16  O   LIG d   1       0.094  74.811 114.386  0.00  0.00    -0.276 OA
ATOM     17  H   LIG d   1      -2.048  76.276 116.189  0.00  0.00     0.149 HD
ENDBRANCH   6  13
BRANCH   5  18
ATOM     18  N   LIG d   1       0.753  77.921 114.335  0.00  0.00     0.381 N 
ATOM     19  H   LIG d   1       1.309  78.727 114.130  0.00  0.00    -0.090 HD
ATOM     20  H   LIG d   1       0.873  77.258 113.590  0.00  0.00    -0.090 HD
ATOM     21  H   LIG d   1       1.044  77.518 115.198  0.00  0.00    -0.090 HD
ENDBRANCH   5  18
BRANCH   3  22
ATOM     22  C   LIG d   1      -2.609  80.903 112.677  0.00  0.00     0.382 C 
ATOM     23  O   LIG d   1      -1.696  81.672 112.292  0.00  0.00    -0.241 OA
ATOM     24  O   LIG d   1      -3.790  81.298 112.665  0.00  0.00    -0.241 OA
ENDBRANCH   3  22
TORSDOF 7
ENDMDL
MODEL 2
REMARK VINA RESULT:      -5.1      2.291      3.062
REMARK  7 active torsions:
REMARK  status: ('A' for Active; 'I' for Inactive)
REMARK    1  A    between atoms: C_2  and  C_3 
REMARK    2  A    between atoms: C_3  and  O_6 
REMARK    3  A    between atoms: C_3  and  C_4 
REMARK    4  A    between atoms: C_7  and  O_6 
REMARK    5  A    between atoms: C_9  and  C_10 
REMARK    6  A    between atoms: N_15  and  C_14 
REMARK    7  A    between atoms: N_20  and  C_19 
REMARK       I    between atoms: C_22  and  N_20 
ROOT
ATOM      1  C   LIG d   1      -2.377  78.037 115.219  0.00  0.00     0.161 C 
ATOM      2  C   LIG d   1      -2.773  79.187 114.516  0.00  0.00     0.016 C 
ATOM      3  C   LIG d   1      -2.269  79.531 113.240  0.00  0.00     0.038 C 
ATOM      4  C   LIG d   1      -1.444  78.662 112.510  0.00  0.00     0.028 C 
ATOM      5  C   LIG d   1      -0.620  77.728 113.390  0.00  0.00    -0.047 C 
ATOM      6  C   LIG d   1      -1.562  77.022 114.392  0.00  0.00     0.091 C 
ENDROOT
BRANCH   1   7
ATOM      7  O   LIG d   1      -3.532  77.399 115.800  0.00  0.00    -0.368 OA
BRANCH   7   8
ATOM      8  C   LIG d   1      -3.516  77.242 117.240  0.00  0.00     0.119 C 
BRANCH   8   9
ATOM      9  C   LIG d   1      -4.860  77.771 117.777  0.00  0.00     0.028 C 
ATOM     10  C   LIG d   1      -4.991  79.297 117.631  0.00  0.00     0.006 C 
ENDBRANCH   8   9
BRANCH   8  11
ATOM     11  C   LIG d   1      -2.445  78.126 117.885  0.00  0.00     0.028 C 
ATOM     12  C   LIG d   1      -1.593  77.372 118.918  0.00  0.00     0.006 C 
ENDBRANCH   8  11
ENDBRANCH   7   8
ENDBRANCH   1   7
BRANCH   6  13
ATOM     13  N   LIG d   1      -0.826  76.152 115.346  0.00  0.00    -0.311 N 
ATOM     14  C   LIG d   1      -1.171  74.893 115.607  0.00  0.00     0.210 C 
ATOM     15  C   LIG d   1      -0.289  74.181 116.637  0.00  0.00     0.109 C 
ATOM     16  O   LIG d   1      -2.105  74.288 115.059  0.00  0.00    -0.276 OA
ATOM     17  H   LIG d   1      -0.035  76.553 115.812  0.00  0.00     0.149 HD
ENDBRANCH   6  13
BRANCH   5  18
ATOM     18  N   LIG d   1       0.088  76.788 112.501  0.00  0.00     0.381 N 
ATOM     19  H   LIG d   1       0.711  77.292 111.902  0.00  0.00    -0.090 HD
ATOM     20  H   LIG d   1      -0.586  76.313 111.927  0.00  0.00    -0.090 HD
ATOM     21  H   LIG d   1       0.600  76.126 113.042  0.00  0.00    -0.090 HD
ENDBRANCH   5  18
BRANCH   3  22
ATOM     22  C   LIG d   1      -2.560  80.773 112.698  0.00  0.00     0.382 C 
ATOM     23  O   LIG d   1      -1.632  81.510 112.285  0.00  0.00    -0.241 OA
ATOM     24  O   LIG d   1      -3.735  81.186 112.657  0.00  0.00    -0.241 OA
ENDBRANCH   3  22
TORSDOF 7
ENDMDL
MODEL 3
REMARK VINA RESULT:      -5.0      1.305      2.124
REMARK  7 active torsions:
REMARK  status: ('A' for Active; 'I' for Inactive)
REMARK    1  A    between atoms: C_2  and  C_3 
REMARK    2  A    between atoms: C_3  and  O_6 
REMARK    3  A    between atoms: C_3  and  C_4 
REMARK    4  A    between atoms: C_7  and  O_6 
REMARK    5  A    between atoms: C_9  and  C_10 
REMARK    6  A    between atoms: N_15  and  C_14 
REMARK    7  A    between atoms: N_20  and  C_19 
REMARK       I    between atoms: C_22  and  N_20 
ROOT
ATOM      1  C   LIG d   1      -3.310  77.188 114.139  0.00  0.00     0.161 C 
ATOM      2  C   LIG d   1      -3.368  78.454 113.534  0.00  0.00     0.016 C 
ATOM      3  C   LIG d   1      -2.221  79.204 113.185  0.00  0.00     0.038 C 
ATOM      4  C   LIG d   1      -0.928  78.668 113.281  0.00  0.00     0.028 C 
ATOM      5  C   LIG d   1      -0.796  77.593 114.355  0.00  0.00    -0.047 C 
ATOM      6  C   LIG d   1      -1.909  76.540 114.149  0.00  0.00     0.091 C 
ENDROOT
BRANCH   1   7
ATOM      7  O   LIG d   1      -4.265  76.305 113.518  0.00  0.00    -0.368 OA
BRANCH   7   8
ATOM      8  C   LIG d   1      -5.371  75.876 114.350  0.00  0.00     0.119 C 
BRANCH   8   9
ATOM      9  C   LIG d   1      -6.668  76.393 113.699  0.00  0.00     0.028 C 
ATOM     10  C   LIG d   1      -6.470  76.782 112.224  0.00  0.00     0.006 C 
ENDBRANCH   8   9
BRANCH   8  11
ATOM     11  C   LIG d   1      -5.319  76.537 115.730  0.00  0.00     0.028 C 
ATOM     12  C   LIG d   1      -6.693  76.596 116.415  0.00  0.00     0.006 C 
ENDBRANCH   8  11
ENDBRANCH   7   8
ENDBRANCH   1   7
BRANCH   6  13
ATOM     13  N   LIG d   1      -1.904  75.496 115.208  0.00  0.00    -0.311 N 
ATOM     14  C   LIG d   1      -1.925  75.773 116.510  0.00  0.00     0.210 C 
ATOM     15  C   LIG d   1      -1.895  74.550 117.432  0.00  0.00     0.109 C 
ATOM     16  O   LIG d   1      -1.997  76.915 116.990  0.00  0.00    -0.276 OA
ATOM     17  H   LIG d   1      -1.878  74.542 114.907  0.00  0.00     0.149 HD
ENDBRANCH   6  13
BRANCH   5  18
ATOM     18  N   LIG d   1       0.562  77.025 114.253  0.00  0.00     0.381 N 
ATOM     19  H   LIG d   1       0.841  76.984 113.293  0.00  0.00    -0.090 HD
ATOM     20  H   LIG d   1       0.552  76.090 114.619  0.00  0.00    -0.090 HD
ATOM     21  H   LIG d   1       1.205  77.585 114.769  0.00  0.00    -0.090 HD
ENDBRANCH   5  18
BRANCH   3  22
ATOM     22  C   LIG d   1      -2.359  80.520 112.772  0.00  0.00     0.382 C 
ATOM     23  O   LIG d   1      -3.498  81.043 112.718  0.00  0.00    -0.241 OA
ATOM     24  O   LIG d   1      -1.364  81.176 112.410  0.00  0.00    -0.241 OA
ENDBRANCH   3  22
TORSDOF 7
ENDMDL
MODEL 4
REMARK VINA RESULT:      -5.0      2.071      2.522
REMARK  7 active torsions:
REMARK  status: ('A' for Active; 'I' for Inactive)
REMARK    1  A    between atoms: C_2  and  C_3 
REMARK    2  A    between atoms: C_3  and  O_6 
REMARK    3  A    between atoms: C_3  and  C_4 
REMARK    4  A    between atoms: C_7  and  O_6 
REMARK    5  A    between atoms: C_9  and  C_10 
REMARK    6  A    between atoms: N_15  and  C_14 
REMARK    7  A    between atoms: N_20  and  C_19 
REMARK       I    between atoms: C_22  and  N_20 
ROOT
ATOM      1  C   LIG d   1      -2.264  78.095 115.223  0.00  0.00     0.161 C 
ATOM      2  C   LIG d   1      -2.669  79.250 114.533  0.00  0.00     0.016 C 
ATOM      3  C   LIG d   1      -2.259  79.552 113.214  0.00  0.00     0.038 C 
ATOM      4  C   LIG d   1      -1.534  78.638 112.436  0.00  0.00     0.028 C 
ATOM      5  C   LIG d   1      -0.679  77.683 113.262  0.00  0.00    -0.047 C 
ATOM      6  C   LIG d   1      -1.563  77.033 114.351  0.00  0.00     0.091 C 
ENDROOT
BRANCH   1   7
ATOM      7  O   LIG d   1      -3.392  77.516 115.909  0.00  0.00    -0.368 OA
BRANCH   7   8
ATOM      8  C   LIG d   1      -3.995  78.330 116.945  0.00  0.00     0.119 C 
BRANCH   8   9
ATOM      9  C   LIG d   1      -2.972  78.455 118.090  0.00  0.00     0.028 C 
ATOM     10  C   LIG d   1      -2.589  77.090 118.687  0.00  0.00     0.006 C 
ENDBRANCH   8   9
BRANCH   8  11
ATOM     11  C   LIG d   1      -5.212  77.635 117.562  0.00  0.00     0.028 C 
ATOM     12  C   LIG d   1      -6.014  76.817 116.537  0.00  0.00     0.006 C 
ENDBRANCH   8  11
ENDBRANCH   7   8
ENDBRANCH   1   7
BRANCH   6  13
ATOM     13  N   LIG d   1      -0.787  76.148 115.257  0.00  0.00    -0.311 N 
ATOM     14  C   LIG d   1      -1.172  74.916 115.587  0.00  0.00     0.210 C 
ATOM     15  C   LIG d   1      -0.236  74.181 116.551  0.00  0.00     0.109 C 
ATOM     16  O   LIG d   1      -2.185  74.350 115.147  0.00  0.00    -0.276 OA
ATOM     17  H   LIG d   1       0.064  76.515 115.636  0.00  0.00     0.149 HD
ENDBRANCH   6  13
BRANCH   5  18
ATOM     18  N   LIG d   1      -0.087  76.700 112.335  0.00  0.00     0.381 N 
ATOM     19  H   LIG d   1      -0.012  77.098 111.421  0.00  0.00    -0.090 HD
ATOM     20  H   LIG d   1      -0.691  75.898 112.282  0.00  0.00    -0.090 HD
ATOM     21  H   LIG d   1       0.814  76.424 112.660  0.00  0.00    -0.090 HD
ENDBRANCH   5  18
BRANCH   3  22
ATOM     22  C   LIG d   1      -2.542  80.798 112.675  0.00  0.00     0.382 C 
ATOM     23  O   LIG d   1      -1.622  81.486 112.171  0.00  0.00    -0.241 OA
ATOM     24  O   LIG d   1      -3.698  81.260 112.726  0.00  0.00    -0.241 OA
ENDBRANCH   3  22
TORSDOF 7
ENDMDL
MODEL 5
REMARK VINA RESULT:      -4.9      2.170      2.797
REMARK  7 active torsions:
REMARK  status: ('A' for Active; 'I' for Inactive)
REMARK    1  A    between atoms: C_2  and  C_3 
REMARK    2  A    between atoms: C_3  and  O_6 
REMARK    3  A    between atoms: C_3  and  C_4 
REMARK    4  A    between atoms: C_7  and  O_6 
REMARK    5  A    between atoms: C_9  and  C_10 
REMARK    6  A    between atoms: N_15  and  C_14 
REMARK    7  A    between atoms: N_20  and  C_19 
REMARK       I    between atoms: C_22  and  N_20 
ROOT
ATOM      1  C   LIG d   1      -2.402  76.883 115.365  0.00  0.00     0.161 C 
ATOM      2  C   LIG d   1      -2.720  77.263 114.050  0.00  0.00     0.016 C 
ATOM      3  C   LIG d   1      -1.796  77.212 112.981  0.00  0.00     0.038 C 
ATOM      4  C   LIG d   1      -0.528  76.630 113.123  0.00  0.00     0.028 C 
ATOM      5  C   LIG d   1       0.012  76.696 114.548  0.00  0.00    -0.047 C 
ATOM      6  C   LIG d   1      -1.057  76.141 115.516  0.00  0.00     0.091 C 
ENDROOT
BRANCH   1   7
ATOM      7  O   LIG d   1      -3.474  76.095 115.918  0.00  0.00    -0.368 OA
BRANCH   7   8
ATOM      8  C   LIG d   1      -4.810  76.628 115.750  0.00  0.00     0.119 C 
BRANCH   8   9
ATOM      9  C   LIG d   1      -5.302  77.090 117.135  0.00  0.00     0.028 C 
ATOM     10  C   LIG d   1      -5.079  78.594 117.366  0.00  0.00     0.006 C 
ENDBRANCH   8   9
BRANCH   8  11
ATOM     11  C   LIG d   1      -5.794  75.540 115.312  0.00  0.00     0.028 C 
ATOM     12  C   LIG d   1      -5.115  74.180 115.083  0.00  0.00     0.006 C 
ENDBRANCH   8  11
ENDBRANCH   7   8
ENDBRANCH   1   7
BRANCH   6  13
ATOM     13  N   LIG d   1      -0.643  76.247 116.939  0.00  0.00    -0.311 N 
ATOM     14  C   LIG d   1      -0.031  75.266 117.600  0.00  0.00     0.210 C 
ATOM     15  C   LIG d   1       0.292  75.576 119.065  0.00  0.00     0.109 C 
ATOM     16  O   LIG d   1       0.305  74.180 117.103  0.00  0.00    -0.276 OA
ATOM     17  H   LIG d   1      -0.848  77.106 117.411  0.00  0.00     0.149 HD
ENDBRANCH   6  13
BRANCH   5  18
ATOM     18  N   LIG d   1       1.274  75.934 114.581  0.00  0.00     0.381 N 
ATOM     19  H   LIG d   1       1.880  76.312 115.282  0.00  0.00    -0.090 HD
ATOM     20  H   LIG d   1       1.730  76.020 113.690  0.00  0.00    -0.090 HD
ATOM     21  H   LIG d   1       1.088  74.975 114.776  0.00  0.00    -0.090 HD
ENDBRANCH   5  18
BRANCH   3  22
ATOM     22  C   LIG d   1      -2.126  77.784 111.761  0.00  0.00     0.382 C 
ATOM     23  O   LIG d   1      -1.570  78.848 111.397  0.00  0.00    -0.241 OA
ATOM     24  O   LIG d   1      -3.004  77.272 111.040  0.00  0.00    -0.241 OA
ENDBRANCH   3  22
TORSDOF 7
ENDMDL
MODEL 6
REMARK VINA RESULT:      -4.8      2.355      3.220
REMARK  7 active torsions:
REMARK  status: ('A' for Active; 'I' for Inactive)
REMARK    1  A    between atoms: C_2  and  C_3 
REMARK    2  A    between atoms: C_3  and  O_6 
REMARK    3  A    between atoms: C_3  and  C_4 
REMARK    4  A    between atoms: C_7  and  O_6 
REMARK    5  A    between atoms: C_9  and  C_10 
REMARK    6  A    between atoms: N_15  and  C_14 
REMARK    7  A    between atoms: N_20  and  C_19 
REMARK       I    between atoms: C_22  and  N_20 
ROOT
ATOM      1  C   LIG d   1      -3.125  77.572 114.873  0.00  0.00     0.161 C 
ATOM      2  C   LIG d   1      -2.827  77.533 113.501  0.00  0.00     0.016 C 
ATOM      3  C   LIG d   1      -1.591  77.081 112.985  0.00  0.00     0.038 C 
ATOM      4  C   LIG d   1      -0.617  76.491 113.805  0.00  0.00     0.028 C 
ATOM      5  C   LIG d   1      -0.670  76.972 115.251  0.00  0.00    -0.047 C 
ATOM      6  C   LIG d   1      -2.118  76.829 115.775  0.00  0.00     0.091 C 
ENDROOT
BRANCH   1   7
ATOM      7  O   LIG d   1      -4.460  77.076 115.098  0.00  0.00    -0.368 OA
BRANCH   7   8
ATOM      8  C   LIG d   1      -4.906  76.023 114.209  0.00  0.00     0.119 C 
BRANCH   8   9
ATOM      9  C   LIG d   1      -6.409  76.243 113.948  0.00  0.00     0.028 C 
ATOM     10  C   LIG d   1      -6.689  76.751 112.523  0.00  0.00     0.006 C 
ENDBRANCH   8   9
BRANCH   8  11
ATOM     11  C   LIG d   1      -4.808  74.649 114.878  0.00  0.00     0.028 C 
ATOM     12  C   LIG d   1      -6.097  74.252 115.616  0.00  0.00     0.006 C 
ENDBRANCH   8  11
ENDBRANCH   7   8
ENDBRANCH   1   7
BRANCH   6  13
ATOM     13  N   LIG d   1      -2.276  77.356 117.155  0.00  0.00    -0.311 N 
ATOM     14  C   LIG d   1      -2.218  76.590 118.244  0.00  0.00     0.210 C 
ATOM     15  C   LIG d   1      -2.427  77.332 119.568  0.00  0.00     0.109 C 
ATOM     16  O   LIG d   1      -1.982  75.373 118.240  0.00  0.00    -0.276 OA
ATOM     17  H   LIG d   1      -2.439  78.339 117.252  0.00  0.00     0.149 HD
ENDBRANCH   6  13
BRANCH   5  18
ATOM     18  N   LIG d   1       0.305  76.177 116.021  0.00  0.00     0.381 N 
ATOM     19  H   LIG d   1       0.297  75.229 115.701  0.00  0.00    -0.090 HD
ATOM     20  H   LIG d   1       0.037  76.185 116.990  0.00  0.00    -0.090 HD
ATOM     21  H   LIG d   1       1.217  76.563 115.918  0.00  0.00    -0.090 HD
ENDBRANCH   5  18
BRANCH   3  22
ATOM     22  C   LIG d   1      -1.303  77.253 111.640  0.00  0.00     0.382 C 
ATOM     23  O   LIG d   1      -0.432  76.538 111.089  0.00  0.00    -0.241 OA
ATOM     24  O   LIG d   1      -1.871  78.145 110.982  0.00  0.00    -0.241 OA
ENDBRANCH   3  22
TORSDOF 7
ENDMDL
MODEL 7
REMARK VINA RESULT:      -4.6      4.684      5.433
REMARK  7 active torsions:
REMARK  status: ('A' for Active; 'I' for Inactive)
REMARK    1  A    between atoms: C_2  and  C_3 
REMARK    2  A    between atoms: C_3  and  O_6 
REMARK    3  A    between atoms: C_3  and  C_4 
REMARK    4  A    between atoms: C_7  and  O_6 
REMARK    5  A    between atoms: C_9  and  C_10 
REMARK    6  A    between atoms: N_15  and  C_14 
REMARK    7  A    between atoms: N_20  and  C_19 
REMARK       I    between atoms: C_22  and  N_20 
ROOT
ATOM      1  C   LIG d   1      -6.081  78.040 117.446  0.00  0.00     0.161 C 
ATOM      2  C   LIG d   1      -7.162  78.936 117.517  0.00  0.00     0.016 C 
ATOM      3  C   LIG d   1      -7.090  80.193 118.160  0.00  0.00     0.038 C 
ATOM      4  C   LIG d   1      -5.880  80.707 118.649  0.00  0.00     0.028 C 
ATOM      5  C   LIG d   1      -4.879  79.628 119.048  0.00  0.00    -0.047 C 
ATOM      6  C   LIG d   1      -4.723  78.632 117.876  0.00  0.00     0.091 C 
ENDROOT
BRANCH   1   7
ATOM      7  O   LIG d   1      -5.990  77.489 116.118  0.00  0.00    -0.368 OA
BRANCH   7   8
ATOM      8  C   LIG d   1      -6.317  76.084 115.987  0.00  0.00     0.119 C 
BRANCH   8   9
ATOM      9  C   LIG d   1      -5.608  75.559 114.724  0.00  0.00     0.028 C 
ATOM     10  C   LIG d   1      -4.676  74.372 115.024  0.00  0.00     0.006 C 
ENDBRANCH   8   9
BRANCH   8  11
ATOM     11  C   LIG d   1      -7.813  75.882 115.725  0.00  0.00     0.028 C 
ATOM     12  C   LIG d   1      -8.539  75.216 116.904  0.00  0.00     0.006 C 
ENDBRANCH   8  11
ENDBRANCH   7   8
ENDBRANCH   1   7
BRANCH   6  13
ATOM     13  N   LIG d   1      -3.825  77.496 118.214  0.00  0.00    -0.311 N 
ATOM     14  C   LIG d   1      -2.905  77.015 117.379  0.00  0.00     0.210 C 
ATOM     15  C   LIG d   1      -2.100  75.829 117.918  0.00  0.00     0.109 C 
ATOM     16  O   LIG d   1      -2.658  77.479 116.256  0.00  0.00    -0.276 OA
ATOM     17  H   LIG d   1      -3.936  77.080 119.118  0.00  0.00     0.149 HD
ENDBRANCH   6  13
BRANCH   5  18
ATOM     18  N   LIG d   1      -3.617  80.301 119.408  0.00  0.00     0.381 N 
ATOM     19  H   LIG d   1      -3.198  79.838 120.189  0.00  0.00    -0.090 HD
ATOM     20  H   LIG d   1      -3.818  81.249 119.673  0.00  0.00    -0.090 HD
ATOM     21  H   LIG d   1      -2.992  80.291 118.632  0.00  0.00    -0.090 HD
ENDBRANCH   5  18
BRANCH   3  22
ATOM     22  C   LIG d   1      -8.247  80.932 118.356  0.00  0.00     0.382 C 
ATOM     23  O   LIG d   1      -8.897  81.350 117.368  0.00  0.00    -0.241 OA
ATOM     24  O   LIG d   1      -8.624  81.223 119.506  0.00  0.00    -0.241 OA
ENDBRANCH   3  22
TORSDOF 7
ENDMDL
MODEL 8
REMARK VINA RESULT:      -4.5      2.382      5.685
REMARK  7 active torsions:
REMARK  status: ('A' for Active; 'I' for Inactive)
REMARK    1  A    between atoms: C_2  and  C_3 
REMARK    2  A    between atoms: C_3  and  O_6 
REMARK    3  A    between atoms: C_3  and  C_4 
REMARK    4  A    between atoms: C_7  and  O_6 
REMARK    5  A    between atoms: C_9  and  C_10 
REMARK    6  A    between atoms: N_15  and  C_14 
REMARK    7  A    between atoms: N_20  and  C_19 
REMARK       I    between atoms: C_22  and  N_20 
ROOT
ATOM      1  C   LIG d   1      -1.564  79.237 114.434  0.00  0.00     0.161 C 
ATOM      2  C   LIG d   1      -2.452  78.206 114.783  0.00  0.00     0.016 C 
ATOM      3  C   LIG d   1      -2.948  77.260 113.857  0.00  0.00     0.038 C 
ATOM      4  C   LIG d   1      -2.468  77.189 112.540  0.00  0.00     0.028 C 
ATOM      5  C   LIG d   1      -1.951  78.522 112.011  0.00  0.00    -0.047 C 
ATOM      6  C   LIG d   1      -0.944  79.108 113.027  0.00  0.00     0.091 C 
ENDROOT
BRANCH   1   7
ATOM      7  O   LIG d   1      -0.529  79.348 115.430  0.00  0.00    -0.368 OA
BRANCH   7   8
ATOM      8  C   LIG d   1      -0.419  78.244 116.361  0.00  0.00     0.119 C 
BRANCH   8   9
ATOM      9  C   LIG d   1      -0.251  78.843 117.771  0.00  0.00     0.028 C 
ATOM     10  C   LIG d   1      -1.483  79.648 118.218  0.00  0.00     0.006 C 
ENDBRANCH   8   9
BRANCH   8  11
ATOM     11  C   LIG d   1       0.854  77.429 116.112  0.00  0.00     0.028 C 
ATOM     12  C   LIG d   1       0.633  76.262 115.137  0.00  0.00     0.006 C 
ENDBRANCH   8  11
ENDBRANCH   7   8
ENDBRANCH   1   7
BRANCH   6  13
ATOM     13  N   LIG d   1      -0.453  80.453 112.627  0.00  0.00    -0.311 N 
ATOM     14  C   LIG d   1      -1.258  81.489 112.398  0.00  0.00     0.210 C 
ATOM     15  C   LIG d   1      -0.547  82.779 111.976  0.00  0.00     0.109 C 
ATOM     16  O   LIG d   1      -2.490  81.471 112.534  0.00  0.00    -0.276 OA
ATOM     17  H   LIG d   1       0.537  80.565 112.523  0.00  0.00     0.149 HD
ENDBRANCH   6  13
BRANCH   5  18
ATOM     18  N   LIG d   1      -1.357  78.275 110.684  0.00  0.00     0.381 N 
ATOM     19  H   LIG d   1      -0.515  78.806 110.586  0.00  0.00    -0.090 HD
ATOM     20  H   LIG d   1      -2.004  78.575 109.977  0.00  0.00    -0.090 HD
ATOM     21  H   LIG d   1      -1.160  77.304 110.574  0.00  0.00    -0.090 HD
ENDBRANCH   5  18
BRANCH   3  22
ATOM     22  C   LIG d   1      -3.965  76.396 114.235  0.00  0.00     0.382 C 
ATOM     23  O   LIG d   1      -5.118  76.841 114.451  0.00  0.00    -0.241 OA
ATOM     24  O   LIG d   1      -3.733  75.184 114.406  0.00  0.00    -0.241 OA
ENDBRANCH   3  22
TORSDOF 7
ENDMDL
MODEL 9
REMARK VINA RESULT:      -4.5      2.543      4.758
REMARK  7 active torsions:
REMARK  status: ('A' for Active; 'I' for Inactive)
REMARK    1  A    between atoms: C_2  and  C_3 
REMARK    2  A    between atoms: C_3  and  O_6 
REMARK    3  A    between atoms: C_3  and  C_4 
REMARK    4  A    between atoms: C_7  and  O_6 
REMARK    5  A    between atoms: C_9  and  C_10 
REMARK    6  A    between atoms: N_15  and  C_14 
REMARK    7  A    between atoms: N_20  and  C_19 
REMARK       I    between atoms: C_22  and  N_20 
ROOT
ATOM      1  C   LIG d   1      -2.893  75.458 115.114  0.00  0.00     0.161 C 
ATOM      2  C   LIG d   1      -2.777  75.109 116.470  0.00  0.00     0.016 C 
ATOM      3  C   LIG d   1      -2.123  75.918 117.428  0.00  0.00     0.038 C 
ATOM      4  C   LIG d   1      -1.669  77.209 117.123  0.00  0.00     0.028 C 
ATOM      5  C   LIG d   1      -1.314  77.394 115.651  0.00  0.00    -0.047 C 
ATOM      6  C   LIG d   1      -2.501  76.913 114.785  0.00  0.00     0.091 C 
ENDROOT
BRANCH   1   7
ATOM      7  O   LIG d   1      -4.229  75.182 114.651  0.00  0.00    -0.368 OA
BRANCH   7   8
ATOM      8  C   LIG d   1      -5.172  76.279 114.733  0.00  0.00     0.119 C 
BRANCH   8   9
ATOM      9  C   LIG d   1      -5.821  76.227 116.129  0.00  0.00     0.028 C 
ATOM     10  C   LIG d   1      -7.082  75.347 116.158  0.00  0.00     0.006 C 
ENDBRANCH   8   9
BRANCH   8  11
ATOM     11  C   LIG d   1      -6.325  76.098 113.742  0.00  0.00     0.028 C 
ATOM     12  C   LIG d   1      -6.096  76.844 112.418  0.00  0.00     0.006 C 
ENDBRANCH   8  11
ENDBRANCH   7   8
ENDBRANCH   1   7
BRANCH   6  13
ATOM     13  N   LIG d   1      -2.204  76.981 113.330  0.00  0.00    -0.311 N 
ATOM     14  C   LIG d   1      -2.563  78.004 112.556  0.00  0.00     0.210 C 
ATOM     15  C   LIG d   1      -2.176  77.864 111.080  0.00  0.00     0.109 C 
ATOM     16  O   LIG d   1      -3.135  79.028 112.957  0.00  0.00    -0.276 OA
ATOM     17  H   LIG d   1      -1.715  76.206 112.927  0.00  0.00     0.149 HD
ENDBRANCH   6  13
BRANCH   5  18
ATOM     18  N   LIG d   1      -0.989  78.818 115.447  0.00  0.00     0.381 N 
ATOM     19  H   LIG d   1       0.001  78.929 115.352  0.00  0.00    -0.090 HD
ATOM     20  H   LIG d   1      -1.289  79.339 116.252  0.00  0.00    -0.090 HD
ATOM     21  H   LIG d   1      -1.448  79.159 114.631  0.00  0.00    -0.090 HD
ENDBRANCH   5  18
BRANCH   3  22
ATOM     22  C   LIG d   1      -1.883  75.418 118.699  0.00  0.00     0.382 C 
ATOM     23  O   LIG d   1      -1.759  74.182 118.874  0.00  0.00    -0.241 OA
ATOM     24  O   LIG d   1      -1.833  76.185 119.680  0.00  0.00    -0.241 OA
ENDBRANCH   3  22
TORSDOF 7
ENDMDL
