MODEL 1
REMARK VINA RESULT:      -5.2      0.000      0.000
REMARK  7 active torsions:
REMARK  status: ('A' for Active; 'I' for Inactive)
REMARK    1  A    between atoms: C_2  and  C_3 
REMARK    2  A    between atoms: C_3  and  O_6 
REMARK    3  A    between atoms: C_3  and  C_4 
REMARK    4  A    between atoms: C_7  and  O_6 
REMARK    5  A    between atoms: C_9  and  C_10 
REMARK    6  A    between atoms: N_15  and  C_14 
REMARK    7  A    between atoms: N_20  and  C_19 
REMARK       I    between atoms: C_22  and  N_20 
ROOT
ATOM      1  C   LIG d   1      -2.036  75.813 114.747  0.00  0.00     0.161 C 
ATOM      2  C   LIG d   1      -1.872  75.246 116.022  0.00  0.00     0.016 C 
ATOM      3  C   LIG d   1      -1.164  75.877 117.070  0.00  0.00     0.038 C 
ATOM      4  C   LIG d   1      -0.696  77.195 116.959  0.00  0.00     0.028 C 
ATOM      5  C   LIG d   1      -0.398  77.614 115.523  0.00  0.00    -0.047 C 
ATOM      6  C   LIG d   1      -1.628  77.298 114.643  0.00  0.00     0.091 C 
ENDROOT
BRANCH   1   7
ATOM      7  O   LIG d   1      -3.395  75.634 114.303  0.00  0.00    -0.368 OA
BRANCH   7   8
ATOM      8  C   LIG d   1      -4.360  75.288 115.328  0.00  0.00     0.119 C 
BRANCH   8   9
ATOM      9  C   LIG d   1      -5.299  74.219 114.736  0.00  0.00     0.028 C 
ATOM     10  C   LIG d   1      -6.664  74.180 115.445  0.00  0.00     0.006 C 
ENDBRANCH   8   9
BRANCH   8  11
ATOM     11  C   LIG d   1      -5.262  76.477 115.669  0.00  0.00     0.028 C 
ATOM     12  C   LIG d   1      -4.887  77.146 117.001  0.00  0.00     0.006 C 
ENDBRANCH   8  11
ENDBRANCH   7   8
ENDBRANCH   1   7
BRANCH   6  13
ATOM     13  N   LIG d   1      -1.390  77.599 113.207  0.00  0.00    -0.311 N 
ATOM     14  C   LIG d   1      -2.307  78.145 112.410  0.00  0.00     0.210 C 
ATOM     15  C   LIG d   1      -1.862  78.353 110.959  0.00  0.00     0.109 C 
ATOM     16  O   LIG d   1      -3.436  78.506 112.775  0.00  0.00    -0.276 OA
ATOM     17  H   LIG d   1      -0.490  77.366 112.835  0.00  0.00     0.149 HD
ENDBRANCH   6  13
BRANCH   5  18
ATOM     18  N   LIG d   1      -0.052  79.048 115.540  0.00  0.00     0.381 N 
ATOM     19  H   LIG d   1       0.910  79.167 115.292  0.00  0.00    -0.090 HD
ATOM     20  H   LIG d   1      -0.184  79.403 116.471  0.00  0.00    -0.090 HD
ATOM     21  H   LIG d   1      -0.632  79.546 114.901  0.00  0.00    -0.090 HD
ENDBRANCH   5  18
BRANCH   3  22
ATOM     22  C   LIG d   1      -0.882  75.174 118.231  0.00  0.00     0.382 C 
ATOM     23  O   LIG d   1      -1.766  74.459 118.761  0.00  0.00    -0.241 OA
ATOM     24  O   LIG d   1       0.232  75.279 118.779  0.00  0.00    -0.241 OA
ENDBRANCH   3  22
TORSDOF 7
ENDMDL
MODEL 2
REMARK VINA RESULT:      -5.1      2.403      5.108
REMARK  7 active torsions:
REMARK  status: ('A' for Active; 'I' for Inactive)
REMARK    1  A    between atoms: C_2  and  C_3 
REMARK    2  A    between atoms: C_3  and  O_6 
REMARK    3  A    between atoms: C_3  and  C_4 
REMARK    4  A    between atoms: C_7  and  O_6 
REMARK    5  A    between atoms: C_9  and  C_10 
REMARK    6  A    between atoms: N_15  and  C_14 
REMARK    7  A    between atoms: N_20  and  C_19 
REMARK       I    between atoms: C_22  and  N_20 
ROOT
ATOM      1  C   LIG d   1      -2.838  78.472 115.478  0.00  0.00     0.161 C 
ATOM      2  C   LIG d   1      -2.892  79.639 114.699  0.00  0.00     0.016 C 
ATOM      3  C   LIG d   1      -2.317  79.742 113.411  0.00  0.00     0.038 C 
ATOM      4  C   LIG d   1      -1.777  78.630 112.749  0.00  0.00     0.028 C 
ATOM      5  C   LIG d   1      -1.250  77.558 113.697  0.00  0.00    -0.047 C 
ATOM      6  C   LIG d   1      -2.350  77.215 114.727  0.00  0.00     0.091 C 
ENDROOT
BRANCH   1   7
ATOM      7  O   LIG d   1      -4.124  78.227 116.081  0.00  0.00    -0.368 OA
BRANCH   7   8
ATOM      8  C   LIG d   1      -4.151  78.182 117.529  0.00  0.00     0.119 C 
BRANCH   8   9
ATOM      9  C   LIG d   1      -5.362  77.323 117.943  0.00  0.00     0.028 C 
ATOM     10  C   LIG d   1      -5.924  76.499 116.773  0.00  0.00     0.006 C 
ENDBRANCH   8   9
BRANCH   8  11
ATOM     11  C   LIG d   1      -4.415  79.568 118.125  0.00  0.00     0.028 C 
ATOM     12  C   LIG d   1      -5.716  80.202 117.607  0.00  0.00     0.006 C 
ENDBRANCH   8  11
ENDBRANCH   7   8
ENDBRANCH   1   7
BRANCH   6  13
ATOM     13  N   LIG d   1      -1.889  76.235 115.745  0.00  0.00    -0.311 N 
ATOM     14  C   LIG d   1      -2.439  75.033 115.907  0.00  0.00     0.210 C 
ATOM     15  C   LIG d   1      -1.824  74.186 117.026  0.00  0.00     0.109 C 
ATOM     16  O   LIG d   1      -3.357  74.575 115.210  0.00  0.00    -0.276 OA
ATOM     17  H   LIG d   1      -1.127  76.512 116.333  0.00  0.00     0.149 HD
ENDBRANCH   6  13
BRANCH   5  18
ATOM     18  N   LIG d   1      -0.844  76.400 112.879  0.00  0.00     0.381 N 
ATOM     19  H   LIG d   1      -1.557  75.699 112.906  0.00  0.00    -0.090 HD
ATOM     20  H   LIG d   1      -0.002  76.009 113.264  0.00  0.00    -0.090 HD
ATOM     21  H   LIG d   1      -0.685  76.686 111.938  0.00  0.00    -0.090 HD
ENDBRANCH   5  18
BRANCH   3  22
ATOM     22  C   LIG d   1      -2.243  80.979 112.788  0.00  0.00     0.382 C 
ATOM     23  O   LIG d   1      -3.294  81.568 112.437  0.00  0.00    -0.241 OA
ATOM     24  O   LIG d   1      -1.138  81.493 112.533  0.00  0.00    -0.241 OA
ENDBRANCH   3  22
TORSDOF 7
ENDMDL
MODEL 3
REMARK VINA RESULT:      -5.1      1.911      5.102
REMARK  7 active torsions:
REMARK  status: ('A' for Active; 'I' for Inactive)
REMARK    1  A    between atoms: C_2  and  C_3 
REMARK    2  A    between atoms: C_3  and  O_6 
REMARK    3  A    between atoms: C_3  and  C_4 
REMARK    4  A    between atoms: C_7  and  O_6 
REMARK    5  A    between atoms: C_9  and  C_10 
REMARK    6  A    between atoms: N_15  and  C_14 
REMARK    7  A    between atoms: N_20  and  C_19 
REMARK       I    between atoms: C_22  and  N_20 
ROOT
ATOM      1  C   LIG d   1      -2.327  78.034 116.327  0.00  0.00     0.161 C 
ATOM      2  C   LIG d   1      -2.708  78.954 115.337  0.00  0.00     0.016 C 
ATOM      3  C   LIG d   1      -2.260  78.886 113.997  0.00  0.00     0.038 C 
ATOM      4  C   LIG d   1      -1.515  77.797 113.519  0.00  0.00     0.028 C 
ATOM      5  C   LIG d   1      -0.688  77.109 114.600  0.00  0.00    -0.047 C 
ATOM      6  C   LIG d   1      -1.605  76.777 115.799  0.00  0.00     0.091 C 
ENDROOT
BRANCH   1   7
ATOM      7  O   LIG d   1      -3.476  77.659 117.113  0.00  0.00    -0.368 OA
BRANCH   7   8
ATOM      8  C   LIG d   1      -4.730  77.547 116.396  0.00  0.00     0.119 C 
BRANCH   8   9
ATOM      9  C   LIG d   1      -5.825  78.181 117.276  0.00  0.00     0.028 C 
ATOM     10  C   LIG d   1      -5.540  79.658 117.594  0.00  0.00     0.006 C 
ENDBRANCH   8   9
BRANCH   8  11
ATOM     11  C   LIG d   1      -5.145  76.083 116.223  0.00  0.00     0.028 C 
ATOM     12  C   LIG d   1      -4.976  75.582 114.780  0.00  0.00     0.006 C 
ENDBRANCH   8  11
ENDBRANCH   7   8
ENDBRANCH   1   7
BRANCH   6  13
ATOM     13  N   LIG d   1      -0.857  76.177 116.935  0.00  0.00    -0.311 N 
ATOM     14  C   LIG d   1      -1.220  75.045 117.535  0.00  0.00     0.210 C 
ATOM     15  C   LIG d   1      -0.322  74.613 118.698  0.00  0.00     0.109 C 
ATOM     16  O   LIG d   1      -2.182  74.340 117.193  0.00  0.00    -0.276 OA
ATOM     17  H   LIG d   1      -0.046  76.667 117.256  0.00  0.00     0.149 HD
ENDBRANCH   6  13
BRANCH   5  18
ATOM     18  N   LIG d   1      -0.072  75.913 113.994  0.00  0.00     0.381 N 
ATOM     19  H   LIG d   1       0.592  75.516 114.629  0.00  0.00    -0.090 HD
ATOM     20  H   LIG d   1       0.414  76.185 113.158  0.00  0.00    -0.090 HD
ATOM     21  H   LIG d   1      -0.775  75.241 113.775  0.00  0.00    -0.090 HD
ENDBRANCH   5  18
BRANCH   3  22
ATOM     22  C   LIG d   1      -2.524  79.935 113.130  0.00  0.00     0.382 C 
ATOM     23  O   LIG d   1      -2.202  79.845 111.921  0.00  0.00    -0.241 OA
ATOM     24  O   LIG d   1      -3.040  80.988 113.551  0.00  0.00    -0.241 OA
ENDBRANCH   3  22
TORSDOF 7
ENDMDL
MODEL 4
REMARK VINA RESULT:      -4.8      1.736      4.848
REMARK  7 active torsions:
REMARK  status: ('A' for Active; 'I' for Inactive)
REMARK    1  A    between atoms: C_2  and  C_3 
REMARK    2  A    between atoms: C_3  and  O_6 
REMARK    3  A    between atoms: C_3  and  C_4 
REMARK    4  A    between atoms: C_7  and  O_6 
REMARK    5  A    between atoms: C_9  and  C_10 
REMARK    6  A    between atoms: N_15  and  C_14 
REMARK    7  A    between atoms: N_20  and  C_19 
REMARK       I    between atoms: C_22  and  N_20 
ROOT
ATOM      1  C   LIG d   1      -3.498  76.901 115.110  0.00  0.00     0.161 C 
ATOM      2  C   LIG d   1      -3.656  77.369 113.794  0.00  0.00     0.016 C 
ATOM      3  C   LIG d   1      -2.571  77.631 112.926  0.00  0.00     0.038 C 
ATOM      4  C   LIG d   1      -1.252  77.296 113.266  0.00  0.00     0.028 C 
ATOM      5  C   LIG d   1      -0.996  77.293 114.770  0.00  0.00    -0.047 C 
ATOM      6  C   LIG d   1      -2.073  76.425 115.460  0.00  0.00     0.091 C 
ENDROOT
BRANCH   1   7
ATOM      7  O   LIG d   1      -4.455  75.856 115.374  0.00  0.00    -0.368 OA
BRANCH   7   8
ATOM      8  C   LIG d   1      -5.418  76.124 116.423  0.00  0.00     0.119 C 
BRANCH   8   9
ATOM      9  C   LIG d   1      -6.824  75.948 115.816  0.00  0.00     0.028 C 
ATOM     10  C   LIG d   1      -7.934  76.463 116.748  0.00  0.00     0.006 C 
ENDBRANCH   8   9
BRANCH   8  11
ATOM     11  C   LIG d   1      -5.353  77.585 116.879  0.00  0.00     0.028 C 
ATOM     12  C   LIG d   1      -4.949  77.731 118.354  0.00  0.00     0.006 C 
ENDBRANCH   8  11
ENDBRANCH   7   8
ENDBRANCH   1   7
BRANCH   6  13
ATOM     13  N   LIG d   1      -1.947  76.437 116.941  0.00  0.00    -0.311 N 
ATOM     14  C   LIG d   1      -1.800  75.334 117.673  0.00  0.00     0.210 C 
ATOM     15  C   LIG d   1      -1.708  75.567 119.184  0.00  0.00     0.109 C 
ATOM     16  O   LIG d   1      -1.705  74.186 117.211  0.00  0.00    -0.276 OA
ATOM     17  H   LIG d   1      -1.982  77.328 117.395  0.00  0.00     0.149 HD
ENDBRANCH   6  13
BRANCH   5  18
ATOM     18  N   LIG d   1       0.375  76.796 114.988  0.00  0.00     0.381 N 
ATOM     19  H   LIG d   1       0.434  75.835 114.714  0.00  0.00    -0.090 HD
ATOM     20  H   LIG d   1       0.592  76.858 115.967  0.00  0.00    -0.090 HD
ATOM     21  H   LIG d   1       1.023  77.339 114.461  0.00  0.00    -0.090 HD
ENDBRANCH   5  18
BRANCH   3  22
ATOM     22  C   LIG d   1      -2.798  78.271 111.717  0.00  0.00     0.382 C 
ATOM     23  O   LIG d   1      -2.270  79.386 111.490  0.00  0.00    -0.241 OA
ATOM     24  O   LIG d   1      -3.558  77.767 110.869  0.00  0.00    -0.241 OA
ENDBRANCH   3  22
TORSDOF 7
ENDMDL
MODEL 5
REMARK VINA RESULT:      -4.8      2.702      5.147
REMARK  7 active torsions:
REMARK  status: ('A' for Active; 'I' for Inactive)
REMARK    1  A    between atoms: C_2  and  C_3 
REMARK    2  A    between atoms: C_3  and  O_6 
REMARK    3  A    between atoms: C_3  and  C_4 
REMARK    4  A    between atoms: C_7  and  O_6 
REMARK    5  A    between atoms: C_9  and  C_10 
REMARK    6  A    between atoms: N_15  and  C_14 
REMARK    7  A    between atoms: N_20  and  C_19 
REMARK       I    between atoms: C_22  and  N_20 
ROOT
ATOM      1  C   LIG d   1      -1.554  79.542 114.421  0.00  0.00     0.161 C 
ATOM      2  C   LIG d   1      -2.390  78.500 114.856  0.00  0.00     0.016 C 
ATOM      3  C   LIG d   1      -2.968  77.550 113.983  0.00  0.00     0.038 C 
ATOM      4  C   LIG d   1      -2.624  77.486 112.624  0.00  0.00     0.028 C 
ATOM      5  C   LIG d   1      -2.177  78.826 112.049  0.00  0.00    -0.047 C 
ATOM      6  C   LIG d   1      -1.078  79.421 112.958  0.00  0.00     0.091 C 
ENDROOT
BRANCH   1   7
ATOM      7  O   LIG d   1      -0.423  79.662 115.307  0.00  0.00    -0.368 OA
BRANCH   7   8
ATOM      8  C   LIG d   1      -0.571  79.057 116.616  0.00  0.00     0.119 C 
BRANCH   8   9
ATOM      9  C   LIG d   1      -0.143  80.105 117.661  0.00  0.00     0.028 C 
ATOM     10  C   LIG d   1      -1.031  80.077 118.917  0.00  0.00     0.006 C 
ENDBRANCH   8   9
BRANCH   8  11
ATOM     11  C   LIG d   1       0.395  77.883 116.799  0.00  0.00     0.028 C 
ATOM     12  C   LIG d   1      -0.262  76.672 117.480  0.00  0.00     0.006 C 
ENDBRANCH   8  11
ENDBRANCH   7   8
ENDBRANCH   1   7
BRANCH   6  13
ATOM     13  N   LIG d   1      -0.644  80.772 112.514  0.00  0.00    -0.311 N 
ATOM     14  C   LIG d   1      -1.492  81.765 112.253  0.00  0.00     0.210 C 
ATOM     15  C   LIG d   1      -0.837  83.069 111.789  0.00  0.00     0.109 C 
ATOM     16  O   LIG d   1      -2.723  81.699 112.392  0.00  0.00    -0.276 OA
ATOM     17  H   LIG d   1       0.340  80.922 112.405  0.00  0.00     0.149 HD
ENDBRANCH   6  13
BRANCH   5  18
ATOM     18  N   LIG d   1      -1.718  78.587 110.668  0.00  0.00     0.381 N 
ATOM     19  H   LIG d   1      -1.159  77.759 110.635  0.00  0.00    -0.090 HD
ATOM     20  H   LIG d   1      -1.150  79.363 110.375  0.00  0.00    -0.090 HD
ATOM     21  H   LIG d   1      -2.502  78.492 110.060  0.00  0.00    -0.090 HD
ENDBRANCH   5  18
BRANCH   3  22
ATOM     22  C   LIG d   1      -3.932  76.675 114.460  0.00  0.00     0.382 C 
ATOM     23  O   LIG d   1      -4.920  77.116 115.095  0.00  0.00    -0.241 OA
ATOM     24  O   LIG d   1      -3.804  75.446 114.301  0.00  0.00    -0.241 OA
ENDBRANCH   3  22
TORSDOF 7
ENDMDL
MODEL 6
REMARK VINA RESULT:      -4.7      2.696      3.900
REMARK  7 active torsions:
REMARK  status: ('A' for Active; 'I' for Inactive)
REMARK    1  A    between atoms: C_2  and  C_3 
REMARK    2  A    between atoms: C_3  and  O_6 
REMARK    3  A    between atoms: C_3  and  C_4 
REMARK    4  A    between atoms: C_7  and  O_6 
REMARK    5  A    between atoms: C_9  and  C_10 
REMARK    6  A    between atoms: N_15  and  C_14 
REMARK    7  A    between atoms: N_20  and  C_19 
REMARK       I    between atoms: C_22  and  N_20 
ROOT
ATOM      1  C   LIG d   1      -3.315  77.865 116.759  0.00  0.00     0.161 C 
ATOM      2  C   LIG d   1      -2.373  78.779 117.259  0.00  0.00     0.016 C 
ATOM      3  C   LIG d   1      -1.004  78.759 116.904  0.00  0.00     0.038 C 
ATOM      4  C   LIG d   1      -0.511  77.911 115.901  0.00  0.00     0.028 C 
ATOM      5  C   LIG d   1      -1.325  76.632 115.734  0.00  0.00    -0.047 C 
ATOM      6  C   LIG d   1      -2.817  77.004 115.579  0.00  0.00     0.091 C 
ENDROOT
BRANCH   1   7
ATOM      7  O   LIG d   1      -4.525  78.559 116.397  0.00  0.00    -0.368 OA
BRANCH   7   8
ATOM      8  C   LIG d   1      -5.552  78.623 117.417  0.00  0.00     0.119 C 
BRANCH   8   9
ATOM      9  C   LIG d   1      -6.777  77.851 116.890  0.00  0.00     0.028 C 
ATOM     10  C   LIG d   1      -6.920  76.464 117.540  0.00  0.00     0.006 C 
ENDBRANCH   8   9
BRANCH   8  11
ATOM     11  C   LIG d   1      -6.039  80.060 117.628  0.00  0.00     0.028 C 
ATOM     12  C   LIG d   1      -7.556  80.147 117.859  0.00  0.00     0.006 C 
ENDBRANCH   8  11
ENDBRANCH   7   8
ENDBRANCH   1   7
BRANCH   6  13
ATOM     13  N   LIG d   1      -3.694  75.806 115.496  0.00  0.00    -0.311 N 
ATOM     14  C   LIG d   1      -4.694  75.689 114.624  0.00  0.00     0.210 C 
ATOM     15  C   LIG d   1      -5.486  74.381 114.720  0.00  0.00     0.109 C 
ATOM     16  O   LIG d   1      -4.981  76.531 113.760  0.00  0.00    -0.276 OA
ATOM     17  H   LIG d   1      -3.511  75.062 116.140  0.00  0.00     0.149 HD
ENDBRANCH   6  13
BRANCH   5  18
ATOM     18  N   LIG d   1      -0.785  75.909 114.568  0.00  0.00     0.381 N 
ATOM     19  H   LIG d   1      -1.389  75.148 114.331  0.00  0.00    -0.090 HD
ATOM     20  H   LIG d   1       0.117  75.534 114.806  0.00  0.00    -0.090 HD
ATOM     21  H   LIG d   1      -0.700  76.528 113.792  0.00  0.00    -0.090 HD
ENDBRANCH   5  18
BRANCH   3  22
ATOM     22  C   LIG d   1      -0.106  79.567 117.584  0.00  0.00     0.382 C 
ATOM     23  O   LIG d   1       0.202  79.301 118.771  0.00  0.00    -0.241 OA
ATOM     24  O   LIG d   1       0.367  80.583 117.040  0.00  0.00    -0.241 OA
ENDBRANCH   3  22
TORSDOF 7
ENDMDL
MODEL 7
REMARK VINA RESULT:      -4.6      3.863      6.110
REMARK  7 active torsions:
REMARK  status: ('A' for Active; 'I' for Inactive)
REMARK    1  A    between atoms: C_2  and  C_3 
REMARK    2  A    between atoms: C_3  and  O_6 
REMARK    3  A    between atoms: C_3  and  C_4 
REMARK    4  A    between atoms: C_7  and  O_6 
REMARK    5  A    between atoms: C_9  and  C_10 
REMARK    6  A    between atoms: N_15  and  C_14 
REMARK    7  A    between atoms: N_20  and  C_19 
REMARK       I    between atoms: C_22  and  N_20 
ROOT
ATOM      1  C   LIG d   1      -5.878  77.923 117.312  0.00  0.00     0.161 C 
ATOM      2  C   LIG d   1      -6.920  78.863 117.266  0.00  0.00     0.016 C 
ATOM      3  C   LIG d   1      -6.882  80.102 117.947  0.00  0.00     0.038 C 
ATOM      4  C   LIG d   1      -5.726  80.551 118.603  0.00  0.00     0.028 C 
ATOM      5  C   LIG d   1      -4.832  79.420 119.099  0.00  0.00    -0.047 C 
ATOM      6  C   LIG d   1      -4.564  78.443 117.931  0.00  0.00     0.091 C 
ENDROOT
BRANCH   1   7
ATOM      7  O   LIG d   1      -5.636  77.396 115.992  0.00  0.00    -0.368 OA
BRANCH   7   8
ATOM      8  C   LIG d   1      -6.623  76.463 115.487  0.00  0.00     0.119 C 
BRANCH   8   9
ATOM      9  C   LIG d   1      -6.786  75.348 116.538  0.00  0.00     0.028 C 
ATOM     10  C   LIG d   1      -8.239  75.201 117.018  0.00  0.00     0.006 C 
ENDBRANCH   8   9
BRANCH   8  11
ATOM     11  C   LIG d   1      -6.127  75.758 114.222  0.00  0.00     0.028 C 
ATOM     12  C   LIG d   1      -5.656  74.320 114.487  0.00  0.00     0.006 C 
ENDBRANCH   8  11
ENDBRANCH   7   8
ENDBRANCH   1   7
BRANCH   6  13
ATOM     13  N   LIG d   1      -3.766  77.262 118.351  0.00  0.00    -0.311 N 
ATOM     14  C   LIG d   1      -2.441  77.194 118.236  0.00  0.00     0.210 C 
ATOM     15  C   LIG d   1      -1.817  75.878 118.711  0.00  0.00     0.109 C 
ATOM     16  O   LIG d   1      -1.719  78.111 117.815  0.00  0.00    -0.276 OA
ATOM     17  H   LIG d   1      -4.268  76.485 118.733  0.00  0.00     0.149 HD
ENDBRANCH   6  13
BRANCH   5  18
ATOM     18  N   LIG d   1      -3.600  80.028 119.638  0.00  0.00     0.381 N 
ATOM     19  H   LIG d   1      -3.411  79.660 120.548  0.00  0.00    -0.090 HD
ATOM     20  H   LIG d   1      -3.738  81.020 119.721  0.00  0.00    -0.090 HD
ATOM     21  H   LIG d   1      -2.834  79.842 119.030  0.00  0.00    -0.090 HD
ENDBRANCH   5  18
BRANCH   3  22
ATOM     22  C   LIG d   1      -8.022  80.887 118.011  0.00  0.00     0.382 C 
ATOM     23  O   LIG d   1      -8.311  81.651 117.058  0.00  0.00    -0.241 OA
ATOM     24  O   LIG d   1      -8.742  80.875 119.027  0.00  0.00    -0.241 OA
ENDBRANCH   3  22
TORSDOF 7
ENDMDL
MODEL 8
REMARK VINA RESULT:      -4.4      1.598      2.035
REMARK  7 active torsions:
REMARK  status: ('A' for Active; 'I' for Inactive)
REMARK    1  A    between atoms: C_2  and  C_3 
REMARK    2  A    between atoms: C_3  and  O_6 
REMARK    3  A    between atoms: C_3  and  C_4 
REMARK    4  A    between atoms: C_7  and  O_6 
REMARK    5  A    between atoms: C_9  and  C_10 
REMARK    6  A    between atoms: N_15  and  C_14 
REMARK    7  A    between atoms: N_20  and  C_19 
REMARK       I    between atoms: C_22  and  N_20 
ROOT
ATOM      1  C   LIG d   1      -3.051  75.840 114.926  0.00  0.00     0.161 C 
ATOM      2  C   LIG d   1      -2.978  75.584 116.305  0.00  0.00     0.016 C 
ATOM      3  C   LIG d   1      -2.499  76.523 117.247  0.00  0.00     0.038 C 
ATOM      4  C   LIG d   1      -2.200  77.846 116.888  0.00  0.00     0.028 C 
ATOM      5  C   LIG d   1      -1.779  77.998 115.431  0.00  0.00    -0.047 C 
ATOM      6  C   LIG d   1      -2.834  77.316 114.530  0.00  0.00     0.091 C 
ENDROOT
BRANCH   1   7
ATOM      7  O   LIG d   1      -4.307  75.362 114.405  0.00  0.00    -0.368 OA
BRANCH   7   8
ATOM      8  C   LIG d   1      -5.414  76.294 114.455  0.00  0.00     0.119 C 
BRANCH   8   9
ATOM      9  C   LIG d   1      -6.176  76.039 115.771  0.00  0.00     0.028 C 
ATOM     10  C   LIG d   1      -6.243  77.291 116.662  0.00  0.00     0.006 C 
ENDBRANCH   8   9
BRANCH   8  11
ATOM     11  C   LIG d   1      -6.427  76.017 113.340  0.00  0.00     0.028 C 
ATOM     12  C   LIG d   1      -6.441  77.112 112.262  0.00  0.00     0.006 C 
ENDBRANCH   8  11
ENDBRANCH   7   8
ENDBRANCH   1   7
BRANCH   6  13
ATOM     13  N   LIG d   1      -2.457  77.346 113.093  0.00  0.00    -0.311 N 
ATOM     14  C   LIG d   1      -2.797  78.332 112.265  0.00  0.00     0.210 C 
ATOM     15  C   LIG d   1      -2.323  78.156 110.819  0.00  0.00     0.109 C 
ATOM     16  O   LIG d   1      -3.420  79.352 112.599  0.00  0.00    -0.276 OA
ATOM     17  H   LIG d   1      -1.924  76.572 112.745  0.00  0.00     0.149 HD
ENDBRANCH   6  13
BRANCH   5  18
ATOM     18  N   LIG d   1      -1.632  79.440 115.158  0.00  0.00     0.381 N 
ATOM     19  H   LIG d   1      -0.667  79.660 115.010  0.00  0.00    -0.090 HD
ATOM     20  H   LIG d   1      -1.954  79.957 115.957  0.00  0.00    -0.090 HD
ATOM     21  H   LIG d   1      -2.164  79.692 114.354  0.00  0.00    -0.090 HD
ENDBRANCH   5  18
BRANCH   3  22
ATOM     22  C   LIG d   1      -2.277  76.129 118.558  0.00  0.00     0.382 C 
ATOM     23  O   LIG d   1      -2.492  76.931 119.498  0.00  0.00    -0.241 OA
ATOM     24  O   LIG d   1      -1.821  74.997 118.809  0.00  0.00    -0.241 OA
ENDBRANCH   3  22
TORSDOF 7
ENDMDL
MODEL 9
REMARK VINA RESULT:      -4.2      3.010      5.298
REMARK  7 active torsions:
REMARK  status: ('A' for Active; 'I' for Inactive)
REMARK    1  A    between atoms: C_2  and  C_3 
REMARK    2  A    between atoms: C_3  and  O_6 
REMARK    3  A    between atoms: C_3  and  C_4 
REMARK    4  A    between atoms: C_7  and  O_6 
REMARK    5  A    between atoms: C_9  and  C_10 
REMARK    6  A    between atoms: N_15  and  C_14 
REMARK    7  A    between atoms: N_20  and  C_19 
REMARK       I    between atoms: C_22  and  N_20 
ROOT
ATOM      1  C   LIG d   1      -4.716  76.832 117.555  0.00  0.00     0.161 C 
ATOM      2  C   LIG d   1      -5.737  77.770 117.328  0.00  0.00     0.016 C 
ATOM      3  C   LIG d   1      -5.617  79.143 117.646  0.00  0.00     0.038 C 
ATOM      4  C   LIG d   1      -4.404  79.701 118.075  0.00  0.00     0.028 C 
ATOM      5  C   LIG d   1      -3.500  78.707 118.795  0.00  0.00    -0.047 C 
ATOM      6  C   LIG d   1      -3.346  77.443 117.919  0.00  0.00     0.091 C 
ENDROOT
BRANCH   1   7
ATOM      7  O   LIG d   1      -4.590  75.962 116.412  0.00  0.00    -0.368 OA
BRANCH   7   8
ATOM      8  C   LIG d   1      -4.769  76.583 115.116  0.00  0.00     0.119 C 
BRANCH   8   9
ATOM      9  C   LIG d   1      -5.717  75.684 114.299  0.00  0.00     0.028 C 
ATOM     10  C   LIG d   1      -5.605  74.202 114.694  0.00  0.00     0.006 C 
ENDBRANCH   8   9
BRANCH   8  11
ATOM     11  C   LIG d   1      -3.457  76.613 114.326  0.00  0.00     0.028 C 
ATOM     12  C   LIG d   1      -2.741  77.970 114.410  0.00  0.00     0.006 C 
ENDBRANCH   8  11
ENDBRANCH   7   8
ENDBRANCH   1   7
BRANCH   6  13
ATOM     13  N   LIG d   1      -2.545  76.384 118.587  0.00  0.00    -0.311 N 
ATOM     14  C   LIG d   1      -1.453  75.842 118.050  0.00  0.00     0.210 C 
ATOM     15  C   LIG d   1      -0.789  74.752 118.897  0.00  0.00     0.109 C 
ATOM     16  O   LIG d   1      -0.954  76.184 116.967  0.00  0.00    -0.276 OA
ATOM     17  H   LIG d   1      -2.862  76.070 119.483  0.00  0.00     0.149 HD
ENDBRANCH   6  13
BRANCH   5  18
ATOM     18  N   LIG d   1      -2.218  79.384 119.064  0.00  0.00     0.381 N 
ATOM     19  H   LIG d   1      -1.645  78.805 119.645  0.00  0.00    -0.090 HD
ATOM     20  H   LIG d   1      -2.399  80.241 119.555  0.00  0.00    -0.090 HD
ATOM     21  H   LIG d   1      -1.747  79.576 118.207  0.00  0.00    -0.090 HD
ENDBRANCH   5  18
BRANCH   3  22
ATOM     22  C   LIG d   1      -6.732  79.965 117.572  0.00  0.00     0.382 C 
ATOM     23  O   LIG d   1      -6.604  81.165 117.229  0.00  0.00    -0.241 OA
ATOM     24  O   LIG d   1      -7.857  79.534 117.888  0.00  0.00    -0.241 OA
ENDBRANCH   3  22
TORSDOF 7
ENDMDL
