MODEL 1
REMARK VINA RESULT:      -4.9      0.000      0.000
REMARK  7 active torsions:
REMARK  status: ('A' for Active; 'I' for Inactive)
REMARK    1  A    between atoms: C_2  and  C_3 
REMARK    2  A    between atoms: C_3  and  O_6 
REMARK    3  A    between atoms: C_3  and  C_4 
REMARK    4  A    between atoms: C_7  and  O_6 
REMARK    5  A    between atoms: C_9  and  C_10 
REMARK    6  A    between atoms: N_15  and  C_14 
REMARK    7  A    between atoms: N_20  and  C_19 
REMARK       I    between atoms: C_22  and  N_20 
ROOT
ATOM      1  C   LIG d   1      -2.528  78.114 116.057  0.00  0.00     0.161 C 
ATOM      2  C   LIG d   1      -2.866  78.952 114.982  0.00  0.00     0.016 C 
ATOM      3  C   LIG d   1      -2.335  78.801 113.680  0.00  0.00     0.038 C 
ATOM      4  C   LIG d   1      -1.540  77.700 113.327  0.00  0.00     0.028 C 
ATOM      5  C   LIG d   1      -0.766  77.110 114.502  0.00  0.00    -0.047 C 
ATOM      6  C   LIG d   1      -1.749  76.841 115.665  0.00  0.00     0.091 C 
ENDROOT
BRANCH   1   7
ATOM      7  O   LIG d   1      -3.715  77.766 116.797  0.00  0.00    -0.368 OA
BRANCH   7   8
ATOM      8  C   LIG d   1      -4.957  77.781 116.053  0.00  0.00     0.119 C 
BRANCH   8   9
ATOM      9  C   LIG d   1      -6.034  78.409 116.959  0.00  0.00     0.028 C 
ATOM     10  C   LIG d   1      -5.692  79.853 117.361  0.00  0.00     0.006 C 
ENDBRANCH   8   9
BRANCH   8  11
ATOM     11  C   LIG d   1      -5.450  76.360 115.763  0.00  0.00     0.028 C 
ATOM     12  C   LIG d   1      -5.084  75.878 114.350  0.00  0.00     0.006 C 
ENDBRANCH   8  11
ENDBRANCH   7   8
ENDBRANCH   1   7
BRANCH   6  13
ATOM     13  N   LIG d   1      -1.061  76.342 116.884  0.00  0.00    -0.311 N 
ATOM     14  C   LIG d   1      -1.351  75.179 117.465  0.00  0.00     0.210 C 
ATOM     15  C   LIG d   1      -0.537  74.864 118.723  0.00  0.00     0.109 C 
ATOM     16  O   LIG d   1      -2.184  74.364 117.040  0.00  0.00    -0.276 OA
ATOM     17  H   LIG d   1      -0.349  76.925 117.278  0.00  0.00     0.149 HD
ENDBRANCH   6  13
BRANCH   5  18
ATOM     18  N   LIG d   1      -0.090  75.890 114.022  0.00  0.00     0.381 N 
ATOM     19  H   LIG d   1       0.863  76.097 113.799  0.00  0.00    -0.090 HD
ATOM     20  H   LIG d   1      -0.548  75.572 113.186  0.00  0.00    -0.090 HD
ATOM     21  H   LIG d   1      -0.129  75.181 114.721  0.00  0.00    -0.090 HD
ENDBRANCH   5  18
BRANCH   3  22
ATOM     22  C   LIG d   1      -2.566  79.780 112.726  0.00  0.00     0.382 C 
ATOM     23  O   LIG d   1      -1.921  79.771 111.649  0.00  0.00    -0.241 OA
ATOM     24  O   LIG d   1      -3.379  80.697 112.945  0.00  0.00    -0.241 OA
ENDBRANCH   3  22
TORSDOF 7
ENDMDL
MODEL 2
REMARK VINA RESULT:      -4.8      1.385      2.162
REMARK  7 active torsions:
REMARK  status: ('A' for Active; 'I' for Inactive)
REMARK    1  A    between atoms: C_2  and  C_3 
REMARK    2  A    between atoms: C_3  and  O_6 
REMARK    3  A    between atoms: C_3  and  C_4 
REMARK    4  A    between atoms: C_7  and  O_6 
REMARK    5  A    between atoms: C_9  and  C_10 
REMARK    6  A    between atoms: N_15  and  C_14 
REMARK    7  A    between atoms: N_20  and  C_19 
REMARK       I    between atoms: C_22  and  N_20 
ROOT
ATOM      1  C   LIG d   1      -2.907  78.613 115.601  0.00  0.00     0.161 C 
ATOM      2  C   LIG d   1      -3.091  79.586 114.605  0.00  0.00     0.016 C 
ATOM      3  C   LIG d   1      -2.451  79.542 113.345  0.00  0.00     0.038 C 
ATOM      4  C   LIG d   1      -1.694  78.434 112.937  0.00  0.00     0.028 C 
ATOM      5  C   LIG d   1      -1.071  77.665 114.097  0.00  0.00    -0.047 C 
ATOM      6  C   LIG d   1      -2.172  77.340 115.132  0.00  0.00     0.091 C 
ENDROOT
BRANCH   1   7
ATOM      7  O   LIG d   1      -4.176  78.270 116.191  0.00  0.00    -0.368 OA
BRANCH   7   8
ATOM      8  C   LIG d   1      -4.537  78.995 117.392  0.00  0.00     0.119 C 
BRANCH   8   9
ATOM      9  C   LIG d   1      -4.396  78.023 118.579  0.00  0.00     0.028 C 
ATOM     10  C   LIG d   1      -3.084  78.229 119.354  0.00  0.00     0.006 C 
ENDBRANCH   8   9
BRANCH   8  11
ATOM     11  C   LIG d   1      -6.013  79.403 117.375  0.00  0.00     0.028 C 
ATOM     12  C   LIG d   1      -6.225  80.889 117.702  0.00  0.00     0.006 C 
ENDBRANCH   8  11
ENDBRANCH   7   8
ENDBRANCH   1   7
BRANCH   6  13
ATOM     13  N   LIG d   1      -1.632  76.661 116.339  0.00  0.00    -0.311 N 
ATOM     14  C   LIG d   1      -2.134  75.529 116.830  0.00  0.00     0.210 C 
ATOM     15  C   LIG d   1      -1.441  75.010 118.094  0.00  0.00     0.109 C 
ATOM     16  O   LIG d   1      -3.066  74.889 116.320  0.00  0.00    -0.276 OA
ATOM     17  H   LIG d   1      -0.855  77.096 116.797  0.00  0.00     0.149 HD
ENDBRANCH   6  13
BRANCH   5  18
ATOM     18  N   LIG d   1      -0.427  76.461 113.539  0.00  0.00     0.381 N 
ATOM     19  H   LIG d   1       0.189  76.061 114.218  0.00  0.00    -0.090 HD
ATOM     20  H   LIG d   1       0.116  76.725 112.736  0.00  0.00    -0.090 HD
ATOM     21  H   LIG d   1      -1.120  75.795 113.276  0.00  0.00    -0.090 HD
ENDBRANCH   5  18
BRANCH   3  22
ATOM     22  C   LIG d   1      -2.532  80.634 112.494  0.00  0.00     0.382 C 
ATOM     23  O   LIG d   1      -3.585  81.315 112.447  0.00  0.00    -0.241 OA
ATOM     24  O   LIG d   1      -1.582  80.921 111.741  0.00  0.00    -0.241 OA
ENDBRANCH   3  22
TORSDOF 7
ENDMDL
MODEL 3
REMARK VINA RESULT:      -4.7      2.853      5.389
REMARK  7 active torsions:
REMARK  status: ('A' for Active; 'I' for Inactive)
REMARK    1  A    between atoms: C_2  and  C_3 
REMARK    2  A    between atoms: C_3  and  O_6 
REMARK    3  A    between atoms: C_3  and  C_4 
REMARK    4  A    between atoms: C_7  and  O_6 
REMARK    5  A    between atoms: C_9  and  C_10 
REMARK    6  A    between atoms: N_15  and  C_14 
REMARK    7  A    between atoms: N_20  and  C_19 
REMARK       I    between atoms: C_22  and  N_20 
ROOT
ATOM      1  C   LIG d   1      -1.483  79.570 114.248  0.00  0.00     0.161 C 
ATOM      2  C   LIG d   1      -2.365  78.540 114.613  0.00  0.00     0.016 C 
ATOM      3  C   LIG d   1      -2.867  77.585 113.699  0.00  0.00     0.038 C 
ATOM      4  C   LIG d   1      -2.398  77.505 112.379  0.00  0.00     0.028 C 
ATOM      5  C   LIG d   1      -1.889  78.835 111.835  0.00  0.00    -0.047 C 
ATOM      6  C   LIG d   1      -0.874  79.431 112.837  0.00  0.00     0.091 C 
ENDROOT
BRANCH   1   7
ATOM      7  O   LIG d   1      -0.439  79.692 115.235  0.00  0.00    -0.368 OA
BRANCH   7   8
ATOM      8  C   LIG d   1      -0.601  78.897 116.435  0.00  0.00     0.119 C 
BRANCH   8   9
ATOM      9  C   LIG d   1      -0.577  79.862 117.636  0.00  0.00     0.028 C 
ATOM     10  C   LIG d   1      -1.989  80.243 118.111  0.00  0.00     0.006 C 
ENDBRANCH   8   9
BRANCH   8  11
ATOM     11  C   LIG d   1       0.590  77.957 116.646  0.00  0.00     0.028 C 
ATOM     12  C   LIG d   1       0.223  76.477 116.457  0.00  0.00     0.006 C 
ENDBRANCH   8  11
ENDBRANCH   7   8
ENDBRANCH   1   7
BRANCH   6  13
ATOM     13  N   LIG d   1      -0.389  80.774 112.422  0.00  0.00    -0.311 N 
ATOM     14  C   LIG d   1      -1.201  81.767 112.063  0.00  0.00     0.210 C 
ATOM     15  C   LIG d   1      -0.494  83.063 111.652  0.00  0.00     0.109 C 
ATOM     16  O   LIG d   1      -2.439  81.709 112.077  0.00  0.00    -0.276 OA
ATOM     17  H   LIG d   1       0.601  80.918 112.412  0.00  0.00     0.149 HD
ENDBRANCH   6  13
BRANCH   5  18
ATOM     18  N   LIG d   1      -1.305  78.579 110.505  0.00  0.00     0.381 N 
ATOM     19  H   LIG d   1      -1.242  79.435 109.991  0.00  0.00    -0.090 HD
ATOM     20  H   LIG d   1      -1.907  77.952 110.001  0.00  0.00    -0.090 HD
ATOM     21  H   LIG d   1      -0.399  78.174 110.602  0.00  0.00    -0.090 HD
ENDBRANCH   5  18
BRANCH   3  22
ATOM     22  C   LIG d   1      -3.878  76.722 114.092  0.00  0.00     0.382 C 
ATOM     23  O   LIG d   1      -3.862  75.525 113.717  0.00  0.00    -0.241 OA
ATOM     24  O   LIG d   1      -4.830  77.136 114.781  0.00  0.00    -0.241 OA
ENDBRANCH   3  22
TORSDOF 7
ENDMDL
MODEL 4
REMARK VINA RESULT:      -4.6      1.944      5.110
REMARK  7 active torsions:
REMARK  status: ('A' for Active; 'I' for Inactive)
REMARK    1  A    between atoms: C_2  and  C_3 
REMARK    2  A    between atoms: C_3  and  O_6 
REMARK    3  A    between atoms: C_3  and  C_4 
REMARK    4  A    between atoms: C_7  and  O_6 
REMARK    5  A    between atoms: C_9  and  C_10 
REMARK    6  A    between atoms: N_15  and  C_14 
REMARK    7  A    between atoms: N_20  and  C_19 
REMARK       I    between atoms: C_22  and  N_20 
ROOT
ATOM      1  C   LIG d   1      -2.017  75.665 114.909  0.00  0.00     0.161 C 
ATOM      2  C   LIG d   1      -1.797  75.239 116.229  0.00  0.00     0.016 C 
ATOM      3  C   LIG d   1      -1.083  76.000 117.184  0.00  0.00     0.038 C 
ATOM      4  C   LIG d   1      -0.669  77.315 116.924  0.00  0.00     0.028 C 
ATOM      5  C   LIG d   1      -0.427  77.592 115.444  0.00  0.00    -0.047 C 
ATOM      6  C   LIG d   1      -1.669  77.143 114.640  0.00  0.00     0.091 C 
ENDROOT
BRANCH   1   7
ATOM      7  O   LIG d   1      -3.381  75.394 114.530  0.00  0.00    -0.368 OA
BRANCH   7   8
ATOM      8  C   LIG d   1      -4.360  75.439 115.596  0.00  0.00     0.119 C 
BRANCH   8   9
ATOM      9  C   LIG d   1      -5.307  74.238 115.407  0.00  0.00     0.028 C 
ATOM     10  C   LIG d   1      -6.404  74.180 116.483  0.00  0.00     0.006 C 
ENDBRANCH   8   9
BRANCH   8  11
ATOM     11  C   LIG d   1      -5.252  76.679 115.483  0.00  0.00     0.028 C 
ATOM     12  C   LIG d   1      -4.820  77.812 116.427  0.00  0.00     0.006 C 
ENDBRANCH   8  11
ENDBRANCH   7   8
ENDBRANCH   1   7
BRANCH   6  13
ATOM     13  N   LIG d   1      -1.482  77.302 113.174  0.00  0.00    -0.311 N 
ATOM     14  C   LIG d   1      -2.360  77.921 112.386  0.00  0.00     0.210 C 
ATOM     15  C   LIG d   1      -1.984  77.956 110.901  0.00  0.00     0.109 C 
ATOM     16  O   LIG d   1      -3.398  78.473 112.780  0.00  0.00    -0.276 OA
ATOM     17  H   LIG d   1      -0.651  76.911 112.775  0.00  0.00     0.149 HD
ENDBRANCH   6  13
BRANCH   5  18
ATOM     18  N   LIG d   1      -0.135  79.031 115.302  0.00  0.00     0.381 N 
ATOM     19  H   LIG d   1       0.840  79.162 115.119  0.00  0.00    -0.090 HD
ATOM     20  H   LIG d   1      -0.359  79.495 116.164  0.00  0.00    -0.090 HD
ATOM     21  H   LIG d   1      -0.674  79.417 114.559  0.00  0.00    -0.090 HD
ENDBRANCH   5  18
BRANCH   3  22
ATOM     22  C   LIG d   1      -0.743  75.431 118.401  0.00  0.00     0.382 C 
ATOM     23  O   LIG d   1      -0.843  76.101 119.457  0.00  0.00    -0.241 OA
ATOM     24  O   LIG d   1      -0.295  74.269 118.453  0.00  0.00    -0.241 OA
ENDBRANCH   3  22
TORSDOF 7
ENDMDL
MODEL 5
REMARK VINA RESULT:      -4.4      2.307      3.967
REMARK  7 active torsions:
REMARK  status: ('A' for Active; 'I' for Inactive)
REMARK    1  A    between atoms: C_2  and  C_3 
REMARK    2  A    between atoms: C_3  and  O_6 
REMARK    3  A    between atoms: C_3  and  C_4 
REMARK    4  A    between atoms: C_7  and  O_6 
REMARK    5  A    between atoms: C_9  and  C_10 
REMARK    6  A    between atoms: N_15  and  C_14 
REMARK    7  A    between atoms: N_20  and  C_19 
REMARK       I    between atoms: C_22  and  N_20 
ROOT
ATOM      1  C   LIG d   1      -3.541  76.702 117.012  0.00  0.00     0.161 C 
ATOM      2  C   LIG d   1      -4.535  77.538 117.547  0.00  0.00     0.016 C 
ATOM      3  C   LIG d   1      -4.693  78.894 117.177  0.00  0.00     0.038 C 
ATOM      4  C   LIG d   1      -3.958  79.467 116.129  0.00  0.00     0.028 C 
ATOM      5  C   LIG d   1      -2.602  78.806 115.908  0.00  0.00    -0.047 C 
ATOM      6  C   LIG d   1      -2.802  77.278 115.786  0.00  0.00     0.091 C 
ENDROOT
BRANCH   1   7
ATOM      7  O   LIG d   1      -4.105  75.413 116.697  0.00  0.00    -0.368 OA
BRANCH   7   8
ATOM      8  C   LIG d   1      -5.319  75.424 115.907  0.00  0.00     0.119 C 
BRANCH   8   9
ATOM      9  C   LIG d   1      -6.276  74.381 116.515  0.00  0.00     0.028 C 
ATOM     10  C   LIG d   1      -7.209  74.987 117.577  0.00  0.00     0.006 C 
ENDBRANCH   8   9
BRANCH   8  11
ATOM     11  C   LIG d   1      -5.057  74.949 114.475  0.00  0.00     0.028 C 
ATOM     12  C   LIG d   1      -5.414  76.008 113.421  0.00  0.00     0.006 C 
ENDBRANCH   8  11
ENDBRANCH   7   8
ENDBRANCH   1   7
BRANCH   6  13
ATOM     13  N   LIG d   1      -1.515  76.547 115.652  0.00  0.00    -0.311 N 
ATOM     14  C   LIG d   1      -0.995  76.186 114.480  0.00  0.00     0.210 C 
ATOM     15  C   LIG d   1       0.330  75.423 114.568  0.00  0.00     0.109 C 
ATOM     16  O   LIG d   1      -1.490  76.454 113.375  0.00  0.00    -0.276 OA
ATOM     17  H   LIG d   1      -1.031  76.316 116.498  0.00  0.00     0.149 HD
ENDBRANCH   6  13
BRANCH   5  18
ATOM     18  N   LIG d   1      -2.004  79.408 114.701  0.00  0.00     0.381 N 
ATOM     19  H   LIG d   1      -2.327  80.350 114.597  0.00  0.00    -0.090 HD
ATOM     20  H   LIG d   1      -2.298  78.884 113.896  0.00  0.00    -0.090 HD
ATOM     21  H   LIG d   1      -1.010  79.396 114.771  0.00  0.00    -0.090 HD
ENDBRANCH   5  18
BRANCH   3  22
ATOM     22  C   LIG d   1      -5.568  79.702 117.888  0.00  0.00     0.382 C 
ATOM     23  O   LIG d   1      -6.586  80.171 117.324  0.00  0.00    -0.241 OA
ATOM     24  O   LIG d   1      -5.328  80.005 119.072  0.00  0.00    -0.241 OA
ENDBRANCH   3  22
TORSDOF 7
ENDMDL
MODEL 6
REMARK VINA RESULT:      -4.3      3.259      6.474
REMARK  7 active torsions:
REMARK  status: ('A' for Active; 'I' for Inactive)
REMARK    1  A    between atoms: C_2  and  C_3 
REMARK    2  A    between atoms: C_3  and  O_6 
REMARK    3  A    between atoms: C_3  and  C_4 
REMARK    4  A    between atoms: C_7  and  O_6 
REMARK    5  A    between atoms: C_9  and  C_10 
REMARK    6  A    between atoms: N_15  and  C_14 
REMARK    7  A    between atoms: N_20  and  C_19 
REMARK       I    between atoms: C_22  and  N_20 
ROOT
ATOM      1  C   LIG d   1      -4.933  78.502 116.977  0.00  0.00     0.161 C 
ATOM      2  C   LIG d   1      -4.949  77.146 116.609  0.00  0.00     0.016 C 
ATOM      3  C   LIG d   1      -6.100  76.330 116.694  0.00  0.00     0.038 C 
ATOM      4  C   LIG d   1      -7.361  76.856 117.014  0.00  0.00     0.028 C 
ATOM      5  C   LIG d   1      -7.291  78.109 117.881  0.00  0.00    -0.047 C 
ATOM      6  C   LIG d   1      -6.325  79.121 117.223  0.00  0.00     0.091 C 
ENDROOT
BRANCH   1   7
ATOM      7  O   LIG d   1      -4.211  79.268 115.993  0.00  0.00    -0.368 OA
BRANCH   7   8
ATOM      8  C   LIG d   1      -2.960  78.698 115.534  0.00  0.00     0.119 C 
BRANCH   8   9
ATOM      9  C   LIG d   1      -1.882  79.049 116.577  0.00  0.00     0.028 C 
ATOM     10  C   LIG d   1      -0.735  78.025 116.604  0.00  0.00     0.006 C 
ENDBRANCH   8   9
BRANCH   8  11
ATOM     11  C   LIG d   1      -2.494  79.354 114.231  0.00  0.00     0.028 C 
ATOM     12  C   LIG d   1      -2.466  78.374 113.048  0.00  0.00     0.006 C 
ENDBRANCH   8  11
ENDBRANCH   7   8
ENDBRANCH   1   7
BRANCH   6  13
ATOM     13  N   LIG d   1      -6.135  80.342 118.049  0.00  0.00    -0.311 N 
ATOM     14  C   LIG d   1      -6.815  81.471 117.857  0.00  0.00     0.210 C 
ATOM     15  C   LIG d   1      -6.450  82.615 118.808  0.00  0.00     0.109 C 
ATOM     16  O   LIG d   1      -7.710  81.622 117.012  0.00  0.00    -0.276 OA
ATOM     17  H   LIG d   1      -5.450  80.297 118.779  0.00  0.00     0.149 HD
ENDBRANCH   6  13
BRANCH   5  18
ATOM     18  N   LIG d   1      -8.664  78.629 118.023  0.00  0.00     0.381 N 
ATOM     19  H   LIG d   1      -8.638  79.559 118.390  0.00  0.00    -0.090 HD
ATOM     20  H   LIG d   1      -9.167  78.048 118.670  0.00  0.00    -0.090 HD
ATOM     21  H   LIG d   1      -9.123  78.627 117.138  0.00  0.00    -0.090 HD
ENDBRANCH   5  18
BRANCH   3  22
ATOM     22  C   LIG d   1      -5.989  74.962 116.497  0.00  0.00     0.382 C 
ATOM     23  O   LIG d   1      -6.806  74.181 117.041  0.00  0.00    -0.241 OA
ATOM     24  O   LIG d   1      -5.055  74.496 115.817  0.00  0.00    -0.241 OA
ENDBRANCH   3  22
TORSDOF 7
ENDMDL
MODEL 7
REMARK VINA RESULT:      -4.2      3.051      4.344
REMARK  7 active torsions:
REMARK  status: ('A' for Active; 'I' for Inactive)
REMARK    1  A    between atoms: C_2  and  C_3 
REMARK    2  A    between atoms: C_3  and  O_6 
REMARK    3  A    between atoms: C_3  and  C_4 
REMARK    4  A    between atoms: C_7  and  O_6 
REMARK    5  A    between atoms: C_9  and  C_10 
REMARK    6  A    between atoms: N_15  and  C_14 
REMARK    7  A    between atoms: N_20  and  C_19 
REMARK       I    between atoms: C_22  and  N_20 
ROOT
ATOM      1  C   LIG d   1      -4.960  77.385 117.434  0.00  0.00     0.161 C 
ATOM      2  C   LIG d   1      -5.770  78.531 117.506  0.00  0.00     0.016 C 
ATOM      3  C   LIG d   1      -5.265  79.826 117.760  0.00  0.00     0.038 C 
ATOM      4  C   LIG d   1      -3.888  80.089 117.810  0.00  0.00     0.028 C 
ATOM      5  C   LIG d   1      -3.058  78.886 118.245  0.00  0.00    -0.047 C 
ATOM      6  C   LIG d   1      -3.444  77.669 117.375  0.00  0.00     0.091 C 
ENDROOT
BRANCH   1   7
ATOM      7  O   LIG d   1      -5.361  76.572 116.313  0.00  0.00    -0.368 OA
BRANCH   7   8
ATOM      8  C   LIG d   1      -5.627  75.178 116.601  0.00  0.00     0.119 C 
BRANCH   8   9
ATOM      9  C   LIG d   1      -5.260  74.367 115.342  0.00  0.00     0.028 C 
ATOM     10  C   LIG d   1      -4.983  75.267 114.126  0.00  0.00     0.006 C 
ENDBRANCH   8   9
BRANCH   8  11
ATOM     11  C   LIG d   1      -7.122  74.929 116.821  0.00  0.00     0.028 C 
ATOM     12  C   LIG d   1      -8.008  75.993 116.153  0.00  0.00     0.006 C 
ENDBRANCH   8  11
ENDBRANCH   7   8
ENDBRANCH   1   7
BRANCH   6  13
ATOM     13  N   LIG d   1      -2.738  76.428 117.791  0.00  0.00    -0.311 N 
ATOM     14  C   LIG d   1      -2.053  75.657 116.948  0.00  0.00     0.210 C 
ATOM     15  C   LIG d   1      -1.419  74.414 117.579  0.00  0.00     0.109 C 
ATOM     16  O   LIG d   1      -1.883  75.902 115.744  0.00  0.00    -0.276 OA
ATOM     17  H   LIG d   1      -2.798  76.171 118.757  0.00  0.00     0.149 HD
ENDBRANCH   6  13
BRANCH   5  18
ATOM     18  N   LIG d   1      -1.636  79.258 118.120  0.00  0.00     0.381 N 
ATOM     19  H   LIG d   1      -1.552  80.103 117.591  0.00  0.00    -0.090 HD
ATOM     20  H   LIG d   1      -1.151  78.528 117.628  0.00  0.00    -0.090 HD
ATOM     21  H   LIG d   1      -1.235  79.382 119.024  0.00  0.00    -0.090 HD
ENDBRANCH   5  18
BRANCH   3  22
ATOM     22  C   LIG d   1      -6.144  80.870 118.008  0.00  0.00     0.382 C 
ATOM     23  O   LIG d   1      -6.733  81.433 117.054  0.00  0.00    -0.241 OA
ATOM     24  O   LIG d   1      -6.322  81.285 119.169  0.00  0.00    -0.241 OA
ENDBRANCH   3  22
TORSDOF 7
ENDMDL
MODEL 8
REMARK VINA RESULT:      -4.2      2.499      3.870
REMARK  7 active torsions:
REMARK  status: ('A' for Active; 'I' for Inactive)
REMARK    1  A    between atoms: C_2  and  C_3 
REMARK    2  A    between atoms: C_3  and  O_6 
REMARK    3  A    between atoms: C_3  and  C_4 
REMARK    4  A    between atoms: C_7  and  O_6 
REMARK    5  A    between atoms: C_9  and  C_10 
REMARK    6  A    between atoms: N_15  and  C_14 
REMARK    7  A    between atoms: N_20  and  C_19 
REMARK       I    between atoms: C_22  and  N_20 
ROOT
ATOM      1  C   LIG d   1      -3.041  78.535 116.526  0.00  0.00     0.161 C 
ATOM      2  C   LIG d   1      -2.115  79.410 117.118  0.00  0.00     0.016 C 
ATOM      3  C   LIG d   1      -0.735  79.406 116.812  0.00  0.00     0.038 C 
ATOM      4  C   LIG d   1      -0.208  78.622 115.775  0.00  0.00     0.028 C 
ATOM      5  C   LIG d   1      -1.019  77.360 115.497  0.00  0.00    -0.047 C 
ATOM      6  C   LIG d   1      -2.504  77.749 115.312  0.00  0.00     0.091 C 
ENDROOT
BRANCH   1   7
ATOM      7  O   LIG d   1      -4.235  79.257 116.166  0.00  0.00    -0.368 OA
BRANCH   7   8
ATOM      8  C   LIG d   1      -5.403  79.009 116.988  0.00  0.00     0.119 C 
BRANCH   8   9
ATOM      9  C   LIG d   1      -5.534  80.187 117.973  0.00  0.00     0.028 C 
ATOM     10  C   LIG d   1      -6.660  81.158 117.580  0.00  0.00     0.006 C 
ENDBRANCH   8   9
BRANCH   8  11
ATOM     11  C   LIG d   1      -5.214  77.767 117.863  0.00  0.00     0.028 C 
ATOM     12  C   LIG d   1      -5.405  78.059 119.360  0.00  0.00     0.006 C 
ENDBRANCH   8  11
ENDBRANCH   7   8
ENDBRANCH   1   7
BRANCH   6  13
ATOM     13  N   LIG d   1      -3.380  76.564 115.120  0.00  0.00    -0.311 N 
ATOM     14  C   LIG d   1      -4.080  76.342 114.009  0.00  0.00     0.210 C 
ATOM     15  C   LIG d   1      -4.934  75.071 114.026  0.00  0.00     0.109 C 
ATOM     16  O   LIG d   1      -4.049  77.060 112.998  0.00  0.00    -0.276 OA
ATOM     17  H   LIG d   1      -3.439  75.913 115.878  0.00  0.00     0.149 HD
ENDBRANCH   6  13
BRANCH   5  18
ATOM     18  N   LIG d   1      -0.439  76.711 114.307  0.00  0.00     0.381 N 
ATOM     19  H   LIG d   1       0.012  77.395 113.733  0.00  0.00    -0.090 HD
ATOM     20  H   LIG d   1      -1.179  76.290 113.773  0.00  0.00    -0.090 HD
ATOM     21  H   LIG d   1       0.218  76.015 114.584  0.00  0.00    -0.090 HD
ENDBRANCH   5  18
BRANCH   3  22
ATOM     22  C   LIG d   1       0.140  80.164 117.575  0.00  0.00     0.382 C 
ATOM     23  O   LIG d   1      -0.041  81.399 117.695  0.00  0.00    -0.241 OA
ATOM     24  O   LIG d   1       1.134  79.635 118.108  0.00  0.00    -0.241 OA
ENDBRANCH   3  22
TORSDOF 7
ENDMDL
MODEL 9
REMARK VINA RESULT:      -4.2      2.343      3.972
REMARK  7 active torsions:
REMARK  status: ('A' for Active; 'I' for Inactive)
REMARK    1  A    between atoms: C_2  and  C_3 
REMARK    2  A    between atoms: C_3  and  O_6 
REMARK    3  A    between atoms: C_3  and  C_4 
REMARK    4  A    between atoms: C_7  and  O_6 
REMARK    5  A    between atoms: C_9  and  C_10 
REMARK    6  A    between atoms: N_15  and  C_14 
REMARK    7  A    between atoms: N_20  and  C_19 
REMARK       I    between atoms: C_22  and  N_20 
ROOT
ATOM      1  C   LIG d   1      -1.626  77.888 114.539  0.00  0.00     0.161 C 
ATOM      2  C   LIG d   1      -0.862  78.938 114.002  0.00  0.00     0.016 C 
ATOM      3  C   LIG d   1      -1.140  79.544 112.755  0.00  0.00     0.038 C 
ATOM      4  C   LIG d   1      -2.298  79.239 112.024  0.00  0.00     0.028 C 
ATOM      5  C   LIG d   1      -2.825  77.832 112.283  0.00  0.00    -0.047 C 
ATOM      6  C   LIG d   1      -2.958  77.619 113.808  0.00  0.00     0.091 C 
ENDROOT
BRANCH   1   7
ATOM      7  O   LIG d   1      -1.863  78.123 115.941  0.00  0.00    -0.368 OA
BRANCH   7   8
ATOM      8  C   LIG d   1      -1.233  77.195 116.858  0.00  0.00     0.119 C 
BRANCH   8   9
ATOM      9  C   LIG d   1      -0.416  76.195 116.016  0.00  0.00     0.028 C 
ATOM     10  C   LIG d   1      -0.794  74.734 116.311  0.00  0.00     0.006 C 
ENDBRANCH   8   9
BRANCH   8  11
ATOM     11  C   LIG d   1      -2.273  76.348 117.597  0.00  0.00     0.028 C 
ATOM     12  C   LIG d   1      -3.635  77.050 117.718  0.00  0.00     0.006 C 
ENDBRANCH   8  11
ENDBRANCH   7   8
ENDBRANCH   1   7
BRANCH   6  13
ATOM     13  N   LIG d   1      -3.388  76.238 114.151  0.00  0.00    -0.311 N 
ATOM     14  C   LIG d   1      -4.661  75.890 114.329  0.00  0.00     0.210 C 
ATOM     15  C   LIG d   1      -4.884  74.419 114.697  0.00  0.00     0.109 C 
ATOM     16  O   LIG d   1      -5.630  76.651 114.185  0.00  0.00    -0.276 OA
ATOM     17  H   LIG d   1      -2.669  75.549 114.257  0.00  0.00     0.149 HD
ENDBRANCH   6  13
BRANCH   5  18
ATOM     18  N   LIG d   1      -4.107  77.698 111.566  0.00  0.00     0.381 N 
ATOM     19  H   LIG d   1      -4.116  76.844 111.045  0.00  0.00    -0.090 HD
ATOM     20  H   LIG d   1      -4.200  78.462 110.920  0.00  0.00    -0.090 HD
ATOM     21  H   LIG d   1      -4.863  77.708 112.214  0.00  0.00    -0.090 HD
ENDBRANCH   5  18
BRANCH   3  22
ATOM     22  C   LIG d   1      -0.231  80.437 112.208  0.00  0.00     0.382 C 
ATOM     23  O   LIG d   1       0.726  80.861 112.900  0.00  0.00    -0.241 OA
ATOM     24  O   LIG d   1      -0.381  80.858 111.045  0.00  0.00    -0.241 OA
ENDBRANCH   3  22
TORSDOF 7
ENDMDL
