MODEL 1
REMARK VINA RESULT:      -4.7      0.000      0.000
REMARK  7 active torsions:
REMARK  status: ('A' for Active; 'I' for Inactive)
REMARK    1  A    between atoms: C_2  and  C_3 
REMARK    2  A    between atoms: C_3  and  O_6 
REMARK    3  A    between atoms: C_3  and  C_4 
REMARK    4  A    between atoms: C_7  and  O_6 
REMARK    5  A    between atoms: C_9  and  C_10 
REMARK    6  A    between atoms: N_15  and  C_14 
REMARK    7  A    between atoms: N_20  and  C_19 
REMARK       I    between atoms: C_22  and  N_20 
ROOT
ATOM      1  C   LIG d   1      -3.015  76.534 115.403  0.00  0.00     0.161 C 
ATOM      2  C   LIG d   1      -3.228  77.401 114.319  0.00  0.00     0.016 C 
ATOM      3  C   LIG d   1      -2.320  78.418 113.945  0.00  0.00     0.038 C 
ATOM      4  C   LIG d   1      -1.056  78.538 114.542  0.00  0.00     0.028 C 
ATOM      5  C   LIG d   1      -1.008  78.009 115.971  0.00  0.00    -0.047 C 
ATOM      6  C   LIG d   1      -1.591  76.578 115.996  0.00  0.00     0.091 C 
ENDROOT
BRANCH   1   7
ATOM      7  O   LIG d   1      -3.358  75.186 115.025  0.00  0.00    -0.368 OA
BRANCH   7   8
ATOM      8  C   LIG d   1      -4.469  74.587 115.738  0.00  0.00     0.119 C 
BRANCH   8   9
ATOM      9  C   LIG d   1      -5.559  74.255 114.701  0.00  0.00     0.028 C 
ATOM     10  C   LIG d   1      -6.604  75.376 114.569  0.00  0.00     0.006 C 
ENDBRANCH   8   9
BRANCH   8  11
ATOM     11  C   LIG d   1      -5.116  75.587 116.701  0.00  0.00     0.028 C 
ATOM     12  C   LIG d   1      -5.127  75.091 118.156  0.00  0.00     0.006 C 
ENDBRANCH   8  11
ENDBRANCH   7   8
ENDBRANCH   1   7
BRANCH   6  13
ATOM     13  N   LIG d   1      -1.659  76.018 117.371  0.00  0.00    -0.311 N 
ATOM     14  C   LIG d   1      -1.070  74.877 117.728  0.00  0.00     0.210 C 
ATOM     15  C   LIG d   1      -1.282  74.470 119.189  0.00  0.00     0.109 C 
ATOM     16  O   LIG d   1      -0.366  74.181 116.981  0.00  0.00    -0.276 OA
ATOM     17  H   LIG d   1      -2.184  76.535 118.049  0.00  0.00     0.149 HD
ENDBRANCH   6  13
BRANCH   5  18
ATOM     18  N   LIG d   1       0.396  78.070 116.422  0.00  0.00     0.381 N 
ATOM     19  H   LIG d   1       0.467  77.716 117.355  0.00  0.00    -0.090 HD
ATOM     20  H   LIG d   1       0.695  79.029 116.424  0.00  0.00    -0.090 HD
ATOM     21  H   LIG d   1       0.973  77.535 115.811  0.00  0.00    -0.090 HD
ENDBRANCH   5  18
BRANCH   3  22
ATOM     22  C   LIG d   1      -2.689  79.353 112.990  0.00  0.00     0.382 C 
ATOM     23  O   LIG d   1      -2.536  79.098 111.771  0.00  0.00    -0.241 OA
ATOM     24  O   LIG d   1      -3.132  80.465 113.333  0.00  0.00    -0.241 OA
ENDBRANCH   3  22
TORSDOF 7
ENDMDL
MODEL 2
REMARK VINA RESULT:      -4.4      1.259      2.030
REMARK  7 active torsions:
REMARK  status: ('A' for Active; 'I' for Inactive)
REMARK    1  A    between atoms: C_2  and  C_3 
REMARK    2  A    between atoms: C_3  and  O_6 
REMARK    3  A    between atoms: C_3  and  C_4 
REMARK    4  A    between atoms: C_7  and  O_6 
REMARK    5  A    between atoms: C_9  and  C_10 
REMARK    6  A    between atoms: N_15  and  C_14 
REMARK    7  A    between atoms: N_20  and  C_19 
REMARK       I    between atoms: C_22  and  N_20 
ROOT
ATOM      1  C   LIG d   1      -3.189  75.961 115.643  0.00  0.00     0.161 C 
ATOM      2  C   LIG d   1      -3.378  77.042 114.766  0.00  0.00     0.016 C 
ATOM      3  C   LIG d   1      -2.314  77.732 114.141  0.00  0.00     0.038 C 
ATOM      4  C   LIG d   1      -0.986  77.288 114.234  0.00  0.00     0.028 C 
ATOM      5  C   LIG d   1      -0.697  76.507 115.511  0.00  0.00    -0.047 C 
ATOM      6  C   LIG d   1      -1.756  75.392 115.668  0.00  0.00     0.091 C 
ENDROOT
BRANCH   1   7
ATOM      7  O   LIG d   1      -4.137  74.918 115.342  0.00  0.00    -0.368 OA
BRANCH   7   8
ATOM      8  C   LIG d   1      -5.390  74.966 116.069  0.00  0.00     0.119 C 
BRANCH   8   9
ATOM      9  C   LIG d   1      -5.196  74.181 117.380  0.00  0.00     0.028 C 
ATOM     10  C   LIG d   1      -5.288  75.082 118.623  0.00  0.00     0.006 C 
ENDBRANCH   8   9
BRANCH   8  11
ATOM     11  C   LIG d   1      -6.500  74.228 115.315  0.00  0.00     0.028 C 
ATOM     12  C   LIG d   1      -7.890  74.839 115.554  0.00  0.00     0.006 C 
ENDBRANCH   8  11
ENDBRANCH   7   8
ENDBRANCH   1   7
BRANCH   6  13
ATOM     13  N   LIG d   1      -1.596  74.633 116.936  0.00  0.00    -0.311 N 
ATOM     14  C   LIG d   1      -1.623  75.203 118.140  0.00  0.00     0.210 C 
ATOM     15  C   LIG d   1      -1.419  74.241 119.315  0.00  0.00     0.109 C 
ATOM     16  O   LIG d   1      -1.830  76.408 118.348  0.00  0.00    -0.276 OA
ATOM     17  H   LIG d   1      -1.454  73.645 116.862  0.00  0.00     0.149 HD
ENDBRANCH   6  13
BRANCH   5  18
ATOM     18  N   LIG d   1       0.680  75.987 115.413  0.00  0.00     0.381 N 
ATOM     19  H   LIG d   1       0.901  75.790 114.457  0.00  0.00    -0.090 HD
ATOM     20  H   LIG d   1       0.742  75.130 115.934  0.00  0.00    -0.090 HD
ATOM     21  H   LIG d   1       1.323  76.654 115.779  0.00  0.00    -0.090 HD
ENDBRANCH   5  18
BRANCH   3  22
ATOM     22  C   LIG d   1      -2.569  78.905 113.446  0.00  0.00     0.382 C 
ATOM     23  O   LIG d   1      -3.019  79.907 114.051  0.00  0.00    -0.241 OA
ATOM     24  O   LIG d   1      -2.397  78.958 112.213  0.00  0.00    -0.241 OA
ENDBRANCH   3  22
TORSDOF 7
ENDMDL
MODEL 3
REMARK VINA RESULT:      -4.4      2.080      4.580
REMARK  7 active torsions:
REMARK  status: ('A' for Active; 'I' for Inactive)
REMARK    1  A    between atoms: C_2  and  C_3 
REMARK    2  A    between atoms: C_3  and  O_6 
REMARK    3  A    between atoms: C_3  and  C_4 
REMARK    4  A    between atoms: C_7  and  O_6 
REMARK    5  A    between atoms: C_9  and  C_10 
REMARK    6  A    between atoms: N_15  and  C_14 
REMARK    7  A    between atoms: N_20  and  C_19 
REMARK       I    between atoms: C_22  and  N_20 
ROOT
ATOM      1  C   LIG d   1      -2.791  76.856 115.540  0.00  0.00     0.161 C 
ATOM      2  C   LIG d   1      -2.502  76.728 116.909  0.00  0.00     0.016 C 
ATOM      3  C   LIG d   1      -1.449  77.420 117.550  0.00  0.00     0.038 C 
ATOM      4  C   LIG d   1      -0.703  78.409 116.892  0.00  0.00     0.028 C 
ATOM      5  C   LIG d   1      -0.628  78.207 115.382  0.00  0.00    -0.047 C 
ATOM      6  C   LIG d   1      -2.059  78.014 114.830  0.00  0.00     0.091 C 
ENDROOT
BRANCH   1   7
ATOM      7  O   LIG d   1      -4.215  76.972 115.349  0.00  0.00    -0.368 OA
BRANCH   7   8
ATOM      8  C   LIG d   1      -5.026  75.941 115.963  0.00  0.00     0.119 C 
BRANCH   8   9
ATOM      9  C   LIG d   1      -5.520  75.010 114.839  0.00  0.00     0.028 C 
ATOM     10  C   LIG d   1      -6.840  75.493 114.215  0.00  0.00     0.006 C 
ENDBRANCH   8   9
BRANCH   8  11
ATOM     11  C   LIG d   1      -6.294  76.528 116.590  0.00  0.00     0.028 C 
ATOM     12  C   LIG d   1      -6.050  77.884 117.270  0.00  0.00     0.006 C 
ENDBRANCH   8  11
ENDBRANCH   7   8
ENDBRANCH   1   7
BRANCH   6  13
ATOM     13  N   LIG d   1      -2.069  77.726 113.372  0.00  0.00    -0.311 N 
ATOM     14  C   LIG d   1      -2.673  78.504 112.476  0.00  0.00     0.210 C 
ATOM     15  C   LIG d   1      -2.580  78.014 111.027  0.00  0.00     0.109 C 
ATOM     16  O   LIG d   1      -3.249  79.571 112.738  0.00  0.00    -0.276 OA
ATOM     17  H   LIG d   1      -1.599  76.896 113.067  0.00  0.00     0.149 HD
ENDBRANCH   6  13
BRANCH   5  18
ATOM     18  N   LIG d   1       0.060  79.380 114.810  0.00  0.00     0.381 N 
ATOM     19  H   LIG d   1       0.206  80.067 115.521  0.00  0.00    -0.090 HD
ATOM     20  H   LIG d   1      -0.524  79.783 114.097  0.00  0.00    -0.090 HD
ATOM     21  H   LIG d   1       0.933  79.105 114.418  0.00  0.00    -0.090 HD
ENDBRANCH   5  18
BRANCH   3  22
ATOM     22  C   LIG d   1      -1.108  77.096 118.854  0.00  0.00     0.382 C 
ATOM     23  O   LIG d   1      -1.959  76.575 119.614  0.00  0.00    -0.241 OA
ATOM     24  O   LIG d   1       0.028  77.358 119.294  0.00  0.00    -0.241 OA
ENDBRANCH   3  22
TORSDOF 7
ENDMDL
MODEL 4
REMARK VINA RESULT:      -4.2      1.318      1.628
REMARK  7 active torsions:
REMARK  status: ('A' for Active; 'I' for Inactive)
REMARK    1  A    between atoms: C_2  and  C_3 
REMARK    2  A    between atoms: C_3  and  O_6 
REMARK    3  A    between atoms: C_3  and  C_4 
REMARK    4  A    between atoms: C_7  and  O_6 
REMARK    5  A    between atoms: C_9  and  C_10 
REMARK    6  A    between atoms: N_15  and  C_14 
REMARK    7  A    between atoms: N_20  and  C_19 
REMARK       I    between atoms: C_22  and  N_20 
ROOT
ATOM      1  C   LIG d   1      -2.724  77.856 116.614  0.00  0.00     0.161 C 
ATOM      2  C   LIG d   1      -3.065  78.552 115.442  0.00  0.00     0.016 C 
ATOM      3  C   LIG d   1      -2.354  78.422 114.226  0.00  0.00     0.038 C 
ATOM      4  C   LIG d   1      -1.339  77.468 114.058  0.00  0.00     0.028 C 
ATOM      5  C   LIG d   1      -0.630  77.103 115.358  0.00  0.00    -0.047 C 
ATOM      6  C   LIG d   1      -1.689  76.728 116.419  0.00  0.00     0.091 C 
ENDROOT
BRANCH   1   7
ATOM      7  O   LIG d   1      -3.915  77.341 117.240  0.00  0.00    -0.368 OA
BRANCH   7   8
ATOM      8  C   LIG d   1      -4.289  75.988 116.882  0.00  0.00     0.119 C 
BRANCH   8   9
ATOM      9  C   LIG d   1      -5.604  76.066 116.084  0.00  0.00     0.028 C 
ATOM     10  C   LIG d   1      -5.482  75.430 114.689  0.00  0.00     0.006 C 
ENDBRANCH   8   9
BRANCH   8  11
ATOM     11  C   LIG d   1      -4.618  75.154 118.124  0.00  0.00     0.028 C 
ATOM     12  C   LIG d   1      -4.272  75.876 119.436  0.00  0.00     0.006 C 
ENDBRANCH   8  11
ENDBRANCH   7   8
ENDBRANCH   1   7
BRANCH   6  13
ATOM     13  N   LIG d   1      -1.085  76.439 117.746  0.00  0.00    -0.311 N 
ATOM     14  C   LIG d   1      -0.784  75.210 118.162  0.00  0.00     0.210 C 
ATOM     15  C   LIG d   1      -0.187  75.132 119.571  0.00  0.00     0.109 C 
ATOM     16  O   LIG d   1      -0.924  74.180 117.486  0.00  0.00    -0.276 OA
ATOM     17  H   LIG d   1      -0.908  77.220 118.347  0.00  0.00     0.149 HD
ENDBRANCH   6  13
BRANCH   5  18
ATOM     18  N   LIG d   1       0.306  76.002 115.061  0.00  0.00     0.381 N 
ATOM     19  H   LIG d   1      -0.085  75.134 115.367  0.00  0.00    -0.090 HD
ATOM     20  H   LIG d   1       1.161  76.158 115.565  0.00  0.00    -0.090 HD
ATOM     21  H   LIG d   1       0.490  75.966 114.083  0.00  0.00    -0.090 HD
ENDBRANCH   5  18
BRANCH   3  22
ATOM     22  C   LIG d   1      -2.630  79.282 113.174  0.00  0.00     0.382 C 
ATOM     23  O   LIG d   1      -3.073  80.433 113.404  0.00  0.00    -0.241 OA
ATOM     24  O   LIG d   1      -2.485  78.906 111.996  0.00  0.00    -0.241 OA
ENDBRANCH   3  22
TORSDOF 7
ENDMDL
MODEL 5
REMARK VINA RESULT:      -4.2      2.183      2.675
REMARK  7 active torsions:
REMARK  status: ('A' for Active; 'I' for Inactive)
REMARK    1  A    between atoms: C_2  and  C_3 
REMARK    2  A    between atoms: C_3  and  O_6 
REMARK    3  A    between atoms: C_3  and  C_4 
REMARK    4  A    between atoms: C_7  and  O_6 
REMARK    5  A    between atoms: C_9  and  C_10 
REMARK    6  A    between atoms: N_15  and  C_14 
REMARK    7  A    between atoms: N_20  and  C_19 
REMARK       I    between atoms: C_22  and  N_20 
ROOT
ATOM      1  C   LIG d   1      -3.060  78.289 115.630  0.00  0.00     0.161 C 
ATOM      2  C   LIG d   1      -3.077  79.246 114.602  0.00  0.00     0.016 C 
ATOM      3  C   LIG d   1      -2.267  79.160 113.446  0.00  0.00     0.038 C 
ATOM      4  C   LIG d   1      -1.491  78.025 113.167  0.00  0.00     0.028 C 
ATOM      5  C   LIG d   1      -1.058  77.266 114.417  0.00  0.00    -0.047 C 
ATOM      6  C   LIG d   1      -2.302  76.989 115.292  0.00  0.00     0.091 C 
ENDROOT
BRANCH   1   7
ATOM      7  O   LIG d   1      -4.409  77.991 116.041  0.00  0.00    -0.368 OA
BRANCH   7   8
ATOM      8  C   LIG d   1      -4.749  78.328 117.409  0.00  0.00     0.119 C 
BRANCH   8   9
ATOM      9  C   LIG d   1      -5.941  77.443 117.822  0.00  0.00     0.028 C 
ATOM     10  C   LIG d   1      -5.525  75.987 118.090  0.00  0.00     0.006 C 
ENDBRANCH   8   9
BRANCH   8  11
ATOM     11  C   LIG d   1      -5.257  79.769 117.517  0.00  0.00     0.028 C 
ATOM     12  C   LIG d   1      -6.764  79.849 117.809  0.00  0.00     0.006 C 
ENDBRANCH   8  11
ENDBRANCH   7   8
ENDBRANCH   1   7
BRANCH   6  13
ATOM     13  N   LIG d   1      -1.956  76.323 116.574  0.00  0.00    -0.311 N 
ATOM     14  C   LIG d   1      -2.002  75.003 116.751  0.00  0.00     0.210 C 
ATOM     15  C   LIG d   1      -1.625  74.526 118.157  0.00  0.00     0.109 C 
ATOM     16  O   LIG d   1      -2.288  74.181 115.868  0.00  0.00    -0.276 OA
ATOM     17  H   LIG d   1      -1.683  76.913 117.336  0.00  0.00     0.149 HD
ENDBRANCH   6  13
BRANCH   5  18
ATOM     18  N   LIG d   1      -0.376  76.034 113.976  0.00  0.00     0.381 N 
ATOM     19  H   LIG d   1      -0.998  75.255 114.055  0.00  0.00    -0.090 HD
ATOM     20  H   LIG d   1       0.414  75.869 114.574  0.00  0.00    -0.090 HD
ATOM     21  H   LIG d   1      -0.073  76.132 113.032  0.00  0.00    -0.090 HD
ENDBRANCH   5  18
BRANCH   3  22
ATOM     22  C   LIG d   1      -2.198  80.236 112.574  0.00  0.00     0.382 C 
ATOM     23  O   LIG d   1      -1.281  80.293 111.720  0.00  0.00    -0.241 OA
ATOM     24  O   LIG d   1      -3.015  81.172 112.659  0.00  0.00    -0.241 OA
ENDBRANCH   3  22
TORSDOF 7
ENDMDL
MODEL 6
REMARK VINA RESULT:      -4.1      1.817      4.848
REMARK  7 active torsions:
REMARK  status: ('A' for Active; 'I' for Inactive)
REMARK    1  A    between atoms: C_2  and  C_3 
REMARK    2  A    between atoms: C_3  and  O_6 
REMARK    3  A    between atoms: C_3  and  C_4 
REMARK    4  A    between atoms: C_7  and  O_6 
REMARK    5  A    between atoms: C_9  and  C_10 
REMARK    6  A    between atoms: N_15  and  C_14 
REMARK    7  A    between atoms: N_20  and  C_19 
REMARK       I    between atoms: C_22  and  N_20 
ROOT
ATOM      1  C   LIG d   1      -1.216  75.579 115.622  0.00  0.00     0.161 C 
ATOM      2  C   LIG d   1      -0.746  75.338 116.924  0.00  0.00     0.016 C 
ATOM      3  C   LIG d   1      -0.279  76.358 117.784  0.00  0.00     0.038 C 
ATOM      4  C   LIG d   1      -0.393  77.716 117.454  0.00  0.00     0.028 C 
ATOM      5  C   LIG d   1      -0.393  77.976 115.951  0.00  0.00    -0.047 C 
ATOM      6  C   LIG d   1      -1.451  77.067 115.285  0.00  0.00     0.091 C 
ENDROOT
BRANCH   1   7
ATOM      7  O   LIG d   1      -2.416  74.816 115.386  0.00  0.00    -0.368 OA
BRANCH   7   8
ATOM      8  C   LIG d   1      -3.625  75.323 116.004  0.00  0.00     0.119 C 
BRANCH   8   9
ATOM      9  C   LIG d   1      -4.229  74.180 116.844  0.00  0.00     0.028 C 
ATOM     10  C   LIG d   1      -4.074  74.417 118.355  0.00  0.00     0.006 C 
ENDBRANCH   8   9
BRANCH   8  11
ATOM     11  C   LIG d   1      -4.688  75.660 114.955  0.00  0.00     0.028 C 
ATOM     12  C   LIG d   1      -5.661  74.499 114.697  0.00  0.00     0.006 C 
ENDBRANCH   8  11
ENDBRANCH   7   8
ENDBRANCH   1   7
BRANCH   6  13
ATOM     13  N   LIG d   1      -1.459  77.197 113.804  0.00  0.00    -0.311 N 
ATOM     14  C   LIG d   1      -2.270  78.022 113.145  0.00  0.00     0.210 C 
ATOM     15  C   LIG d   1      -2.129  77.986 111.620  0.00  0.00     0.109 C 
ATOM     16  O   LIG d   1      -3.070  78.805 113.680  0.00  0.00    -0.276 OA
ATOM     17  H   LIG d   1      -0.819  76.621 113.293  0.00  0.00     0.149 HD
ENDBRANCH   6  13
BRANCH   5  18
ATOM     18  N   LIG d   1      -0.656  79.413 115.747  0.00  0.00     0.381 N 
ATOM     19  H   LIG d   1      -1.542  79.536 115.300  0.00  0.00    -0.090 HD
ATOM     20  H   LIG d   1       0.056  79.792 115.147  0.00  0.00    -0.090 HD
ATOM     21  H   LIG d   1      -0.649  79.889 116.623  0.00  0.00    -0.090 HD
ENDBRANCH   5  18
BRANCH   3  22
ATOM     22  C   LIG d   1       0.346  76.020 118.975  0.00  0.00     0.382 C 
ATOM     23  O   LIG d   1       0.692  74.832 119.186  0.00  0.00    -0.241 OA
ATOM     24  O   LIG d   1       0.527  76.878 119.859  0.00  0.00    -0.241 OA
ENDBRANCH   3  22
TORSDOF 7
ENDMDL
MODEL 7
REMARK VINA RESULT:      -3.9      1.589      1.919
REMARK  7 active torsions:
REMARK  status: ('A' for Active; 'I' for Inactive)
REMARK    1  A    between atoms: C_2  and  C_3 
REMARK    2  A    between atoms: C_3  and  O_6 
REMARK    3  A    between atoms: C_3  and  C_4 
REMARK    4  A    between atoms: C_7  and  O_6 
REMARK    5  A    between atoms: C_9  and  C_10 
REMARK    6  A    between atoms: N_15  and  C_14 
REMARK    7  A    between atoms: N_20  and  C_19 
REMARK       I    between atoms: C_22  and  N_20 
ROOT
ATOM      1  C   LIG d   1      -3.054  76.594 115.268  0.00  0.00     0.161 C 
ATOM      2  C   LIG d   1      -3.282  76.937 113.925  0.00  0.00     0.016 C 
ATOM      3  C   LIG d   1      -2.427  77.785 113.183  0.00  0.00     0.038 C 
ATOM      4  C   LIG d   1      -1.198  78.229 113.692  0.00  0.00     0.028 C 
ATOM      5  C   LIG d   1      -1.170  78.320 115.214  0.00  0.00    -0.047 C 
ATOM      6  C   LIG d   1      -1.660  76.978 115.806  0.00  0.00     0.091 C 
ENDROOT
BRANCH   1   7
ATOM      7  O   LIG d   1      -3.294  75.186 115.459  0.00  0.00    -0.368 OA
BRANCH   7   8
ATOM      8  C   LIG d   1      -4.583  74.829 116.018  0.00  0.00     0.119 C 
BRANCH   8   9
ATOM      9  C   LIG d   1      -5.470  74.338 114.858  0.00  0.00     0.028 C 
ATOM     10  C   LIG d   1      -6.615  75.315 114.540  0.00  0.00     0.006 C 
ENDBRANCH   8   9
BRANCH   8  11
ATOM     11  C   LIG d   1      -5.302  76.056 116.588  0.00  0.00     0.028 C 
ATOM     12  C   LIG d   1      -5.521  75.966 118.106  0.00  0.00     0.006 C 
ENDBRANCH   8  11
ENDBRANCH   7   8
ENDBRANCH   1   7
BRANCH   6  13
ATOM     13  N   LIG d   1      -1.744  77.010 117.289  0.00  0.00    -0.311 N 
ATOM     14  C   LIG d   1      -2.417  77.939 117.966  0.00  0.00     0.210 C 
ATOM     15  C   LIG d   1      -2.358  77.799 119.490  0.00  0.00     0.109 C 
ATOM     16  O   LIG d   1      -3.084  78.847 117.447  0.00  0.00    -0.276 OA
ATOM     17  H   LIG d   1      -1.257  76.292 117.789  0.00  0.00     0.149 HD
ENDBRANCH   6  13
BRANCH   5  18
ATOM     18  N   LIG d   1       0.208  78.660 115.615  0.00  0.00     0.381 N 
ATOM     19  H   LIG d   1       0.205  79.502 116.156  0.00  0.00    -0.090 HD
ATOM     20  H   LIG d   1       0.757  78.818 114.789  0.00  0.00    -0.090 HD
ATOM     21  H   LIG d   1       0.602  77.916 116.147  0.00  0.00    -0.090 HD
ENDBRANCH   5  18
BRANCH   3  22
ATOM     22  C   LIG d   1      -2.820  78.230 111.929  0.00  0.00     0.382 C 
ATOM     23  O   LIG d   1      -2.128  79.081 111.321  0.00  0.00    -0.241 OA
ATOM     24  O   LIG d   1      -3.882  77.825 111.419  0.00  0.00    -0.241 OA
ENDBRANCH   3  22
TORSDOF 7
ENDMDL
MODEL 8
REMARK VINA RESULT:      -3.8      2.473      3.310
REMARK  7 active torsions:
REMARK  status: ('A' for Active; 'I' for Inactive)
REMARK    1  A    between atoms: C_2  and  C_3 
REMARK    2  A    between atoms: C_3  and  O_6 
REMARK    3  A    between atoms: C_3  and  C_4 
REMARK    4  A    between atoms: C_7  and  O_6 
REMARK    5  A    between atoms: C_9  and  C_10 
REMARK    6  A    between atoms: N_15  and  C_14 
REMARK    7  A    between atoms: N_20  and  C_19 
REMARK       I    between atoms: C_22  and  N_20 
ROOT
ATOM      1  C   LIG d   1      -1.962  78.065 116.759  0.00  0.00     0.161 C 
ATOM      2  C   LIG d   1      -2.564  78.726 115.675  0.00  0.00     0.016 C 
ATOM      3  C   LIG d   1      -2.324  78.385 114.325  0.00  0.00     0.038 C 
ATOM      4  C   LIG d   1      -1.577  77.252 113.968  0.00  0.00     0.028 C 
ATOM      5  C   LIG d   1      -0.540  76.856 115.013  0.00  0.00    -0.047 C 
ATOM      6  C   LIG d   1      -1.232  76.756 116.392  0.00  0.00     0.091 C 
ENDROOT
BRANCH   1   7
ATOM      7  O   LIG d   1      -2.942  77.821 117.787  0.00  0.00    -0.368 OA
BRANCH   7   8
ATOM      8  C   LIG d   1      -4.028  78.776 117.873  0.00  0.00     0.119 C 
BRANCH   8   9
ATOM      9  C   LIG d   1      -3.944  79.450 119.256  0.00  0.00     0.028 C 
ATOM     10  C   LIG d   1      -3.011  80.673 119.257  0.00  0.00     0.006 C 
ENDBRANCH   8   9
BRANCH   8  11
ATOM     11  C   LIG d   1      -5.390  78.075 117.845  0.00  0.00     0.028 C 
ATOM     12  C   LIG d   1      -6.567  79.063 117.831  0.00  0.00     0.006 C 
ENDBRANCH   8  11
ENDBRANCH   7   8
ENDBRANCH   1   7
BRANCH   6  13
ATOM     13  N   LIG d   1      -0.272  76.455 117.487  0.00  0.00    -0.311 N 
ATOM     14  C   LIG d   1       0.038  75.218 117.870  0.00  0.00     0.210 C 
ATOM     15  C   LIG d   1       1.034  75.131 119.031  0.00  0.00     0.109 C 
ATOM     16  O   LIG d   1      -0.392  74.184 117.337  0.00  0.00    -0.276 OA
ATOM     17  H   LIG d   1       0.148  77.235 117.953  0.00  0.00     0.149 HD
ENDBRANCH   6  13
BRANCH   5  18
ATOM     18  N   LIG d   1       0.068  75.585 114.578  0.00  0.00     0.381 N 
ATOM     19  H   LIG d   1      -0.553  75.107 113.956  0.00  0.00    -0.090 HD
ATOM     20  H   LIG d   1       0.217  75.003 115.384  0.00  0.00    -0.090 HD
ATOM     21  H   LIG d   1       0.936  75.761 114.122  0.00  0.00    -0.090 HD
ENDBRANCH   5  18
BRANCH   3  22
ATOM     22  C   LIG d   1      -2.802  79.204 113.313  0.00  0.00     0.382 C 
ATOM     23  O   LIG d   1      -3.054  80.410 113.550  0.00  0.00    -0.241 OA
ATOM     24  O   LIG d   1      -3.025  78.742 112.178  0.00  0.00    -0.241 OA
ENDBRANCH   3  22
TORSDOF 7
ENDMDL
MODEL 9
REMARK VINA RESULT:      -3.6      2.264      4.513
REMARK  7 active torsions:
REMARK  status: ('A' for Active; 'I' for Inactive)
REMARK    1  A    between atoms: C_2  and  C_3 
REMARK    2  A    between atoms: C_3  and  O_6 
REMARK    3  A    between atoms: C_3  and  C_4 
REMARK    4  A    between atoms: C_7  and  O_6 
REMARK    5  A    between atoms: C_9  and  C_10 
REMARK    6  A    between atoms: N_15  and  C_14 
REMARK    7  A    between atoms: N_20  and  C_19 
REMARK       I    between atoms: C_22  and  N_20 
ROOT
ATOM      1  C   LIG d   1      -0.436  78.080 115.572  0.00  0.00     0.161 C 
ATOM      2  C   LIG d   1      -0.870  79.005 114.608  0.00  0.00     0.016 C 
ATOM      3  C   LIG d   1      -2.142  78.948 113.993  0.00  0.00     0.038 C 
ATOM      4  C   LIG d   1      -3.130  78.045 114.414  0.00  0.00     0.028 C 
ATOM      5  C   LIG d   1      -2.562  76.771 115.030  0.00  0.00    -0.047 C 
ATOM      6  C   LIG d   1      -1.540  77.155 116.125  0.00  0.00     0.091 C 
ENDROOT
BRANCH   1   7
ATOM      7  O   LIG d   1       0.224  78.772 116.650  0.00  0.00    -0.368 OA
BRANCH   7   8
ATOM      8  C   LIG d   1      -0.630  79.548 117.527  0.00  0.00     0.119 C 
BRANCH   8   9
ATOM      9  C   LIG d   1       0.012  80.940 117.686  0.00  0.00     0.028 C 
ATOM     10  C   LIG d   1       1.372  81.043 116.975  0.00  0.00     0.006 C 
ENDBRANCH   8   9
BRANCH   8  11
ATOM     11  C   LIG d   1      -0.667  78.955 118.938  0.00  0.00     0.028 C 
ATOM     12  C   LIG d   1       0.620  78.196 119.299  0.00  0.00     0.006 C 
ENDBRANCH   8  11
ENDBRANCH   7   8
ENDBRANCH   1   7
BRANCH   6  13
ATOM     13  N   LIG d   1      -0.875  75.967 116.721  0.00  0.00    -0.311 N 
ATOM     14  C   LIG d   1      -1.290  75.380 117.842  0.00  0.00     0.210 C 
ATOM     15  C   LIG d   1      -0.449  74.181 118.293  0.00  0.00     0.109 C 
ATOM     16  O   LIG d   1      -2.293  75.718 118.488  0.00  0.00    -0.276 OA
ATOM     17  H   LIG d   1      -0.071  75.607 116.244  0.00  0.00     0.149 HD
ENDBRANCH   6  13
BRANCH   5  18
ATOM     18  N   LIG d   1      -3.696  75.983 115.549  0.00  0.00     0.381 N 
ATOM     19  H   LIG d   1      -3.999  75.329 114.856  0.00  0.00    -0.090 HD
ATOM     20  H   LIG d   1      -4.459  76.606 115.751  0.00  0.00    -0.090 HD
ATOM     21  H   LIG d   1      -3.425  75.500 116.377  0.00  0.00    -0.090 HD
ENDBRANCH   5  18
BRANCH   3  22
ATOM     22  C   LIG d   1      -2.423  79.776 112.917  0.00  0.00     0.382 C 
ATOM     23  O   LIG d   1      -3.244  80.716 113.047  0.00  0.00    -0.241 OA
ATOM     24  O   LIG d   1      -1.899  79.568 111.806  0.00  0.00    -0.241 OA
ENDBRANCH   3  22
TORSDOF 7
ENDMDL
