MODEL 1
REMARK VINA RESULT:      -5.5      0.000      0.000
REMARK  7 active torsions:
REMARK  status: ('A' for Active; 'I' for Inactive)
REMARK    1  A    between atoms: C_2  and  C_3 
REMARK    2  A    between atoms: C_3  and  O_6 
REMARK    3  A    between atoms: C_3  and  C_4 
REMARK    4  A    between atoms: C_7  and  O_6 
REMARK    5  A    between atoms: C_9  and  C_10 
REMARK    6  A    between atoms: N_15  and  C_14 
REMARK    7  A    between atoms: N_20  and  C_19 
REMARK       I    between atoms: C_22  and  N_20 
ROOT
ATOM      1  C   LIG d   1      -2.719  80.012 114.821  0.00  0.00     0.161 C 
ATOM      2  C   LIG d   1      -2.232  81.134 114.129  0.00  0.00     0.016 C 
ATOM      3  C   LIG d   1      -1.585  81.054 112.875  0.00  0.00     0.038 C 
ATOM      4  C   LIG d   1      -1.514  79.854 112.152  0.00  0.00     0.028 C 
ATOM      5  C   LIG d   1      -1.543  78.612 113.036  0.00  0.00    -0.047 C 
ATOM      6  C   LIG d   1      -2.750  78.708 113.997  0.00  0.00     0.091 C 
ENDROOT
BRANCH   1   7
ATOM      7  O   LIG d   1      -4.026  80.298 115.357  0.00  0.00    -0.368 OA
BRANCH   7   8
ATOM      8  C   LIG d   1      -4.097  80.502 116.789  0.00  0.00     0.119 C 
BRANCH   8   9
ATOM      9  C   LIG d   1      -5.428  79.898 117.277  0.00  0.00     0.028 C 
ATOM     10  C   LIG d   1      -6.555  80.941 117.350  0.00  0.00     0.006 C 
ENDBRANCH   8   9
BRANCH   8  11
ATOM     11  C   LIG d   1      -4.177  81.992 117.137  0.00  0.00     0.028 C 
ATOM     12  C   LIG d   1      -3.046  82.446 118.073  0.00  0.00     0.006 C 
ENDBRANCH   8  11
ENDBRANCH   7   8
ENDBRANCH   1   7
BRANCH   6  13
ATOM     13  N   LIG d   1      -2.805  77.573 114.955  0.00  0.00    -0.311 N 
ATOM     14  C   LIG d   1      -3.480  76.449 114.721  0.00  0.00     0.210 C 
ATOM     15  C   LIG d   1      -3.421  75.413 115.849  0.00  0.00     0.109 C 
ATOM     16  O   LIG d   1      -4.096  76.198 113.675  0.00  0.00    -0.276 OA
ATOM     17  H   LIG d   1      -2.307  77.679 115.817  0.00  0.00     0.149 HD
ENDBRANCH   6  13
BRANCH   5  18
ATOM     18  N   LIG d   1      -1.603  77.435 112.149  0.00  0.00     0.381 N 
ATOM     19  H   LIG d   1      -1.279  76.625 112.639  0.00  0.00    -0.090 HD
ATOM     20  H   LIG d   1      -0.999  77.590 111.362  0.00  0.00    -0.090 HD
ATOM     21  H   LIG d   1      -2.538  77.290 111.836  0.00  0.00    -0.090 HD
ENDBRANCH   5  18
BRANCH   3  22
ATOM     22  C   LIG d   1      -0.963  82.177 112.349  0.00  0.00     0.382 C 
ATOM     23  O   LIG d   1       0.076  82.628 112.888  0.00  0.00    -0.241 OA
ATOM     24  O   LIG d   1      -1.454  82.770 111.370  0.00  0.00    -0.241 OA
ENDBRANCH   3  22
TORSDOF 7
ENDMDL
MODEL 2
REMARK VINA RESULT:      -5.3      0.621      1.572
REMARK  7 active torsions:
REMARK  status: ('A' for Active; 'I' for Inactive)
REMARK    1  A    between atoms: C_2  and  C_3 
REMARK    2  A    between atoms: C_3  and  O_6 
REMARK    3  A    between atoms: C_3  and  C_4 
REMARK    4  A    between atoms: C_7  and  O_6 
REMARK    5  A    between atoms: C_9  and  C_10 
REMARK    6  A    between atoms: N_15  and  C_14 
REMARK    7  A    between atoms: N_20  and  C_19 
REMARK       I    between atoms: C_22  and  N_20 
ROOT
ATOM      1  C   LIG d   1      -2.651  80.047 114.824  0.00  0.00     0.161 C 
ATOM      2  C   LIG d   1      -2.180  81.175 114.132  0.00  0.00     0.016 C 
ATOM      3  C   LIG d   1      -1.586  81.111 112.851  0.00  0.00     0.038 C 
ATOM      4  C   LIG d   1      -1.559  79.923 112.105  0.00  0.00     0.028 C 
ATOM      5  C   LIG d   1      -1.566  78.666 112.968  0.00  0.00    -0.047 C 
ATOM      6  C   LIG d   1      -2.731  78.758 113.980  0.00  0.00     0.091 C 
ENDROOT
BRANCH   1   7
ATOM      7  O   LIG d   1      -3.932  80.337 115.418  0.00  0.00    -0.368 OA
BRANCH   7   8
ATOM      8  C   LIG d   1      -3.990  81.511 116.266  0.00  0.00     0.119 C 
BRANCH   8   9
ATOM      9  C   LIG d   1      -3.194  81.197 117.547  0.00  0.00     0.028 C 
ATOM     10  C   LIG d   1      -2.087  82.229 117.818  0.00  0.00     0.006 C 
ENDBRANCH   8   9
BRANCH   8  11
ATOM     11  C   LIG d   1      -5.421  81.788 116.736  0.00  0.00     0.028 C 
ATOM     12  C   LIG d   1      -5.691  81.275 118.159  0.00  0.00     0.006 C 
ENDBRANCH   8  11
ENDBRANCH   7   8
ENDBRANCH   1   7
BRANCH   6  13
ATOM     13  N   LIG d   1      -2.759  77.606 114.919  0.00  0.00    -0.311 N 
ATOM     14  C   LIG d   1      -3.441  76.486 114.685  0.00  0.00     0.210 C 
ATOM     15  C   LIG d   1      -3.351  75.431 115.792  0.00  0.00     0.109 C 
ATOM     16  O   LIG d   1      -4.086  76.253 113.652  0.00  0.00    -0.276 OA
ATOM     17  H   LIG d   1      -2.238  77.698 115.768  0.00  0.00     0.149 HD
ENDBRANCH   6  13
BRANCH   5  18
ATOM     18  N   LIG d   1      -1.676  77.505 112.064  0.00  0.00     0.381 N 
ATOM     19  H   LIG d   1      -2.109  77.784 111.207  0.00  0.00    -0.090 HD
ATOM     20  H   LIG d   1      -2.255  76.808 112.498  0.00  0.00    -0.090 HD
ATOM     21  H   LIG d   1      -0.772  77.130 111.881  0.00  0.00    -0.090 HD
ENDBRANCH   5  18
BRANCH   3  22
ATOM     22  C   LIG d   1      -0.974  82.236 112.320  0.00  0.00     0.382 C 
ATOM     23  O   LIG d   1      -1.453  82.787 111.299  0.00  0.00    -0.241 OA
ATOM     24  O   LIG d   1       0.075  82.682 112.823  0.00  0.00    -0.241 OA
ENDBRANCH   3  22
TORSDOF 7
ENDMDL
MODEL 3
REMARK VINA RESULT:      -5.0      1.873      4.806
REMARK  7 active torsions:
REMARK  status: ('A' for Active; 'I' for Inactive)
REMARK    1  A    between atoms: C_2  and  C_3 
REMARK    2  A    between atoms: C_3  and  O_6 
REMARK    3  A    between atoms: C_3  and  C_4 
REMARK    4  A    between atoms: C_7  and  O_6 
REMARK    5  A    between atoms: C_9  and  C_10 
REMARK    6  A    between atoms: N_15  and  C_14 
REMARK    7  A    between atoms: N_20  and  C_19 
REMARK       I    between atoms: C_22  and  N_20 
ROOT
ATOM      1  C   LIG d   1      -2.454  80.039 114.095  0.00  0.00     0.161 C 
ATOM      2  C   LIG d   1      -2.863  78.755 114.493  0.00  0.00     0.016 C 
ATOM      3  C   LIG d   1      -2.668  77.597 113.706  0.00  0.00     0.038 C 
ATOM      4  C   LIG d   1      -1.909  77.622 112.526  0.00  0.00     0.028 C 
ATOM      5  C   LIG d   1      -1.911  78.981 111.834  0.00  0.00    -0.047 C 
ATOM      6  C   LIG d   1      -1.526  80.069 112.862  0.00  0.00     0.091 C 
ENDROOT
BRANCH   1   7
ATOM      7  O   LIG d   1      -1.835  80.720 115.205  0.00  0.00    -0.368 OA
BRANCH   7   8
ATOM      8  C   LIG d   1      -2.640  80.849 116.402  0.00  0.00     0.119 C 
BRANCH   8   9
ATOM      9  C   LIG d   1      -3.823  81.777 116.067  0.00  0.00     0.028 C 
ATOM     10  C   LIG d   1      -4.470  82.382 117.325  0.00  0.00     0.006 C 
ENDBRANCH   8   9
BRANCH   8  11
ATOM     11  C   LIG d   1      -1.869  81.562 117.517  0.00  0.00     0.028 C 
ATOM     12  C   LIG d   1      -0.434  81.932 117.108  0.00  0.00     0.006 C 
ENDBRANCH   8  11
ENDBRANCH   7   8
ENDBRANCH   1   7
BRANCH   6  13
ATOM     13  N   LIG d   1      -1.586  81.438 112.288  0.00  0.00    -0.311 N 
ATOM     14  C   LIG d   1      -0.523  82.074 111.797  0.00  0.00     0.210 C 
ATOM     15  C   LIG d   1      -0.800  83.486 111.272  0.00  0.00     0.109 C 
ATOM     16  O   LIG d   1       0.616  81.590 111.717  0.00  0.00    -0.276 OA
ATOM     17  H   LIG d   1      -2.478  81.893 112.285  0.00  0.00     0.149 HD
ENDBRANCH   6  13
BRANCH   5  18
ATOM     18  N   LIG d   1      -0.974  78.903 110.697  0.00  0.00     0.381 N 
ATOM     19  H   LIG d   1      -0.527  79.789 110.565  0.00  0.00    -0.090 HD
ATOM     20  H   LIG d   1      -1.491  78.684 109.864  0.00  0.00    -0.090 HD
ATOM     21  H   LIG d   1      -0.289  78.200 110.867  0.00  0.00    -0.090 HD
ENDBRANCH   5  18
BRANCH   3  22
ATOM     22  C   LIG d   1      -3.268  76.404 114.077  0.00  0.00     0.382 C 
ATOM     23  O   LIG d   1      -4.421  76.128 113.666  0.00  0.00    -0.241 OA
ATOM     24  O   LIG d   1      -2.690  75.620 114.854  0.00  0.00    -0.241 OA
ENDBRANCH   3  22
TORSDOF 7
ENDMDL
MODEL 4
REMARK VINA RESULT:      -4.5      2.233      2.418
REMARK  7 active torsions:
REMARK  status: ('A' for Active; 'I' for Inactive)
REMARK    1  A    between atoms: C_2  and  C_3 
REMARK    2  A    between atoms: C_3  and  O_6 
REMARK    3  A    between atoms: C_3  and  C_4 
REMARK    4  A    between atoms: C_7  and  O_6 
REMARK    5  A    between atoms: C_9  and  C_10 
REMARK    6  A    between atoms: N_15  and  C_14 
REMARK    7  A    between atoms: N_20  and  C_19 
REMARK       I    between atoms: C_22  and  N_20 
ROOT
ATOM      1  C   LIG d   1      -0.688  80.200 114.509  0.00  0.00     0.161 C 
ATOM      2  C   LIG d   1      -0.652  81.449 113.866  0.00  0.00     0.016 C 
ATOM      3  C   LIG d   1      -0.897  81.620 112.485  0.00  0.00     0.038 C 
ATOM      4  C   LIG d   1      -1.347  80.567 111.675  0.00  0.00     0.028 C 
ATOM      5  C   LIG d   1      -0.910  79.192 112.172  0.00  0.00    -0.047 C 
ATOM      6  C   LIG d   1      -1.286  79.056 113.665  0.00  0.00     0.091 C 
ENDROOT
BRANCH   1   7
ATOM      7  O   LIG d   1      -1.389  80.317 115.763  0.00  0.00    -0.368 OA
BRANCH   7   8
ATOM      8  C   LIG d   1      -0.563  80.436 116.947  0.00  0.00     0.119 C 
BRANCH   8   9
ATOM      9  C   LIG d   1      -1.281  79.694 118.090  0.00  0.00     0.028 C 
ATOM     10  C   LIG d   1      -1.808  78.316 117.655  0.00  0.00     0.006 C 
ENDBRANCH   8   9
BRANCH   8  11
ATOM     11  C   LIG d   1      -0.460  81.892 117.411  0.00  0.00     0.028 C 
ATOM     12  C   LIG d   1      -1.790  82.441 117.951  0.00  0.00     0.006 C 
ENDBRANCH   8  11
ENDBRANCH   7   8
ENDBRANCH   1   7
BRANCH   6  13
ATOM     13  N   LIG d   1      -0.820  77.773 114.252  0.00  0.00    -0.311 N 
ATOM     14  C   LIG d   1      -1.532  76.648 114.216  0.00  0.00     0.210 C 
ATOM     15  C   LIG d   1      -0.874  75.444 114.898  0.00  0.00     0.109 C 
ATOM     16  O   LIG d   1      -2.631  76.525 113.655  0.00  0.00    -0.276 OA
ATOM     17  H   LIG d   1       0.076  77.775 114.699  0.00  0.00     0.149 HD
ENDBRANCH   6  13
BRANCH   5  18
ATOM     18  N   LIG d   1      -1.561  78.182 111.317  0.00  0.00     0.381 N 
ATOM     19  H   LIG d   1      -1.174  77.279 111.504  0.00  0.00    -0.090 HD
ATOM     20  H   LIG d   1      -1.384  78.408 110.354  0.00  0.00    -0.090 HD
ATOM     21  H   LIG d   1      -2.543  78.172 111.487  0.00  0.00    -0.090 HD
ENDBRANCH   5  18
BRANCH   3  22
ATOM     22  C   LIG d   1      -0.653  82.849 111.891  0.00  0.00     0.382 C 
ATOM     23  O   LIG d   1       0.270  83.582 112.322  0.00  0.00    -0.241 OA
ATOM     24  O   LIG d   1      -1.372  83.254 110.958  0.00  0.00    -0.241 OA
ENDBRANCH   3  22
TORSDOF 7
ENDMDL
MODEL 5
REMARK VINA RESULT:      -4.4      1.776      2.561
REMARK  7 active torsions:
REMARK  status: ('A' for Active; 'I' for Inactive)
REMARK    1  A    between atoms: C_2  and  C_3 
REMARK    2  A    between atoms: C_3  and  O_6 
REMARK    3  A    between atoms: C_3  and  C_4 
REMARK    4  A    between atoms: C_7  and  O_6 
REMARK    5  A    between atoms: C_9  and  C_10 
REMARK    6  A    between atoms: N_15  and  C_14 
REMARK    7  A    between atoms: N_20  and  C_19 
REMARK       I    between atoms: C_22  and  N_20 
ROOT
ATOM      1  C   LIG d   1      -2.380  78.917 115.856  0.00  0.00     0.161 C 
ATOM      2  C   LIG d   1      -2.684  80.117 115.192  0.00  0.00     0.016 C 
ATOM      3  C   LIG d   1      -2.799  80.222 113.787  0.00  0.00     0.038 C 
ATOM      4  C   LIG d   1      -2.767  79.093 112.954  0.00  0.00     0.028 C 
ATOM      5  C   LIG d   1      -1.961  77.936 113.534  0.00  0.00    -0.047 C 
ATOM      6  C   LIG d   1      -2.451  77.654 114.972  0.00  0.00     0.091 C 
ENDROOT
BRANCH   1   7
ATOM      7  O   LIG d   1      -3.229  78.769 117.011  0.00  0.00    -0.368 OA
BRANCH   7   8
ATOM      8  C   LIG d   1      -4.623  78.481 116.744  0.00  0.00     0.119 C 
BRANCH   8   9
ATOM      9  C   LIG d   1      -5.467  79.433 117.615  0.00  0.00     0.028 C 
ATOM     10  C   LIG d   1      -4.608  80.487 118.333  0.00  0.00     0.006 C 
ENDBRANCH   8   9
BRANCH   8  11
ATOM     11  C   LIG d   1      -4.999  77.070 117.205  0.00  0.00     0.028 C 
ATOM     12  C   LIG d   1      -4.178  76.600 118.416  0.00  0.00     0.006 C 
ENDBRANCH   8  11
ENDBRANCH   7   8
ENDBRANCH   1   7
BRANCH   6  13
ATOM     13  N   LIG d   1      -1.659  76.590 115.643  0.00  0.00    -0.311 N 
ATOM     14  C   LIG d   1      -2.027  75.311 115.674  0.00  0.00     0.210 C 
ATOM     15  C   LIG d   1      -1.075  74.382 116.436  0.00  0.00     0.109 C 
ATOM     16  O   LIG d   1      -3.034  74.851 115.116  0.00  0.00    -0.276 OA
ATOM     17  H   LIG d   1      -0.810  76.870 116.095  0.00  0.00     0.149 HD
ENDBRANCH   6  13
BRANCH   5  18
ATOM     18  N   LIG d   1      -2.126  76.782 112.630  0.00  0.00     0.381 N 
ATOM     19  H   LIG d   1      -3.097  76.559 112.539  0.00  0.00    -0.090 HD
ATOM     20  H   LIG d   1      -1.656  75.988 113.028  0.00  0.00    -0.090 HD
ATOM     21  H   LIG d   1      -1.740  76.991 111.735  0.00  0.00    -0.090 HD
ENDBRANCH   5  18
BRANCH   3  22
ATOM     22  C   LIG d   1      -2.909  81.472 113.198  0.00  0.00     0.382 C 
ATOM     23  O   LIG d   1      -2.200  81.761 112.203  0.00  0.00    -0.241 OA
ATOM     24  O   LIG d   1      -3.675  82.330 113.675  0.00  0.00    -0.241 OA
ENDBRANCH   3  22
TORSDOF 7
ENDMDL
MODEL 6
REMARK VINA RESULT:      -4.4      2.373      4.911
REMARK  7 active torsions:
REMARK  status: ('A' for Active; 'I' for Inactive)
REMARK    1  A    between atoms: C_2  and  C_3 
REMARK    2  A    between atoms: C_3  and  O_6 
REMARK    3  A    between atoms: C_3  and  C_4 
REMARK    4  A    between atoms: C_7  and  O_6 
REMARK    5  A    between atoms: C_9  and  C_10 
REMARK    6  A    between atoms: N_15  and  C_14 
REMARK    7  A    between atoms: N_20  and  C_19 
REMARK       I    between atoms: C_22  and  N_20 
ROOT
ATOM      1  C   LIG d   1      -3.105  78.513 114.142  0.00  0.00     0.161 C 
ATOM      2  C   LIG d   1      -2.706  77.885 112.950  0.00  0.00     0.016 C 
ATOM      3  C   LIG d   1      -1.893  78.510 111.976  0.00  0.00     0.038 C 
ATOM      4  C   LIG d   1      -1.295  79.759 112.200  0.00  0.00     0.028 C 
ATOM      5  C   LIG d   1      -2.077  80.640 113.168  0.00  0.00    -0.047 C 
ATOM      6  C   LIG d   1      -2.371  79.834 114.454  0.00  0.00     0.091 C 
ENDROOT
BRANCH   1   7
ATOM      7  O   LIG d   1      -2.974  77.594 115.245  0.00  0.00    -0.368 OA
BRANCH   7   8
ATOM      8  C   LIG d   1      -3.203  76.196 114.940  0.00  0.00     0.119 C 
BRANCH   8   9
ATOM      9  C   LIG d   1      -4.550  75.798 115.575  0.00  0.00     0.028 C 
ATOM     10  C   LIG d   1      -5.023  74.407 115.123  0.00  0.00     0.006 C 
ENDBRANCH   8   9
BRANCH   8  11
ATOM     11  C   LIG d   1      -2.158  75.301 115.613  0.00  0.00     0.028 C 
ATOM     12  C   LIG d   1      -0.811  75.298 114.873  0.00  0.00     0.006 C 
ENDBRANCH   8  11
ENDBRANCH   7   8
ENDBRANCH   1   7
BRANCH   6  13
ATOM     13  N   LIG d   1      -3.205  80.594 115.421  0.00  0.00    -0.311 N 
ATOM     14  C   LIG d   1      -2.697  81.340 116.400  0.00  0.00     0.210 C 
ATOM     15  C   LIG d   1      -3.733  82.024 117.297  0.00  0.00     0.109 C 
ATOM     16  O   LIG d   1      -1.485  81.527 116.590  0.00  0.00    -0.276 OA
ATOM     17  H   LIG d   1      -4.199  80.523 115.320  0.00  0.00     0.149 HD
ENDBRANCH   6  13
BRANCH   5  18
ATOM     18  N   LIG d   1      -1.273  81.851 113.417  0.00  0.00     0.381 N 
ATOM     19  H   LIG d   1      -0.959  81.860 114.367  0.00  0.00    -0.090 HD
ATOM     20  H   LIG d   1      -1.849  82.660 113.267  0.00  0.00    -0.090 HD
ATOM     21  H   LIG d   1      -0.490  81.873 112.801  0.00  0.00    -0.090 HD
ENDBRANCH   5  18
BRANCH   3  22
ATOM     22  C   LIG d   1      -1.704  77.900 110.745  0.00  0.00     0.382 C 
ATOM     23  O   LIG d   1      -1.227  78.555 109.788  0.00  0.00    -0.241 OA
ATOM     24  O   LIG d   1      -2.046  76.715 110.568  0.00  0.00    -0.241 OA
ENDBRANCH   3  22
TORSDOF 7
ENDMDL
MODEL 7
REMARK VINA RESULT:      -4.2      2.812      4.697
REMARK  7 active torsions:
REMARK  status: ('A' for Active; 'I' for Inactive)
REMARK    1  A    between atoms: C_2  and  C_3 
REMARK    2  A    between atoms: C_3  and  O_6 
REMARK    3  A    between atoms: C_3  and  C_4 
REMARK    4  A    between atoms: C_7  and  O_6 
REMARK    5  A    between atoms: C_9  and  C_10 
REMARK    6  A    between atoms: N_15  and  C_14 
REMARK    7  A    between atoms: N_20  and  C_19 
REMARK       I    between atoms: C_22  and  N_20 
ROOT
ATOM      1  C   LIG d   1      -3.423  78.215 116.115  0.00  0.00     0.161 C 
ATOM      2  C   LIG d   1      -4.141  79.345 116.541  0.00  0.00     0.016 C 
ATOM      3  C   LIG d   1      -3.810  80.666 116.162  0.00  0.00     0.038 C 
ATOM      4  C   LIG d   1      -2.822  80.937 115.203  0.00  0.00     0.028 C 
ATOM      5  C   LIG d   1      -1.739  79.866 115.130  0.00  0.00    -0.047 C 
ATOM      6  C   LIG d   1      -2.411  78.482 114.980  0.00  0.00     0.091 C 
ENDROOT
BRANCH   1   7
ATOM      7  O   LIG d   1      -4.338  77.169 115.734  0.00  0.00    -0.368 OA
BRANCH   7   8
ATOM      8  C   LIG d   1      -4.586  76.146 116.729  0.00  0.00     0.119 C 
BRANCH   8   9
ATOM      9  C   LIG d   1      -3.282  75.951 117.527  0.00  0.00     0.028 C 
ATOM     10  C   LIG d   1      -2.660  74.561 117.306  0.00  0.00     0.006 C 
ENDBRANCH   8   9
BRANCH   8  11
ATOM     11  C   LIG d   1      -4.868  74.789 116.076  0.00  0.00     0.028 C 
ATOM     12  C   LIG d   1      -5.397  74.919 114.639  0.00  0.00     0.006 C 
ENDBRANCH   8  11
ENDBRANCH   7   8
ENDBRANCH   1   7
BRANCH   6  13
ATOM     13  N   LIG d   1      -1.426  77.370 114.986  0.00  0.00    -0.311 N 
ATOM     14  C   LIG d   1      -1.477  76.340 114.143  0.00  0.00     0.210 C 
ATOM     15  C   LIG d   1      -0.375  75.293 114.333  0.00  0.00     0.109 C 
ATOM     16  O   LIG d   1      -2.312  76.211 113.235  0.00  0.00    -0.276 OA
ATOM     17  H   LIG d   1      -0.696  77.410 115.670  0.00  0.00     0.149 HD
ENDBRANCH   6  13
BRANCH   5  18
ATOM     18  N   LIG d   1      -0.854  80.204 113.999  0.00  0.00     0.381 N 
ATOM     19  H   LIG d   1      -0.842  79.450 113.341  0.00  0.00    -0.090 HD
ATOM     20  H   LIG d   1       0.080  80.335 114.346  0.00  0.00    -0.090 HD
ATOM     21  H   LIG d   1      -1.171  81.037 113.555  0.00  0.00    -0.090 HD
ENDBRANCH   5  18
BRANCH   3  22
ATOM     22  C   LIG d   1      -4.444  81.736 116.775  0.00  0.00     0.382 C 
ATOM     23  O   LIG d   1      -5.623  82.029 116.462  0.00  0.00    -0.241 OA
ATOM     24  O   LIG d   1      -3.836  82.440 117.604  0.00  0.00    -0.241 OA
ENDBRANCH   3  22
TORSDOF 7
ENDMDL
MODEL 8
REMARK VINA RESULT:      -4.2      2.951      4.615
REMARK  7 active torsions:
REMARK  status: ('A' for Active; 'I' for Inactive)
REMARK    1  A    between atoms: C_2  and  C_3 
REMARK    2  A    between atoms: C_3  and  O_6 
REMARK    3  A    between atoms: C_3  and  C_4 
REMARK    4  A    between atoms: C_7  and  O_6 
REMARK    5  A    between atoms: C_9  and  C_10 
REMARK    6  A    between atoms: N_15  and  C_14 
REMARK    7  A    between atoms: N_20  and  C_19 
REMARK       I    between atoms: C_22  and  N_20 
ROOT
ATOM      1  C   LIG d   1      -2.641  77.830 116.183  0.00  0.00     0.161 C 
ATOM      2  C   LIG d   1      -1.457  78.480 116.572  0.00  0.00     0.016 C 
ATOM      3  C   LIG d   1      -0.209  77.824 116.680  0.00  0.00     0.038 C 
ATOM      4  C   LIG d   1      -0.029  76.499 116.257  0.00  0.00     0.028 C 
ATOM      5  C   LIG d   1      -1.300  75.660 116.335  0.00  0.00    -0.047 C 
ATOM      6  C   LIG d   1      -2.441  76.411 115.612  0.00  0.00     0.091 C 
ENDROOT
BRANCH   1   7
ATOM      7  O   LIG d   1      -3.363  78.651 115.244  0.00  0.00    -0.368 OA
BRANCH   7   8
ATOM      8  C   LIG d   1      -2.559  79.373 114.279  0.00  0.00     0.119 C 
BRANCH   8   9
ATOM      9  C   LIG d   1      -2.813  80.877 114.498  0.00  0.00     0.028 C 
ATOM     10  C   LIG d   1      -2.804  81.672 113.181  0.00  0.00     0.006 C 
ENDBRANCH   8   9
BRANCH   8  11
ATOM     11  C   LIG d   1      -3.020  79.089 112.846  0.00  0.00     0.028 C 
ATOM     12  C   LIG d   1      -2.016  78.234 112.056  0.00  0.00     0.006 C 
ENDBRANCH   8  11
ENDBRANCH   7   8
ENDBRANCH   1   7
BRANCH   6  13
ATOM     13  N   LIG d   1      -3.742  75.698 115.713  0.00  0.00    -0.311 N 
ATOM     14  C   LIG d   1      -4.597  75.585 114.698  0.00  0.00     0.210 C 
ATOM     15  C   LIG d   1      -5.889  74.828 115.023  0.00  0.00     0.109 C 
ATOM     16  O   LIG d   1      -4.394  76.012 113.552  0.00  0.00    -0.276 OA
ATOM     17  H   LIG d   1      -3.973  75.295 116.600  0.00  0.00     0.149 HD
ENDBRANCH   6  13
BRANCH   5  18
ATOM     18  N   LIG d   1      -1.003  74.345 115.738  0.00  0.00     0.381 N 
ATOM     19  H   LIG d   1      -0.462  74.465 114.905  0.00  0.00    -0.090 HD
ATOM     20  H   LIG d   1      -1.868  73.898 115.489  0.00  0.00    -0.090 HD
ATOM     21  H   LIG d   1      -0.504  73.779 116.388  0.00  0.00    -0.090 HD
ENDBRANCH   5  18
BRANCH   3  22
ATOM     22  C   LIG d   1       0.867  78.485 117.252  0.00  0.00     0.382 C 
ATOM     23  O   LIG d   1       1.440  77.997 118.256  0.00  0.00    -0.241 OA
ATOM     24  O   LIG d   1       1.243  79.585 116.805  0.00  0.00    -0.241 OA
ENDBRANCH   3  22
TORSDOF 7
ENDMDL
MODEL 9
REMARK VINA RESULT:      -4.1      2.065      2.806
REMARK  7 active torsions:
REMARK  status: ('A' for Active; 'I' for Inactive)
REMARK    1  A    between atoms: C_2  and  C_3 
REMARK    2  A    between atoms: C_3  and  O_6 
REMARK    3  A    between atoms: C_3  and  C_4 
REMARK    4  A    between atoms: C_7  and  O_6 
REMARK    5  A    between atoms: C_9  and  C_10 
REMARK    6  A    between atoms: N_15  and  C_14 
REMARK    7  A    between atoms: N_20  and  C_19 
REMARK       I    between atoms: C_22  and  N_20 
ROOT
ATOM      1  C   LIG d   1      -2.364  79.897 116.410  0.00  0.00     0.161 C 
ATOM      2  C   LIG d   1      -2.561  80.666 115.251  0.00  0.00     0.016 C 
ATOM      3  C   LIG d   1      -2.666  80.109 113.956  0.00  0.00     0.038 C 
ATOM      4  C   LIG d   1      -2.732  78.724 113.748  0.00  0.00     0.028 C 
ATOM      5  C   LIG d   1      -2.031  77.914 114.833  0.00  0.00    -0.047 C 
ATOM      6  C   LIG d   1      -2.545  78.377 116.216  0.00  0.00     0.091 C 
ENDROOT
BRANCH   1   7
ATOM      7  O   LIG d   1      -3.224  80.373 117.464  0.00  0.00    -0.368 OA
BRANCH   7   8
ATOM      8  C   LIG d   1      -4.416  81.081 117.044  0.00  0.00     0.119 C 
BRANCH   8   9
ATOM      9  C   LIG d   1      -4.552  82.330 117.936  0.00  0.00     0.028 C 
ATOM     10  C   LIG d   1      -3.201  82.794 118.506  0.00  0.00     0.006 C 
ENDBRANCH   8   9
BRANCH   8  11
ATOM     11  C   LIG d   1      -5.678  80.254 117.310  0.00  0.00     0.028 C 
ATOM     12  C   LIG d   1      -6.951  81.113 117.374  0.00  0.00     0.006 C 
ENDBRANCH   8  11
ENDBRANCH   7   8
ENDBRANCH   1   7
BRANCH   6  13
ATOM     13  N   LIG d   1      -1.849  77.694 117.337  0.00  0.00    -0.311 N 
ATOM     14  C   LIG d   1      -2.480  76.967 118.257  0.00  0.00     0.210 C 
ATOM     15  C   LIG d   1      -1.577  76.366 119.338  0.00  0.00     0.109 C 
ATOM     16  O   LIG d   1      -3.699  76.735 118.262  0.00  0.00    -0.276 OA
ATOM     17  H   LIG d   1      -0.856  77.803 117.392  0.00  0.00     0.149 HD
ENDBRANCH   6  13
BRANCH   5  18
ATOM     18  N   LIG d   1      -2.295  76.488 114.566  0.00  0.00     0.381 N 
ATOM     19  H   LIG d   1      -1.911  75.928 115.302  0.00  0.00    -0.090 HD
ATOM     20  H   LIG d   1      -1.845  76.229 113.706  0.00  0.00    -0.090 HD
ATOM     21  H   LIG d   1      -3.276  76.330 114.497  0.00  0.00    -0.090 HD
ENDBRANCH   5  18
BRANCH   3  22
ATOM     22  C   LIG d   1      -2.665  80.943 112.847  0.00  0.00     0.382 C 
ATOM     23  O   LIG d   1      -1.659  80.989 112.099  0.00  0.00    -0.241 OA
ATOM     24  O   LIG d   1      -3.640  81.681 112.611  0.00  0.00    -0.241 OA
ENDBRANCH   3  22
TORSDOF 7
ENDMDL
