MODEL 1
REMARK VINA RESULT:      -5.1      0.000      0.000
REMARK  7 active torsions:
REMARK  status: ('A' for Active; 'I' for Inactive)
REMARK    1  A    between atoms: C_2  and  C_3 
REMARK    2  A    between atoms: C_3  and  O_6 
REMARK    3  A    between atoms: C_3  and  C_4 
REMARK    4  A    between atoms: C_7  and  O_6 
REMARK    5  A    between atoms: C_9  and  C_10 
REMARK    6  A    between atoms: N_15  and  C_14 
REMARK    7  A    between atoms: N_20  and  C_19 
REMARK       I    between atoms: C_22  and  N_20 
ROOT
ATOM      1  C   LIG d   1      -3.397  77.823 113.855  0.00  0.00     0.161 C 
ATOM      2  C   LIG d   1      -3.371  79.006 113.098  0.00  0.00     0.016 C 
ATOM      3  C   LIG d   1      -2.197  79.761 112.875  0.00  0.00     0.038 C 
ATOM      4  C   LIG d   1      -0.932  79.300 113.270  0.00  0.00     0.028 C 
ATOM      5  C   LIG d   1      -0.978  78.365 114.474  0.00  0.00    -0.047 C 
ATOM      6  C   LIG d   1      -2.008  77.246 114.201  0.00  0.00     0.091 C 
ENDROOT
BRANCH   1   7
ATOM      7  O   LIG d   1      -4.199  76.831 113.184  0.00  0.00    -0.368 OA
BRANCH   7   8
ATOM      8  C   LIG d   1      -5.389  76.393 113.886  0.00  0.00     0.119 C 
BRANCH   8   9
ATOM      9  C   LIG d   1      -5.231  74.886 114.167  0.00  0.00     0.028 C 
ATOM     10  C   LIG d   1      -5.535  74.527 115.631  0.00  0.00     0.006 C 
ENDBRANCH   8   9
BRANCH   8  11
ATOM     11  C   LIG d   1      -6.633  76.512 113.001  0.00  0.00     0.028 C 
ATOM     12  C   LIG d   1      -6.314  77.035 111.592  0.00  0.00     0.006 C 
ENDBRANCH   8  11
ENDBRANCH   7   8
ENDBRANCH   1   7
BRANCH   6  13
ATOM     13  N   LIG d   1      -2.177  76.334 115.362  0.00  0.00    -0.311 N 
ATOM     14  C   LIG d   1      -1.576  75.149 115.458  0.00  0.00     0.210 C 
ATOM     15  C   LIG d   1      -1.902  74.360 116.729  0.00  0.00     0.109 C 
ATOM     16  O   LIG d   1      -0.779  74.691 114.625  0.00  0.00    -0.276 OA
ATOM     17  H   LIG d   1      -2.782  76.641 116.099  0.00  0.00     0.149 HD
ENDBRANCH   6  13
BRANCH   5  18
ATOM     18  N   LIG d   1       0.388  77.852 114.691  0.00  0.00     0.381 N 
ATOM     19  H   LIG d   1       0.991  78.601 114.970  0.00  0.00    -0.090 HD
ATOM     20  H   LIG d   1       0.735  77.473 113.828  0.00  0.00    -0.090 HD
ATOM     21  H   LIG d   1       0.379  77.144 115.393  0.00  0.00    -0.090 HD
ENDBRANCH   5  18
BRANCH   3  22
ATOM     22  C   LIG d   1      -2.286  81.013 112.284  0.00  0.00     0.382 C 
ATOM     23  O   LIG d   1      -1.270  81.535 111.765  0.00  0.00    -0.241 OA
ATOM     24  O   LIG d   1      -3.359  81.645 112.303  0.00  0.00    -0.241 OA
ENDBRANCH   3  22
TORSDOF 7
ENDMDL
MODEL 2
REMARK VINA RESULT:      -5.1      3.821      4.634
REMARK  7 active torsions:
REMARK  status: ('A' for Active; 'I' for Inactive)
REMARK    1  A    between atoms: C_2  and  C_3 
REMARK    2  A    between atoms: C_3  and  O_6 
REMARK    3  A    between atoms: C_3  and  C_4 
REMARK    4  A    between atoms: C_7  and  O_6 
REMARK    5  A    between atoms: C_9  and  C_10 
REMARK    6  A    between atoms: N_15  and  C_14 
REMARK    7  A    between atoms: N_20  and  C_19 
REMARK       I    between atoms: C_22  and  N_20 
ROOT
ATOM      1  C   LIG d   1      -5.843  77.129 117.475  0.00  0.00     0.161 C 
ATOM      2  C   LIG d   1      -6.651  78.259 117.685  0.00  0.00     0.016 C 
ATOM      3  C   LIG d   1      -6.274  79.567 117.304  0.00  0.00     0.038 C 
ATOM      4  C   LIG d   1      -5.120  79.815 116.545  0.00  0.00     0.028 C 
ATOM      5  C   LIG d   1      -4.026  78.773 116.750  0.00  0.00    -0.047 C 
ATOM      6  C   LIG d   1      -4.630  77.364 116.550  0.00  0.00     0.091 C 
ENDROOT
BRANCH   1   7
ATOM      7  O   LIG d   1      -6.646  76.039 116.982  0.00  0.00    -0.368 OA
BRANCH   7   8
ATOM      8  C   LIG d   1      -7.350  76.278 115.739  0.00  0.00     0.119 C 
BRANCH   8   9
ATOM      9  C   LIG d   1      -8.768  75.694 115.890  0.00  0.00     0.028 C 
ATOM     10  C   LIG d   1      -8.992  75.047 117.268  0.00  0.00     0.006 C 
ENDBRANCH   8   9
BRANCH   8  11
ATOM     11  C   LIG d   1      -6.715  75.504 114.580  0.00  0.00     0.028 C 
ATOM     12  C   LIG d   1      -6.075  74.180 115.027  0.00  0.00     0.006 C 
ENDBRANCH   8  11
ENDBRANCH   7   8
ENDBRANCH   1   7
BRANCH   6  13
ATOM     13  N   LIG d   1      -3.646  76.282 116.815  0.00  0.00    -0.311 N 
ATOM     14  C   LIG d   1      -2.937  75.686 115.858  0.00  0.00     0.210 C 
ATOM     15  C   LIG d   1      -1.994  74.582 116.345  0.00  0.00     0.109 C 
ATOM     16  O   LIG d   1      -2.975  75.990 114.656  0.00  0.00    -0.276 OA
ATOM     17  H   LIG d   1      -3.529  75.995 117.767  0.00  0.00     0.149 HD
ENDBRANCH   6  13
BRANCH   5  18
ATOM     18  N   LIG d   1      -2.939  79.076 115.800  0.00  0.00     0.381 N 
ATOM     19  H   LIG d   1      -2.118  79.352 116.301  0.00  0.00    -0.090 HD
ATOM     20  H   LIG d   1      -3.223  79.841 115.214  0.00  0.00    -0.090 HD
ATOM     21  H   LIG d   1      -2.742  78.275 115.241  0.00  0.00    -0.090 HD
ENDBRANCH   5  18
BRANCH   3  22
ATOM     22  C   LIG d   1      -7.036  80.649 117.716  0.00  0.00     0.382 C 
ATOM     23  O   LIG d   1      -7.243  81.606 116.931  0.00  0.00    -0.241 OA
ATOM     24  O   LIG d   1      -7.482  80.702 118.878  0.00  0.00    -0.241 OA
ENDBRANCH   3  22
TORSDOF 7
ENDMDL
MODEL 3
REMARK VINA RESULT:      -5.1      2.045      2.546
REMARK  7 active torsions:
REMARK  status: ('A' for Active; 'I' for Inactive)
REMARK    1  A    between atoms: C_2  and  C_3 
REMARK    2  A    between atoms: C_3  and  O_6 
REMARK    3  A    between atoms: C_3  and  C_4 
REMARK    4  A    between atoms: C_7  and  O_6 
REMARK    5  A    between atoms: C_9  and  C_10 
REMARK    6  A    between atoms: N_15  and  C_14 
REMARK    7  A    between atoms: N_20  and  C_19 
REMARK       I    between atoms: C_22  and  N_20 
ROOT
ATOM      1  C   LIG d   1      -3.113  78.368 115.009  0.00  0.00     0.161 C 
ATOM      2  C   LIG d   1      -3.162  79.460 114.127  0.00  0.00     0.016 C 
ATOM      3  C   LIG d   1      -2.281  79.618 113.033  0.00  0.00     0.038 C 
ATOM      4  C   LIG d   1      -1.381  78.610 112.655  0.00  0.00     0.028 C 
ATOM      5  C   LIG d   1      -0.951  77.716 113.814  0.00  0.00    -0.047 C 
ATOM      6  C   LIG d   1      -2.211  77.204 114.548  0.00  0.00     0.091 C 
ENDROOT
BRANCH   1   7
ATOM      7  O   LIG d   1      -4.448  77.893 115.274  0.00  0.00    -0.368 OA
BRANCH   7   8
ATOM      8  C   LIG d   1      -4.897  77.986 116.649  0.00  0.00     0.119 C 
BRANCH   8   9
ATOM      9  C   LIG d   1      -5.848  76.802 116.906  0.00  0.00     0.028 C 
ATOM     10  C   LIG d   1      -6.818  76.563 115.737  0.00  0.00     0.006 C 
ENDBRANCH   8   9
BRANCH   8  11
ATOM     11  C   LIG d   1      -5.743  79.243 116.875  0.00  0.00     0.028 C 
ATOM     12  C   LIG d   1      -5.534  79.859 118.267  0.00  0.00     0.006 C 
ENDBRANCH   8  11
ENDBRANCH   7   8
ENDBRANCH   1   7
BRANCH   6  13
ATOM     13  N   LIG d   1      -1.878  76.390 115.746  0.00  0.00    -0.311 N 
ATOM     14  C   LIG d   1      -1.651  75.079 115.701  0.00  0.00     0.210 C 
ATOM     15  C   LIG d   1      -1.344  74.429 117.054  0.00  0.00     0.109 C 
ATOM     16  O   LIG d   1      -1.642  74.397 114.665  0.00  0.00    -0.276 OA
ATOM     17  H   LIG d   1      -1.834  76.869 116.624  0.00  0.00     0.149 HD
ENDBRANCH   6  13
BRANCH   5  18
ATOM     18  N   LIG d   1      -0.125  76.629 113.255  0.00  0.00     0.381 N 
ATOM     19  H   LIG d   1      -0.322  76.521 112.280  0.00  0.00    -0.090 HD
ATOM     20  H   LIG d   1      -0.360  75.770 113.721  0.00  0.00    -0.090 HD
ATOM     21  H   LIG d   1       0.841  76.833 113.386  0.00  0.00    -0.090 HD
ENDBRANCH   5  18
BRANCH   3  22
ATOM     22  C   LIG d   1      -2.267  80.811 112.328  0.00  0.00     0.382 C 
ATOM     23  O   LIG d   1      -3.261  81.575 112.368  0.00  0.00    -0.241 OA
ATOM     24  O   LIG d   1      -1.290  81.114 111.617  0.00  0.00    -0.241 OA
ENDBRANCH   3  22
TORSDOF 7
ENDMDL
MODEL 4
REMARK VINA RESULT:      -4.9      1.454      2.201
REMARK  7 active torsions:
REMARK  status: ('A' for Active; 'I' for Inactive)
REMARK    1  A    between atoms: C_2  and  C_3 
REMARK    2  A    between atoms: C_3  and  O_6 
REMARK    3  A    between atoms: C_3  and  C_4 
REMARK    4  A    between atoms: C_7  and  O_6 
REMARK    5  A    between atoms: C_9  and  C_10 
REMARK    6  A    between atoms: N_15  and  C_14 
REMARK    7  A    between atoms: N_20  and  C_19 
REMARK       I    between atoms: C_22  and  N_20 
ROOT
ATOM      1  C   LIG d   1      -2.776  77.088 114.913  0.00  0.00     0.161 C 
ATOM      2  C   LIG d   1      -2.959  78.047 113.903  0.00  0.00     0.016 C 
ATOM      3  C   LIG d   1      -1.969  78.985 113.532  0.00  0.00     0.038 C 
ATOM      4  C   LIG d   1      -0.665  78.930 114.045  0.00  0.00     0.028 C 
ATOM      5  C   LIG d   1      -0.587  78.299 115.432  0.00  0.00    -0.047 C 
ATOM      6  C   LIG d   1      -1.322  76.940 115.407  0.00  0.00     0.091 C 
ENDROOT
BRANCH   1   7
ATOM      7  O   LIG d   1      -3.289  75.814 114.476  0.00  0.00    -0.368 OA
BRANCH   7   8
ATOM      8  C   LIG d   1      -4.414  75.290 115.223  0.00  0.00     0.119 C 
BRANCH   8   9
ATOM      9  C   LIG d   1      -5.521  74.942 114.209  0.00  0.00     0.028 C 
ATOM     10  C   LIG d   1      -6.039  76.180 113.459  0.00  0.00     0.006 C 
ENDBRANCH   8   9
BRANCH   8  11
ATOM     11  C   LIG d   1      -5.022  76.357 116.137  0.00  0.00     0.028 C 
ATOM     12  C   LIG d   1      -6.238  75.845 116.925  0.00  0.00     0.006 C 
ENDBRANCH   8  11
ENDBRANCH   7   8
ENDBRANCH   1   7
BRANCH   6  13
ATOM     13  N   LIG d   1      -1.365  76.295 116.745  0.00  0.00    -0.311 N 
ATOM     14  C   LIG d   1      -0.460  75.412 117.163  0.00  0.00     0.210 C 
ATOM     15  C   LIG d   1      -0.702  74.853 118.569  0.00  0.00     0.109 C 
ATOM     16  O   LIG d   1       0.539  75.062 116.516  0.00  0.00    -0.276 OA
ATOM     17  H   LIG d   1      -2.125  76.544 117.348  0.00  0.00     0.149 HD
ENDBRANCH   6  13
BRANCH   5  18
ATOM     18  N   LIG d   1       0.840  78.179 115.787  0.00  0.00     0.381 N 
ATOM     19  H   LIG d   1       0.954  78.286 116.775  0.00  0.00    -0.090 HD
ATOM     20  H   LIG d   1       1.352  78.913 115.329  0.00  0.00    -0.090 HD
ATOM     21  H   LIG d   1       1.189  77.291 115.499  0.00  0.00    -0.090 HD
ENDBRANCH   5  18
BRANCH   3  22
ATOM     22  C   LIG d   1      -2.292  80.019 112.666  0.00  0.00     0.382 C 
ATOM     23  O   LIG d   1      -3.005  80.971 113.064  0.00  0.00    -0.241 OA
ATOM     24  O   LIG d   1      -1.917  79.989 111.478  0.00  0.00    -0.241 OA
ENDBRANCH   3  22
TORSDOF 7
ENDMDL
MODEL 5
REMARK VINA RESULT:      -4.8      3.988      5.533
REMARK  7 active torsions:
REMARK  status: ('A' for Active; 'I' for Inactive)
REMARK    1  A    between atoms: C_2  and  C_3 
REMARK    2  A    between atoms: C_3  and  O_6 
REMARK    3  A    between atoms: C_3  and  C_4 
REMARK    4  A    between atoms: C_7  and  O_6 
REMARK    5  A    between atoms: C_9  and  C_10 
REMARK    6  A    between atoms: N_15  and  C_14 
REMARK    7  A    between atoms: N_20  and  C_19 
REMARK       I    between atoms: C_22  and  N_20 
ROOT
ATOM      1  C   LIG d   1      -5.031  77.175 117.191  0.00  0.00     0.161 C 
ATOM      2  C   LIG d   1      -3.848  77.815 116.785  0.00  0.00     0.016 C 
ATOM      3  C   LIG d   1      -3.310  77.703 115.483  0.00  0.00     0.038 C 
ATOM      4  C   LIG d   1      -4.003  77.060 114.446  0.00  0.00     0.028 C 
ATOM      5  C   LIG d   1      -4.953  75.973 114.937  0.00  0.00    -0.047 C 
ATOM      6  C   LIG d   1      -5.859  76.560 116.043  0.00  0.00     0.091 C 
ENDROOT
BRANCH   1   7
ATOM      7  O   LIG d   1      -5.841  78.085 117.961  0.00  0.00    -0.368 OA
BRANCH   7   8
ATOM      8  C   LIG d   1      -6.724  78.949 117.204  0.00  0.00     0.119 C 
BRANCH   8   9
ATOM      9  C   LIG d   1      -6.283  80.403 117.463  0.00  0.00     0.028 C 
ATOM     10  C   LIG d   1      -7.468  81.384 117.466  0.00  0.00     0.006 C 
ENDBRANCH   8   9
BRANCH   8  11
ATOM     11  C   LIG d   1      -8.163  78.864 117.720  0.00  0.00     0.028 C 
ATOM     12  C   LIG d   1      -8.303  77.949 118.947  0.00  0.00     0.006 C 
ENDBRANCH   8  11
ENDBRANCH   7   8
ENDBRANCH   1   7
BRANCH   6  13
ATOM     13  N   LIG d   1      -6.762  75.540 116.637  0.00  0.00    -0.311 N 
ATOM     14  C   LIG d   1      -8.030  75.376 116.263  0.00  0.00     0.210 C 
ATOM     15  C   LIG d   1      -8.791  74.281 117.017  0.00  0.00     0.109 C 
ATOM     16  O   LIG d   1      -8.588  76.013 115.357  0.00  0.00    -0.276 OA
ATOM     17  H   LIG d   1      -6.382  74.958 117.358  0.00  0.00     0.149 HD
ENDBRANCH   6  13
BRANCH   5  18
ATOM     18  N   LIG d   1      -5.709  75.482 113.769  0.00  0.00     0.381 N 
ATOM     19  H   LIG d   1      -5.112  75.450 112.968  0.00  0.00    -0.090 HD
ATOM     20  H   LIG d   1      -6.461  76.121 113.577  0.00  0.00    -0.090 HD
ATOM     21  H   LIG d   1      -6.075  74.575 113.957  0.00  0.00    -0.090 HD
ENDBRANCH   5  18
BRANCH   3  22
ATOM     22  C   LIG d   1      -2.045  78.205 115.217  0.00  0.00     0.382 C 
ATOM     23  O   LIG d   1      -1.525  79.041 115.995  0.00  0.00    -0.241 OA
ATOM     24  O   LIG d   1      -1.434  77.865 114.186  0.00  0.00    -0.241 OA
ENDBRANCH   3  22
TORSDOF 7
ENDMDL
MODEL 6
REMARK VINA RESULT:      -4.8      2.447      3.224
REMARK  7 active torsions:
REMARK  status: ('A' for Active; 'I' for Inactive)
REMARK    1  A    between atoms: C_2  and  C_3 
REMARK    2  A    between atoms: C_3  and  O_6 
REMARK    3  A    between atoms: C_3  and  C_4 
REMARK    4  A    between atoms: C_7  and  O_6 
REMARK    5  A    between atoms: C_9  and  C_10 
REMARK    6  A    between atoms: N_15  and  C_14 
REMARK    7  A    between atoms: N_20  and  C_19 
REMARK       I    between atoms: C_22  and  N_20 
ROOT
ATOM      1  C   LIG d   1      -3.231  78.457 114.298  0.00  0.00     0.161 C 
ATOM      2  C   LIG d   1      -2.955  78.133 112.960  0.00  0.00     0.016 C 
ATOM      3  C   LIG d   1      -1.647  77.923 112.464  0.00  0.00     0.038 C 
ATOM      4  C   LIG d   1      -0.532  77.874 113.313  0.00  0.00     0.028 C 
ATOM      5  C   LIG d   1      -0.704  78.694 114.587  0.00  0.00    -0.047 C 
ATOM      6  C   LIG d   1      -2.037  78.299 115.262  0.00  0.00     0.091 C 
ENDROOT
BRANCH   1   7
ATOM      7  O   LIG d   1      -4.357  77.688 114.765  0.00  0.00    -0.368 OA
BRANCH   7   8
ATOM      8  C   LIG d   1      -4.355  76.281 114.418  0.00  0.00     0.119 C 
BRANCH   8   9
ATOM      9  C   LIG d   1      -5.744  75.945 113.841  0.00  0.00     0.028 C 
ATOM     10  C   LIG d   1      -6.872  76.155 114.865  0.00  0.00     0.006 C 
ENDBRANCH   8   9
BRANCH   8  11
ATOM     11  C   LIG d   1      -4.209  75.400 115.662  0.00  0.00     0.028 C 
ATOM     12  C   LIG d   1      -2.763  74.934 115.896  0.00  0.00     0.006 C 
ENDBRANCH   8  11
ENDBRANCH   7   8
ENDBRANCH   1   7
BRANCH   6  13
ATOM     13  N   LIG d   1      -2.323  79.114 116.471  0.00  0.00    -0.311 N 
ATOM     14  C   LIG d   1      -2.010  78.729 117.707  0.00  0.00     0.210 C 
ATOM     15  C   LIG d   1      -2.412  79.710 118.813  0.00  0.00     0.109 C 
ATOM     16  O   LIG d   1      -1.407  77.682 117.990  0.00  0.00    -0.276 OA
ATOM     17  H   LIG d   1      -2.782  79.993 116.331  0.00  0.00     0.149 HD
ENDBRANCH   6  13
BRANCH   5  18
ATOM     18  N   LIG d   1       0.473  78.444 115.441  0.00  0.00     0.381 N 
ATOM     19  H   LIG d   1       1.081  79.238 115.421  0.00  0.00    -0.090 HD
ATOM     20  H   LIG d   1       0.976  77.653 115.078  0.00  0.00    -0.090 HD
ATOM     21  H   LIG d   1       0.183  78.262 116.376  0.00  0.00    -0.090 HD
ENDBRANCH   5  18
BRANCH   3  22
ATOM     22  C   LIG d   1      -1.442  77.799 111.099  0.00  0.00     0.382 C 
ATOM     23  O   LIG d   1      -1.751  78.741 110.330  0.00  0.00    -0.241 OA
ATOM     24  O   LIG d   1      -0.993  76.739 110.621  0.00  0.00    -0.241 OA
ENDBRANCH   3  22
TORSDOF 7
ENDMDL
MODEL 7
REMARK VINA RESULT:      -4.8      4.098      5.885
REMARK  7 active torsions:
REMARK  status: ('A' for Active; 'I' for Inactive)
REMARK    1  A    between atoms: C_2  and  C_3 
REMARK    2  A    between atoms: C_3  and  O_6 
REMARK    3  A    between atoms: C_3  and  C_4 
REMARK    4  A    between atoms: C_7  and  O_6 
REMARK    5  A    between atoms: C_9  and  C_10 
REMARK    6  A    between atoms: N_15  and  C_14 
REMARK    7  A    between atoms: N_20  and  C_19 
REMARK       I    between atoms: C_22  and  N_20 
ROOT
ATOM      1  C   LIG d   1      -5.733  77.479 115.946  0.00  0.00     0.161 C 
ATOM      2  C   LIG d   1      -4.837  76.425 115.700  0.00  0.00     0.016 C 
ATOM      3  C   LIG d   1      -3.560  76.333 116.299  0.00  0.00     0.038 C 
ATOM      4  C   LIG d   1      -3.149  77.216 117.309  0.00  0.00     0.028 C 
ATOM      5  C   LIG d   1      -3.817  78.585 117.224  0.00  0.00    -0.047 C 
ATOM      6  C   LIG d   1      -5.347  78.392 117.129  0.00  0.00     0.091 C 
ENDROOT
BRANCH   1   7
ATOM      7  O   LIG d   1      -7.063  76.956 116.130  0.00  0.00    -0.368 OA
BRANCH   7   8
ATOM      8  C   LIG d   1      -7.187  75.831 117.034  0.00  0.00     0.119 C 
BRANCH   8   9
ATOM      9  C   LIG d   1      -7.583  74.602 116.193  0.00  0.00     0.028 C 
ATOM     10  C   LIG d   1      -9.056  74.204 116.393  0.00  0.00     0.006 C 
ENDBRANCH   8   9
BRANCH   8  11
ATOM     11  C   LIG d   1      -8.339  76.034 118.023  0.00  0.00     0.028 C 
ATOM     12  C   LIG d   1      -9.060  77.377 117.830  0.00  0.00     0.006 C 
ENDBRANCH   8  11
ENDBRANCH   7   8
ENDBRANCH   1   7
BRANCH   6  13
ATOM     13  N   LIG d   1      -6.071  79.679 116.958  0.00  0.00    -0.311 N 
ATOM     14  C   LIG d   1      -6.806  80.239 117.917  0.00  0.00     0.210 C 
ATOM     15  C   LIG d   1      -7.485  81.556 117.526  0.00  0.00     0.109 C 
ATOM     16  O   LIG d   1      -6.935  79.787 119.065  0.00  0.00    -0.276 OA
ATOM     17  H   LIG d   1      -5.996  80.130 116.067  0.00  0.00     0.149 HD
ENDBRANCH   6  13
BRANCH   5  18
ATOM     18  N   LIG d   1      -3.404  79.356 118.412  0.00  0.00     0.381 N 
ATOM     19  H   LIG d   1      -2.974  80.213 118.128  0.00  0.00    -0.090 HD
ATOM     20  H   LIG d   1      -2.728  78.821 118.929  0.00  0.00    -0.090 HD
ATOM     21  H   LIG d   1      -4.196  79.547 118.986  0.00  0.00    -0.090 HD
ENDBRANCH   5  18
BRANCH   3  22
ATOM     22  C   LIG d   1      -2.662  75.372 115.860  0.00  0.00     0.382 C 
ATOM     23  O   LIG d   1      -2.712  74.962 114.675  0.00  0.00    -0.241 OA
ATOM     24  O   LIG d   1      -1.832  74.877 116.646  0.00  0.00    -0.241 OA
ENDBRANCH   3  22
TORSDOF 7
ENDMDL
MODEL 8
REMARK VINA RESULT:      -4.8      2.066      2.542
REMARK  7 active torsions:
REMARK  status: ('A' for Active; 'I' for Inactive)
REMARK    1  A    between atoms: C_2  and  C_3 
REMARK    2  A    between atoms: C_3  and  O_6 
REMARK    3  A    between atoms: C_3  and  C_4 
REMARK    4  A    between atoms: C_7  and  O_6 
REMARK    5  A    between atoms: C_9  and  C_10 
REMARK    6  A    between atoms: N_15  and  C_14 
REMARK    7  A    between atoms: N_20  and  C_19 
REMARK       I    between atoms: C_22  and  N_20 
ROOT
ATOM      1  C   LIG d   1      -2.764  77.153 114.483  0.00  0.00     0.161 C 
ATOM      2  C   LIG d   1      -2.818  77.436 113.108  0.00  0.00     0.016 C 
ATOM      3  C   LIG d   1      -1.814  78.159 112.422  0.00  0.00     0.038 C 
ATOM      4  C   LIG d   1      -0.607  78.519 113.039  0.00  0.00     0.028 C 
ATOM      5  C   LIG d   1      -0.728  78.696 114.549  0.00  0.00    -0.047 C 
ATOM      6  C   LIG d   1      -1.402  77.441 115.149  0.00  0.00     0.091 C 
ENDROOT
BRANCH   1   7
ATOM      7  O   LIG d   1      -3.156  75.785 114.715  0.00  0.00    -0.368 OA
BRANCH   7   8
ATOM      8  C   LIG d   1      -4.403  75.593 115.427  0.00  0.00     0.119 C 
BRANCH   8   9
ATOM      9  C   LIG d   1      -5.362  74.838 114.486  0.00  0.00     0.028 C 
ATOM     10  C   LIG d   1      -6.529  74.181 115.241  0.00  0.00     0.006 C 
ENDBRANCH   8   9
BRANCH   8  11
ATOM     11  C   LIG d   1      -5.091  76.930 115.719  0.00  0.00     0.028 C 
ATOM     12  C   LIG d   1      -5.283  77.185 117.223  0.00  0.00     0.006 C 
ENDBRANCH   8  11
ENDBRANCH   7   8
ENDBRANCH   1   7
BRANCH   6  13
ATOM     13  N   LIG d   1      -1.635  77.567 116.612  0.00  0.00    -0.311 N 
ATOM     14  C   LIG d   1      -1.184  76.687 117.504  0.00  0.00     0.210 C 
ATOM     15  C   LIG d   1      -1.553  76.995 118.959  0.00  0.00     0.109 C 
ATOM     16  O   LIG d   1      -0.486  75.699 117.233  0.00  0.00    -0.276 OA
ATOM     17  H   LIG d   1      -2.166  78.357 116.923  0.00  0.00     0.149 HD
ENDBRANCH   6  13
BRANCH   5  18
ATOM     18  N   LIG d   1       0.628  78.933 115.080  0.00  0.00     0.381 N 
ATOM     19  H   LIG d   1       0.587  79.054 116.072  0.00  0.00    -0.090 HD
ATOM     20  H   LIG d   1       0.992  79.777 114.674  0.00  0.00    -0.090 HD
ATOM     21  H   LIG d   1       1.221  78.165 114.856  0.00  0.00    -0.090 HD
ENDBRANCH   5  18
BRANCH   3  22
ATOM     22  C   LIG d   1      -2.032  78.564 111.114  0.00  0.00     0.382 C 
ATOM     23  O   LIG d   1      -2.857  77.949 110.396  0.00  0.00    -0.241 OA
ATOM     24  O   LIG d   1      -1.380  79.508 110.628  0.00  0.00    -0.241 OA
ENDBRANCH   3  22
TORSDOF 7
ENDMDL
MODEL 9
REMARK VINA RESULT:      -4.7      2.178      4.741
REMARK  7 active torsions:
REMARK  status: ('A' for Active; 'I' for Inactive)
REMARK    1  A    between atoms: C_2  and  C_3 
REMARK    2  A    between atoms: C_3  and  O_6 
REMARK    3  A    between atoms: C_3  and  C_4 
REMARK    4  A    between atoms: C_7  and  O_6 
REMARK    5  A    between atoms: C_9  and  C_10 
REMARK    6  A    between atoms: N_15  and  C_14 
REMARK    7  A    between atoms: N_20  and  C_19 
REMARK       I    between atoms: C_22  and  N_20 
ROOT
ATOM      1  C   LIG d   1      -2.182  76.246 114.466  0.00  0.00     0.161 C 
ATOM      2  C   LIG d   1      -2.107  75.822 115.804  0.00  0.00     0.016 C 
ATOM      3  C   LIG d   1      -1.412  76.534 116.808  0.00  0.00     0.038 C 
ATOM      4  C   LIG d   1      -0.869  77.806 116.573  0.00  0.00     0.028 C 
ATOM      5  C   LIG d   1      -0.485  78.042 115.116  0.00  0.00    -0.047 C 
ATOM      6  C   LIG d   1      -1.690  77.687 114.216  0.00  0.00     0.091 C 
ENDROOT
BRANCH   1   7
ATOM      7  O   LIG d   1      -3.529  76.084 113.978  0.00  0.00    -0.368 OA
BRANCH   7   8
ATOM      8  C   LIG d   1      -4.545  75.840 114.981  0.00  0.00     0.119 C 
BRANCH   8   9
ATOM      9  C   LIG d   1      -5.466  74.726 114.445  0.00  0.00     0.028 C 
ATOM     10  C   LIG d   1      -6.416  74.181 115.524  0.00  0.00     0.006 C 
ENDBRANCH   8   9
BRANCH   8  11
ATOM     11  C   LIG d   1      -5.451  77.061 115.165  0.00  0.00     0.028 C 
ATOM     12  C   LIG d   1      -5.026  77.945 116.348  0.00  0.00     0.006 C 
ENDBRANCH   8  11
ENDBRANCH   7   8
ENDBRANCH   1   7
BRANCH   6  13
ATOM     13  N   LIG d   1      -1.373  77.809 112.770  0.00  0.00    -0.311 N 
ATOM     14  C   LIG d   1      -2.137  78.474 111.905  0.00  0.00     0.210 C 
ATOM     15  C   LIG d   1      -1.638  78.459 110.457  0.00  0.00     0.109 C 
ATOM     16  O   LIG d   1      -3.163  79.102 112.206  0.00  0.00    -0.276 OA
ATOM     17  H   LIG d   1      -0.541  77.355 112.445  0.00  0.00     0.149 HD
ENDBRANCH   6  13
BRANCH   5  18
ATOM     18  N   LIG d   1      -0.063  79.449 114.989  0.00  0.00     0.381 N 
ATOM     19  H   LIG d   1      -0.846  80.016 114.730  0.00  0.00    -0.090 HD
ATOM     20  H   LIG d   1       0.629  79.517 114.263  0.00  0.00    -0.090 HD
ATOM     21  H   LIG d   1       0.319  79.771 115.851  0.00  0.00    -0.090 HD
ENDBRANCH   5  18
BRANCH   3  22
ATOM     22  C   LIG d   1      -1.220  75.956 118.053  0.00  0.00     0.382 C 
ATOM     23  O   LIG d   1      -1.370  76.642 119.093  0.00  0.00    -0.241 OA
ATOM     24  O   LIG d   1      -0.856  74.768 118.149  0.00  0.00    -0.241 OA
ENDBRANCH   3  22
TORSDOF 7
ENDMDL
