MODEL 1
REMARK VINA RESULT:      -5.5      0.000      0.000
REMARK  7 active torsions:
REMARK  status: ('A' for Active; 'I' for Inactive)
REMARK    1  A    between atoms: C_2  and  C_3 
REMARK    2  A    between atoms: C_3  and  O_6 
REMARK    3  A    between atoms: C_3  and  C_4 
REMARK    4  A    between atoms: C_7  and  O_6 
REMARK    5  A    between atoms: C_9  and  C_10 
REMARK    6  A    between atoms: N_15  and  C_14 
REMARK    7  A    between atoms: N_20  and  C_19 
REMARK       I    between atoms: C_22  and  N_20 
ROOT
ATOM      1  C   LIG d   1      -2.532  79.529 114.531  0.00  0.00     0.161 C 
ATOM      2  C   LIG d   1      -1.991  80.735 114.055  0.00  0.00     0.016 C 
ATOM      3  C   LIG d   1      -1.390  80.870 112.782  0.00  0.00     0.038 C 
ATOM      4  C   LIG d   1      -1.424  79.837 111.833  0.00  0.00     0.028 C 
ATOM      5  C   LIG d   1      -1.511  78.447 112.454  0.00  0.00    -0.047 C 
ATOM      6  C   LIG d   1      -2.679  78.422 113.467  0.00  0.00     0.091 C 
ENDROOT
BRANCH   1   7
ATOM      7  O   LIG d   1      -3.800  79.781 115.169  0.00  0.00    -0.368 OA
BRANCH   7   8
ATOM      8  C   LIG d   1      -3.853  79.541 116.597  0.00  0.00     0.119 C 
BRANCH   8   9
ATOM      9  C   LIG d   1      -5.140  78.743 116.885  0.00  0.00     0.028 C 
ATOM     10  C   LIG d   1      -4.882  77.515 117.774  0.00  0.00     0.006 C 
ENDBRANCH   8   9
BRANCH   8  11
ATOM     11  C   LIG d   1      -4.005  80.850 117.377  0.00  0.00     0.028 C 
ATOM     12  C   LIG d   1      -5.472  81.277 117.545  0.00  0.00     0.006 C 
ENDBRANCH   8  11
ENDBRANCH   7   8
ENDBRANCH   1   7
BRANCH   6  13
ATOM     13  N   LIG d   1      -2.781  77.123 114.181  0.00  0.00    -0.311 N 
ATOM     14  C   LIG d   1      -3.907  76.415 114.257  0.00  0.00     0.210 C 
ATOM     15  C   LIG d   1      -3.800  75.114 115.059  0.00  0.00     0.109 C 
ATOM     16  O   LIG d   1      -4.976  76.725 113.710  0.00  0.00    -0.276 OA
ATOM     17  H   LIG d   1      -1.953  76.781 114.627  0.00  0.00     0.149 HD
ENDBRANCH   6  13
BRANCH   5  18
ATOM     18  N   LIG d   1      -1.679  77.478 111.354  0.00  0.00     0.381 N 
ATOM     19  H   LIG d   1      -2.475  76.899 111.531  0.00  0.00    -0.090 HD
ATOM     20  H   LIG d   1      -0.865  76.891 111.311  0.00  0.00    -0.090 HD
ATOM     21  H   LIG d   1      -1.796  77.960 110.490  0.00  0.00    -0.090 HD
ENDBRANCH   5  18
BRANCH   3  22
ATOM     22  C   LIG d   1      -0.709  82.035 112.464  0.00  0.00     0.382 C 
ATOM     23  O   LIG d   1      -1.141  82.785 111.555  0.00  0.00    -0.241 OA
ATOM     24  O   LIG d   1       0.355  82.324 113.043  0.00  0.00    -0.241 OA
ENDBRANCH   3  22
TORSDOF 7
ENDMDL
MODEL 2
REMARK VINA RESULT:      -5.4      2.912      4.230
REMARK  7 active torsions:
REMARK  status: ('A' for Active; 'I' for Inactive)
REMARK    1  A    between atoms: C_2  and  C_3 
REMARK    2  A    between atoms: C_3  and  O_6 
REMARK    3  A    between atoms: C_3  and  C_4 
REMARK    4  A    between atoms: C_7  and  O_6 
REMARK    5  A    between atoms: C_9  and  C_10 
REMARK    6  A    between atoms: N_15  and  C_14 
REMARK    7  A    between atoms: N_20  and  C_19 
REMARK       I    between atoms: C_22  and  N_20 
ROOT
ATOM      1  C   LIG d   1      -2.197  78.463 115.070  0.00  0.00     0.161 C 
ATOM      2  C   LIG d   1      -2.529  79.333 114.018  0.00  0.00     0.016 C 
ATOM      3  C   LIG d   1      -1.723  80.427 113.629  0.00  0.00     0.038 C 
ATOM      4  C   LIG d   1      -0.447  80.638 114.172  0.00  0.00     0.028 C 
ATOM      5  C   LIG d   1      -0.291  80.085 115.584  0.00  0.00    -0.047 C 
ATOM      6  C   LIG d   1      -0.755  78.611 115.600  0.00  0.00     0.091 C 
ENDROOT
BRANCH   1   7
ATOM      7  O   LIG d   1      -2.448  77.100 114.675  0.00  0.00    -0.368 OA
BRANCH   7   8
ATOM      8  C   LIG d   1      -3.548  76.435 115.343  0.00  0.00     0.119 C 
BRANCH   8   9
ATOM      9  C   LIG d   1      -2.979  75.181 116.036  0.00  0.00     0.028 C 
ATOM     10  C   LIG d   1      -1.596  74.786 115.490  0.00  0.00     0.006 C 
ENDBRANCH   8   9
BRANCH   8  11
ATOM     11  C   LIG d   1      -4.576  75.910 114.337  0.00  0.00     0.028 C 
ATOM     12  C   LIG d   1      -5.208  74.578 114.770  0.00  0.00     0.006 C 
ENDBRANCH   8  11
ENDBRANCH   7   8
ENDBRANCH   1   7
BRANCH   6  13
ATOM     13  N   LIG d   1      -0.714  78.019 116.963  0.00  0.00    -0.311 N 
ATOM     14  C   LIG d   1       0.303  77.288 117.414  0.00  0.00     0.210 C 
ATOM     15  C   LIG d   1       0.135  76.756 118.841  0.00  0.00     0.109 C 
ATOM     16  O   LIG d   1       1.344  77.057 116.780  0.00  0.00    -0.276 OA
ATOM     17  H   LIG d   1      -1.505  78.183 117.555  0.00  0.00     0.149 HD
ENDBRANCH   6  13
BRANCH   5  18
ATOM     18  N   LIG d   1       1.122  80.251 115.974  0.00  0.00     0.381 N 
ATOM     19  H   LIG d   1       1.449  79.419 116.423  0.00  0.00    -0.090 HD
ATOM     20  H   LIG d   1       1.193  81.011 116.627  0.00  0.00    -0.090 HD
ATOM     21  H   LIG d   1       1.678  80.442 115.169  0.00  0.00    -0.090 HD
ENDBRANCH   5  18
BRANCH   3  22
ATOM     22  C   LIG d   1      -2.211  81.349 112.714  0.00  0.00     0.382 C 
ATOM     23  O   LIG d   1      -3.439  81.395 112.465  0.00  0.00    -0.241 OA
ATOM     24  O   LIG d   1      -1.432  82.104 112.103  0.00  0.00    -0.241 OA
ENDBRANCH   3  22
TORSDOF 7
ENDMDL
MODEL 3
REMARK VINA RESULT:      -5.1      2.104      5.190
REMARK  7 active torsions:
REMARK  status: ('A' for Active; 'I' for Inactive)
REMARK    1  A    between atoms: C_2  and  C_3 
REMARK    2  A    between atoms: C_3  and  O_6 
REMARK    3  A    between atoms: C_3  and  C_4 
REMARK    4  A    between atoms: C_7  and  O_6 
REMARK    5  A    between atoms: C_9  and  C_10 
REMARK    6  A    between atoms: N_15  and  C_14 
REMARK    7  A    between atoms: N_20  and  C_19 
REMARK       I    between atoms: C_22  and  N_20 
ROOT
ATOM      1  C   LIG d   1      -2.024  80.327 114.126  0.00  0.00     0.161 C 
ATOM      2  C   LIG d   1      -2.605  79.068 114.354  0.00  0.00     0.016 C 
ATOM      3  C   LIG d   1      -2.636  78.039 113.385  0.00  0.00     0.038 C 
ATOM      4  C   LIG d   1      -1.949  78.146 112.167  0.00  0.00     0.028 C 
ATOM      5  C   LIG d   1      -1.777  79.586 111.693  0.00  0.00    -0.047 C 
ATOM      6  C   LIG d   1      -1.172  80.423 112.843  0.00  0.00     0.091 C 
ENDROOT
BRANCH   1   7
ATOM      7  O   LIG d   1      -1.246  80.720 115.274  0.00  0.00    -0.368 OA
BRANCH   7   8
ATOM      8  C   LIG d   1      -1.321  79.844 116.425  0.00  0.00     0.119 C 
BRANCH   8   9
ATOM      9  C   LIG d   1      -1.696  80.710 117.643  0.00  0.00     0.028 C 
ATOM     10  C   LIG d   1      -3.206  80.691 117.934  0.00  0.00     0.006 C 
ENDBRANCH   8   9
BRANCH   8  11
ATOM     11  C   LIG d   1       0.049  79.245 116.760  0.00  0.00     0.028 C 
ATOM     12  C   LIG d   1       0.090  77.718 116.588  0.00  0.00     0.006 C 
ENDBRANCH   8  11
ENDBRANCH   7   8
ENDBRANCH   1   7
BRANCH   6  13
ATOM     13  N   LIG d   1      -1.049  81.862 112.492  0.00  0.00    -0.311 N 
ATOM     14  C   LIG d   1       0.003  82.374 111.855  0.00  0.00     0.210 C 
ATOM     15  C   LIG d   1      -0.062  83.884 111.609  0.00  0.00     0.109 C 
ATOM     16  O   LIG d   1       0.969  81.715 111.442  0.00  0.00    -0.276 OA
ATOM     17  H   LIG d   1      -1.802  82.464 112.763  0.00  0.00     0.149 HD
ENDBRANCH   6  13
BRANCH   5  18
ATOM     18  N   LIG d   1      -0.928  79.560 110.488  0.00  0.00     0.381 N 
ATOM     19  H   LIG d   1      -0.292  78.788 110.537  0.00  0.00    -0.090 HD
ATOM     20  H   LIG d   1      -0.391  80.408 110.450  0.00  0.00    -0.090 HD
ATOM     21  H   LIG d   1      -1.495  79.481 109.672  0.00  0.00    -0.090 HD
ENDBRANCH   5  18
BRANCH   3  22
ATOM     22  C   LIG d   1      -3.395  76.901 113.615  0.00  0.00     0.382 C 
ATOM     23  O   LIG d   1      -3.047  76.085 114.503  0.00  0.00    -0.241 OA
ATOM     24  O   LIG d   1      -4.397  76.658 112.917  0.00  0.00    -0.241 OA
ENDBRANCH   3  22
TORSDOF 7
ENDMDL
MODEL 4
REMARK VINA RESULT:      -5.0      2.093      2.523
REMARK  7 active torsions:
REMARK  status: ('A' for Active; 'I' for Inactive)
REMARK    1  A    between atoms: C_2  and  C_3 
REMARK    2  A    between atoms: C_3  and  O_6 
REMARK    3  A    between atoms: C_3  and  C_4 
REMARK    4  A    between atoms: C_7  and  O_6 
REMARK    5  A    between atoms: C_9  and  C_10 
REMARK    6  A    between atoms: N_15  and  C_14 
REMARK    7  A    between atoms: N_20  and  C_19 
REMARK       I    between atoms: C_22  and  N_20 
ROOT
ATOM      1  C   LIG d   1      -2.739  78.902 115.982  0.00  0.00     0.161 C 
ATOM      2  C   LIG d   1      -2.902  79.956 115.067  0.00  0.00     0.016 C 
ATOM      3  C   LIG d   1      -2.364  79.942 113.760  0.00  0.00     0.038 C 
ATOM      4  C   LIG d   1      -1.750  78.801 113.223  0.00  0.00     0.028 C 
ATOM      5  C   LIG d   1      -1.119  77.899 114.279  0.00  0.00    -0.047 C 
ATOM      6  C   LIG d   1      -2.167  77.604 115.377  0.00  0.00     0.091 C 
ENDROOT
BRANCH   1   7
ATOM      7  O   LIG d   1      -3.988  78.636 116.649  0.00  0.00    -0.368 OA
BRANCH   7   8
ATOM      8  C   LIG d   1      -4.706  79.794 117.143  0.00  0.00     0.119 C 
BRANCH   8   9
ATOM      9  C   LIG d   1      -4.270  80.022 118.603  0.00  0.00     0.028 C 
ATOM     10  C   LIG d   1      -3.561  81.372 118.800  0.00  0.00     0.006 C 
ENDBRANCH   8   9
BRANCH   8  11
ATOM     11  C   LIG d   1      -6.213  79.529 117.207  0.00  0.00     0.028 C 
ATOM     12  C   LIG d   1      -7.031  80.802 117.477  0.00  0.00     0.006 C 
ENDBRANCH   8  11
ENDBRANCH   7   8
ENDBRANCH   1   7
BRANCH   6  13
ATOM     13  N   LIG d   1      -1.606  76.796 116.492  0.00  0.00    -0.311 N 
ATOM     14  C   LIG d   1      -1.648  75.466 116.526  0.00  0.00     0.210 C 
ATOM     15  C   LIG d   1      -1.031  74.832 117.777  0.00  0.00     0.109 C 
ATOM     16  O   LIG d   1      -2.109  74.749 115.625  0.00  0.00    -0.276 OA
ATOM     17  H   LIG d   1      -1.186  77.296 117.250  0.00  0.00     0.149 HD
ENDBRANCH   6  13
BRANCH   5  18
ATOM     18  N   LIG d   1      -0.638  76.684 113.597  0.00  0.00     0.381 N 
ATOM     19  H   LIG d   1      -0.871  75.876 114.139  0.00  0.00    -0.090 HD
ATOM     20  H   LIG d   1       0.363  76.731 113.516  0.00  0.00    -0.090 HD
ATOM     21  H   LIG d   1      -1.049  76.615 112.692  0.00  0.00    -0.090 HD
ENDBRANCH   5  18
BRANCH   3  22
ATOM     22  C   LIG d   1      -2.404  81.094 112.988  0.00  0.00     0.382 C 
ATOM     23  O   LIG d   1      -3.477  81.448 112.445  0.00  0.00    -0.241 OA
ATOM     24  O   LIG d   1      -1.369  81.759 112.793  0.00  0.00    -0.241 OA
ENDBRANCH   3  22
TORSDOF 7
ENDMDL
MODEL 5
REMARK VINA RESULT:      -5.0      2.244      3.002
REMARK  7 active torsions:
REMARK  status: ('A' for Active; 'I' for Inactive)
REMARK    1  A    between atoms: C_2  and  C_3 
REMARK    2  A    between atoms: C_3  and  O_6 
REMARK    3  A    between atoms: C_3  and  C_4 
REMARK    4  A    between atoms: C_7  and  O_6 
REMARK    5  A    between atoms: C_9  and  C_10 
REMARK    6  A    between atoms: N_15  and  C_14 
REMARK    7  A    between atoms: N_20  and  C_19 
REMARK       I    between atoms: C_22  and  N_20 
ROOT
ATOM      1  C   LIG d   1      -2.469  79.031 116.100  0.00  0.00     0.161 C 
ATOM      2  C   LIG d   1      -2.741  79.972 115.094  0.00  0.00     0.016 C 
ATOM      3  C   LIG d   1      -2.337  79.812 113.749  0.00  0.00     0.038 C 
ATOM      4  C   LIG d   1      -1.761  78.620 113.284  0.00  0.00     0.028 C 
ATOM      5  C   LIG d   1      -1.013  77.847 114.366  0.00  0.00    -0.047 C 
ATOM      6  C   LIG d   1      -1.940  77.674 115.591  0.00  0.00     0.091 C 
ENDROOT
BRANCH   1   7
ATOM      7  O   LIG d   1      -3.641  78.837 116.917  0.00  0.00    -0.368 OA
BRANCH   7   8
ATOM      8  C   LIG d   1      -4.846  78.441 116.219  0.00  0.00     0.119 C 
BRANCH   8   9
ATOM      9  C   LIG d   1      -6.043  79.029 116.991  0.00  0.00     0.028 C 
ATOM     10  C   LIG d   1      -5.814  80.493 117.402  0.00  0.00     0.006 C 
ENDBRANCH   8   9
BRANCH   8  11
ATOM     11  C   LIG d   1      -5.043  76.922 116.263  0.00  0.00     0.028 C 
ATOM     12  C   LIG d   1      -5.258  76.309 114.870  0.00  0.00     0.006 C 
ENDBRANCH   8  11
ENDBRANCH   7   8
ENDBRANCH   1   7
BRANCH   6  13
ATOM     13  N   LIG d   1      -1.258  77.002 116.727  0.00  0.00    -0.311 N 
ATOM     14  C   LIG d   1      -1.356  75.696 116.973  0.00  0.00     0.210 C 
ATOM     15  C   LIG d   1      -0.589  75.211 118.207  0.00  0.00     0.109 C 
ATOM     16  O   LIG d   1      -1.980  74.889 116.267  0.00  0.00    -0.276 OA
ATOM     17  H   LIG d   1      -0.705  77.577 117.332  0.00  0.00     0.149 HD
ENDBRANCH   6  13
BRANCH   5  18
ATOM     18  N   LIG d   1      -0.583  76.564 113.780  0.00  0.00     0.381 N 
ATOM     19  H   LIG d   1      -1.046  75.808 114.243  0.00  0.00    -0.090 HD
ATOM     20  H   LIG d   1       0.407  76.459 113.917  0.00  0.00    -0.090 HD
ATOM     21  H   LIG d   1      -0.795  76.545 112.806  0.00  0.00    -0.090 HD
ENDBRANCH   5  18
BRANCH   3  22
ATOM     22  C   LIG d   1      -2.472  80.868 112.860  0.00  0.00     0.382 C 
ATOM     23  O   LIG d   1      -1.801  80.885 111.800  0.00  0.00    -0.241 OA
ATOM     24  O   LIG d   1      -3.223  81.825 113.126  0.00  0.00    -0.241 OA
ENDBRANCH   3  22
TORSDOF 7
ENDMDL
MODEL 6
REMARK VINA RESULT:      -4.5      2.233      5.001
REMARK  7 active torsions:
REMARK  status: ('A' for Active; 'I' for Inactive)
REMARK    1  A    between atoms: C_2  and  C_3 
REMARK    2  A    between atoms: C_3  and  O_6 
REMARK    3  A    between atoms: C_3  and  C_4 
REMARK    4  A    between atoms: C_7  and  O_6 
REMARK    5  A    between atoms: C_9  and  C_10 
REMARK    6  A    between atoms: N_15  and  C_14 
REMARK    7  A    between atoms: N_20  and  C_19 
REMARK       I    between atoms: C_22  and  N_20 
ROOT
ATOM      1  C   LIG d   1      -2.674  80.050 115.408  0.00  0.00     0.161 C 
ATOM      2  C   LIG d   1      -3.661  79.176 115.893  0.00  0.00     0.016 C 
ATOM      3  C   LIG d   1      -3.909  77.898 115.340  0.00  0.00     0.038 C 
ATOM      4  C   LIG d   1      -3.078  77.343 114.355  0.00  0.00     0.028 C 
ATOM      5  C   LIG d   1      -2.384  78.388 113.489  0.00  0.00    -0.047 C 
ATOM      6  C   LIG d   1      -1.685  79.417 114.407  0.00  0.00     0.091 C 
ENDROOT
BRANCH   1   7
ATOM      7  O   LIG d   1      -1.960  80.641 116.512  0.00  0.00    -0.368 OA
BRANCH   7   8
ATOM      8  C   LIG d   1      -2.196  80.049 117.814  0.00  0.00     0.119 C 
BRANCH   8   9
ATOM      9  C   LIG d   1      -2.506  81.196 118.794  0.00  0.00     0.028 C 
ATOM     10  C   LIG d   1      -1.268  82.055 119.103  0.00  0.00     0.006 C 
ENDBRANCH   8   9
BRANCH   8  11
ATOM     11  C   LIG d   1      -0.930  79.380 118.359  0.00  0.00     0.028 C 
ATOM     12  C   LIG d   1      -0.832  77.893 117.981  0.00  0.00     0.006 C 
ENDBRANCH   8  11
ENDBRANCH   7   8
ENDBRANCH   1   7
BRANCH   6  13
ATOM     13  N   LIG d   1      -1.052  80.522 113.641  0.00  0.00    -0.311 N 
ATOM     14  C   LIG d   1      -1.725  81.322 112.815  0.00  0.00     0.210 C 
ATOM     15  C   LIG d   1      -0.877  82.384 112.109  0.00  0.00     0.109 C 
ATOM     16  O   LIG d   1      -2.949  81.272 112.625  0.00  0.00    -0.276 OA
ATOM     17  H   LIG d   1      -0.066  80.653 113.760  0.00  0.00     0.149 HD
ENDBRANCH   6  13
BRANCH   5  18
ATOM     18  N   LIG d   1      -1.447  77.678 112.598  0.00  0.00     0.381 N 
ATOM     19  H   LIG d   1      -0.520  78.032 112.730  0.00  0.00    -0.090 HD
ATOM     20  H   LIG d   1      -1.716  77.844 111.645  0.00  0.00    -0.090 HD
ATOM     21  H   LIG d   1      -1.467  76.701 112.792  0.00  0.00    -0.090 HD
ENDBRANCH   5  18
BRANCH   3  22
ATOM     22  C   LIG d   1      -5.022  77.178 115.746  0.00  0.00     0.382 C 
ATOM     23  O   LIG d   1      -6.076  77.217 115.067  0.00  0.00    -0.241 OA
ATOM     24  O   LIG d   1      -5.000  76.525 116.806  0.00  0.00    -0.241 OA
ENDBRANCH   3  22
TORSDOF 7
ENDMDL
MODEL 7
REMARK VINA RESULT:      -4.5      1.881      2.159
REMARK  7 active torsions:
REMARK  status: ('A' for Active; 'I' for Inactive)
REMARK    1  A    between atoms: C_2  and  C_3 
REMARK    2  A    between atoms: C_3  and  O_6 
REMARK    3  A    between atoms: C_3  and  C_4 
REMARK    4  A    between atoms: C_7  and  O_6 
REMARK    5  A    between atoms: C_9  and  C_10 
REMARK    6  A    between atoms: N_15  and  C_14 
REMARK    7  A    between atoms: N_20  and  C_19 
REMARK       I    between atoms: C_22  and  N_20 
ROOT
ATOM      1  C   LIG d   1      -1.214  79.284 114.800  0.00  0.00     0.161 C 
ATOM      2  C   LIG d   1      -0.792  80.496 114.229  0.00  0.00     0.016 C 
ATOM      3  C   LIG d   1      -1.076  80.869 112.895  0.00  0.00     0.038 C 
ATOM      4  C   LIG d   1      -1.938  80.116 112.083  0.00  0.00     0.028 C 
ATOM      5  C   LIG d   1      -1.976  78.636 112.449  0.00  0.00    -0.047 C 
ATOM      6  C   LIG d   1      -2.248  78.501 113.964  0.00  0.00     0.091 C 
ENDROOT
BRANCH   1   7
ATOM      7  O   LIG d   1      -1.719  79.520 116.129  0.00  0.00    -0.368 OA
BRANCH   7   8
ATOM      8  C   LIG d   1      -0.848  79.132 117.220  0.00  0.00     0.119 C 
BRANCH   8   9
ATOM      9  C   LIG d   1      -1.650  78.192 118.141  0.00  0.00     0.028 C 
ATOM     10  C   LIG d   1      -1.116  76.750 118.117  0.00  0.00     0.006 C 
ENDBRANCH   8   9
BRANCH   8  11
ATOM     11  C   LIG d   1      -0.477  80.335 118.092  0.00  0.00     0.028 C 
ATOM     12  C   LIG d   1      -1.697  81.181 118.490  0.00  0.00     0.006 C 
ENDBRANCH   8  11
ENDBRANCH   7   8
ENDBRANCH   1   7
BRANCH   6  13
ATOM     13  N   LIG d   1      -2.218  77.087 114.422  0.00  0.00    -0.311 N 
ATOM     14  C   LIG d   1      -3.252  76.483 115.003  0.00  0.00     0.210 C 
ATOM     15  C   LIG d   1      -3.003  75.029 115.416  0.00  0.00     0.109 C 
ATOM     16  O   LIG d   1      -4.363  77.003 115.187  0.00  0.00    -0.276 OA
ATOM     17  H   LIG d   1      -1.365  76.581 114.283  0.00  0.00     0.149 HD
ENDBRANCH   6  13
BRANCH   5  18
ATOM     18  N   LIG d   1      -3.013  77.998 111.616  0.00  0.00     0.381 N 
ATOM     19  H   LIG d   1      -3.835  77.839 112.162  0.00  0.00    -0.090 HD
ATOM     20  H   LIG d   1      -2.670  77.110 111.295  0.00  0.00    -0.090 HD
ATOM     21  H   LIG d   1      -3.230  78.580 110.837  0.00  0.00    -0.090 HD
ENDBRANCH   5  18
BRANCH   3  22
ATOM     22  C   LIG d   1      -0.464  81.987 112.348  0.00  0.00     0.382 C 
ATOM     23  O   LIG d   1       0.603  82.423 112.843  0.00  0.00    -0.241 OA
ATOM     24  O   LIG d   1      -0.989  82.591 111.394  0.00  0.00    -0.241 OA
ENDBRANCH   3  22
TORSDOF 7
ENDMDL
MODEL 8
REMARK VINA RESULT:      -4.5      2.444      4.802
REMARK  7 active torsions:
REMARK  status: ('A' for Active; 'I' for Inactive)
REMARK    1  A    between atoms: C_2  and  C_3 
REMARK    2  A    between atoms: C_3  and  O_6 
REMARK    3  A    between atoms: C_3  and  C_4 
REMARK    4  A    between atoms: C_7  and  O_6 
REMARK    5  A    between atoms: C_9  and  C_10 
REMARK    6  A    between atoms: N_15  and  C_14 
REMARK    7  A    between atoms: N_20  and  C_19 
REMARK       I    between atoms: C_22  and  N_20 
ROOT
ATOM      1  C   LIG d   1      -3.224  79.205 115.554  0.00  0.00     0.161 C 
ATOM      2  C   LIG d   1      -2.601  80.248 116.259  0.00  0.00     0.016 C 
ATOM      3  C   LIG d   1      -1.825  80.046 117.424  0.00  0.00     0.038 C 
ATOM      4  C   LIG d   1      -1.493  78.761 117.879  0.00  0.00     0.028 C 
ATOM      5  C   LIG d   1      -2.516  77.698 117.493  0.00  0.00    -0.047 C 
ATOM      6  C   LIG d   1      -2.781  77.787 115.972  0.00  0.00     0.091 C 
ENDROOT
BRANCH   1   7
ATOM      7  O   LIG d   1      -3.035  79.391 114.137  0.00  0.00    -0.368 OA
BRANCH   7   8
ATOM      8  C   LIG d   1      -1.729  79.040 113.617  0.00  0.00     0.119 C 
BRANCH   8   9
ATOM      9  C   LIG d   1      -1.187  80.268 112.860  0.00  0.00     0.028 C 
ATOM     10  C   LIG d   1      -2.207  81.418 112.801  0.00  0.00     0.006 C 
ENDBRANCH   8   9
BRANCH   8  11
ATOM     11  C   LIG d   1      -1.828  77.928 112.568  0.00  0.00     0.028 C 
ATOM     12  C   LIG d   1      -3.084  78.047 111.691  0.00  0.00     0.006 C 
ENDBRANCH   8  11
ENDBRANCH   7   8
ENDBRANCH   1   7
BRANCH   6  13
ATOM     13  N   LIG d   1      -3.833  76.837 115.524  0.00  0.00    -0.311 N 
ATOM     14  C   LIG d   1      -3.566  75.642 114.999  0.00  0.00     0.210 C 
ATOM     15  C   LIG d   1      -4.796  74.829 114.585  0.00  0.00     0.109 C 
ATOM     16  O   LIG d   1      -2.429  75.166 114.867  0.00  0.00    -0.276 OA
ATOM     17  H   LIG d   1      -4.785  77.130 115.624  0.00  0.00     0.149 HD
ENDBRANCH   6  13
BRANCH   5  18
ATOM     18  N   LIG d   1      -1.978  76.389 117.910  0.00  0.00     0.381 N 
ATOM     19  H   LIG d   1      -2.589  75.659 117.605  0.00  0.00    -0.090 HD
ATOM     20  H   LIG d   1      -1.931  76.362 118.913  0.00  0.00    -0.090 HD
ATOM     21  H   LIG d   1      -1.069  76.255 117.524  0.00  0.00    -0.090 HD
ENDBRANCH   5  18
BRANCH   3  22
ATOM     22  C   LIG d   1      -1.406  81.137 118.169  0.00  0.00     0.382 C 
ATOM     23  O   LIG d   1      -2.205  81.707 118.950  0.00  0.00    -0.241 OA
ATOM     24  O   LIG d   1      -0.252  81.587 118.036  0.00  0.00    -0.241 OA
ENDBRANCH   3  22
TORSDOF 7
ENDMDL
MODEL 9
REMARK VINA RESULT:      -4.4      3.836      5.455
REMARK  7 active torsions:
REMARK  status: ('A' for Active; 'I' for Inactive)
REMARK    1  A    between atoms: C_2  and  C_3 
REMARK    2  A    between atoms: C_3  and  O_6 
REMARK    3  A    between atoms: C_3  and  C_4 
REMARK    4  A    between atoms: C_7  and  O_6 
REMARK    5  A    between atoms: C_9  and  C_10 
REMARK    6  A    between atoms: N_15  and  C_14 
REMARK    7  A    between atoms: N_20  and  C_19 
REMARK       I    between atoms: C_22  and  N_20 
ROOT
ATOM      1  C   LIG d   1      -2.983  77.801 116.683  0.00  0.00     0.161 C 
ATOM      2  C   LIG d   1      -4.052  77.545 115.808  0.00  0.00     0.016 C 
ATOM      3  C   LIG d   1      -4.304  76.276 115.238  0.00  0.00     0.038 C 
ATOM      4  C   LIG d   1      -3.588  75.134 115.626  0.00  0.00     0.028 C 
ATOM      5  C   LIG d   1      -2.180  75.441 116.123  0.00  0.00    -0.047 C 
ATOM      6  C   LIG d   1      -2.258  76.543 117.205  0.00  0.00     0.091 C 
ENDROOT
BRANCH   1   7
ATOM      7  O   LIG d   1      -3.437  78.611 117.786  0.00  0.00    -0.368 OA
BRANCH   7   8
ATOM      8  C   LIG d   1      -2.743  79.867 117.983  0.00  0.00     0.119 C 
BRANCH   8   9
ATOM      9  C   LIG d   1      -3.811  80.965 118.147  0.00  0.00     0.028 C 
ATOM     10  C   LIG d   1      -5.133  80.608 117.447  0.00  0.00     0.006 C 
ENDBRANCH   8   9
BRANCH   8  11
ATOM     11  C   LIG d   1      -1.943  80.262 116.738  0.00  0.00     0.028 C 
ATOM     12  C   LIG d   1      -0.467  80.561 117.049  0.00  0.00     0.006 C 
ENDBRANCH   8  11
ENDBRANCH   7   8
ENDBRANCH   1   7
BRANCH   6  13
ATOM     13  N   LIG d   1      -0.916  76.963 117.685  0.00  0.00    -0.311 N 
ATOM     14  C   LIG d   1      -0.561  76.956 118.968  0.00  0.00     0.210 C 
ATOM     15  C   LIG d   1       0.863  77.447 119.248  0.00  0.00     0.109 C 
ATOM     16  O   LIG d   1      -1.279  76.560 119.899  0.00  0.00    -0.276 OA
ATOM     17  H   LIG d   1      -0.260  77.270 116.994  0.00  0.00     0.149 HD
ENDBRANCH   6  13
BRANCH   5  18
ATOM     18  N   LIG d   1      -1.598  74.181 116.623  0.00  0.00     0.381 N 
ATOM     19  H   LIG d   1      -0.697  74.357 117.019  0.00  0.00    -0.090 HD
ATOM     20  H   LIG d   1      -1.485  73.547 115.852  0.00  0.00    -0.090 HD
ATOM     21  H   LIG d   1      -2.198  73.777 117.309  0.00  0.00    -0.090 HD
ENDBRANCH   5  18
BRANCH   3  22
ATOM     22  C   LIG d   1      -5.256  76.149 114.239  0.00  0.00     0.382 C 
ATOM     23  O   LIG d   1      -4.923  75.724 113.106  0.00  0.00    -0.241 OA
ATOM     24  O   LIG d   1      -6.435  76.495 114.442  0.00  0.00    -0.241 OA
ENDBRANCH   3  22
TORSDOF 7
ENDMDL
