MODEL 1
REMARK VINA RESULT:      -5.0      0.000      0.000
REMARK  7 active torsions:
REMARK  status: ('A' for Active; 'I' for Inactive)
REMARK    1  A    between atoms: C_2  and  C_3 
REMARK    2  A    between atoms: C_3  and  O_6 
REMARK    3  A    between atoms: C_3  and  C_4 
REMARK    4  A    between atoms: C_7  and  O_6 
REMARK    5  A    between atoms: C_9  and  C_10 
REMARK    6  A    between atoms: N_15  and  C_14 
REMARK    7  A    between atoms: N_20  and  C_19 
REMARK       I    between atoms: C_22  and  N_20 
ROOT
ATOM      1  C   LIG d   1      -2.974  78.435 115.404  0.00  0.00     0.161 C 
ATOM      2  C   LIG d   1      -3.099  79.580 114.601  0.00  0.00     0.016 C 
ATOM      3  C   LIG d   1      -2.639  79.649 113.266  0.00  0.00     0.038 C 
ATOM      4  C   LIG d   1      -2.155  78.519 112.590  0.00  0.00     0.028 C 
ATOM      5  C   LIG d   1      -1.545  77.473 113.517  0.00  0.00    -0.047 C 
ATOM      6  C   LIG d   1      -2.550  77.158 114.649  0.00  0.00     0.091 C 
ENDROOT
BRANCH   1   7
ATOM      7  O   LIG d   1      -4.202  78.206 116.124  0.00  0.00    -0.368 OA
BRANCH   7   8
ATOM      8  C   LIG d   1      -4.080  78.050 117.559  0.00  0.00     0.119 C 
BRANCH   8   9
ATOM      9  C   LIG d   1      -5.079  76.960 117.992  0.00  0.00     0.028 C 
ATOM     10  C   LIG d   1      -5.924  76.438 116.818  0.00  0.00     0.006 C 
ENDBRANCH   8   9
BRANCH   8  11
ATOM     11  C   LIG d   1      -4.519  79.319 118.297  0.00  0.00     0.028 C 
ATOM     12  C   LIG d   1      -5.759  79.975 117.668  0.00  0.00     0.006 C 
ENDBRANCH   8  11
ENDBRANCH   7   8
ENDBRANCH   1   7
BRANCH   6  13
ATOM     13  N   LIG d   1      -1.998  76.207 115.648  0.00  0.00    -0.311 N 
ATOM     14  C   LIG d   1      -2.503  74.993 115.862  0.00  0.00     0.210 C 
ATOM     15  C   LIG d   1      -1.796  74.181 116.951  0.00  0.00     0.109 C 
ATOM     16  O   LIG d   1      -3.449  74.500 115.230  0.00  0.00    -0.276 OA
ATOM     17  H   LIG d   1      -1.210  76.514 116.184  0.00  0.00     0.149 HD
ENDBRANCH   6  13
BRANCH   5  18
ATOM     18  N   LIG d   1      -1.207  76.294 112.699  0.00  0.00     0.381 N 
ATOM     19  H   LIG d   1      -0.634  76.570 111.926  0.00  0.00    -0.090 HD
ATOM     20  H   LIG d   1      -2.056  75.896 112.336  0.00  0.00    -0.090 HD
ATOM     21  H   LIG d   1      -0.727  75.620 113.253  0.00  0.00    -0.090 HD
ENDBRANCH   5  18
BRANCH   3  22
ATOM     22  C   LIG d   1      -2.624  80.868 112.605  0.00  0.00     0.382 C 
ATOM     23  O   LIG d   1      -1.660  81.165 111.859  0.00  0.00    -0.241 OA
ATOM     24  O   LIG d   1      -3.541  81.693 112.781  0.00  0.00    -0.241 OA
ENDBRANCH   3  22
TORSDOF 7
ENDMDL
MODEL 2
REMARK VINA RESULT:      -4.7      2.540      5.228
REMARK  7 active torsions:
REMARK  status: ('A' for Active; 'I' for Inactive)
REMARK    1  A    between atoms: C_2  and  C_3 
REMARK    2  A    between atoms: C_3  and  O_6 
REMARK    3  A    between atoms: C_3  and  C_4 
REMARK    4  A    between atoms: C_7  and  O_6 
REMARK    5  A    between atoms: C_9  and  C_10 
REMARK    6  A    between atoms: N_15  and  C_14 
REMARK    7  A    between atoms: N_20  and  C_19 
REMARK       I    between atoms: C_22  and  N_20 
ROOT
ATOM      1  C   LIG d   1      -1.948  75.227 115.354  0.00  0.00     0.161 C 
ATOM      2  C   LIG d   1      -1.483  75.041 116.667  0.00  0.00     0.016 C 
ATOM      3  C   LIG d   1      -0.813  76.044 117.404  0.00  0.00     0.038 C 
ATOM      4  C   LIG d   1      -0.695  77.359 116.931  0.00  0.00     0.028 C 
ATOM      5  C   LIG d   1      -0.702  77.457 115.409  0.00  0.00    -0.047 C 
ATOM      6  C   LIG d   1      -1.927  76.690 114.862  0.00  0.00     0.091 C 
ENDROOT
BRANCH   1   7
ATOM      7  O   LIG d   1      -3.272  74.673 115.221  0.00  0.00    -0.368 OA
BRANCH   7   8
ATOM      8  C   LIG d   1      -4.370  75.564 115.537  0.00  0.00     0.119 C 
BRANCH   8   9
ATOM      9  C   LIG d   1      -4.709  75.370 117.028  0.00  0.00     0.028 C 
ATOM     10  C   LIG d   1      -4.588  76.676 117.831  0.00  0.00     0.006 C 
ENDBRANCH   8   9
BRANCH   8  11
ATOM     11  C   LIG d   1      -5.641  75.171 114.778  0.00  0.00     0.028 C 
ATOM     12  C   LIG d   1      -6.651  74.417 115.657  0.00  0.00     0.006 C 
ENDBRANCH   8  11
ENDBRANCH   7   8
ENDBRANCH   1   7
BRANCH   6  13
ATOM     13  N   LIG d   1      -1.963  76.665 113.376  0.00  0.00    -0.311 N 
ATOM     14  C   LIG d   1      -2.662  77.531 112.645  0.00  0.00     0.210 C 
ATOM     15  C   LIG d   1      -2.578  77.316 111.131  0.00  0.00     0.109 C 
ATOM     16  O   LIG d   1      -3.319  78.477 113.106  0.00  0.00    -0.276 OA
ATOM     17  H   LIG d   1      -1.433  75.949 112.919  0.00  0.00     0.149 HD
ENDBRANCH   6  13
BRANCH   5  18
ATOM     18  N   LIG d   1      -0.711  78.889 115.055  0.00  0.00     0.381 N 
ATOM     19  H   LIG d   1       0.216  79.259 115.113  0.00  0.00    -0.090 HD
ATOM     20  H   LIG d   1      -1.290  79.383 115.712  0.00  0.00    -0.090 HD
ATOM     21  H   LIG d   1      -1.067  79.010 114.132  0.00  0.00    -0.090 HD
ENDBRANCH   5  18
BRANCH   3  22
ATOM     22  C   LIG d   1      -0.217  75.724 118.615  0.00  0.00     0.382 C 
ATOM     23  O   LIG d   1       0.168  76.637 119.385  0.00  0.00    -0.241 OA
ATOM     24  O   LIG d   1      -0.020  74.534 118.927  0.00  0.00    -0.241 OA
ENDBRANCH   3  22
TORSDOF 7
ENDMDL
MODEL 3
REMARK VINA RESULT:      -4.6      2.690      5.142
REMARK  7 active torsions:
REMARK  status: ('A' for Active; 'I' for Inactive)
REMARK    1  A    between atoms: C_2  and  C_3 
REMARK    2  A    between atoms: C_3  and  O_6 
REMARK    3  A    between atoms: C_3  and  C_4 
REMARK    4  A    between atoms: C_7  and  O_6 
REMARK    5  A    between atoms: C_9  and  C_10 
REMARK    6  A    between atoms: N_15  and  C_14 
REMARK    7  A    between atoms: N_20  and  C_19 
REMARK       I    between atoms: C_22  and  N_20 
ROOT
ATOM      1  C   LIG d   1      -2.049  79.191 114.672  0.00  0.00     0.161 C 
ATOM      2  C   LIG d   1      -2.787  78.035 114.979  0.00  0.00     0.016 C 
ATOM      3  C   LIG d   1      -3.169  77.076 114.013  0.00  0.00     0.038 C 
ATOM      4  C   LIG d   1      -2.706  77.131 112.690  0.00  0.00     0.028 C 
ATOM      5  C   LIG d   1      -2.379  78.545 112.221  0.00  0.00    -0.047 C 
ATOM      6  C   LIG d   1      -1.441  79.212 113.254  0.00  0.00     0.091 C 
ENDROOT
BRANCH   1   7
ATOM      7  O   LIG d   1      -1.021  79.392 115.661  0.00  0.00    -0.368 OA
BRANCH   7   8
ATOM      8  C   LIG d   1      -1.197  78.688 116.915  0.00  0.00     0.119 C 
BRANCH   8   9
ATOM      9  C   LIG d   1      -1.149  79.736 118.044  0.00  0.00     0.028 C 
ATOM     10  C   LIG d   1      -2.466  79.809 118.834  0.00  0.00     0.006 C 
ENDBRANCH   8   9
BRANCH   8  11
ATOM     11  C   LIG d   1      -0.027  77.740 117.192  0.00  0.00     0.028 C 
ATOM     12  C   LIG d   1      -0.475  76.283 117.389  0.00  0.00     0.006 C 
ENDBRANCH   8  11
ENDBRANCH   7   8
ENDBRANCH   1   7
BRANCH   6  13
ATOM     13  N   LIG d   1      -1.139  80.627 112.915  0.00  0.00    -0.311 N 
ATOM     14  C   LIG d   1      -0.121  80.993 112.138  0.00  0.00     0.210 C 
ATOM     15  C   LIG d   1       0.024  82.504 111.932  0.00  0.00     0.109 C 
ATOM     16  O   LIG d   1       0.657  80.208 111.574  0.00  0.00    -0.276 OA
ATOM     17  H   LIG d   1      -1.738  81.327 113.304  0.00  0.00     0.149 HD
ENDBRANCH   6  13
BRANCH   5  18
ATOM     18  N   LIG d   1      -1.779  78.442 110.878  0.00  0.00     0.381 N 
ATOM     19  H   LIG d   1      -2.156  77.648 110.399  0.00  0.00    -0.090 HD
ATOM     20  H   LIG d   1      -0.787  78.311 110.973  0.00  0.00    -0.090 HD
ATOM     21  H   LIG d   1      -1.963  79.271 110.357  0.00  0.00    -0.090 HD
ENDBRANCH   5  18
BRANCH   3  22
ATOM     22  C   LIG d   1      -4.056  76.068 114.359  0.00  0.00     0.382 C 
ATOM     23  O   LIG d   1      -3.647  75.060 114.983  0.00  0.00    -0.241 OA
ATOM     24  O   LIG d   1      -5.252  76.134 114.016  0.00  0.00    -0.241 OA
ENDBRANCH   3  22
TORSDOF 7
ENDMDL
MODEL 4
REMARK VINA RESULT:      -4.5      1.508      2.309
REMARK  7 active torsions:
REMARK  status: ('A' for Active; 'I' for Inactive)
REMARK    1  A    between atoms: C_2  and  C_3 
REMARK    2  A    between atoms: C_3  and  O_6 
REMARK    3  A    between atoms: C_3  and  C_4 
REMARK    4  A    between atoms: C_7  and  O_6 
REMARK    5  A    between atoms: C_9  and  C_10 
REMARK    6  A    between atoms: N_15  and  C_14 
REMARK    7  A    between atoms: N_20  and  C_19 
REMARK       I    between atoms: C_22  and  N_20 
ROOT
ATOM      1  C   LIG d   1      -2.607  77.660 116.434  0.00  0.00     0.161 C 
ATOM      2  C   LIG d   1      -2.940  78.554 115.403  0.00  0.00     0.016 C 
ATOM      3  C   LIG d   1      -2.487  78.410 114.071  0.00  0.00     0.038 C 
ATOM      4  C   LIG d   1      -1.789  77.270 113.645  0.00  0.00     0.028 C 
ATOM      5  C   LIG d   1      -1.001  76.590 114.759  0.00  0.00    -0.047 C 
ATOM      6  C   LIG d   1      -1.939  76.351 115.964  0.00  0.00     0.091 C 
ENDROOT
BRANCH   1   7
ATOM      7  O   LIG d   1      -3.776  77.370 117.225  0.00  0.00    -0.368 OA
BRANCH   7   8
ATOM      8  C   LIG d   1      -5.033  77.308 116.506  0.00  0.00     0.119 C 
BRANCH   8   9
ATOM      9  C   LIG d   1      -6.088  78.043 117.354  0.00  0.00     0.028 C 
ATOM     10  C   LIG d   1      -5.707  79.509 117.624  0.00  0.00     0.006 C 
ENDBRANCH   8   9
BRANCH   8  11
ATOM     11  C   LIG d   1      -5.538  75.866 116.391  0.00  0.00     0.028 C 
ATOM     12  C   LIG d   1      -5.835  75.453 114.941  0.00  0.00     0.006 C 
ENDBRANCH   8  11
ENDBRANCH   7   8
ENDBRANCH   1   7
BRANCH   6  13
ATOM     13  N   LIG d   1      -1.227  75.766 117.130  0.00  0.00    -0.311 N 
ATOM     14  C   LIG d   1      -1.716  74.766 117.861  0.00  0.00     0.210 C 
ATOM     15  C   LIG d   1      -0.829  74.327 119.031  0.00  0.00     0.109 C 
ATOM     16  O   LIG d   1      -2.785  74.180 117.633  0.00  0.00    -0.276 OA
ATOM     17  H   LIG d   1      -0.338  76.161 117.366  0.00  0.00     0.149 HD
ENDBRANCH   6  13
BRANCH   5  18
ATOM     18  N   LIG d   1      -0.436  75.344 114.209  0.00  0.00     0.381 N 
ATOM     19  H   LIG d   1      -0.453  75.376 113.209  0.00  0.00    -0.090 HD
ATOM     20  H   LIG d   1      -1.003  74.570 114.509  0.00  0.00    -0.090 HD
ATOM     21  H   LIG d   1       0.500  75.223 114.529  0.00  0.00    -0.090 HD
ENDBRANCH   5  18
BRANCH   3  22
ATOM     22  C   LIG d   1      -2.697  79.433 113.159  0.00  0.00     0.382 C 
ATOM     23  O   LIG d   1      -2.141  79.395 112.035  0.00  0.00    -0.241 OA
ATOM     24  O   LIG d   1      -3.400  80.415 113.462  0.00  0.00    -0.241 OA
ENDBRANCH   3  22
TORSDOF 7
ENDMDL
MODEL 5
REMARK VINA RESULT:      -4.5      3.065      5.560
REMARK  7 active torsions:
REMARK  status: ('A' for Active; 'I' for Inactive)
REMARK    1  A    between atoms: C_2  and  C_3 
REMARK    2  A    between atoms: C_3  and  O_6 
REMARK    3  A    between atoms: C_3  and  C_4 
REMARK    4  A    between atoms: C_7  and  O_6 
REMARK    5  A    between atoms: C_9  and  C_10 
REMARK    6  A    between atoms: N_15  and  C_14 
REMARK    7  A    between atoms: N_20  and  C_19 
REMARK       I    between atoms: C_22  and  N_20 
ROOT
ATOM      1  C   LIG d   1      -1.298  79.694 113.192  0.00  0.00     0.161 C 
ATOM      2  C   LIG d   1      -1.792  78.481 112.684  0.00  0.00     0.016 C 
ATOM      3  C   LIG d   1      -1.456  77.977 111.406  0.00  0.00     0.038 C 
ATOM      4  C   LIG d   1      -0.477  78.583 110.605  0.00  0.00     0.028 C 
ATOM      5  C   LIG d   1      -0.325  80.079 110.860  0.00  0.00    -0.047 C 
ATOM      6  C   LIG d   1      -0.143  80.313 112.377  0.00  0.00     0.091 C 
ENDROOT
BRANCH   1   7
ATOM      7  O   LIG d   1      -0.906  79.524 114.568  0.00  0.00    -0.368 OA
BRANCH   7   8
ATOM      8  C   LIG d   1      -1.562  78.452 115.290  0.00  0.00     0.119 C 
BRANCH   8   9
ATOM      9  C   LIG d   1      -2.309  79.086 116.479  0.00  0.00     0.028 C 
ATOM     10  C   LIG d   1      -3.806  78.730 116.489  0.00  0.00     0.006 C 
ENDBRANCH   8   9
BRANCH   8  11
ATOM     11  C   LIG d   1      -0.543  77.495 115.914  0.00  0.00     0.028 C 
ATOM     12  C   LIG d   1      -1.062  76.052 116.012  0.00  0.00     0.006 C 
ENDBRANCH   8  11
ENDBRANCH   7   8
ENDBRANCH   1   7
BRANCH   6  13
ATOM     13  N   LIG d   1      -0.071  81.756 112.724  0.00  0.00    -0.311 N 
ATOM     14  C   LIG d   1      -0.767  82.698 112.089  0.00  0.00     0.210 C 
ATOM     15  C   LIG d   1      -0.531  84.126 112.592  0.00  0.00     0.109 C 
ATOM     16  O   LIG d   1      -1.582  82.483 111.180  0.00  0.00    -0.276 OA
ATOM     17  H   LIG d   1       0.542  82.016 113.471  0.00  0.00     0.149 HD
ENDBRANCH   6  13
BRANCH   5  18
ATOM     18  N   LIG d   1       0.819  80.554 110.060  0.00  0.00     0.381 N 
ATOM     19  H   LIG d   1       1.401  79.780 109.808  0.00  0.00    -0.090 HD
ATOM     20  H   LIG d   1       1.364  81.189 110.617  0.00  0.00    -0.090 HD
ATOM     21  H   LIG d   1       0.494  81.016 109.240  0.00  0.00    -0.090 HD
ENDBRANCH   5  18
BRANCH   3  22
ATOM     22  C   LIG d   1      -2.132  76.877 110.901  0.00  0.00     0.382 C 
ATOM     23  O   LIG d   1      -3.328  76.988 110.538  0.00  0.00    -0.241 OA
ATOM     24  O   LIG d   1      -1.575  75.764 110.846  0.00  0.00    -0.241 OA
ENDBRANCH   3  22
TORSDOF 7
ENDMDL
MODEL 6
REMARK VINA RESULT:      -4.3      2.496      5.460
REMARK  7 active torsions:
REMARK  status: ('A' for Active; 'I' for Inactive)
REMARK    1  A    between atoms: C_2  and  C_3 
REMARK    2  A    between atoms: C_3  and  O_6 
REMARK    3  A    between atoms: C_3  and  C_4 
REMARK    4  A    between atoms: C_7  and  O_6 
REMARK    5  A    between atoms: C_9  and  C_10 
REMARK    6  A    between atoms: N_15  and  C_14 
REMARK    7  A    between atoms: N_20  and  C_19 
REMARK       I    between atoms: C_22  and  N_20 
ROOT
ATOM      1  C   LIG d   1      -1.852  77.396 114.905  0.00  0.00     0.161 C 
ATOM      2  C   LIG d   1      -3.018  76.756 114.453  0.00  0.00     0.016 C 
ATOM      3  C   LIG d   1      -4.125  76.477 115.287  0.00  0.00     0.038 C 
ATOM      4  C   LIG d   1      -4.203  76.959 116.602  0.00  0.00     0.028 C 
ATOM      5  C   LIG d   1      -2.839  77.171 117.251  0.00  0.00    -0.047 C 
ATOM      6  C   LIG d   1      -1.963  78.028 116.309  0.00  0.00     0.091 C 
ENDROOT
BRANCH   1   7
ATOM      7  O   LIG d   1      -1.433  78.384 113.943  0.00  0.00    -0.368 OA
BRANCH   7   8
ATOM      8  C   LIG d   1      -2.407  78.744 112.933  0.00  0.00     0.119 C 
BRANCH   8   9
ATOM      9  C   LIG d   1      -1.749  78.530 111.557  0.00  0.00     0.028 C 
ATOM     10  C   LIG d   1      -2.328  77.317 110.811  0.00  0.00     0.006 C 
ENDBRANCH   8   9
BRANCH   8  11
ATOM     11  C   LIG d   1      -2.747  80.236 112.993  0.00  0.00     0.028 C 
ATOM     12  C   LIG d   1      -1.671  81.119 112.341  0.00  0.00     0.006 C 
ENDBRANCH   8  11
ENDBRANCH   7   8
ENDBRANCH   1   7
BRANCH   6  13
ATOM     13  N   LIG d   1      -0.583  78.212 116.829  0.00  0.00    -0.311 N 
ATOM     14  C   LIG d   1      -0.201  79.277 117.532  0.00  0.00     0.210 C 
ATOM     15  C   LIG d   1       1.271  79.278 117.956  0.00  0.00     0.109 C 
ATOM     16  O   LIG d   1      -0.950  80.206 117.872  0.00  0.00    -0.276 OA
ATOM     17  H   LIG d   1       0.081  77.491 116.626  0.00  0.00     0.149 HD
ENDBRANCH   6  13
BRANCH   5  18
ATOM     18  N   LIG d   1      -3.064  77.804 118.565  0.00  0.00     0.381 N 
ATOM     19  H   LIG d   1      -2.272  78.363 118.811  0.00  0.00    -0.090 HD
ATOM     20  H   LIG d   1      -3.171  77.084 119.258  0.00  0.00    -0.090 HD
ATOM     21  H   LIG d   1      -3.884  78.370 118.535  0.00  0.00    -0.090 HD
ENDBRANCH   5  18
BRANCH   3  22
ATOM     22  C   LIG d   1      -5.154  75.675 114.818  0.00  0.00     0.382 C 
ATOM     23  O   LIG d   1      -6.321  76.130 114.743  0.00  0.00    -0.241 OA
ATOM     24  O   LIG d   1      -4.938  74.487 114.510  0.00  0.00    -0.241 OA
ENDBRANCH   3  22
TORSDOF 7
ENDMDL
MODEL 7
REMARK VINA RESULT:      -4.3      3.005      5.379
REMARK  7 active torsions:
REMARK  status: ('A' for Active; 'I' for Inactive)
REMARK    1  A    between atoms: C_2  and  C_3 
REMARK    2  A    between atoms: C_3  and  O_6 
REMARK    3  A    between atoms: C_3  and  C_4 
REMARK    4  A    between atoms: C_7  and  O_6 
REMARK    5  A    between atoms: C_9  and  C_10 
REMARK    6  A    between atoms: N_15  and  C_14 
REMARK    7  A    between atoms: N_20  and  C_19 
REMARK       I    between atoms: C_22  and  N_20 
ROOT
ATOM      1  C   LIG d   1      -2.742  75.180 115.551  0.00  0.00     0.161 C 
ATOM      2  C   LIG d   1      -4.056  75.199 115.056  0.00  0.00     0.016 C 
ATOM      3  C   LIG d   1      -5.178  75.550 115.841  0.00  0.00     0.038 C 
ATOM      4  C   LIG d   1      -5.043  76.054 117.143  0.00  0.00     0.028 C 
ATOM      5  C   LIG d   1      -3.781  75.573 117.852  0.00  0.00    -0.047 C 
ATOM      6  C   LIG d   1      -2.563  75.834 116.937  0.00  0.00     0.091 C 
ENDROOT
BRANCH   1   7
ATOM      7  O   LIG d   1      -1.850  75.784 114.593  0.00  0.00    -0.368 OA
BRANCH   7   8
ATOM      8  C   LIG d   1      -2.375  76.917 113.860  0.00  0.00     0.119 C 
BRANCH   8   9
ATOM      9  C   LIG d   1      -1.869  76.805 112.409  0.00  0.00     0.028 C 
ATOM     10  C   LIG d   1      -1.952  78.142 111.653  0.00  0.00     0.006 C 
ENDBRANCH   8   9
BRANCH   8  11
ATOM     11  C   LIG d   1      -1.803  78.236 114.388  0.00  0.00     0.028 C 
ATOM     12  C   LIG d   1      -2.830  79.054 115.186  0.00  0.00     0.006 C 
ENDBRANCH   8  11
ENDBRANCH   7   8
ENDBRANCH   1   7
BRANCH   6  13
ATOM     13  N   LIG d   1      -1.297  75.316 117.518  0.00  0.00    -0.311 N 
ATOM     14  C   LIG d   1      -0.486  76.049 118.279  0.00  0.00     0.210 C 
ATOM     15  C   LIG d   1       0.778  75.328 118.760  0.00  0.00     0.109 C 
ATOM     16  O   LIG d   1      -0.708  77.218 118.628  0.00  0.00    -0.276 OA
ATOM     17  H   LIG d   1      -1.054  74.367 117.312  0.00  0.00     0.149 HD
ENDBRANCH   6  13
BRANCH   5  18
ATOM     18  N   LIG d   1      -3.697  76.282 119.143  0.00  0.00     0.381 N 
ATOM     19  H   LIG d   1      -4.608  76.353 119.550  0.00  0.00    -0.090 HD
ATOM     20  H   LIG d   1      -3.350  77.211 118.982  0.00  0.00    -0.090 HD
ATOM     21  H   LIG d   1      -3.087  75.793 119.760  0.00  0.00    -0.090 HD
ENDBRANCH   5  18
BRANCH   3  22
ATOM     22  C   LIG d   1      -6.456  75.359 115.338  0.00  0.00     0.382 C 
ATOM     23  O   LIG d   1      -7.185  74.451 115.805  0.00  0.00    -0.241 OA
ATOM     24  O   LIG d   1      -6.873  76.055 114.393  0.00  0.00    -0.241 OA
ENDBRANCH   3  22
TORSDOF 7
ENDMDL
MODEL 8
REMARK VINA RESULT:      -4.3      2.822      3.424
REMARK  7 active torsions:
REMARK  status: ('A' for Active; 'I' for Inactive)
REMARK    1  A    between atoms: C_2  and  C_3 
REMARK    2  A    between atoms: C_3  and  O_6 
REMARK    3  A    between atoms: C_3  and  C_4 
REMARK    4  A    between atoms: C_7  and  O_6 
REMARK    5  A    between atoms: C_9  and  C_10 
REMARK    6  A    between atoms: N_15  and  C_14 
REMARK    7  A    between atoms: N_20  and  C_19 
REMARK       I    between atoms: C_22  and  N_20 
ROOT
ATOM      1  C   LIG d   1      -3.535  77.967 116.968  0.00  0.00     0.161 C 
ATOM      2  C   LIG d   1      -2.450  78.801 117.289  0.00  0.00     0.016 C 
ATOM      3  C   LIG d   1      -1.127  78.558 116.853  0.00  0.00     0.038 C 
ATOM      4  C   LIG d   1      -0.824  77.541 115.936  0.00  0.00     0.028 C 
ATOM      5  C   LIG d   1      -1.800  76.371 115.983  0.00  0.00    -0.047 C 
ATOM      6  C   LIG d   1      -3.243  76.916 115.877  0.00  0.00     0.091 C 
ENDROOT
BRANCH   1   7
ATOM      7  O   LIG d   1      -4.674  78.769 116.599  0.00  0.00    -0.368 OA
BRANCH   7   8
ATOM      8  C   LIG d   1      -5.675  78.967 117.628  0.00  0.00     0.119 C 
BRANCH   8   9
ATOM      9  C   LIG d   1      -6.886  78.082 117.273  0.00  0.00     0.028 C 
ATOM     10  C   LIG d   1      -6.995  76.845 118.181  0.00  0.00     0.006 C 
ENDBRANCH   8   9
BRANCH   8  11
ATOM     11  C   LIG d   1      -6.207  80.403 117.620  0.00  0.00     0.028 C 
ATOM     12  C   LIG d   1      -7.453  80.582 118.502  0.00  0.00     0.006 C 
ENDBRANCH   8  11
ENDBRANCH   7   8
ENDBRANCH   1   7
BRANCH   6  13
ATOM     13  N   LIG d   1      -4.265  75.844 116.000  0.00  0.00    -0.311 N 
ATOM     14  C   LIG d   1      -5.155  75.567 115.049  0.00  0.00     0.210 C 
ATOM     15  C   LIG d   1      -6.132  74.437 115.387  0.00  0.00     0.109 C 
ATOM     16  O   LIG d   1      -5.207  76.128 113.944  0.00  0.00    -0.276 OA
ATOM     17  H   LIG d   1      -4.273  75.318 116.852  0.00  0.00     0.149 HD
ENDBRANCH   6  13
BRANCH   5  18
ATOM     18  N   LIG d   1      -1.448  75.451 114.885  0.00  0.00     0.381 N 
ATOM     19  H   LIG d   1      -2.102  75.552 114.135  0.00  0.00    -0.090 HD
ATOM     20  H   LIG d   1      -1.499  74.506 115.223  0.00  0.00    -0.090 HD
ATOM     21  H   LIG d   1      -0.526  75.646 114.560  0.00  0.00    -0.090 HD
ENDBRANCH   5  18
BRANCH   3  22
ATOM     22  C   LIG d   1      -0.085  79.313 117.368  0.00  0.00     0.382 C 
ATOM     23  O   LIG d   1       0.386  80.267 116.704  0.00  0.00    -0.241 OA
ATOM     24  O   LIG d   1       0.420  79.024 118.470  0.00  0.00    -0.241 OA
ENDBRANCH   3  22
TORSDOF 7
ENDMDL
MODEL 9
REMARK VINA RESULT:      -4.2      1.239      2.070
REMARK  7 active torsions:
REMARK  status: ('A' for Active; 'I' for Inactive)
REMARK    1  A    between atoms: C_2  and  C_3 
REMARK    2  A    between atoms: C_3  and  O_6 
REMARK    3  A    between atoms: C_3  and  C_4 
REMARK    4  A    between atoms: C_7  and  O_6 
REMARK    5  A    between atoms: C_9  and  C_10 
REMARK    6  A    between atoms: N_15  and  C_14 
REMARK    7  A    between atoms: N_20  and  C_19 
REMARK       I    between atoms: C_22  and  N_20 
ROOT
ATOM      1  C   LIG d   1      -3.157  78.087 115.064  0.00  0.00     0.161 C 
ATOM      2  C   LIG d   1      -3.129  79.369 114.490  0.00  0.00     0.016 C 
ATOM      3  C   LIG d   1      -2.570  79.640 113.220  0.00  0.00     0.038 C 
ATOM      4  C   LIG d   1      -2.135  78.615 112.367  0.00  0.00     0.028 C 
ATOM      5  C   LIG d   1      -1.681  77.362 113.108  0.00  0.00    -0.047 C 
ATOM      6  C   LIG d   1      -2.788  76.939 114.102  0.00  0.00     0.091 C 
ENDROOT
BRANCH   1   7
ATOM      7  O   LIG d   1      -4.448  77.846 115.658  0.00  0.00    -0.368 OA
BRANCH   7   8
ATOM      8  C   LIG d   1      -4.484  77.796 117.106  0.00  0.00     0.119 C 
BRANCH   8   9
ATOM      9  C   LIG d   1      -3.104  78.251 117.619  0.00  0.00     0.028 C 
ATOM     10  C   LIG d   1      -3.186  79.532 118.466  0.00  0.00     0.006 C 
ENDBRANCH   8   9
BRANCH   8  11
ATOM     11  C   LIG d   1      -4.652  76.360 117.610  0.00  0.00     0.028 C 
ATOM     12  C   LIG d   1      -3.587  75.964 118.644  0.00  0.00     0.006 C 
ENDBRANCH   8  11
ENDBRANCH   7   8
ENDBRANCH   1   7
BRANCH   6  13
ATOM     13  N   LIG d   1      -2.390  75.769 114.929  0.00  0.00    -0.311 N 
ATOM     14  C   LIG d   1      -1.288  75.741 115.677  0.00  0.00     0.210 C 
ATOM     15  C   LIG d   1      -1.055  74.431 116.435  0.00  0.00     0.109 C 
ATOM     16  O   LIG d   1      -0.499  76.689 115.809  0.00  0.00    -0.276 OA
ATOM     17  H   LIG d   1      -2.990  74.968 114.904  0.00  0.00     0.149 HD
ENDBRANCH   6  13
BRANCH   5  18
ATOM     18  N   LIG d   1      -1.386  76.329 112.098  0.00  0.00     0.381 N 
ATOM     19  H   LIG d   1      -0.912  76.742 111.320  0.00  0.00    -0.090 HD
ATOM     20  H   LIG d   1      -2.251  75.938 111.770  0.00  0.00    -0.090 HD
ATOM     21  H   LIG d   1      -0.820  75.612 112.498  0.00  0.00    -0.090 HD
ENDBRANCH   5  18
BRANCH   3  22
ATOM     22  C   LIG d   1      -2.406  80.954 112.807  0.00  0.00     0.382 C 
ATOM     23  O   LIG d   1      -3.409  81.692 112.652  0.00  0.00    -0.241 OA
ATOM     24  O   LIG d   1      -1.272  81.397 112.546  0.00  0.00    -0.241 OA
ENDBRANCH   3  22
TORSDOF 7
ENDMDL
